# generated using pymatgen
data_Cu3H9C15N16
_symmetry_space_group_name_H-M   'P 1'
_cell_length_a   26.04360000
_cell_length_b   26.40850000
_cell_length_c   27.62520000
_cell_angle_alpha   91.59330000
_cell_angle_beta   93.23360000
_cell_angle_gamma   90.42070000
_symmetry_Int_Tables_number   1
_chemical_formula_structural   Cu3H9C15N16
_chemical_formula_sum   'Cu12 H36 C60 N64'
_cell_volume   18961.50991902
_cell_formula_units_Z   4
loop_
 _symmetry_equiv_pos_site_id
 _symmetry_equiv_pos_as_xyz
  1  'x, y, z'
loop_
 _atom_site_type_symbol
 _atom_site_label
 _atom_site_symmetry_multiplicity
 _atom_site_fract_x
 _atom_site_fract_y
 _atom_site_fract_z
 _atom_site_occupancy
  Cu  Cu0  1  0.08392000  0.12902000  0.17597000  1.0
  Cu  Cu1  1  0.13491000  0.17190000  0.08379000  1.0
  Cu  Cu2  1  0.17746000  0.07059000  0.13510000  1.0
  Cu  Cu3  1  0.41805000  0.86216000  0.69327000  1.0
  Cu  Cu4  1  0.37027000  0.82575000  0.58987000  1.0
  Cu  Cu5  1  0.33203000  0.92855000  0.64037000  1.0
  Cu  Cu6  1  0.90889000  0.63250000  0.32711000  1.0
  Cu  Cu7  1  0.85460000  0.68179000  0.41628000  1.0
  Cu  Cu8  1  0.80519000  0.58355000  0.36426000  1.0
  Cu  Cu9  1  0.58090000  0.36482000  0.81135000  1.0
  Cu  Cu10  1  0.62959000  0.35002000  0.91776000  1.0
  Cu  Cu11  1  0.69672000  0.39623000  0.83803000  1.0
  H  H12  1  0.00545000  0.21606000  0.19826000  1.0
  H  H13  1  0.06563000  0.27109000  0.06590000  1.0
  H  H14  1  0.18649000  0.97796000  0.20845000  1.0
  H  H15  1  0.05009000  0.05347000  0.25643000  1.0
  H  H16  1  0.21071000  0.17816000  0.99787000  1.0
  H  H17  1  0.26463000  0.04007000  0.06465000  1.0
  H  H18  1  0.49511000  0.77167000  0.71650000  1.0
  H  H19  1  0.43944000  0.72856000  0.56996000  1.0
  H  H20  1  0.32732000  0.02226000  0.71609000  1.0
  H  H21  1  0.44991000  0.93420000  0.78448000  1.0
  H  H22  1  0.29697000  0.82218000  0.49378000  1.0
  H  H23  1  0.24994000  0.96454000  0.55901000  1.0
  H  H24  1  0.00814000  0.70527000  0.32452000  1.0
  H  H25  1  0.93455000  0.76896000  0.44914000  1.0
  H  H26  1  0.78343000  0.49729000  0.28318000  1.0
  H  H27  1  0.92680000  0.55932000  0.23681000  1.0
  H  H28  1  0.77291000  0.70504000  0.49523000  1.0
  H  H29  1  0.71197000  0.56294000  0.43263000  1.0
  H  H30  1  0.48647000  0.28609000  0.81105000  1.0
  H  H31  1  0.54317000  0.28213000  0.96166000  1.0
  H  H32  1  0.72155000  0.46099000  0.74727000  1.0
  H  H33  1  0.55775000  0.43474000  0.71907000  1.0
  H  H34  1  0.70862000  0.35972000  0.01052000  1.0
  H  H35  1  0.80731000  0.39999000  0.89582000  1.0
  H  H36  1  0.95368000  0.31052000  0.06526000  1.0
  H  H37  1  0.55521000  0.70062000  0.57911000  1.0
  H  H38  1  0.03348000  0.82336000  0.33071000  1.0
  H  H39  1  0.47065000  0.17407000  0.84844000  1.0
  H  H40  1  0.17372000  0.96696000  0.32983000  1.0
  H  H41  1  0.57933000  0.54808000  0.69726000  1.0
  H  H42  1  0.32846000  0.04156000  0.83367000  1.0
  H  H43  1  0.93198000  0.45690000  0.19928000  1.0
  H  H44  1  0.32121000  0.17436000  0.97296000  1.0
  H  H45  1  0.69414000  0.56358000  0.54586000  1.0
  H  H46  1  0.78509000  0.40770000  0.06733000  1.0
  H  H47  1  0.17999000  0.83473000  0.46536000  1.0
  C  C48  1  0.02589000  0.22194000  0.16573000  1.0
  C  C49  1  0.02173000  0.26134000  0.13309000  1.0
  C  C50  1  0.05659000  0.25028000  0.09768000  1.0
  C  C51  1  0.15462000  0.00316000  0.21441000  1.0
  C  C52  1  0.11554000  0.99987000  0.24688000  1.0
  C  C53  1  0.08449000  0.04200000  0.23882000  1.0
  C  C54  1  0.21774000  0.14576000  0.02054000  1.0
  C  C55  1  0.25323000  0.10664000  0.01638000  1.0
  C  C56  1  0.24521000  0.07481000  0.05487000  1.0
  C  C57  1  0.47559000  0.76847000  0.68082000  1.0
  C  C58  1  0.48142000  0.73253000  0.64353000  1.0
  C  C59  1  0.44719000  0.74640000  0.60550000  1.0
  C  C60  1  0.35558000  0.99402000  0.72652000  1.0
  C  C61  1  0.39166000  0.99399000  0.76596000  1.0
  C  C62  1  0.41866000  0.94876000  0.76142000  1.0
  C  C63  1  0.29145000  0.85543000  0.51678000  1.0
  C  C64  1  0.25865000  0.89651000  0.50959000  1.0
  C  C65  1  0.26755000  0.92860000  0.55030000  1.0
  C  C66  1  0.98302000  0.71462000  0.35341000  1.0
  C  C67  1  0.98840000  0.75204000  0.39017000  1.0
  C  C68  1  0.94526000  0.74714000  0.41752000  1.0
  C  C69  1  0.81862000  0.51847000  0.27895000  1.0
  C  C70  1  0.85478000  0.51305000  0.24374000  1.0
  C  C71  1  0.89232000  0.55019000  0.25514000  1.0
  C  C72  1  0.76517000  0.67036000  0.47406000  1.0
  C  C73  1  0.72639000  0.63422000  0.47823000  1.0
  C  C74  1  0.73381000  0.59725000  0.44219000  1.0
  C  C75  1  0.50711000  0.29116000  0.84607000  1.0
  C  C76  1  0.49819000  0.26953000  0.89049000  1.0
  C  C77  1  0.53627000  0.28941000  0.92342000  1.0
  C  C78  1  0.68173000  0.44873000  0.74731000  1.0
  C  C79  1  0.63966000  0.46217000  0.71691000  1.0
  C  C80  1  0.59757000  0.43546000  0.73291000  1.0
  C  C81  1  0.72505000  0.36954000  0.97677000  1.0
  C  C82  1  0.77591000  0.38116000  0.96735000  1.0
  C  C83  1  0.77571000  0.38996000  0.91770000  1.0
  C  C84  1  0.93219000  0.36161000  0.12794000  1.0
  C  C85  1  0.95699000  0.32377000  0.10265000  1.0
  C  C86  1  0.57296000  0.63553000  0.62890000  1.0
  C  C87  1  0.54895000  0.67825000  0.61034000  1.0
  C  C88  1  0.08677000  0.84566000  0.39547000  1.0
  C  C89  1  0.04892000  0.81938000  0.36746000  1.0
  C  C90  1  0.41009000  0.16876000  0.90381000  1.0
  C  C91  1  0.44893000  0.18906000  0.87767000  1.0
  C  C92  1  0.10860000  0.91195000  0.34095000  1.0
  C  C93  1  0.13752000  0.94850000  0.31934000  1.0
  C  C94  1  0.62780000  0.56127000  0.63325000  1.0
  C  C95  1  0.60894000  0.53786000  0.67313000  1.0
  C  C96  1  0.39810000  0.08890000  0.85948000  1.0
  C  C97  1  0.36792000  0.05403000  0.83209000  1.0
  C  C98  1  0.86949000  0.42572000  0.14617000  1.0
  C  C99  1  0.89282000  0.45414000  0.18430000  1.0
  C  C100  1  0.34657000  0.10730000  0.92784000  1.0
  C  C101  1  0.31925000  0.13511000  0.96097000  1.0
  C  C102  1  0.63877000  0.62322000  0.57104000  1.0
  C  C103  1  0.67553000  0.59985000  0.54367000  1.0
  C  C104  1  0.86884000  0.38663000  0.06570000  1.0
  C  C105  1  0.81832000  0.39437000  0.04923000  1.0
  C  C106  1  0.16174000  0.89884000  0.41449000  1.0
  C  C107  1  0.18694000  0.87143000  0.45063000  1.0
  N  N108  1  0.61214000  0.60575000  0.61022000  1.0
  N  N109  1  0.89195000  0.39330000  0.11246000  1.0
  N  N110  1  0.38435000  0.12227000  0.89690000  1.0
  N  N111  1  0.11973000  0.88477000  0.38297000  1.0
  N  N112  1  0.08035000  0.20644000  0.10873000  1.0
  N  N113  1  0.06142000  0.18917000  0.15068000  1.0
  N  N114  1  0.10393000  0.06906000  0.20343000  1.0
  N  N115  1  0.14720000  0.04522000  0.18836000  1.0
  N  N116  1  0.20693000  0.09391000  0.08060000  1.0
  N  N117  1  0.19003000  0.13773000  0.05955000  1.0
  N  N118  1  0.42228000  0.78852000  0.61937000  1.0
  N  N119  1  0.43975000  0.80205000  0.66582000  1.0
  N  N120  1  0.39967000  0.92309000  0.72143000  1.0
  N  N121  1  0.36073000  0.95091000  0.69991000  1.0
  N  N122  1  0.30370000  0.90776000  0.58023000  1.0
  N  N123  1  0.31837000  0.86256000  0.55965000  1.0
  N  N124  1  0.91574000  0.70879000  0.39815000  1.0
  N  N125  1  0.93887000  0.68876000  0.35856000  1.0
  N  N126  1  0.87937000  0.57632000  0.29525000  1.0
  N  N127  1  0.83391000  0.55684000  0.30979000  1.0
  N  N128  1  0.77518000  0.61058000  0.41795000  1.0
  N  N129  1  0.79437000  0.65568000  0.43757000  1.0
  N  N130  1  0.56631000  0.32125000  0.89995000  1.0
  N  N131  1  0.54843000  0.32228000  0.85221000  1.0
  N  N132  1  0.61367000  0.40782000  0.77116000  1.0
  N  N133  1  0.66560000  0.41598000  0.77994000  1.0
  N  N134  1  0.72718000  0.38387000  0.89851000  1.0
  N  N135  1  0.69591000  0.37150000  0.93489000  1.0
  N  N136  1  0.98577000  0.32735000  0.18102000  1.0
  N  N137  1  0.95105000  0.36284000  0.17513000  1.0
  N  N138  1  0.98944000  0.30331000  0.13730000  1.0
  N  N139  1  0.51708000  0.65873000  0.68152000  1.0
  N  N140  1  0.55238000  0.62513000  0.67207000  1.0
  N  N141  1  0.51491000  0.69113000  0.64421000  1.0
  N  N142  1  0.05310000  0.79204000  0.44397000  1.0
  N  N143  1  0.08801000  0.82787000  0.44153000  1.0
  N  N144  1  0.02901000  0.78686000  0.39914000  1.0
  N  N145  1  0.42938000  0.24247000  0.93860000  1.0
  N  N146  1  0.39927000  0.20236000  0.94030000  1.0
  N  N147  1  0.45954000  0.23463000  0.90065000  1.0
  N  N148  1  0.06191000  0.93536000  0.27724000  1.0
  N  N149  1  0.06317000  0.90511000  0.31420000  1.0
  N  N150  1  0.10692000  0.96185000  0.28013000  1.0
  N  N151  1  0.67601000  0.49463000  0.64571000  1.0
  N  N152  1  0.66835000  0.53363000  0.61777000  1.0
  N  N153  1  0.64007000  0.49691000  0.67933000  1.0
  N  N154  1  0.44939000  0.05281000  0.80918000  1.0
  N  N155  1  0.44718000  0.08673000  0.84457000  1.0
  N  N156  1  0.40129000  0.03229000  0.80169000  1.0
  N  N157  1  0.80734000  0.46618000  0.18017000  1.0
  N  N158  1  0.81763000  0.43374000  0.14522000  1.0
  N  N159  1  0.85290000  0.47835000  0.20440000  1.0
  N  N160  1  0.29628000  0.05275000  0.96055000  1.0
  N  N161  1  0.33150000  0.05763000  0.92883000  1.0
  N  N162  1  0.28880000  0.09955000  0.98056000  1.0
  N  N163  1  0.66107000  0.67914000  0.51879000  1.0
  N  N164  1  0.63118000  0.67111000  0.55450000  1.0
  N  N165  1  0.68821000  0.63612000  0.51207000  1.0
  N  N166  1  0.86557000  0.36738000  0.98807000  1.0
  N  N167  1  0.89628000  0.37046000  0.02746000  1.0
  N  N168  1  0.81830000  0.38242000  0.00090000  1.0
  N  N169  1  0.22198000  0.94922000  0.44716000  1.0
  N  N170  1  0.18421000  0.94572000  0.41362000  1.0
  N  N171  1  0.22364000  0.90428000  0.47002000  1.0
