# generated using pymatgen
data_NiH8C4O7
_symmetry_space_group_name_H-M   'P 1'
_cell_length_a   5.73145000
_cell_length_b   7.83901751
_cell_length_c   8.81399000
_cell_angle_alpha   89.99941508
_cell_angle_beta   89.99920000
_cell_angle_gamma   76.75598138
_symmetry_Int_Tables_number   1
_chemical_formula_structural   NiH8C4O7
_chemical_formula_sum   'Ni2 H16 C8 O14'
_cell_volume   385.47077500
_cell_formula_units_Z   2
loop_
 _symmetry_equiv_pos_site_id
 _symmetry_equiv_pos_as_xyz
  1  'x, y, z'
loop_
 _atom_site_type_symbol
 _atom_site_label
 _atom_site_symmetry_multiplicity
 _atom_site_fract_x
 _atom_site_fract_y
 _atom_site_fract_z
 _atom_site_occupancy
  Ni  Ni0  1  0.30746000  0.64438000  0.14909000  1.0
  Ni  Ni1  1  0.69255000  0.35562000  0.64909000  1.0
  H  H2  1  0.23912000  0.08739000  0.35174000  1.0
  H  H3  1  0.76088000  0.91261000  0.85173000  1.0
  H  H4  1  0.96760000  0.91131000  0.26543000  1.0
  H  H5  1  0.03240000  0.08869000  0.76543000  1.0
  H  H6  1  0.35518000  0.91453000  0.57661000  1.0
  H  H7  1  0.64480000  0.08547000  0.07660000  1.0
  H  H8  1  0.07439000  0.87870000  0.52173000  1.0
  H  H9  1  0.92559000  0.12129000  0.02174000  1.0
  H  H10  1  0.98619000  0.53917000  0.00092000  1.0
  H  H11  1  0.01382000  0.46080000  0.50090000  1.0
  H  H12  1  0.85399000  0.63157000  0.14396000  1.0
  H  H13  1  0.14602000  0.36843000  0.64394000  1.0
  H  H14  1  0.31241000  0.83268000  0.90137000  1.0
  H  H15  1  0.68759000  0.16733000  0.40136000  1.0
  H  H16  1  0.42780000  0.62916000  0.87703000  1.0
  H  H17  1  0.57221000  0.37084000  0.37703000  1.0
  C  C18  1  0.54558000  0.88617000  0.28284000  1.0
  C  C19  1  0.45444000  0.11384000  0.78283000  1.0
  C  C20  1  0.28604000  0.94407000  0.33657000  1.0
  C  C21  1  0.71396000  0.05593000  0.83657000  1.0
  C  C22  1  0.26463000  0.85447000  0.48943000  1.0
  C  C23  1  0.73537000  0.14552000  0.98943000  1.0
  C  C24  1  0.37175000  0.65826000  0.48985000  1.0
  C  C25  1  0.62824000  0.34175000  0.98986000  1.0
  O  O26  1  0.70230000  0.95823000  0.33858000  1.0
  O  O27  1  0.29768000  0.04176000  0.83858000  1.0
  O  O28  1  0.59169000  0.75998000  0.18765000  1.0
  O  O29  1  0.40832000  0.24002000  0.68765000  1.0
  O  O30  1  0.13554000  0.89499000  0.22215000  1.0
  O  O31  1  0.86446000  0.10502000  0.72215000  1.0
  O  O32  1  0.49402000  0.59875000  0.60590000  1.0
  O  O33  1  0.50600000  0.40124000  0.10590000  1.0
  O  O34  1  0.33557000  0.56345000  0.37701000  1.0
  O  O35  1  0.66445000  0.43655000  0.87701000  1.0
  O  O36  1  0.00576000  0.54945000  0.11047000  1.0
  O  O37  1  0.99424000  0.45055000  0.61045000  1.0
  O  O38  1  0.28972000  0.71328000  0.92360000  1.0
  O  O39  1  0.71028000  0.28673000  0.42360000  1.0
