# generated using pymatgen
data_CuH9C8(NO2)2
_symmetry_space_group_name_H-M   'P 1'
_cell_length_a   7.26010000
_cell_length_b   8.04876000
_cell_length_c   10.91060000
_cell_angle_alpha   77.10430000
_cell_angle_beta   81.96510000
_cell_angle_gamma   64.25350000
_symmetry_Int_Tables_number   1
_chemical_formula_structural   CuH9C8(NO2)2
_chemical_formula_sum   'Cu2 H18 C16 N4 O8'
_cell_volume   559.11439558
_cell_formula_units_Z   2
loop_
 _symmetry_equiv_pos_site_id
 _symmetry_equiv_pos_as_xyz
  1  'x, y, z'
loop_
 _atom_site_type_symbol
 _atom_site_label
 _atom_site_symmetry_multiplicity
 _atom_site_fract_x
 _atom_site_fract_y
 _atom_site_fract_z
 _atom_site_occupancy
  Cu  Cu0  1  0.08227000  0.49547000  0.10024000  1.0
  Cu  Cu1  1  0.91773000  0.50455000  0.89976000  1.0
  H  H2  1  0.51411000  0.41373000  0.14864000  1.0
  H  H3  1  0.48589000  0.58622000  0.85137000  1.0
  H  H4  1  0.71646000  0.41720000  0.31524000  1.0
  H  H5  1  0.28355000  0.58272000  0.68478000  1.0
  H  H6  1  0.15011000  0.54140000  0.54690000  1.0
  H  H7  1  0.84982000  0.45873000  0.45308000  1.0
  H  H8  1  0.97278000  0.92940000  0.13269000  1.0
  H  H9  1  0.02726000  0.07058000  0.86733000  1.0
  H  H10  1  0.72674000  0.08021000  0.18145000  1.0
  H  H11  1  0.27330000  0.91975000  0.81856000  1.0
  H  H12  1  0.93595000  0.00237000  0.28146000  1.0
  H  H13  1  0.06408000  0.99767000  0.71854000  1.0
  H  H14  1  0.32296000  0.85613000  0.08638000  1.0
  H  H15  1  0.67706000  0.14387000  0.91365000  1.0
  H  H16  1  0.43935000  0.00016000  0.11154000  1.0
  H  H17  1  0.56064000  0.99984000  0.88846000  1.0
  H  H18  1  0.42567000  0.82223000  0.23535000  1.0
  H  H19  1  0.57435000  0.17773000  0.76468000  1.0
  C  C20  1  0.44519000  0.44211000  0.24132000  1.0
  C  C21  1  0.55482000  0.55785000  0.75869000  1.0
  C  C22  1  0.55551000  0.44516000  0.33493000  1.0
  C  C23  1  0.44450000  0.55481000  0.66508000  1.0
  C  C24  1  0.45122000  0.49061000  0.44860000  1.0
  C  C25  1  0.54875000  0.50941000  0.55140000  1.0
  C  C26  1  0.24459000  0.51707000  0.45994000  1.0
  C  C27  1  0.75535000  0.48301000  0.54005000  1.0
  C  C28  1  0.93144000  0.21379000  0.11785000  1.0
  C  C29  1  0.06859000  0.78620000  0.88214000  1.0
  C  C30  1  0.89004000  0.04585000  0.18399000  1.0
  C  C31  1  0.11000000  0.95414000  0.81601000  1.0
  C  C32  1  0.65201000  0.72337000  0.08666000  1.0
  C  C33  1  0.34798000  0.27663000  0.91333000  1.0
  C  C34  1  0.44590000  0.85783000  0.13304000  1.0
  C  C35  1  0.55412000  0.14216000  0.86698000  1.0
  N  N36  1  0.24636000  0.47729000  0.25708000  1.0
  N  N37  1  0.75364000  0.52272000  0.74292000  1.0
  N  N38  1  0.14648000  0.51030000  0.36768000  1.0
  N  N39  1  0.85348000  0.48977000  0.63230000  1.0
  O  O40  1  0.01537000  0.27609000  0.18041000  1.0
  O  O41  1  0.98461000  0.72395000  0.81957000  1.0
  O  O42  1  0.87693000  0.28017000  0.00450000  1.0
  O  O43  1  0.12307000  0.71982000  0.99549000  1.0
  O  O44  1  0.80202000  0.66846000  0.15612000  1.0
  O  O45  1  0.19793000  0.33159000  0.84388000  1.0
  O  O46  1  0.65824000  0.67801000  0.98074000  1.0
  O  O47  1  0.34179000  0.32195000  0.01925000  1.0
