# generated using pymatgen
data_ZnH12C18(N3O2)2
_symmetry_space_group_name_H-M   'P 1'
_cell_length_a   7.57812000
_cell_length_b   9.07367000
_cell_length_c   15.48450000
_cell_angle_alpha   89.52430000
_cell_angle_beta   83.27310000
_cell_angle_gamma   84.11730000
_symmetry_Int_Tables_number   1
_chemical_formula_structural   ZnH12C18(N3O2)2
_chemical_formula_sum   'Zn2 H24 C36 N12 O8'
_cell_volume   1051.82950260
_cell_formula_units_Z   2
loop_
 _symmetry_equiv_pos_site_id
 _symmetry_equiv_pos_as_xyz
  1  'x, y, z'
loop_
 _atom_site_type_symbol
 _atom_site_label
 _atom_site_symmetry_multiplicity
 _atom_site_fract_x
 _atom_site_fract_y
 _atom_site_fract_z
 _atom_site_occupancy
  Zn  Zn0  1  0.08863000  0.36829000  0.24274000  1.0
  Zn  Zn1  1  0.91138000  0.63171000  0.75726000  1.0
  H  H2  1  0.10880000  0.74061000  0.95461000  1.0
  H  H3  1  0.89118000  0.25938000  0.04539000  1.0
  H  H4  1  0.84633000  0.05824000  0.14804000  1.0
  H  H5  1  0.15366000  0.94175000  0.85196000  1.0
  H  H6  1  0.17202000  0.60523000  0.08425000  1.0
  H  H7  1  0.82798000  0.39477000  0.91576000  1.0
  H  H8  1  0.70172000  0.85581000  0.19838000  1.0
  H  H9  1  0.29827000  0.14419000  0.80162000  1.0
  H  H10  1  0.43130000  0.96273000  0.34866000  1.0
  H  H11  1  0.56872000  0.03727000  0.65135000  1.0
  H  H12  1  0.71209000  0.17974000  0.53062000  1.0
  H  H13  1  0.28793000  0.82026000  0.46938000  1.0
  H  H14  1  0.92635000  0.19503000  0.40892000  1.0
  H  H15  1  0.07366000  0.80498000  0.59108000  1.0
  H  H16  1  0.47769000  0.17499000  0.26861000  1.0
  H  H17  1  0.52232000  0.82501000  0.73139000  1.0
  H  H18  1  0.41635000  0.27071000  0.98503000  1.0
  H  H19  1  0.58363000  0.72926000  0.01497000  1.0
  H  H20  1  0.60351000  0.12484000  0.86255000  1.0
  H  H21  1  0.39645000  0.87513000  0.13745000  1.0
  H  H22  1  0.23797000  0.38210000  0.57059000  1.0
  H  H23  1  0.76205000  0.61792000  0.42939000  1.0
  H  H24  1  0.45894000  0.47073000  0.66084000  1.0
  H  H25  1  0.54108000  0.52929000  0.33914000  1.0
  C  C26  1  0.97481000  0.88625000  0.05858000  1.0
  C  C27  1  0.02518000  0.11374000  0.94143000  1.0
  C  C28  1  0.06347000  0.85377000  0.97571000  1.0
  C  C29  1  0.93651000  0.14622000  0.02429000  1.0
  C  C30  1  0.91146000  0.03157000  0.08292000  1.0
  C  C31  1  0.08853000  0.96842000  0.91708000  1.0
  C  C32  1  0.05031000  0.63997000  0.12618000  1.0
  C  C33  1  0.94968000  0.36003000  0.87383000  1.0
  C  C34  1  0.81021000  0.76821000  0.18673000  1.0
  C  C35  1  0.18978000  0.23179000  0.81328000  1.0
  C  C36  1  0.58332000  0.07703000  0.43247000  1.0
  C  C37  1  0.41669000  0.92297000  0.56753000  1.0
  C  C38  1  0.46137000  0.97899000  0.41486000  1.0
  C  C39  1  0.53865000  0.02102000  0.58514000  1.0
  C  C40  1  0.62179000  0.09906000  0.51718000  1.0
  C  C41  1  0.37823000  0.90094000  0.48282000  1.0
  C  C42  1  0.83508000  0.20486000  0.35951000  1.0
  C  C43  1  0.16493000  0.79514000  0.64049000  1.0
  C  C44  1  0.60837000  0.19679000  0.28518000  1.0
  C  C45  1  0.39164000  0.80321000  0.71482000  1.0
  C  C46  1  0.39652000  0.08058000  0.06813000  1.0
  C  C47  1  0.60344000  0.91940000  0.93187000  1.0
  C  C48  1  0.45378000  0.15210000  0.99083000  1.0
  C  C49  1  0.54618000  0.84788000  0.00917000  1.0
  C  C50  1  0.55649000  0.07188000  0.92325000  1.0
  C  C51  1  0.44347000  0.92810000  0.07675000  1.0
  C  C52  1  0.28661000  0.16420000  0.14210000  1.0
  C  C53  1  0.71338000  0.83578000  0.85789000  1.0
  C  C54  1  0.37556000  0.45049000  0.44963000  1.0
  C  C55  1  0.62446000  0.54954000  0.55036000  1.0
  C  C56  1  0.35308000  0.43407000  0.54028000  1.0
  C  C57  1  0.64694000  0.56595000  0.45970000  1.0
  C  C58  1  0.47676000  0.48290000  0.59039000  1.0
  C  C59  1  0.52326000  0.51712000  0.40959000  1.0
  C  C60  1  0.24414000  0.39184000  0.39668000  1.0
  C  C61  1  0.75588000  0.60819000  0.60330000  1.0
  N  N62  1  0.98015000  0.56443000  0.19253000  1.0
  N  N63  1  0.01985000  0.43557000  0.80749000  1.0
  N  N64  1  0.82792000  0.64470000  0.23124000  1.0
  N  N65  1  0.17207000  0.35530000  0.76877000  1.0
  N  N66  1  0.94678000  0.77087000  0.11975000  1.0
  N  N67  1  0.05321000  0.22913000  0.88026000  1.0
  N  N68  1  0.86940000  0.27124000  0.28418000  1.0
  N  N69  1  0.13061000  0.72876000  0.71582000  1.0
  N  N70  1  0.72707000  0.26694000  0.23646000  1.0
  N  N71  1  0.27294000  0.73306000  0.76354000  1.0
  N  N72  1  0.67096000  0.15515000  0.36278000  1.0
  N  N73  1  0.32905000  0.84486000  0.63722000  1.0
  O  O74  1  0.26344000  0.10363000  0.21554000  1.0
  O  O75  1  0.73655000  0.89635000  0.78447000  1.0
  O  O76  1  0.22058000  0.29775000  0.12668000  1.0
  O  O77  1  0.77941000  0.70224000  0.87332000  1.0
  O  O78  1  0.25224000  0.43869000  0.31652000  1.0
  O  O79  1  0.74777000  0.56132000  0.68347000  1.0
  O  O80  1  0.14034000  0.30285000  0.42964000  1.0
  O  O81  1  0.85968000  0.69715000  0.57036000  1.0
