# generated using pymatgen
data_Cu2H10C13(IN2)2
_symmetry_space_group_name_H-M   'P 1'
_cell_length_a   4.03614000
_cell_length_b   8.68588000
_cell_length_c   21.87480000
_cell_angle_alpha   90.30390000
_cell_angle_beta   90.00010000
_cell_angle_gamma   89.99970000
_symmetry_Int_Tables_number   1
_chemical_formula_structural   Cu2H10C13(IN2)2
_chemical_formula_sum   'Cu4 H20 C26 I4 N8'
_cell_volume   766.86343230
_cell_formula_units_Z   2
loop_
 _symmetry_equiv_pos_site_id
 _symmetry_equiv_pos_as_xyz
  1  'x, y, z'
loop_
 _atom_site_type_symbol
 _atom_site_label
 _atom_site_symmetry_multiplicity
 _atom_site_fract_x
 _atom_site_fract_y
 _atom_site_fract_z
 _atom_site_occupancy
  Cu  Cu0  1  0.21677000  0.40579000  0.84135000  1.0
  Cu  Cu1  1  0.71678000  0.59421000  0.15865000  1.0
  Cu  Cu2  1  0.62768000  0.02705000  0.54037000  1.0
  Cu  Cu3  1  0.12769000  0.97295000  0.45964000  1.0
  H  H4  1  0.72704000  0.78716000  0.67788000  1.0
  H  H5  1  0.22705000  0.21283000  0.32212000  1.0
  H  H6  1  0.55135000  0.93375000  0.78418000  1.0
  H  H7  1  0.05135000  0.06625000  0.21582000  1.0
  H  H8  1  0.22031000  0.97968000  0.86508000  1.0
  H  H9  1  0.72032000  0.02032000  0.13491000  1.0
  H  H10  1  0.95259000  0.99573000  0.96688000  1.0
  H  H11  1  0.45259000  0.00428000  0.03311000  1.0
  H  H12  1  0.80165000  0.74917000  0.02198000  1.0
  H  H13  1  0.30163000  0.25085000  0.97802000  1.0
  H  H14  1  0.91561000  0.49807000  0.96842000  1.0
  H  H15  1  0.41560000  0.50194000  0.03159000  1.0
  H  H16  1  0.24088000  0.28838000  0.73679000  1.0
  H  H17  1  0.74091000  0.71162000  0.26321000  1.0
  H  H18  1  0.31637000  0.07543000  0.66187000  1.0
  H  H19  1  0.81641000  0.92457000  0.33813000  1.0
  H  H20  1  0.83719000  0.35543000  0.54305000  1.0
  H  H21  1  0.33722000  0.64456000  0.45695000  1.0
  H  H22  1  0.78644000  0.58042000  0.61213000  1.0
  H  H23  1  0.28646000  0.41957000  0.38787000  1.0
  C  C24  1  0.48363000  0.58424000  0.72412000  1.0
  C  C25  1  0.98364000  0.41576000  0.27588000  1.0
  C  C26  1  0.59705000  0.73862000  0.71675000  1.0
  C  C27  1  0.09705000  0.26138000  0.28325000  1.0
  C  C28  1  0.50961000  0.81559000  0.76945000  1.0
  C  C29  1  0.00961000  0.18440000  0.23055000  1.0
  C  C30  1  0.21298000  0.72986000  0.86459000  1.0
  C  C31  1  0.71298000  0.27013000  0.13541000  1.0
  C  C32  1  0.15583000  0.87531000  0.88975000  1.0
  C  C33  1  0.65583000  0.12469000  0.11024000  1.0
  C  C34  1  0.00627000  0.88325000  0.94693000  1.0
  C  C35  1  0.50627000  0.11676000  0.05307000  1.0
  C  C36  1  0.91755000  0.74738000  0.97695000  1.0
  C  C37  1  0.41754000  0.25263000  0.02305000  1.0
  C  C38  1  0.98367000  0.60795000  0.94803000  1.0
  C  C39  1  0.48366000  0.39205000  0.05197000  1.0
  C  C40  1  0.51211000  0.45468000  0.68181000  1.0
  C  C41  1  0.01213000  0.54532000  0.31819000  1.0
  C  C42  1  0.37870000  0.30881000  0.69473000  1.0
  C  C43  1  0.87872000  0.69119000  0.30527000  1.0
  C  C44  1  0.42057000  0.18926000  0.65324000  1.0
  C  C45  1  0.92061000  0.81073000  0.34676000  1.0
  C  C46  1  0.70893000  0.34526000  0.58677000  1.0
  C  C47  1  0.20896000  0.65474000  0.41323000  1.0
  C  C48  1  0.67829000  0.47087000  0.62578000  1.0
  C  C49  1  0.17832000  0.52913000  0.37422000  1.0
  I  I50  1  0.71849000  0.22920000  0.85346000  1.0
  I  I51  1  0.21849000  0.77080000  0.14654000  1.0
  I  I52  1  0.62567000  0.15958000  0.43276000  1.0
  I  I53  1  0.12566000  0.84041000  0.56725000  1.0
  N  N54  1  0.33415000  0.56921000  0.77897000  1.0
  N  N55  1  0.83416000  0.43079000  0.22103000  1.0
  N  N56  1  0.35228000  0.71054000  0.80621000  1.0
  N  N57  1  0.85229000  0.28945000  0.19378000  1.0
  N  N58  1  0.13306000  0.59793000  0.89306000  1.0
  N  N59  1  0.63306000  0.40208000  0.10694000  1.0
  N  N60  1  0.58403000  0.20488000  0.59972000  1.0
  N  N61  1  0.08406000  0.79511000  0.40028000  1.0
