# generated using pymatgen
data_ZnH12C15NO5
_symmetry_space_group_name_H-M   'P 1'
_cell_length_a   10.45130000
_cell_length_b   12.39230000
_cell_length_c   12.39240000
_cell_angle_alpha   74.52200000
_cell_angle_beta   87.34320000
_cell_angle_gamma   87.34360000
_symmetry_Int_Tables_number   1
_chemical_formula_structural   ZnH12C15NO5
_chemical_formula_sum   'Zn4 H48 C60 N4 O20'
_cell_volume   1544.17555344
_cell_formula_units_Z   4
loop_
 _symmetry_equiv_pos_site_id
 _symmetry_equiv_pos_as_xyz
  1  'x, y, z'
loop_
 _atom_site_type_symbol
 _atom_site_label
 _atom_site_symmetry_multiplicity
 _atom_site_fract_x
 _atom_site_fract_y
 _atom_site_fract_z
 _atom_site_occupancy
  Zn  Zn0  1  0.09591000  0.41984000  0.97746000  1.0
  Zn  Zn1  1  0.40408000  0.02255000  0.58015000  1.0
  Zn  Zn2  1  0.90409000  0.58015000  0.02255000  1.0
  Zn  Zn3  1  0.59590000  0.97745000  0.41984000  1.0
  H  H4  1  0.22913000  0.60204000  0.64339000  1.0
  H  H5  1  0.27192000  0.73512000  0.45940000  1.0
  H  H6  1  0.91695000  0.91756000  0.49887000  1.0
  H  H7  1  0.87937000  0.78570000  0.68566000  1.0
  H  H8  1  0.25431000  0.83481000  0.28656000  1.0
  H  H9  1  0.21611000  0.97929000  0.22600000  1.0
  H  H10  1  0.25387000  0.33916000  0.80604000  1.0
  H  H11  1  0.42649000  0.18974000  0.80684000  1.0
  H  H12  1  0.44315000  0.14024000  0.16439000  1.0
  H  H13  1  0.26899000  0.28976000  0.14895000  1.0
  H  H14  1  0.59709000  0.06742000  0.91477000  1.0
  H  H15  1  0.60091000  0.04251000  0.06340000  1.0
  H  H16  1  0.27085000  0.35664000  0.39795000  1.0
  H  H17  1  0.22809000  0.54063000  0.26487000  1.0
  H  H18  1  0.58305000  0.50113000  0.08242000  1.0
  H  H19  1  0.62061000  0.31434000  0.21430000  1.0
  H  H20  1  0.24570000  0.71347000  0.16517000  1.0
  H  H21  1  0.28388000  0.77402000  0.02069000  1.0
  H  H22  1  0.24613000  0.19397000  0.66084000  1.0
  H  H23  1  0.07352000  0.19316000  0.81027000  1.0
  H  H24  1  0.05686000  0.83561000  0.85976000  1.0
  H  H25  1  0.23102000  0.85106000  0.71023000  1.0
  H  H26  1  0.90292000  0.08523000  0.93257000  1.0
  H  H27  1  0.89911000  0.93660000  0.95748000  1.0
  H  H28  1  0.77085000  0.39794000  0.35663000  1.0
  H  H29  1  0.72809000  0.26486000  0.54061000  1.0
  H  H30  1  0.08306000  0.08243000  0.50112000  1.0
  H  H31  1  0.12062000  0.21430000  0.31433000  1.0
  H  H32  1  0.74570000  0.16518000  0.71345000  1.0
  H  H33  1  0.78389000  0.02069000  0.77401000  1.0
  H  H34  1  0.74614000  0.66084000  0.19396000  1.0
  H  H35  1  0.57352000  0.81027000  0.19316000  1.0
  H  H36  1  0.55685000  0.85976000  0.83561000  1.0
  H  H37  1  0.73102000  0.71023000  0.85105000  1.0
  H  H38  1  0.40293000  0.93258000  0.08523000  1.0
  H  H39  1  0.39911000  0.95748000  0.93660000  1.0
  H  H40  1  0.72913000  0.64339000  0.60205000  1.0
  H  H41  1  0.77191000  0.45939000  0.73512000  1.0
  H  H42  1  0.41695000  0.49886000  0.91758000  1.0
  H  H43  1  0.37937000  0.68566000  0.78571000  1.0
  H  H44  1  0.75430000  0.28655000  0.83482000  1.0
  H  H45  1  0.71611000  0.22599000  0.97930000  1.0
  H  H46  1  0.75387000  0.80603000  0.33916000  1.0
  H  H47  1  0.92648000  0.80684000  0.18974000  1.0
  H  H48  1  0.94314000  0.16440000  0.14024000  1.0
  H  H49  1  0.76898000  0.14895000  0.28977000  1.0
  H  H50  1  0.09708000  0.91477000  0.06743000  1.0
  H  H51  1  0.10090000  0.06340000  0.04252000  1.0
  C  C52  1  0.03125000  0.60862000  0.79089000  1.0
  C  C53  1  0.05115000  0.68418000  0.67644000  1.0
  C  C54  1  0.16031000  0.67053000  0.61066000  1.0
  C  C55  1  0.18371000  0.74542000  0.50650000  1.0
  C  C56  1  0.09530000  0.83424000  0.46605000  1.0
  C  C57  1  0.98422000  0.84756000  0.53008000  1.0
  C  C58  1  0.96375000  0.77372000  0.63463000  1.0
  C  C59  1  0.22871000  0.91520000  0.30570000  1.0
  C  C60  1  0.33912000  0.94877000  0.36579000  1.0
  C  C61  1  0.29749000  0.29109000  0.88334000  1.0
  C  C62  1  0.39271000  0.20905000  0.88447000  1.0
  C  C63  1  0.44480000  0.15081000  0.98662000  1.0
  C  C64  1  0.40210000  0.18090000  0.08356000  1.0
  C  C65  1  0.30630000  0.26378000  0.07585000  1.0
  C  C66  1  0.53757000  0.05404000  0.99241000  1.0
  C  C67  1  0.46872000  0.20912000  0.39138000  1.0
  C  C68  1  0.44884000  0.32357000  0.31582000  1.0
  C  C69  1  0.33969000  0.38936000  0.32948000  1.0
  C  C70  1  0.31630000  0.49353000  0.25458000  1.0
  C  C71  1  0.40471000  0.53397000  0.16576000  1.0
  C  C72  1  0.51577000  0.46993000  0.15243000  1.0
  C  C73  1  0.53624000  0.36539000  0.22628000  1.0
  C  C74  1  0.27129000  0.69432000  0.08479000  1.0
  C  C75  1  0.16089000  0.63420000  0.05123000  1.0
  C  C76  1  0.20252000  0.11666000  0.70891000  1.0
  C  C77  1  0.10731000  0.11553000  0.79095000  1.0
  C  C78  1  0.05522000  0.01338000  0.84919000  1.0
  C  C79  1  0.09791000  0.91644000  0.81910000  1.0
  C  C80  1  0.19371000  0.92415000  0.73621000  1.0
  C  C81  1  0.96245000  0.00758000  0.94596000  1.0
  C  C82  1  0.96872000  0.39139000  0.20912000  1.0
  C  C83  1  0.94884000  0.31582000  0.32357000  1.0
  C  C84  1  0.83969000  0.32947000  0.38935000  1.0
  C  C85  1  0.81630000  0.25457000  0.49351000  1.0
  C  C86  1  0.90471000  0.16576000  0.53395000  1.0
  C  C87  1  0.01578000  0.15244000  0.46992000  1.0
  C  C88  1  0.03625000  0.22628000  0.36538000  1.0
  C  C89  1  0.77130000  0.08479000  0.69431000  1.0
  C  C90  1  0.66089000  0.05123000  0.63419000  1.0
  C  C91  1  0.70252000  0.70891000  0.11666000  1.0
  C  C92  1  0.60730000  0.79094000  0.11552000  1.0
  C  C93  1  0.55522000  0.84918000  0.01337000  1.0
  C  C94  1  0.59791000  0.81909000  0.91644000  1.0
  C  C95  1  0.69371000  0.73621000  0.92414000  1.0
  C  C96  1  0.46245000  0.94596000  0.00758000  1.0
  C  C97  1  0.53125000  0.79088000  0.60861000  1.0
  C  C98  1  0.55114000  0.67643000  0.68418000  1.0
  C  C99  1  0.66030000  0.61066000  0.67053000  1.0
  C  C100  1  0.68370000  0.50649000  0.74542000  1.0
  C  C101  1  0.59529000  0.46604000  0.83424000  1.0
  C  C102  1  0.48422000  0.53008000  0.84757000  1.0
  C  C103  1  0.46374000  0.63462000  0.77373000  1.0
  C  C104  1  0.72871000  0.30569000  0.91521000  1.0
  C  C105  1  0.83911000  0.36579000  0.94878000  1.0
  C  C106  1  0.79748000  0.88335000  0.29109000  1.0
  C  C107  1  0.89269000  0.88448000  0.20906000  1.0
  C  C108  1  0.94479000  0.98662000  0.15082000  1.0
  C  C109  1  0.90209000  0.08356000  0.18090000  1.0
  C  C110  1  0.80629000  0.07586000  0.26379000  1.0
  C  C111  1  0.03756000  0.99241000  0.05404000  1.0
  N  N112  1  0.25278000  0.31613000  0.97784000  1.0
  N  N113  1  0.24722000  0.02217000  0.68386000  1.0
  N  N114  1  0.74723000  0.68386000  0.02216000  1.0
  N  N115  1  0.75277000  0.97784000  0.31613000  1.0
  O  O116  1  0.09515000  0.51550000  0.81638000  1.0
  O  O117  1  0.95209000  0.64388000  0.85678000  1.0
  O  O118  1  0.10886000  0.91230000  0.36503000  1.0
  O  O119  1  0.45089000  0.93850000  0.32361000  1.0
  O  O120  1  0.30869000  0.98455000  0.44999000  1.0
  O  O121  1  0.40484000  0.18363000  0.48449000  1.0
  O  O122  1  0.54789000  0.14322000  0.35611000  1.0
  O  O123  1  0.39115000  0.63499000  0.08769000  1.0
  O  O124  1  0.04912000  0.67638000  0.06151000  1.0
  O  O125  1  0.19133000  0.55001000  0.01545000  1.0
  O  O126  1  0.90484000  0.48450000  0.18363000  1.0
  O  O127  1  0.04790000  0.35613000  0.14322000  1.0
  O  O128  1  0.89116000  0.08769000  0.63497000  1.0
  O  O129  1  0.54912000  0.06151000  0.67637000  1.0
  O  O130  1  0.69132000  0.01545000  0.54999000  1.0
  O  O131  1  0.59515000  0.81637000  0.51551000  1.0
  O  O132  1  0.45208000  0.85678000  0.64387000  1.0
  O  O133  1  0.60885000  0.36502000  0.91230000  1.0
  O  O134  1  0.95088000  0.32361000  0.93851000  1.0
  O  O135  1  0.80868000  0.45000000  0.98454000  1.0
