# generated using pymatgen
data_MnH10C12Br2(NO3)2
_symmetry_space_group_name_H-M   'P 1'
_cell_length_a   6.99046000
_cell_length_b   9.82092000
_cell_length_c   10.15720000
_cell_angle_alpha   89.99980000
_cell_angle_beta   81.83860000
_cell_angle_gamma   89.99980000
_symmetry_Int_Tables_number   1
_chemical_formula_structural   MnH10C12Br2(NO3)2
_chemical_formula_sum   'Mn2 H20 C24 Br4 N4 O12'
_cell_volume   690.25730863
_cell_formula_units_Z   2
loop_
 _symmetry_equiv_pos_site_id
 _symmetry_equiv_pos_as_xyz
  1  'x, y, z'
loop_
 _atom_site_type_symbol
 _atom_site_label
 _atom_site_symmetry_multiplicity
 _atom_site_fract_x
 _atom_site_fract_y
 _atom_site_fract_z
 _atom_site_occupancy
  Mn  Mn0  1  0.50000000  0.50000000  0.50000000  1.0
  Mn  Mn1  1  0.00000000  0.00000000  0.50000000  1.0
  H  H2  1  0.72275000  0.61764000  0.66326000  1.0
  H  H3  1  0.22275000  0.88236000  0.66327000  1.0
  H  H4  1  0.27725000  0.38236000  0.33674000  1.0
  H  H5  1  0.77725000  0.11764000  0.33674000  1.0
  H  H6  1  0.54649000  0.72492000  0.65644000  1.0
  H  H7  1  0.04649000  0.77508000  0.65644000  1.0
  H  H8  1  0.45351000  0.27508000  0.34356000  1.0
  H  H9  1  0.95352000  0.22492000  0.34356000  1.0
  H  H10  1  0.87148000  0.71177000  0.49536000  1.0
  H  H11  1  0.37148000  0.78823000  0.49536000  1.0
  H  H12  1  0.12852000  0.28823000  0.50464000  1.0
  H  H13  1  0.62852000  0.21177000  0.50464000  1.0
  H  H14  1  0.10749000  0.55447000  0.10938000  1.0
  H  H15  1  0.60749000  0.94554000  0.10937000  1.0
  H  H16  1  0.89251000  0.44553000  0.89062000  1.0
  H  H17  1  0.39251000  0.05446000  0.89063000  1.0
  H  H18  1  0.10658000  0.98406000  0.20479000  1.0
  H  H19  1  0.60658000  0.51595000  0.20479000  1.0
  H  H20  1  0.89343000  0.01594000  0.79521000  1.0
  H  H21  1  0.39342000  0.48405000  0.79521000  1.0
  C  C22  1  0.94226000  0.72579000  0.39431000  1.0
  C  C23  1  0.44226000  0.77421000  0.39431000  1.0
  C  C24  1  0.05774000  0.27421000  0.60569000  1.0
  C  C25  1  0.55774000  0.22579000  0.60569000  1.0
  C  C26  1  0.97815000  0.61573000  0.30783000  1.0
  C  C27  1  0.47817000  0.88428000  0.30782000  1.0
  C  C28  1  0.02184000  0.38427000  0.69217000  1.0
  C  C29  1  0.52183000  0.11572000  0.69218000  1.0
  C  C30  1  0.07232000  0.63863000  0.17820000  1.0
  C  C31  1  0.57233000  0.86137000  0.17820000  1.0
  C  C32  1  0.92767000  0.36137000  0.82180000  1.0
  C  C33  1  0.42767000  0.13863000  0.82180000  1.0
  C  C34  1  0.11210000  0.77281000  0.14025000  1.0
  C  C35  1  0.61210000  0.72720000  0.14025000  1.0
  C  C36  1  0.88790000  0.22719000  0.85975000  1.0
  C  C37  1  0.38790000  0.27280000  0.85975000  1.0
  C  C38  1  0.07511000  0.87843000  0.23155000  1.0
  C  C39  1  0.57511000  0.62157000  0.23155000  1.0
  C  C40  1  0.92490000  0.12157000  0.76845000  1.0
  C  C41  1  0.42489000  0.37843000  0.76845000  1.0
  C  C42  1  0.92264000  0.47417000  0.35161000  1.0
  C  C43  1  0.42264000  0.02582000  0.35161000  1.0
  C  C44  1  0.07736000  0.52583000  0.64839000  1.0
  C  C45  1  0.57736000  0.97418000  0.64838000  1.0
  Br  Br46  1  0.22155000  0.81398000  0.96327000  1.0
  Br  Br47  1  0.72155000  0.68603000  0.96327000  1.0
  Br  Br48  1  0.77845000  0.18602000  0.03673000  1.0
  Br  Br49  1  0.27845000  0.31398000  0.03673000  1.0
  N  N50  1  0.99858000  0.85408000  0.35983000  1.0
  N  N51  1  0.49858000  0.64592000  0.35983000  1.0
  N  N52  1  0.00142000  0.14592000  0.64017000  1.0
  N  N53  1  0.50142000  0.35408000  0.64017000  1.0
  O  O54  1  0.76558000  0.45026000  0.42883000  1.0
  O  O55  1  0.26559000  0.04974000  0.42883000  1.0
  O  O56  1  0.23442000  0.54974000  0.57117000  1.0
  O  O57  1  0.73441000  0.95026000  0.57117000  1.0
  O  O58  1  0.03909000  0.37807000  0.30875000  1.0
  O  O59  1  0.53909000  0.12194000  0.30875000  1.0
  O  O60  1  0.96091000  0.62193000  0.69125000  1.0
  O  O61  1  0.46091000  0.87806000  0.69125000  1.0
  O  O62  1  0.58774000  0.62659000  0.64402000  1.0
  O  O63  1  0.08774000  0.87341000  0.64402000  1.0
  O  O64  1  0.41226000  0.37341000  0.35598000  1.0
  O  O65  1  0.91226000  0.12659000  0.35598000  1.0
