# generated using pymatgen
data_Zn2H18C33S2(N3O2)3
_symmetry_space_group_name_H-M   'P 1'
_cell_length_a   19.58883221
_cell_length_b   19.59920000
_cell_length_c   19.88590000
_cell_angle_alpha   111.75400000
_cell_angle_beta   105.05765954
_cell_angle_gamma   110.85528683
_symmetry_Int_Tables_number   1
_chemical_formula_structural   Zn2H18C33S2(N3O2)3
_chemical_formula_sum   'Zn4 H36 C66 S4 N18 O12'
_cell_volume   5913.07291144
_cell_formula_units_Z   2
loop_
 _symmetry_equiv_pos_site_id
 _symmetry_equiv_pos_as_xyz
  1  'x, y, z'
loop_
 _atom_site_type_symbol
 _atom_site_label
 _atom_site_symmetry_multiplicity
 _atom_site_fract_x
 _atom_site_fract_y
 _atom_site_fract_z
 _atom_site_occupancy
  Zn  Zn0  1  0.11448000  0.11812000  0.51420000  1.0
  Zn  Zn1  1  0.90620000  0.91181000  0.50018000  1.0
  Zn  Zn2  1  0.00513000  0.89673000  0.39042000  1.0
  Zn  Zn3  1  0.00326000  0.12432000  0.61687000  1.0
  H  H4  1  0.20793000  0.17049000  0.39372000  1.0
  H  H5  1  0.49062000  0.72283000  0.12412000  1.0
  H  H6  1  0.63475000  0.69761000  0.99526000  1.0
  H  H7  1  0.36613000  0.59597000  0.00169000  1.0
  H  H8  1  0.19386000  0.15182000  0.13332000  1.0
  H  H9  1  0.10171000  0.87214000  0.89748000  1.0
  H  H10  1  0.18063000  0.13953000  0.00147000  1.0
  H  H11  1  0.11763000  0.88548000  0.03061000  1.0
  H  H12  1  0.74389000  0.86181000  0.53197000  1.0
  H  H13  1  0.25799000  0.13439000  0.64965000  1.0
  H  H14  1  0.87854000  0.87759000  0.23077000  1.0
  H  H15  1  0.02581000  0.87285000  0.61338000  1.0
  H  H16  1  0.13400000  0.32199000  0.77353000  1.0
  H  H17  1  0.86303000  0.13159000  0.50343000  1.0
  H  H18  1  0.95037000  0.69088000  0.32066000  1.0
  H  H19  1  0.74882000  0.89247000  0.37753000  1.0
  H  H20  1  0.28397000  0.30475000  0.64900000  1.0
  H  H21  1  0.85695000  0.13591000  0.67427000  1.0
  H  H22  1  0.13258000  0.86070000  0.49011000  1.0
  H  H23  1  0.78366000  0.25628000  0.22096000  1.0
  H  H24  1  0.92644000  0.48996000  0.50452000  1.0
  H  H25  1  0.93231000  0.32710000  0.17746000  1.0
  H  H26  1  0.71102000  0.33455000  0.30398000  1.0
  H  H27  1  0.77855000  0.42337000  0.54673000  1.0
  H  H28  1  0.00552000  0.18800000  0.34402000  1.0
  H  H29  1  0.07221000  0.15590000  0.37496000  1.0
  H  H30  1  0.84862000  0.76684000  0.54620000  1.0
  H  H31  1  0.81634000  0.66190000  0.49438000  1.0
  H  H32  1  0.97705000  0.84574000  0.11868000  1.0
  H  H33  1  0.07523000  0.08942000  0.86841000  1.0
  H  H34  1  0.99915000  0.41119000  0.42136000  1.0
  H  H35  1  0.49750000  0.84785000  0.58228000  1.0
  H  H36  1  0.51303000  0.12659000  0.72150000  1.0
  H  H37  1  0.37323000  0.85232000  0.58504000  1.0
  H  H38  1  0.63727000  0.12208000  0.71862000  1.0
  H  H39  1  0.51018000  0.57089000  0.87278000  1.0
  C  C40  1  0.16697000  0.10342000  0.36918000  1.0
  C  C41  1  0.93520000  0.39477000  0.39603000  1.0
  C  C42  1  0.81525000  0.30786000  0.28415000  1.0
  C  C43  1  0.89512000  0.43780000  0.44162000  1.0
  C  C44  1  0.88819000  0.19411000  0.38996000  1.0
  C  C45  1  0.86533000  0.58703000  0.38160000  1.0
  C  C46  1  0.81935000  0.34896000  0.40555000  1.0
  C  C47  1  0.89091000  0.39713000  0.32015000  1.0
  C  C48  1  0.86007000  0.30330000  0.35999000  1.0
  C  C49  1  0.85059000  0.44289000  0.36629000  1.0
  C  C50  1  0.86907000  0.23673000  0.36571000  1.0
  C  C51  1  0.03896000  0.93810000  0.64374000  1.0
  C  C52  1  0.85169000  0.51720000  0.37141000  1.0
  C  C53  1  0.43136000  0.91129000  0.61485000  1.0
  C  C54  1  0.57940000  0.06317000  0.69003000  1.0
  C  C55  1  0.78301000  0.93045000  0.56399000  1.0
  C  C56  1  0.21604000  0.06786000  0.60315000  1.0
  C  C57  1  0.43384000  0.98975000  0.65186000  1.0
  C  C58  1  0.57576000  0.98471000  0.64868000  1.0
  C  C59  1  0.51001000  0.06567000  0.69170000  1.0
  C  C60  1  0.50082000  0.90880000  0.61322000  1.0
  C  C61  1  0.36085000  0.99243000  0.64215000  1.0
  C  C62  1  0.77037000  0.99460000  0.61086000  1.0
  C  C63  1  0.64458000  0.98386000  0.63934000  1.0
  C  C64  1  0.70316000  0.98688000  0.62689000  1.0
  C  C65  1  0.29785000  0.99546000  0.62346000  1.0
  C  C66  1  0.57562000  0.67557000  0.99610000  1.0
  C  C67  1  0.42502000  0.61889000  0.00041000  1.0
  C  C68  1  0.57168000  0.71852000  0.06864000  1.0
  C  C69  1  0.42964000  0.57396000  0.92901000  1.0
  C  C70  1  0.49454000  0.68977000  0.06876000  1.0
  C  C71  1  0.50617000  0.60478000  0.92783000  1.0
  C  C72  1  0.64438000  0.78366000  0.14058000  1.0
  C  C73  1  0.22627000  0.99692000  0.58915000  1.0
  C  C74  1  0.36053000  0.49809000  0.86123000  1.0
  C  C75  1  0.30267000  0.42999000  0.80383000  1.0
  C  C76  1  0.70856000  0.83081000  0.20327000  1.0
  C  C77  1  0.16606000  0.08370000  0.00766000  1.0
  C  C78  1  0.13058000  0.94062000  0.02350000  1.0
  C  C79  1  0.85943000  0.88688000  0.27842000  1.0
  C  C80  1  0.15892000  0.30445000  0.73148000  1.0
  C  C81  1  0.13787000  0.00423000  0.93947000  1.0
  C  C82  1  0.15499000  0.01910000  0.09056000  1.0
  C  C83  1  0.12198000  0.93324000  0.94927000  1.0
  C  C84  1  0.78197000  0.87209000  0.27382000  1.0
  C  C85  1  0.17402000  0.09086000  0.08160000  1.0
  C  C86  1  0.12173000  0.99682000  0.86273000  1.0
  C  C87  1  0.15669000  0.02536000  0.16410000  1.0
  C  C88  1  0.15379000  0.03128000  0.22651000  1.0
  C  C89  1  0.10339000  0.99240000  0.79686000  1.0
  C  C90  1  0.90713000  0.13098000  0.47991000  1.0
  C  C91  1  0.92733000  0.71262000  0.36351000  1.0
  C  C92  1  0.79272000  0.89399000  0.35338000  1.0
  C  C93  1  0.23586000  0.29529000  0.66804000  1.0
  C  C94  1  0.98473000  0.14043000  0.41558000  1.0
  C  C95  1  0.23738000  0.35015000  0.73911000  1.0
  C  C96  1  0.87045000  0.72742000  0.44763000  1.0
  C  C97  1  0.84076000  0.07066000  0.63625000  1.0
  C  C98  1  0.15169000  0.92779000  0.52162000  1.0
  C  C99  1  0.09121000  0.96383000  0.29744000  1.0
  C  C100  1  0.07629000  0.07066000  0.72890000  1.0
  C  C101  1  0.14117000  0.03352000  0.29326000  1.0
  C  C102  1  0.07761000  0.99828000  0.72747000  1.0
  C  C103  1  0.91947000  0.15348000  0.42276000  1.0
  C  C104  1  0.88440000  0.66813000  0.39454000  1.0
  C  C105  1  0.77513000  0.35153000  0.32963000  1.0
  S  S106  1  0.93813000  0.43420000  0.26720000  1.0
  S  S107  1  0.77242000  0.31423000  0.45972000  1.0
  S  S108  1  0.03849000  0.85459000  0.23000000  1.0
  S  S109  1  0.09901000  0.16373000  0.81268000  1.0
  N  N110  1  0.13348000  0.07588000  0.41222000  1.0
  N  N111  1  0.16256000  0.22336000  0.62235000  1.0
  N  N112  1  0.00896000  0.11342000  0.46559000  1.0
  N  N113  1  0.90252000  0.80037000  0.44730000  1.0
  N  N114  1  0.89027000  0.05290000  0.60666000  1.0
  N  N115  1  0.10318000  0.95641000  0.49702000  1.0
  N  N116  1  0.08649000  0.99015000  0.36768000  1.0
  N  N117  1  0.04091000  0.05421000  0.65322000  1.0
  N  N118  1  0.01649000  0.15039000  0.36386000  1.0
  N  N119  1  0.82763000  0.71523000  0.49146000  1.0
  N  N120  1  0.01695000  0.97288000  0.60086000  1.0
  N  N121  1  0.85471000  0.96587000  0.56194000  1.0
  N  N122  1  0.14240000  0.04239000  0.54681000  1.0
  N  N123  1  0.91069000  0.91338000  0.35406000  1.0
  N  N124  1  0.11481000  0.22895000  0.66188000  1.0
  N  N125  1  0.96075000  0.10797000  0.50543000  1.0
  N  N126  1  0.93830000  0.79098000  0.39521000  1.0
  N  N127  1  0.86975000  0.91771000  0.40007000  1.0
  O  O128  1  0.87715000  0.42042000  0.19686000  1.0
  O  O129  1  0.18547000  0.21512000  0.86504000  1.0
  O  O130  1  0.05335000  0.19872000  0.78312000  1.0
  O  O131  1  0.05316000  0.12417000  0.85633000  1.0
  O  O132  1  0.01037000  0.51562000  0.32486000  1.0
  O  O133  1  0.96955000  0.36726000  0.23529000  1.0
  O  O134  1  0.70028000  0.23249000  0.40356000  1.0
  O  O135  1  0.83370000  0.33041000  0.53148000  1.0
  O  O136  1  0.74097000  0.38180000  0.48925000  1.0
  O  O137  1  0.08671000  0.82890000  0.19503000  1.0
  O  O138  1  0.00268000  0.81543000  0.27070000  1.0
  O  O139  1  0.96076000  0.83800000  0.15914000  1.0
