# generated using pymatgen
data_CdH10C11N2O5
_symmetry_space_group_name_H-M   'P 1'
_cell_length_a   7.18570000
_cell_length_b   11.45407026
_cell_length_c   16.43405841
_cell_angle_alpha   82.62864865
_cell_angle_beta   77.72953031
_cell_angle_gamma   71.74294938
_symmetry_Int_Tables_number   1
_chemical_formula_structural   CdH10C11N2O5
_chemical_formula_sum   'Cd4 H40 C44 N8 O20'
_cell_volume   1252.39989703
_cell_formula_units_Z   4
loop_
 _symmetry_equiv_pos_site_id
 _symmetry_equiv_pos_as_xyz
  1  'x, y, z'
loop_
 _atom_site_type_symbol
 _atom_site_label
 _atom_site_symmetry_multiplicity
 _atom_site_fract_x
 _atom_site_fract_y
 _atom_site_fract_z
 _atom_site_occupancy
  Cd  Cd0  1  0.73787000  0.24655000  0.22279000  1.0
  Cd  Cd1  1  0.20570000  0.25719000  0.27771000  1.0
  Cd  Cd2  1  0.26212000  0.75346000  0.77722000  1.0
  Cd  Cd3  1  0.79428000  0.74282000  0.72230000  1.0
  H  H4  1  0.46004000  0.34938000  0.94106000  1.0
  H  H5  1  0.75339000  0.14866000  0.56021000  1.0
  H  H6  1  0.53996000  0.65062000  0.05894000  1.0
  H  H7  1  0.24660000  0.85133000  0.43979000  1.0
  H  H8  1  0.25696000  0.48674000  0.95815000  1.0
  H  H9  1  0.70384000  0.01218000  0.54122000  1.0
  H  H10  1  0.74305000  0.51326000  0.04184000  1.0
  H  H11  1  0.29616000  0.98780000  0.45878000  1.0
  H  H12  1  0.08515000  0.38790000  0.89303000  1.0
  H  H13  1  0.36989000  0.11070000  0.60644000  1.0
  H  H14  1  0.91485000  0.61209000  0.10697000  1.0
  H  H15  1  0.63011000  0.88929000  0.39356000  1.0
  H  H16  1  0.25564000  0.23885000  0.91019000  1.0
  H  H17  1  0.40880000  0.25952000  0.59088000  1.0
  H  H18  1  0.74435000  0.76115000  0.08982000  1.0
  H  H19  1  0.59120000  0.74047000  0.40912000  1.0
  H  H20  1  0.00262000  0.63867000  0.23663000  1.0
  H  H21  1  0.87576000  0.86440000  0.26536000  1.0
  H  H22  1  0.99740000  0.36134000  0.76335000  1.0
  H  H23  1  0.12423000  0.13562000  0.73462000  1.0
  H  H24  1  0.60015000  0.64006000  0.23302000  1.0
  H  H25  1  0.47259000  0.86485000  0.26451000  1.0
  H  H26  1  0.39986000  0.35994000  0.76699000  1.0
  H  H27  1  0.52739000  0.13516000  0.73550000  1.0
  H  H28  1  0.80811000  0.06455000  0.95190000  1.0
  H  H29  1  0.82456000  0.43591000  0.54909000  1.0
  H  H30  1  0.19189000  0.93545000  0.04810000  1.0
  H  H31  1  0.17542000  0.56410000  0.45090000  1.0
  H  H32  1  0.30092000  0.04825000  0.14104000  1.0
  H  H33  1  0.48976000  0.45393000  0.35795000  1.0
  H  H34  1  0.69909000  0.95174000  0.85896000  1.0
  H  H35  1  0.51021000  0.54607000  0.64205000  1.0
  H  H36  1  0.94557000  0.24641000  0.02048000  1.0
  H  H37  1  0.21479000  0.25468000  0.47955000  1.0
  H  H38  1  0.05443000  0.75359000  0.97953000  1.0
  H  H39  1  0.78521000  0.74531000  0.52045000  1.0
  H  H40  1  0.31568000  0.38469000  0.10371000  1.0
  H  H41  1  0.80401000  0.11632000  0.39674000  1.0
  H  H42  1  0.68433000  0.61531000  0.89629000  1.0
  H  H43  1  0.19599000  0.88367000  0.60326000  1.0
  C  C44  1  0.11147000  0.30744000  0.08302000  1.0
  C  C45  1  0.50293000  0.19423000  0.41725000  1.0
  C  C46  1  0.88853000  0.69256000  0.91699000  1.0
  C  C47  1  0.49708000  0.80577000  0.58274000  1.0
  C  C48  1  0.30296000  0.38605000  0.97013000  1.0
  C  C49  1  0.66155000  0.11302000  0.53023000  1.0
  C  C50  1  0.69704000  0.61395000  0.02987000  1.0
  C  C51  1  0.33845000  0.88696000  0.46977000  1.0
  C  C52  1  0.16778000  0.32612000  0.93859000  1.0
  C  C53  1  0.43582000  0.17293000  0.56162000  1.0
  C  C54  1  0.83221000  0.67388000  0.06141000  1.0
  C  C55  1  0.56418000  0.82706000  0.43838000  1.0
  C  C56  1  0.38414000  0.49450000  0.21406000  1.0
  C  C57  1  0.09207000  0.00932000  0.28606000  1.0
  C  C58  1  0.61587000  0.50551000  0.78594000  1.0
  C  C59  1  0.90793000  0.99068000  0.71395000  1.0
  C  C60  1  0.30847000  0.62815000  0.23183000  1.0
  C  C61  1  0.16727000  0.87588000  0.26778000  1.0
  C  C62  1  0.69154000  0.37186000  0.76816000  1.0
  C  C63  1  0.83274000  0.12412000  0.73222000  1.0
  C  C64  1  0.10378000  0.68988000  0.24198000  1.0
  C  C65  1  0.03371000  0.81365000  0.25890000  1.0
  C  C66  1  0.89624000  0.31013000  0.75800000  1.0
  C  C67  1  0.96630000  0.18636000  0.74109000  1.0
  C  C68  1  0.44216000  0.69071000  0.24011000  1.0
  C  C69  1  0.37185000  0.81387000  0.25823000  1.0
  C  C70  1  0.55786000  0.30929000  0.75989000  1.0
  C  C71  1  0.62814000  0.18614000  0.74178000  1.0
  C  C72  1  0.62279000  0.13171000  0.10807000  1.0
  C  C73  1  0.86215000  0.37094000  0.39216000  1.0
  C  C74  1  0.37722000  0.86828000  0.89193000  1.0
  C  C75  1  0.13785000  0.62906000  0.60784000  1.0
  C  C76  1  0.55981000  0.06364000  0.05221000  1.0
  C  C77  1  0.67541000  0.43781000  0.44780000  1.0
  C  C78  1  0.44019000  0.93636000  0.94779000  1.0
  C  C79  1  0.32457000  0.56219000  0.55220000  1.0
  C  C80  1  0.67294000  0.03659000  0.97244000  1.0
  C  C81  1  0.68195000  0.46362000  0.52815000  1.0
  C  C82  1  0.32707000  0.96341000  0.02755000  1.0
  C  C83  1  0.31803000  0.53638000  0.47185000  1.0
  C  C84  1  0.38730000  0.02619000  0.07925000  1.0
  C  C85  1  0.49248000  0.47510000  0.42017000  1.0
  C  C86  1  0.61270000  0.97381000  0.92075000  1.0
  C  C87  1  0.50749000  0.52490000  0.57983000  1.0
  N  N88  1  0.03387000  0.30309000  0.01539000  1.0
  N  N89  1  0.35454000  0.19758000  0.48451000  1.0
  N  N90  1  0.96614000  0.69691000  0.98461000  1.0
  N  N91  1  0.64546000  0.80241000  0.51549000  1.0
  N  N92  1  0.27101000  0.35051000  0.05925000  1.0
  N  N93  1  0.68198000  0.15043000  0.44133000  1.0
  N  N94  1  0.72900000  0.64949000  0.94075000  1.0
  N  N95  1  0.31802000  0.84956000  0.55867000  1.0
  O  O96  1  0.04676000  0.27565000  0.15794000  1.0
  O  O97  1  0.48010000  0.22749000  0.34237000  1.0
  O  O98  1  0.95324000  0.72436000  0.84207000  1.0
  O  O99  1  0.51990000  0.77251000  0.65763000  1.0
  O  O100  1  0.57196000  0.44682000  0.19689000  1.0
  O  O101  1  0.21658000  0.05692000  0.30242000  1.0
  O  O102  1  0.42806000  0.55318000  0.80311000  1.0
  O  O103  1  0.78343000  0.94308000  0.69758000  1.0
  O  O104  1  0.25342000  0.43937000  0.21648000  1.0
  O  O105  1  0.90792000  0.06424000  0.28510000  1.0
  O  O106  1  0.74660000  0.56063000  0.78352000  1.0
  O  O107  1  0.09209000  0.93577000  0.71491000  1.0
  O  O108  1  0.51851000  0.15476000  0.18103000  1.0
  O  O109  1  0.85363000  0.34807000  0.31887000  1.0
  O  O110  1  0.48149000  0.84524000  0.81898000  1.0
  O  O111  1  0.14637000  0.65193000  0.68113000  1.0
  O  O112  1  0.78146000  0.16313000  0.08312000  1.0
  O  O113  1  0.02728000  0.34022000  0.41756000  1.0
  O  O114  1  0.21855000  0.83686000  0.91688000  1.0
  O  O115  1  0.97268000  0.65980000  0.58245000  1.0
