# generated using pymatgen
data_Cd3Si2H32(C7O2)8
_symmetry_space_group_name_H-M   'P 1'
_cell_length_a   14.46260000
_cell_length_b   15.17039292
_cell_length_c   23.19310000
_cell_angle_alpha   83.78620528
_cell_angle_beta   71.91630000
_cell_angle_gamma   61.56241595
_symmetry_Int_Tables_number   1
_chemical_formula_structural   Cd3Si2H32(C7O2)8
_chemical_formula_sum   'Cd6 Si4 H64 C112 O32'
_cell_volume   4248.83044472
_cell_formula_units_Z   2
loop_
 _symmetry_equiv_pos_site_id
 _symmetry_equiv_pos_as_xyz
  1  'x, y, z'
loop_
 _atom_site_type_symbol
 _atom_site_label
 _atom_site_symmetry_multiplicity
 _atom_site_fract_x
 _atom_site_fract_y
 _atom_site_fract_z
 _atom_site_occupancy
  Cd  Cd0  1  0.72460000  0.63933000  0.96517000  1.0
  Cd  Cd1  1  0.82950000  0.86072000  0.53464000  1.0
  Cd  Cd2  1  0.27555000  0.36061000  0.03464000  1.0
  Cd  Cd3  1  0.17068000  0.13939000  0.46560000  1.0
  Cd  Cd4  1  0.99980000  0.50002000  0.99989000  1.0
  Cd  Cd5  1  0.99998000  0.99990000  0.50002000  1.0
  Si  Si6  1  0.11221000  0.98598000  0.85860000  1.0
  Si  Si7  1  0.45682000  0.51409000  0.64231000  1.0
  Si  Si8  1  0.88792000  0.01391000  0.14140000  1.0
  Si  Si9  1  0.54349000  0.48598000  0.35761000  1.0
  H  H10  1  0.87252000  0.12846000  0.91954000  1.0
  H  H11  1  0.42023000  0.37143000  0.58144000  1.0
  H  H12  1  0.12762000  0.87121000  0.08050000  1.0
  H  H13  1  0.57993000  0.62884000  0.41848000  1.0
  H  H14  1  0.08229000  0.31885000  0.89357000  1.0
  H  H15  1  0.79477000  0.18122000  0.60690000  1.0
  H  H16  1  0.91736000  0.68131000  0.10632000  1.0
  H  H17  1  0.20526000  0.81859000  0.39316000  1.0
  H  H18  1  0.15775000  0.80296000  0.93142000  1.0
  H  H19  1  0.39271000  0.69652000  0.56894000  1.0
  H  H20  1  0.84213000  0.19698000  0.06872000  1.0
  H  H21  1  0.60755000  0.30349000  0.43081000  1.0
  H  H22  1  0.18264000  0.13559000  0.86878000  1.0
  H  H23  1  0.68686000  0.36425000  0.63233000  1.0
  H  H24  1  0.81728000  0.86453000  0.13120000  1.0
  H  H25  1  0.31345000  0.63560000  0.36766000  1.0
  H  H26  1  0.12473000  0.85454000  0.76598000  1.0
  H  H27  1  0.24550000  0.64573000  0.73471000  1.0
  H  H28  1  0.87562000  0.14514000  0.23408000  1.0
  H  H29  1  0.75463000  0.35454000  0.26504000  1.0
  H  H30  1  0.12944000  0.13689000  0.76724000  1.0
  H  H31  1  0.53359000  0.36359000  0.73388000  1.0
  H  H32  1  0.87061000  0.86295000  0.23271000  1.0
  H  H33  1  0.46625000  0.63655000  0.26613000  1.0
  H  H34  1  0.77359000  0.31171000  0.94467000  1.0
  H  H35  1  0.52984000  0.18840000  0.55574000  1.0
  H  H36  1  0.22631000  0.68798000  0.05532000  1.0
  H  H37  1  0.47002000  0.81184000  0.44428000  1.0
  H  H38  1  0.12607000  0.15725000  0.66022000  1.0
  H  H39  1  0.44341000  0.34321000  0.84079000  1.0
  H  H40  1  0.87386000  0.84250000  0.33975000  1.0
  H  H41  1  0.55602000  0.65704000  0.15916000  1.0
  H  H42  1  0.11646000  0.87839000  0.65981000  1.0
  H  H43  1  0.15484000  0.62181000  0.84075000  1.0
  H  H44  1  0.88376000  0.12120000  0.34026000  1.0
  H  H45  1  0.84486000  0.37854000  0.15892000  1.0
  H  H46  1  0.89856000  0.00382000  0.85397000  1.0
  H  H47  1  0.25581000  0.49686000  0.64713000  1.0
  H  H48  1  0.10172000  0.99616000  0.14590000  1.0
  H  H49  1  0.74470000  0.50307000  0.35291000  1.0
  H  H50  1  0.05975000  0.70211000  0.96937000  1.0
  H  H51  1  0.23219000  0.79719000  0.53058000  1.0
  H  H52  1  0.93995000  0.29794000  0.03068000  1.0
  H  H53  1  0.76788000  0.20268000  0.46927000  1.0
  H  H54  1  0.17030000  0.97475000  0.97044000  1.0
  H  H55  1  0.61536000  0.52536000  0.53059000  1.0
  H  H56  1  0.82988000  0.02507000  0.02955000  1.0
  H  H57  1  0.38498000  0.47512000  0.46943000  1.0
  H  H58  1  0.34302000  0.87559000  0.99961000  1.0
  H  H59  1  0.71811000  0.62443000  0.50162000  1.0
  H  H60  1  0.65723000  0.12417000  0.00033000  1.0
  H  H61  1  0.28204000  0.37626000  0.49873000  1.0
  H  H62  1  0.80014000  0.90336000  0.89449000  1.0
  H  H63  1  0.09773000  0.59720000  0.60632000  1.0
  H  H64  1  0.19995000  0.09675000  0.10531000  1.0
  H  H65  1  0.90262000  0.40255000  0.39381000  1.0
  H  H66  1  0.34907000  0.85626000  0.78541000  1.0
  H  H67  1  0.49117000  0.64374000  0.71568000  1.0
  H  H68  1  0.65099000  0.14373000  0.21455000  1.0
  H  H69  1  0.50885000  0.35606000  0.28453000  1.0
  H  H70  1  0.52154000  0.75877000  0.81564000  1.0
  H  H71  1  0.59633000  0.74119000  0.68564000  1.0
  H  H72  1  0.47857000  0.24117000  0.18426000  1.0
  H  H73  1  0.40345000  0.25885000  0.31488000  1.0
  C  C74  1  0.03467000  0.91274000  0.89097000  1.0
  C  C75  1  0.33844000  0.58730000  0.60977000  1.0
  C  C76  1  0.96541000  0.08720000  0.10903000  1.0
  C  C77  1  0.66193000  0.41268000  0.39009000  1.0
  C  C78  1  0.03490000  0.11874000  0.89073000  1.0
  C  C79  1  0.54420000  0.38121000  0.61026000  1.0
  C  C80  1  0.96513000  0.88116000  0.10927000  1.0
  C  C81  1  0.45605000  0.61886000  0.38969000  1.0
  C  C82  1  0.24711000  0.92108000  0.87589000  1.0
  C  C83  1  0.54415000  0.57899000  0.62516000  1.0
  C  C84  1  0.75301000  0.07883000  0.12409000  1.0
  C  C85  1  0.45605000  0.42115000  0.37493000  1.0
  C  C86  1  0.11876000  0.02018000  0.65431000  1.0
  C  C87  1  0.29323000  0.48008000  0.84638000  1.0
  C  C88  1  0.88128000  0.97950000  0.34572000  1.0
  C  C89  1  0.70634000  0.52021000  0.15343000  1.0
  C  C90  1  0.92202000  0.32641000  0.91949000  1.0
  C  C91  1  0.66799000  0.17366000  0.58082000  1.0
  C  C92  1  0.07774000  0.67352000  0.08044000  1.0
  C  C93  1  0.33193000  0.82638000  0.41922000  1.0
  C  C94  1  0.91944000  0.16949000  0.91325000  1.0
  C  C95  1  0.50198000  0.33048000  0.58760000  1.0
  C  C96  1  0.08060000  0.83029000  0.08676000  1.0
  C  C97  1  0.49814000  0.66970000  0.41235000  1.0
  C  C98  1  0.03728000  0.27658000  0.89850000  1.0
  C  C99  1  0.71236000  0.22343000  0.60206000  1.0
  C  C100  1  0.96249000  0.72346000  0.10143000  1.0
  C  C101  1  0.28770000  0.77649000  0.39797000  1.0
  C  C102  1  0.10289000  0.03989000  0.59190000  1.0
  C  C103  1  0.23449000  0.46022000  0.90858000  1.0
  C  C104  1  0.89704000  0.95980000  0.40816000  1.0
  C  C105  1  0.76493000  0.54007000  0.09120000  1.0
  C  C106  1  0.07915000  0.82649000  0.92321000  1.0
  C  C107  1  0.32927000  0.67319000  0.57721000  1.0
  C  C108  1  0.92078000  0.17348000  0.07684000  1.0
  C  C109  1  0.67101000  0.32676000  0.42260000  1.0
  C  C110  1  0.09275000  0.17372000  0.88465000  1.0
  C  C111  1  0.65099000  0.32620000  0.61626000  1.0
  C  C112  1  0.90715000  0.82631000  0.11532000  1.0
  C  C113  1  0.34922000  0.67374000  0.38372000  1.0
  C  C114  1  0.12607000  0.92090000  0.74308000  1.0
  C  C115  1  0.29021000  0.57939000  0.75766000  1.0
  C  C116  1  0.87417000  0.07880000  0.25696000  1.0
  C  C117  1  0.70978000  0.42087000  0.24214000  1.0
  C  C118  1  0.12698000  0.99425000  0.77490000  1.0
  C  C119  1  0.39623000  0.50606000  0.72599000  1.0
  C  C120  1  0.87317000  0.00554000  0.22510000  1.0
  C  C121  1  0.60379000  0.49414000  0.27390000  1.0
  C  C122  1  0.12859000  0.07866000  0.74393000  1.0
  C  C123  1  0.45123000  0.42176000  0.75707000  1.0
  C  C124  1  0.87148000  0.92113000  0.25605000  1.0
  C  C125  1  0.54859000  0.57843000  0.24287000  1.0
  C  C126  1  0.86315000  0.27228000  0.92749000  1.0
  C  C127  1  0.56285000  0.22778000  0.57302000  1.0
  C  C128  1  0.13673000  0.72752000  0.07249000  1.0
  C  C129  1  0.43712000  0.77238000  0.42698000  1.0
  C  C130  1  0.86183000  0.43615000  0.93390000  1.0
  C  C131  1  0.73201000  0.06398000  0.56604000  1.0
  C  C132  1  0.13783000  0.56379000  0.06600000  1.0
  C  C133  1  0.26772000  0.93604000  0.43405000  1.0
  C  C134  1  0.12587000  0.09134000  0.68398000  1.0
  C  C135  1  0.40118000  0.40904000  0.81694000  1.0
  C  C136  1  0.87414000  0.90840000  0.31602000  1.0
  C  C137  1  0.59842000  0.59120000  0.18297000  1.0
  C  C138  1  0.12120000  0.93366000  0.68346000  1.0
  C  C139  1  0.23843000  0.56660000  0.81720000  1.0
  C  C140  1  0.87897000  0.06600000  0.31659000  1.0
  C  C141  1  0.76133000  0.43370000  0.18256000  1.0
  C  C142  1  0.93334000  0.93948000  0.88095000  1.0
  C  C143  1  0.25354000  0.56090000  0.61992000  1.0
  C  C144  1  0.06681000  0.06051000  0.11896000  1.0
  C  C145  1  0.74688000  0.43900000  0.38006000  1.0
  C  C146  1  0.02445000  0.76938000  0.94503000  1.0
  C  C147  1  0.23946000  0.73023000  0.55520000  1.0
  C  C148  1  0.97539000  0.23066000  0.05497000  1.0
  C  C149  1  0.76072000  0.26964000  0.44469000  1.0
  C  C150  1  0.92367000  0.79735000  0.93511000  1.0
  C  C151  1  0.15642000  0.70261000  0.56526000  1.0
  C  C152  1  0.07624000  0.20272000  0.06479000  1.0
  C  C153  1  0.84378000  0.29719000  0.43474000  1.0
  C  C154  1  0.44108000  0.81072000  0.90945000  1.0
  C  C155  1  0.66136000  0.68939000  0.59178000  1.0
  C  C156  1  0.55907000  0.18916000  0.09047000  1.0
  C  C157  1  0.33858000  0.31097000  0.40868000  1.0
  C  C158  1  0.86792000  0.73289000  0.95773000  1.0
  C  C159  1  0.05904000  0.76704000  0.54239000  1.0
  C  C160  1  0.13195000  0.26721000  0.04207000  1.0
  C  C161  1  0.94103000  0.23270000  0.45774000  1.0
  C  C162  1  0.24667000  0.92701000  0.93617000  1.0
  C  C163  1  0.60980000  0.57308000  0.56492000  1.0
  C  C164  1  0.75349000  0.07284000  0.06380000  1.0
  C  C165  1  0.39043000  0.42729000  0.43521000  1.0
  C  C166  1  0.34255000  0.87222000  0.95299000  1.0
  C  C167  1  0.66773000  0.62785000  0.54821000  1.0
  C  C168  1  0.65764000  0.12761000  0.04695000  1.0
  C  C169  1  0.33239000  0.37263000  0.45211000  1.0
  C  C170  1  0.54122000  0.75024000  0.92898000  1.0
  C  C171  1  0.72043000  0.75000000  0.57218000  1.0
  C  C172  1  0.45894000  0.24962000  0.07090000  1.0
  C  C173  1  0.27940000  0.25046000  0.42841000  1.0
  C  C174  1  0.87770000  0.88308000  0.90299000  1.0
  C  C175  1  0.16369000  0.61725000  0.59771000  1.0
  C  C176  1  0.12235000  0.11698000  0.09687000  1.0
  C  C177  1  0.83663000  0.38256000  0.40233000  1.0
  C  C178  1  0.34704000  0.86067000  0.83251000  1.0
  C  C179  1  0.54051000  0.63935000  0.66859000  1.0
  C  C180  1  0.65306000  0.13928000  0.16744000  1.0
  C  C181  1  0.45953000  0.36066000  0.33165000  1.0
  C  C182  1  0.44367000  0.80596000  0.84895000  1.0
  C  C183  1  0.59888000  0.69407000  0.65225000  1.0
  C  C184  1  0.55645000  0.19396000  0.15097000  1.0
  C  C185  1  0.40103000  0.30606000  0.34817000  1.0
  O  O186  1  0.91347000  0.48624000  0.93226000  1.0
  O  O187  1  0.83230000  0.01399000  0.56731000  1.0
  O  O188  1  0.08616000  0.51382000  0.06744000  1.0
  O  O189  1  0.16747000  0.98592000  0.43276000  1.0
  O  O190  1  0.07011000  0.98568000  0.57473000  1.0
  O  O191  1  0.13050000  0.51475000  0.92574000  1.0
  O  O192  1  0.92983000  0.01400000  0.42535000  1.0
  O  O193  1  0.86886000  0.48523000  0.07383000  1.0
  O  O194  1  0.90011000  0.67028000  0.99738000  1.0
  O  O195  1  0.06851000  0.82946000  0.50267000  1.0
  O  O196  1  0.09962000  0.32979000  0.00245000  1.0
  O  O197  1  0.93132000  0.17030000  0.49740000  1.0
  O  O198  1  0.75690000  0.48064000  0.94744000  1.0
  O  O199  1  0.68500000  0.01939000  0.55266000  1.0
  O  O200  1  0.24275000  0.51922000  0.05265000  1.0
  O  O201  1  0.31465000  0.98070000  0.44748000  1.0
  O  O202  1  0.12270000  0.10859000  0.56410000  1.0
  O  O203  1  0.29496000  0.39101000  0.93627000  1.0
  O  O204  1  0.87709000  0.89120000  0.43600000  1.0
  O  O205  1  0.70446000  0.60958000  0.06363000  1.0
  O  O206  1  0.79151000  0.74678000  0.93597000  1.0
  O  O207  1  0.97468000  0.75334000  0.56398000  1.0
  O  O208  1  0.20848000  0.25331000  0.06373000  1.0
  O  O209  1  0.02538000  0.24643000  0.43629000  1.0
  O  O210  1  0.53530000  0.74783000  0.98520000  1.0
  O  O211  1  0.76780000  0.75238000  0.51586000  1.0
  O  O212  1  0.46490000  0.25207000  0.01467000  1.0
  O  O213  1  0.23172000  0.24838000  0.48470000  1.0
  O  O214  1  0.63469000  0.69933000  0.88974000  1.0
  O  O215  1  0.72419000  0.80097000  0.61123000  1.0
  O  O216  1  0.36545000  0.30048000  0.11013000  1.0
  O  O217  1  0.27592000  0.19917000  0.38940000  1.0
