# generated using pymatgen
data_Zn4H8C36S6Cl10O31
_symmetry_space_group_name_H-M   'P 1'
_cell_length_a   15.09560000
_cell_length_b   20.04730000
_cell_length_c   22.80430000
_cell_angle_alpha   90.32840000
_cell_angle_beta   90.29800000
_cell_angle_gamma   90.60270000
_symmetry_Int_Tables_number   1
_chemical_formula_structural   Zn4H8C36S6Cl10O31
_chemical_formula_sum   'Zn8 H16 C72 S12 Cl20 O62'
_cell_volume   6900.58390395
_cell_formula_units_Z   2
loop_
 _symmetry_equiv_pos_site_id
 _symmetry_equiv_pos_as_xyz
  1  'x, y, z'
loop_
 _atom_site_type_symbol
 _atom_site_label
 _atom_site_symmetry_multiplicity
 _atom_site_fract_x
 _atom_site_fract_y
 _atom_site_fract_z
 _atom_site_occupancy
  Zn  Zn0  1  0.43322000  0.58432000  0.99312000  1.0
  Zn  Zn1  1  0.42588000  0.08311000  0.49626000  1.0
  Zn  Zn2  1  0.42921000  0.42237000  0.00389000  1.0
  Zn  Zn3  1  0.42441000  0.92111000  0.50301000  1.0
  Zn  Zn4  1  0.57890000  0.50362000  0.07130000  1.0
  Zn  Zn5  1  0.57695000  0.49955000  0.92980000  1.0
  Zn  Zn6  1  0.57248000  0.00391000  0.57176000  1.0
  Zn  Zn7  1  0.57146000  0.00144000  0.42972000  1.0
  H  H8  1  0.37535000  0.29532000  0.12727000  1.0
  H  H9  1  0.91377000  0.07222000  0.37890000  1.0
  H  H10  1  0.72762000  0.69490000  0.94354000  1.0
  H  H11  1  0.77857000  0.75728000  0.15556000  1.0
  H  H12  1  0.72832000  0.20071000  0.44422000  1.0
  H  H13  1  0.77271000  0.24867000  0.65910000  1.0
  H  H14  1  0.89318000  0.27150000  0.06188000  1.0
  H  H15  1  0.88288000  0.77548000  0.56964000  1.0
  H  H16  1  0.32080000  0.32867000  0.84433000  1.0
  H  H17  1  0.46637000  0.74511000  0.59347000  1.0
  H  H18  1  0.32591000  0.82571000  0.34302000  1.0
  H  H19  1  0.07990000  0.63812000  0.15310000  1.0
  H  H20  1  0.07756000  0.14067000  0.65580000  1.0
  H  H21  1  0.73932000  0.39644000  0.92867000  1.0
  H  H22  1  0.73425000  0.89868000  0.43121000  1.0
  H  H23  1  0.91689000  0.57118000  0.87575000  1.0
  C  C24  1  0.47208000  0.38346000  0.88425000  1.0
  C  C25  1  0.52066000  0.27790000  0.74734000  1.0
  C  C26  1  0.54815000  0.77623000  0.75318000  1.0
  C  C27  1  0.52700000  0.77914000  0.24556000  1.0
  C  C28  1  0.56748000  0.31547000  0.20379000  1.0
  C  C29  1  0.53408000  0.31588000  0.80015000  1.0
  C  C30  1  0.53914000  0.83055000  0.71298000  1.0
  C  C31  1  0.53965000  0.81533000  0.29941000  1.0
  C  C32  1  0.42500000  0.28681000  0.16104000  1.0
  C  C33  1  0.37708000  0.31197000  0.81871000  1.0
  C  C34  1  0.48770000  0.75361000  0.63853000  1.0
  C  C35  1  0.51356000  0.37254000  0.11011000  1.0
  C  C36  1  0.38256000  0.80997000  0.31728000  1.0
  C  C37  1  0.40924000  0.23998000  0.20368000  1.0
  C  C38  1  0.36374000  0.26665000  0.77373000  1.0
  C  C39  1  0.48221000  0.70214000  0.67811000  1.0
  C  C40  1  0.36998000  0.76625000  0.27100000  1.0
  C  C41  1  0.17197000  0.50647000  0.02123000  1.0
  C  C42  1  0.16616000  0.00566000  0.52387000  1.0
  C  C43  1  0.83843000  0.47216000  0.00193000  1.0
  C  C44  1  0.83239000  0.97544000  0.50490000  1.0
  C  C45  1  0.96475000  0.39793000  0.01584000  1.0
  C  C46  1  0.47554000  0.88060000  0.38462000  1.0
  C  C47  1  0.95668000  0.89992000  0.52096000  1.0
  C  C48  1  0.87355000  0.40701000  0.01034000  1.0
  C  C49  1  0.86585000  0.91003000  0.51464000  1.0
  C  C50  1  0.89552000  0.52674000  0.00203000  1.0
  C  C51  1  0.89046000  0.02945000  0.50516000  1.0
  C  C52  1  0.50346000  0.62946000  0.10760000  1.0
  C  C53  1  0.52177000  0.62434000  0.88650000  1.0
  C  C54  1  0.49337000  0.12607000  0.61142000  1.0
  C  C55  1  0.50771000  0.12509000  0.38727000  1.0
  C  C56  1  0.98640000  0.51990000  0.01878000  1.0
  C  C57  1  0.51095000  0.87116000  0.60881000  1.0
  C  C58  1  0.98094000  0.02165000  0.52240000  1.0
  C  C59  1  0.02317000  0.45482000  0.01369000  1.0
  C  C60  1  0.01612000  0.95604000  0.51810000  1.0
  C  C61  1  0.11797000  0.45290000  0.00535000  1.0
  C  C62  1  0.11065000  0.95260000  0.50911000  1.0
  C  C63  1  0.13145000  0.56397000  0.04619000  1.0
  C  C64  1  0.12726000  0.06389000  0.54894000  1.0
  C  C65  1  0.04082000  0.57273000  0.04225000  1.0
  C  C66  1  0.03689000  0.07392000  0.54532000  1.0
  C  C67  1  0.27106000  0.50509000  0.01276000  1.0
  C  C68  1  0.51090000  0.71112000  0.73780000  1.0
  C  C69  1  0.26459000  0.00365000  0.51342000  1.0
  C  C70  1  0.73903000  0.48375000  0.99760000  1.0
  C  C71  1  0.73338000  0.98782000  0.49915000  1.0
  C  C72  1  0.50505000  0.32347000  0.15915000  1.0
  C  C73  1  0.46232000  0.33575000  0.83365000  1.0
  C  C74  1  0.51409000  0.81851000  0.65506000  1.0
  C  C75  1  0.46742000  0.83360000  0.33333333  1.0
  C  C76  1  0.53279000  0.67803000  0.84076000  1.0
  C  C77  1  0.51075000  0.68602000  0.15202000  1.0
  C  C78  1  0.51480000  0.18226000  0.34469000  1.0
  C  C79  1  0.44277000  0.74583000  0.23513000  1.0
  C  C80  1  0.50248000  0.18241000  0.65588000  1.0
  C  C81  1  0.59244000  0.78403000  0.80869000  1.0
  C  C82  1  0.59305000  0.77489000  0.20084000  1.0
  C  C83  1  0.59092000  0.28180000  0.31023000  1.0
  C  C84  1  0.58643000  0.27179000  0.70269000  1.0
  C  C85  1  0.57803000  0.73849000  0.85336000  1.0
  C  C86  1  0.58617000  0.72850000  0.15561000  1.0
  C  C87  1  0.57138000  0.23785000  0.35545000  1.0
  C  C88  1  0.57858000  0.22421000  0.65848000  1.0
  C  C89  1  0.50588000  0.66291000  0.78381000  1.0
  C  C90  1  0.47168000  0.23007000  0.25012000  1.0
  C  C91  1  0.44081000  0.69541000  0.19038000  1.0
  C  C92  1  0.46655000  0.17843000  0.29307000  1.0
  C  C93  1  0.43310000  0.19311000  0.69441000  1.0
  C  C94  1  0.43602000  0.24472000  0.73807000  1.0
  C  C95  1  0.54625000  0.27601000  0.25442000  1.0
  S  S96  1  0.98839000  0.64006000  0.08167000  1.0
  S  S97  1  0.66591000  0.21438000  0.60533000  1.0
  S  S98  1  0.01410000  0.31986000  0.04312000  1.0
  S  S99  1  0.00457000  0.82198000  0.54989000  1.0
  S  S100  1  0.98648000  0.14254000  0.58415000  1.0
  S  S101  1  0.79106000  0.34099000  0.99959000  1.0
  S  S102  1  0.78296000  0.84447000  0.50393000  1.0
  S  S103  1  0.86506000  0.59899000  0.95939000  1.0
  S  S104  1  0.86232000  0.10194000  0.46206000  1.0
  S  S105  1  0.61381000  0.75608000  0.92760000  1.0
  S  S106  1  0.67287000  0.72178000  0.10158000  1.0
  S  S107  1  0.60757000  0.25303000  0.43006000  1.0
  Cl  Cl108  1  0.67362000  0.34449000  0.19322000  1.0
  Cl  Cl109  1  0.26081000  0.74446000  0.25656000  1.0
  Cl  Cl110  1  0.30632000  0.20145000  0.20108000  1.0
  Cl  Cl111  1  0.25430000  0.24468000  0.76049000  1.0
  Cl  Cl112  1  0.46598000  0.58245000  0.77326000  1.0
  Cl  Cl113  1  0.35598000  0.63705000  0.18632000  1.0
  Cl  Cl114  1  0.40810000  0.10531000  0.27960000  1.0
  Cl  Cl115  1  0.34756000  0.13528000  0.69157000  1.0
  Cl  Cl116  1  0.16032000  0.38824000  0.96538000  1.0
  Cl  Cl117  1  0.14979000  0.88661000  0.46941000  1.0
  Cl  Cl118  1  0.19826000  0.62051000  0.08296000  1.0
  Cl  Cl119  1  0.63928000  0.32560000  0.82866000  1.0
  Cl  Cl120  1  0.19542000  0.11961000  0.58552000  1.0
  Cl  Cl121  1  0.54248000  0.91125000  0.73898000  1.0
  Cl  Cl122  1  0.64463000  0.82482000  0.32821000  1.0
  Cl  Cl123  1  0.66072000  0.34786000  0.32509000  1.0
  Cl  Cl124  1  0.67042000  0.33083000  0.69873000  1.0
  Cl  Cl125  1  0.67405000  0.84345000  0.81767000  1.0
  Cl  Cl126  1  0.67592000  0.83501000  0.19833000  1.0
  Cl  Cl127  1  0.43808000  0.62897000  0.64912000  1.0
  O  O128  1  0.50506000  0.50258000  0.00027000  1.0
  O  O129  1  0.43792000  0.12092000  0.41764000  1.0
  O  O130  1  0.31019000  0.45245000  0.02870000  1.0
  O  O131  1  0.30377000  0.94985000  0.52575000  1.0
  O  O132  1  0.70450000  0.50613000  0.04331000  1.0
  O  O133  1  0.70064000  0.46943000  0.94848000  1.0
  O  O134  1  0.69795000  0.01036000  0.54448000  1.0
  O  O135  1  0.69631000  0.97388000  0.44955000  1.0
  O  O136  1  0.46713000  0.35982000  0.06423000  1.0
  O  O137  1  0.42089000  0.37470000  0.92789000  1.0
  O  O138  1  0.45675000  0.86053000  0.56642000  1.0
  O  O139  1  0.49943000  0.00222000  0.50028000  1.0
  O  O140  1  0.42257000  0.87175000  0.42737000  1.0
  O  O141  1  0.58758000  0.58521000  0.89088000  1.0
  O  O142  1  0.53930000  0.57538000  0.12299000  1.0
  O  O143  1  0.57180000  0.08414000  0.38552000  1.0
  O  O144  1  0.52636000  0.07074000  0.62631000  1.0
  O  O145  1  0.30568000  0.55715000  0.99074000  1.0
  O  O146  1  0.29882000  0.05683000  0.49323000  1.0
  O  O147  1  0.02597000  0.70314000  0.06555000  1.0
  O  O148  1  0.89487000  0.62687000  0.08135000  1.0
  O  O149  1  0.01820000  0.62284000  0.14780000  1.0
  O  O150  1  0.52884000  0.43009000  0.87775000  1.0
  O  O151  1  0.02568000  0.20488000  0.56747000  1.0
  O  O152  1  0.89262000  0.13085000  0.58391000  1.0
  O  O153  1  0.01571000  0.12578000  0.65048000  1.0
  O  O154  1  0.82824000  0.27513000  0.00235000  1.0
  O  O155  1  0.71580000  0.35739000  0.03497000  1.0
  O  O156  1  0.77051000  0.35189000  0.93246000  1.0
  O  O157  1  0.81948000  0.77855000  0.50840000  1.0
  O  O158  1  0.70656000  0.86182000  0.53782000  1.0
  O  O159  1  0.76467000  0.85412000  0.43630000  1.0
  O  O160  1  0.77520000  0.61778000  0.97071000  1.0
  O  O161  1  0.56119000  0.42424000  0.11904000  1.0
  O  O162  1  0.93725000  0.64601000  0.95766000  1.0
  O  O163  1  0.86055000  0.56265000  0.89568000  1.0
  O  O164  1  0.77315000  0.12283000  0.47300000  1.0
  O  O165  1  0.93608000  0.14757000  0.46021000  1.0
  O  O166  1  0.85682000  0.06529000  0.39852000  1.0
  O  O167  1  0.60496000  0.82596000  0.93808000  1.0
  O  O168  1  0.56929000  0.70824000  0.96432000  1.0
  O  O169  1  0.71661000  0.73967000  0.92642000  1.0
  O  O170  1  0.66214000  0.65906000  0.07217000  1.0
  O  O171  1  0.67913000  0.78338000  0.07016000  1.0
  O  O172  1  0.53263000  0.92714000  0.37935000  1.0
  O  O173  1  0.75906000  0.71287000  0.14196000  1.0
  O  O174  1  0.58905000  0.32096000  0.44428000  1.0
  O  O175  1  0.57162000  0.19971000  0.46506000  1.0
  O  O176  1  0.71209000  0.24455000  0.42708000  1.0
  O  O177  1  0.65322000  0.15116000  0.57711000  1.0
  O  O178  1  0.67564000  0.27487000  0.57266000  1.0
  O  O179  1  0.75047000  0.20445000  0.64695000  1.0
  O  O180  1  0.02531000  0.27359000  0.99564000  1.0
  O  O181  1  0.08575000  0.34099000  0.08053000  1.0
  O  O182  1  0.94023000  0.29373000  0.08661000  1.0
  O  O183  1  0.56365000  0.92048000  0.61448000  1.0
  O  O184  1  0.01497000  0.77416000  0.50354000  1.0
  O  O185  1  0.07654000  0.84347000  0.58685000  1.0
  O  O186  1  0.93009000  0.79798000  0.59392000  1.0
  O  O187  1  0.45901000  0.64167000  0.06157000  1.0
  O  O188  1  0.44873000  0.62049000  0.91348000  1.0
  O  O189  1  0.45055000  0.13998000  0.56509000  1.0
