# generated using pymatgen
data_CdH36C34S2(NO2)4
_symmetry_space_group_name_H-M   'P 1'
_cell_length_a   7.63393000
_cell_length_b   9.09226000
_cell_length_c   12.61320000
_cell_angle_alpha   92.82730000
_cell_angle_beta   91.34400000
_cell_angle_gamma   111.63600000
_symmetry_Int_Tables_number   1
_chemical_formula_structural   CdH36C34S2(NO2)4
_chemical_formula_sum   'Cd1 H36 C34 S2 N4 O8'
_cell_volume   811.98772656
_cell_formula_units_Z   1
loop_
 _symmetry_equiv_pos_site_id
 _symmetry_equiv_pos_as_xyz
  1  'x, y, z'
loop_
 _atom_site_type_symbol
 _atom_site_label
 _atom_site_symmetry_multiplicity
 _atom_site_fract_x
 _atom_site_fract_y
 _atom_site_fract_z
 _atom_site_occupancy
  Cd  Cd0  1  0.50000000  0.50000000  0.50000000  1.0
  H  H1  1  0.22447000  0.70675000  0.44057000  1.0
  H  H2  1  0.77553000  0.29325000  0.55943000  1.0
  H  H3  1  0.24830000  0.90243000  0.99466000  1.0
  H  H4  1  0.75169000  0.09756000  0.00534000  1.0
  H  H5  1  0.78817000  0.80784000  0.35900000  1.0
  H  H6  1  0.21183000  0.19216000  0.64100000  1.0
  H  H7  1  0.02441000  0.10173000  0.31553000  1.0
  H  H8  1  0.97560000  0.89828000  0.68447000  1.0
  H  H9  1  0.68832000  0.06688000  0.31665000  1.0
  H  H10  1  0.31168000  0.93312000  0.68335000  1.0
  H  H11  1  0.39526000  0.90201000  0.16728000  1.0
  H  H12  1  0.60473000  0.09800000  0.83272000  1.0
  H  H13  1  0.01954000  0.31979000  0.84227000  1.0
  H  H14  1  0.98047000  0.68020000  0.15773000  1.0
  H  H15  1  0.47264000  0.77600000  0.84382000  1.0
  H  H16  1  0.52736000  0.22400000  0.15618000  1.0
  H  H17  1  0.07468000  0.31675000  0.03697000  1.0
  H  H18  1  0.92532000  0.68324000  0.96304000  1.0
  H  H19  1  0.40395000  0.13498000  0.38460000  1.0
  H  H20  1  0.59606000  0.86502000  0.61541000  1.0
  H  H21  1  0.20327000  0.97814000  0.42407000  1.0
  H  H22  1  0.79673000  0.02186000  0.57593000  1.0
  H  H23  1  0.53043000  0.76907000  0.03666000  1.0
  H  H24  1  0.46958000  0.23093000  0.96334000  1.0
  H  H25  1  0.87290000  0.10072000  0.14381000  1.0
  H  H26  1  0.12710000  0.89929000  0.85619000  1.0
  H  H27  1  0.25994000  0.42232000  0.19733000  1.0
  H  H28  1  0.74007000  0.57768000  0.80267000  1.0
  H  H29  1  0.27091000  0.61999000  0.21181000  1.0
  H  H30  1  0.72910000  0.38001000  0.78818000  1.0
  H  H31  1  0.48063000  0.58313000  0.19360000  1.0
  H  H32  1  0.51937000  0.41687000  0.80640000  1.0
  H  H33  1  0.09027000  0.35338000  0.39945000  1.0
  H  H34  1  0.90973000  0.64662000  0.60055000  1.0
  H  H35  1  0.12005000  0.35813000  0.52465000  1.0
  H  H36  1  0.87995000  0.64187000  0.47535000  1.0
  C  C37  1  0.04596000  0.00079000  0.05260000  1.0
  C  C38  1  0.95403000  0.99922000  0.94740000  1.0
  C  C39  1  0.36566000  0.76763000  0.41431000  1.0
  C  C40  1  0.63434000  0.23237000  0.58569000  1.0
  C  C41  1  0.21954000  0.00037000  0.25507000  1.0
  C  C42  1  0.78046000  0.99963000  0.74493000  1.0
  C  C43  1  0.19605000  0.94723000  0.06375000  1.0
  C  C44  1  0.80395000  0.05278000  0.93625000  1.0
  C  C45  1  0.65703000  0.82577000  0.37017000  1.0
  C  C46  1  0.34296000  0.17423000  0.62983000  1.0
  C  C47  1  0.07187000  0.05571000  0.24498000  1.0
  C  C48  1  0.92814000  0.94430000  0.75502000  1.0
  C  C49  1  0.30204000  0.54363000  0.05163000  1.0
  C  C50  1  0.69797000  0.45637000  0.94837000  1.0
  C  C51  1  0.60866000  0.95228000  0.34653000  1.0
  C  C52  1  0.39134000  0.04772000  0.65347000  1.0
  C  C53  1  0.28063000  0.94618000  0.16277000  1.0
  C  C54  1  0.71936000  0.05382000  0.83723000  1.0
  C  C55  1  0.12890000  0.41913000  0.88548000  1.0
  C  C56  1  0.87111000  0.58086000  0.11452000  1.0
  C  C57  1  0.38271000  0.67663000  0.88663000  1.0
  C  C58  1  0.61730000  0.32336000  0.11336000  1.0
  C  C59  1  0.16128000  0.41784000  0.99463000  1.0
  C  C60  1  0.83873000  0.58216000  0.00538000  1.0
  C  C61  1  0.31084000  0.01128000  0.36421000  1.0
  C  C62  1  0.68916000  0.98872000  0.63579000  1.0
  C  C63  1  0.41421000  0.67207000  0.99529000  1.0
  C  C64  1  0.58579000  0.32793000  0.00471000  1.0
  C  C65  1  0.98665000  0.05549000  0.14636000  1.0
  C  C66  1  0.01335000  0.94452000  0.85365000  1.0
  C  C67  1  0.23847000  0.55006000  0.83215000  1.0
  C  C68  1  0.76154000  0.44993000  0.16785000  1.0
  C  C69  1  0.33040000  0.54152000  0.16952000  1.0
  C  C70  1  0.66960000  0.45848000  0.83048000  1.0
  S  S71  1  0.19556000  0.56047000  0.69466000  1.0
  S  S72  1  0.80444000  0.43953000  0.30535000  1.0
  N  N73  1  0.50453000  0.71207000  0.41296000  1.0
  N  N74  1  0.49546000  0.28793000  0.58704000  1.0
  N  N75  1  0.42355000  0.91322000  0.37499000  1.0
  N  N76  1  0.57645000  0.08678000  0.62501000  1.0
  O  O77  1  0.38286000  0.61550000  0.64735000  1.0
  O  O78  1  0.61714000  0.38450000  0.35264000  1.0
  O  O79  1  0.10507000  0.67779000  0.68574000  1.0
  O  O80  1  0.89492000  0.32220000  0.31426000  1.0
  O  O81  1  0.07176000  0.39991000  0.65308000  1.0
  O  O82  1  0.92824000  0.60009000  0.34692000  1.0
  O  O83  1  0.17692000  0.34479000  0.45661000  1.0
  O  O84  1  0.82308000  0.65521000  0.54339000  1.0
