# generated using pymatgen
data_TbH19(C3O)8
_symmetry_space_group_name_H-M   'P 1'
_cell_length_a   15.08310000
_cell_length_b   15.08250000
_cell_length_c   25.66314612
_cell_angle_alpha   95.32449415
_cell_angle_beta   102.70435485
_cell_angle_gamma   117.90000000
_symmetry_Int_Tables_number   1
_chemical_formula_structural   TbH19(C3O)8
_chemical_formula_sum   'Tb4 H76 C96 O32'
_cell_volume   4901.82905369
_cell_formula_units_Z   4
loop_
 _symmetry_equiv_pos_site_id
 _symmetry_equiv_pos_as_xyz
  1  'x, y, z'
loop_
 _atom_site_type_symbol
 _atom_site_label
 _atom_site_symmetry_multiplicity
 _atom_site_fract_x
 _atom_site_fract_y
 _atom_site_fract_z
 _atom_site_occupancy
  Tb  Tb0  1  0.87607000  0.79736000  0.94822000  1.0
  Tb  Tb1  1  0.34906000  0.92777000  0.55177000  1.0
  Tb  Tb2  1  0.12395000  0.20266000  0.05178000  1.0
  Tb  Tb3  1  0.65095000  0.07223000  0.44823000  1.0
  H  H4  1  0.76978000  0.83385000  0.76052000  1.0
  H  H5  1  0.57333000  0.00920000  0.73956000  1.0
  H  H6  1  0.23022000  0.16616000  0.23948000  1.0
  H  H7  1  0.42667000  0.99080000  0.26045000  1.0
  H  H8  1  0.09558000  0.87470000  0.72567000  1.0
  H  H9  1  0.64886000  0.36987000  0.77426000  1.0
  H  H10  1  0.90441000  0.12529000  0.27433000  1.0
  H  H11  1  0.35114000  0.63013000  0.22574000  1.0
  H  H12  1  0.06408000  0.84522000  0.81451000  1.0
  H  H13  1  0.53049000  0.24934000  0.68546000  1.0
  H  H14  1  0.93592000  0.15477000  0.18549000  1.0
  H  H15  1  0.46951000  0.75065000  0.31454000  1.0
  H  H16  1  0.74093000  0.92131000  0.52984000  1.0
  H  H17  1  0.89131000  0.21103000  0.97022000  1.0
  H  H18  1  0.25908000  0.07869000  0.47016000  1.0
  H  H19  1  0.10871000  0.78898000  0.02978000  1.0
  H  H20  1  0.67627000  0.85713000  0.70736000  1.0
  H  H21  1  0.65006000  0.96906000  0.79259000  1.0
  H  H22  1  0.32374000  0.14288000  0.29264000  1.0
  H  H23  1  0.34992000  0.03093000  0.20741000  1.0
  H  H24  1  0.55101000  0.87775000  0.63743000  1.0
  H  H25  1  0.74047000  0.91371000  0.86253000  1.0
  H  H26  1  0.44899000  0.12226000  0.36257000  1.0
  H  H27  1  0.25953000  0.08629000  0.13747000  1.0
  H  H28  1  0.11002000  0.87817000  0.65405000  1.0
  H  H29  1  0.72425000  0.45610000  0.84593000  1.0
  H  H30  1  0.88999000  0.12183000  0.34595000  1.0
  H  H31  1  0.27575000  0.54391000  0.15407000  1.0
  H  H32  1  0.85079000  0.90750000  0.51137000  1.0
  H  H33  1  0.89597000  0.33943000  0.98869000  1.0
  H  H34  1  0.14922000  0.09250000  0.48863000  1.0
  H  H35  1  0.10403000  0.66057000  0.01131000  1.0
  H  H36  1  0.00441000  0.90918000  0.49198000  1.0
  H  H37  1  0.91723000  0.51253000  0.00801000  1.0
  H  H38  1  0.99558000  0.09080000  0.50801000  1.0
  H  H39  1  0.08277000  0.48747000  0.99199000  1.0
  H  H40  1  0.93640000  0.75811000  0.08107000  1.0
  H  H41  1  0.17703000  0.85516000  0.41899000  1.0
  H  H42  1  0.06360000  0.24188000  0.91893000  1.0
  H  H43  1  0.82296000  0.14484000  0.58101000  1.0
  H  H44  1  0.82778000  0.74660000  0.10276000  1.0
  H  H45  1  0.14386000  0.72486000  0.39726000  1.0
  H  H46  1  0.17222000  0.25340000  0.89724000  1.0
  H  H47  1  0.85613000  0.27513000  0.60274000  1.0
  H  H48  1  0.92779000  0.93496000  0.14595000  1.0
  H  H49  1  0.28907000  0.78183000  0.35407000  1.0
  H  H50  1  0.07221000  0.06503000  0.85405000  1.0
  H  H51  1  0.71093000  0.21817000  0.64593000  1.0
  H  H52  1  0.03564000  0.94914000  0.12360000  1.0
  H  H53  1  0.32544000  0.91201000  0.37641000  1.0
  H  H54  1  0.96436000  0.05085000  0.87640000  1.0
  H  H55  1  0.67456000  0.08798000  0.62359000  1.0
  H  H56  1  0.94921000  0.81181000  0.20271000  1.0
  H  H57  1  0.10904000  0.74627000  0.29735000  1.0
  H  H58  1  0.05078000  0.18818000  0.79729000  1.0
  H  H59  1  0.89095000  0.25372000  0.70265000  1.0
  H  H60  1  0.06256000  0.93655000  0.22257000  1.0
  H  H61  1  0.21377000  0.83978000  0.27741000  1.0
  H  H62  1  0.93743000  0.06344000  0.77743000  1.0
  H  H63  1  0.78622000  0.16021000  0.72259000  1.0
  H  H64  1  0.06133000  0.83400000  0.18175000  1.0
  H  H65  1  0.15206000  0.87932000  0.31828000  1.0
  H  H66  1  0.93867000  0.16600000  0.81826000  1.0
  H  H67  1  0.84793000  0.12067000  0.68172000  1.0
  H  H68  1  0.85340000  0.88504000  0.04792000  1.0
  H  H69  1  0.33723000  0.80548000  0.45209000  1.0
  H  H70  1  0.14660000  0.11496000  0.95208000  1.0
  H  H71  1  0.66278000  0.19452000  0.54792000  1.0
  H  H72  1  0.68276000  0.79053000  0.92253000  1.0
  H  H73  1  0.36802000  0.76021000  0.57741000  1.0
  H  H74  1  0.31724000  0.20948000  0.07747000  1.0
  H  H75  1  0.63197000  0.23978000  0.42259000  1.0
  H  H76  1  0.65604000  0.68078000  0.89384000  1.0
  H  H77  1  0.28701000  0.76214000  0.60613000  1.0
  H  H78  1  0.34397000  0.31922000  0.10617000  1.0
  H  H79  1  0.71299000  0.23786000  0.39387000  1.0
  C  C80  1  0.89561000  0.81907000  0.84550000  1.0
  C  C81  1  0.47342000  0.04988000  0.65453000  1.0
  C  C82  1  0.10439000  0.18093000  0.15450000  1.0
  C  C83  1  0.52658000  0.95012000  0.34547000  1.0
  C  C84  1  0.91349000  0.83661000  0.79167000  1.0
  C  C85  1  0.54481000  0.12167000  0.70835000  1.0
  C  C86  1  0.08651000  0.16339000  0.20833000  1.0
  C  C87  1  0.45518000  0.87832000  0.29165000  1.0
  C  C88  1  0.84019000  0.84316000  0.75118000  1.0
  C  C89  1  0.59197000  0.08896000  0.74885000  1.0
  C  C90  1  0.15981000  0.15685000  0.24882000  1.0
  C  C91  1  0.40802000  0.91104000  0.25115000  1.0
  C  C92  1  0.85611000  0.86147000  0.70022000  1.0
  C  C93  1  0.66129000  0.15596000  0.79977000  1.0
  C  C94  1  0.14389000  0.13853000  0.29978000  1.0
  C  C95  1  0.33870000  0.84404000  0.20023000  1.0
  C  C96  1  0.94885000  0.87074000  0.69005000  1.0
  C  C97  1  0.68065000  0.25882000  0.80994000  1.0
  C  C98  1  0.05115000  0.12926000  0.30995000  1.0
  C  C99  1  0.31934000  0.74118000  0.19006000  1.0
  C  C100  1  0.02319000  0.86557000  0.73224000  1.0
  C  C101  1  0.63321000  0.29091000  0.76774000  1.0
  C  C102  1  0.97681000  0.13442000  0.26776000  1.0
  C  C103  1  0.36678000  0.70909000  0.23226000  1.0
  C  C104  1  0.00660000  0.84916000  0.78214000  1.0
  C  C105  1  0.56686000  0.22431000  0.71787000  1.0
  C  C106  1  0.99340000  0.15084000  0.21786000  1.0
  C  C107  1  0.43314000  0.77569000  0.28213000  1.0
  C  C108  1  0.56181000  0.91026000  0.53605000  1.0
  C  C109  1  0.87411000  0.02570000  0.96399000  1.0
  C  C110  1  0.43820000  0.08975000  0.46395000  1.0
  C  C111  1  0.12592000  0.97433000  0.03601000  1.0
  C  C112  1  0.63746000  0.89683000  0.57832000  1.0
  C  C113  1  0.81843000  0.05915000  0.92172000  1.0
  C  C114  1  0.36254000  0.10318000  0.42168000  1.0
  C  C115  1  0.18158000  0.94086000  0.07828000  1.0
  C  C116  1  0.72734000  0.90396000  0.56854000  1.0
  C  C117  1  0.83529000  0.15879000  0.93151000  1.0
  C  C118  1  0.27266000  0.09604000  0.43146000  1.0
  C  C119  1  0.16471000  0.84122000  0.06849000  1.0
  C  C120  1  0.79920000  0.88985000  0.60721000  1.0
  C  C121  1  0.78255000  0.19200000  0.89283000  1.0
  C  C122  1  0.20080000  0.11015000  0.39279000  1.0
  C  C123  1  0.21745000  0.80800000  0.10717000  1.0
  C  C124  1  0.78102000  0.87243000  0.65849000  1.0
  C  C125  1  0.71396000  0.12260000  0.84151000  1.0
  C  C126  1  0.21898000  0.12757000  0.34151000  1.0
  C  C127  1  0.28603000  0.87740000  0.15849000  1.0
  C  C128  1  0.69050000  0.86827000  0.66804000  1.0
  C  C129  1  0.70034000  0.02255000  0.83194000  1.0
  C  C130  1  0.30950000  0.13173000  0.33196000  1.0
  C  C131  1  0.29965000  0.97744000  0.16806000  1.0
  C  C132  1  0.61905000  0.87865000  0.62883000  1.0
  C  C133  1  0.74986000  0.99030000  0.87117000  1.0
  C  C134  1  0.38095000  0.12136000  0.37117000  1.0
  C  C135  1  0.25014000  0.00971000  0.12883000  1.0
  C  C136  1  0.16122000  0.89794000  0.56287000  1.0
  C  C137  1  0.83511000  0.59842000  0.93711000  1.0
  C  C138  1  0.83878000  0.10206000  0.43713000  1.0
  C  C139  1  0.16490000  0.40159000  0.06289000  1.0
  C  C140  1  0.06651000  0.89475000  0.57294000  1.0
  C  C141  1  0.82181000  0.49362000  0.92706000  1.0
  C  C142  1  0.93348000  0.10523000  0.42705000  1.0
  C  C143  1  0.17819000  0.50638000  0.07294000  1.0
  C  C144  1  0.05161000  0.88508000  0.62407000  1.0
  C  C145  1  0.76102000  0.42760000  0.87594000  1.0
  C  C146  1  0.94839000  0.11492000  0.37593000  1.0
  C  C147  1  0.23898000  0.57241000  0.12406000  1.0
  C  C148  1  0.96471000  0.88349000  0.63655000  1.0
  C  C149  1  0.74687000  0.32818000  0.86344000  1.0
  C  C150  1  0.03528000  0.11649000  0.36344000  1.0
  C  C151  1  0.25312000  0.67182000  0.13656000  1.0
  C  C152  1  0.89052000  0.89213000  0.59538000  1.0
  C  C153  1  0.79663000  0.29515000  0.90465000  1.0
  C  C154  1  0.10948000  0.10786000  0.40462000  1.0
  C  C155  1  0.20336000  0.70486000  0.09535000  1.0
  C  C156  1  0.90672000  0.90112000  0.54346000  1.0
  C  C157  1  0.85754000  0.36328000  0.95658000  1.0
  C  C158  1  0.09328000  0.09887000  0.45654000  1.0
  C  C159  1  0.14246000  0.63672000  0.04342000  1.0
  C  C160  1  0.99275000  0.90233000  0.53214000  1.0
  C  C161  1  0.87016000  0.46067000  0.96788000  1.0
  C  C162  1  0.00725000  0.09767000  0.46786000  1.0
  C  C163  1  0.12984000  0.53933000  0.03212000  1.0
  C  C164  1  0.89678000  0.79973000  0.09109000  1.0
  C  C165  1  0.20863000  0.80555000  0.40893000  1.0
  C  C166  1  0.10322000  0.20027000  0.90891000  1.0
  C  C167  1  0.79136000  0.19444000  0.59107000  1.0
  C  C168  1  0.97008000  0.89509000  0.13707000  1.0
  C  C169  1  0.25797000  0.83293000  0.36296000  1.0
  C  C170  1  0.02993000  0.10492000  0.86294000  1.0
  C  C171  1  0.74202000  0.16707000  0.63704000  1.0
  C  C172  1  0.01314000  0.86776000  0.18894000  1.0
  C  C173  1  0.17869000  0.82401000  0.31108000  1.0
  C  C174  1  0.98685000  0.13223000  0.81106000  1.0
  C  C175  1  0.82130000  0.17598000  0.68892000  1.0
  O  O176  1  0.96780000  0.81934000  0.88306000  1.0
  O  O177  1  0.43625000  0.08456000  0.61694000  1.0
  O  O178  1  0.03219000  0.18065000  0.11693000  1.0
  O  O179  1  0.56375000  0.91543000  0.38306000  1.0
  O  O180  1  0.81054000  0.80613000  0.85451000  1.0
  O  O181  1  0.45138000  0.95578000  0.64554000  1.0
  O  O182  1  0.18947000  0.19388000  0.14549000  1.0
  O  O183  1  0.54861000  0.04421000  0.35445000  1.0
  O  O184  1  0.46949000  0.87794000  0.54056000  1.0
  O  O185  1  0.83721000  0.92886000  0.95947000  1.0
  O  O186  1  0.53051000  0.12206000  0.45944000  1.0
  O  O187  1  0.16283000  0.07117000  0.04053000  1.0
  O  O188  1  0.59101000  0.95192000  0.49774000  1.0
  O  O189  1  0.95414000  0.09318000  0.00228000  1.0
  O  O190  1  0.40899000  0.04809000  0.50226000  1.0
  O  O191  1  0.04589000  0.90685000  0.99771000  1.0
  O  O192  1  0.18408000  0.91950000  0.51854000  1.0
  O  O193  1  0.90108000  0.66564000  0.98141000  1.0
  O  O194  1  0.81593000  0.08050000  0.48146000  1.0
  O  O195  1  0.09895000  0.33438000  0.01859000  1.0
  O  O196  1  0.22112000  0.88121000  0.59940000  1.0
  O  O197  1  0.78180000  0.62175000  0.90059000  1.0
  O  O198  1  0.77888000  0.11879000  0.40060000  1.0
  O  O199  1  0.21820000  0.37826000  0.09941000  1.0
  O  O200  1  0.86012000  0.82429000  0.04035000  1.0
  O  O201  1  0.28395000  0.81961000  0.45967000  1.0
  O  O202  1  0.13989000  0.17572000  0.95965000  1.0
  O  O203  1  0.71604000  0.18038000  0.54033000  1.0
  O  O204  1  0.68375000  0.72824000  0.92941000  1.0
  O  O205  1  0.29884000  0.75429000  0.57054000  1.0
  O  O206  1  0.31627000  0.27178000  0.07060000  1.0
  O  O207  1  0.70115000  0.24570000  0.42945000  1.0
