# generated using pymatgen
data_CdHgH10C8S4(N3O)2
_symmetry_space_group_name_H-M   'P 1'
_cell_length_a   7.55101000
_cell_length_b   15.25590000
_cell_length_c   16.20360000
_cell_angle_alpha   90.00000000
_cell_angle_beta   89.99970000
_cell_angle_gamma   89.99970000
_symmetry_Int_Tables_number   1
_chemical_formula_structural   CdHgH10C8S4(N3O)2
_chemical_formula_sum   'Cd4 Hg4 H40 C32 S16 N24 O8'
_cell_volume   1866.61345682
_cell_formula_units_Z   4
loop_
 _symmetry_equiv_pos_site_id
 _symmetry_equiv_pos_as_xyz
  1  'x, y, z'
loop_
 _atom_site_type_symbol
 _atom_site_label
 _atom_site_symmetry_multiplicity
 _atom_site_fract_x
 _atom_site_fract_y
 _atom_site_fract_z
 _atom_site_occupancy
  Cd  Cd0  1  0.50942000  0.24649000  0.38340000  1.0
  Cd  Cd1  1  0.49058000  0.74650000  0.61659000  1.0
  Cd  Cd2  1  0.00942000  0.74649000  0.11660000  1.0
  Cd  Cd3  1  0.99058000  0.24650000  0.88341000  1.0
  Hg  Hg4  1  0.96694000  0.44044000  0.57610000  1.0
  Hg  Hg5  1  0.03307000  0.94044000  0.42391000  1.0
  Hg  Hg6  1  0.46694000  0.94044000  0.92391000  1.0
  Hg  Hg7  1  0.53307000  0.44044000  0.07609000  1.0
  H  H8  1  0.86547000  0.20144000  0.27693000  1.0
  H  H9  1  0.13452000  0.70144000  0.72307000  1.0
  H  H10  1  0.36547000  0.70144000  0.22307000  1.0
  H  H11  1  0.63453000  0.20144000  0.77693000  1.0
  H  H12  1  0.54569000  0.03826000  0.12711000  1.0
  H  H13  1  0.45430000  0.53826000  0.87289000  1.0
  H  H14  1  0.04569000  0.53826000  0.37289000  1.0
  H  H15  1  0.95431000  0.03826000  0.62711000  1.0
  H  H16  1  0.08979000  0.20008000  0.37047000  1.0
  H  H17  1  0.91020000  0.70009000  0.62953000  1.0
  H  H18  1  0.58979000  0.70008000  0.12953000  1.0
  H  H19  1  0.41021000  0.20009000  0.87047000  1.0
  H  H20  1  0.86348000  0.25798000  0.14533000  1.0
  H  H21  1  0.13651000  0.75798000  0.85467000  1.0
  H  H22  1  0.36348000  0.75797000  0.35467000  1.0
  H  H23  1  0.63652000  0.25797000  0.64533000  1.0
  H  H24  1  0.08635000  0.21978000  0.13524000  1.0
  H  H25  1  0.91364000  0.71979000  0.86476000  1.0
  H  H26  1  0.58635000  0.71978000  0.36476000  1.0
  H  H27  1  0.41364000  0.21979000  0.63524000  1.0
  H  H28  1  0.04436000  0.32752000  0.17249000  1.0
  H  H29  1  0.95562000  0.82752000  0.82751000  1.0
  H  H30  1  0.54436000  0.82752000  0.32751000  1.0
  H  H31  1  0.45563000  0.32752000  0.67249000  1.0
  H  H32  1  0.42598000  0.13966000  0.21060000  1.0
  H  H33  1  0.57401000  0.63966000  0.78940000  1.0
  H  H34  1  0.92598000  0.63966000  0.28940000  1.0
  H  H35  1  0.07402000  0.13967000  0.71060000  1.0
  H  H36  1  0.80452000  0.95741000  0.14453000  1.0
  H  H37  1  0.19548000  0.45742000  0.85547000  1.0
  H  H38  1  0.30452000  0.45741000  0.35547000  1.0
  H  H39  1  0.69548000  0.95742000  0.64453000  1.0
  H  H40  1  0.79834000  0.98459000  0.25160000  1.0
  H  H41  1  0.20165000  0.48459000  0.74840000  1.0
  H  H42  1  0.29835000  0.48459000  0.24840000  1.0
  H  H43  1  0.70166000  0.98459000  0.75160000  1.0
  H  H44  1  0.90432000  0.05633000  0.18024000  1.0
  H  H45  1  0.09568000  0.55633000  0.81976000  1.0
  H  H46  1  0.40432000  0.55633000  0.31976000  1.0
  H  H47  1  0.59569000  0.05633000  0.68024000  1.0
  C  C48  1  0.35371000  0.41041000  0.51236000  1.0
  C  C49  1  0.64628000  0.91041000  0.48763000  1.0
  C  C50  1  0.85371000  0.91041000  0.98764000  1.0
  C  C51  1  0.14628000  0.41040000  0.01237000  1.0
  C  C52  1  0.82362000  0.41083000  0.75662000  1.0
  C  C53  1  0.17638000  0.91082000  0.24338000  1.0
  C  C54  1  0.32363000  0.91082000  0.74338000  1.0
  C  C55  1  0.67637000  0.41082000  0.25662000  1.0
  C  C56  1  0.70810000  0.58378000  0.50463000  1.0
  C  C57  1  0.29191000  0.08378000  0.49537000  1.0
  C  C58  1  0.20809000  0.08377000  0.99537000  1.0
  C  C59  1  0.79190000  0.58378000  0.00463000  1.0
  C  C60  1  0.86613000  0.24638000  0.50826000  1.0
  C  C61  1  0.13387000  0.74639000  0.49174000  1.0
  C  C62  1  0.36615000  0.74638000  0.99174000  1.0
  C  C63  1  0.63387000  0.24638000  0.00826000  1.0
  C  C64  1  0.11985000  0.22623000  0.30862000  1.0
  C  C65  1  0.88015000  0.72623000  0.69138000  1.0
  C  C66  1  0.61985000  0.72623000  0.19138000  1.0
  C  C67  1  0.38015000  0.22623000  0.80862000  1.0
  C  C68  1  0.99581000  0.25964000  0.17280000  1.0
  C  C69  1  0.00418000  0.75964000  0.82721000  1.0
  C  C70  1  0.49580000  0.75964000  0.32721000  1.0
  C  C71  1  0.50419000  0.25964000  0.67279000  1.0
  C  C72  1  0.55884000  0.11557000  0.22673000  1.0
  C  C73  1  0.44115000  0.61558000  0.77327000  1.0
  C  C74  1  0.05884000  0.61557000  0.27327000  1.0
  C  C75  1  0.94116000  0.11557000  0.72673000  1.0
  C  C76  1  0.79253000  0.01117000  0.18872000  1.0
  C  C77  1  0.20747000  0.51118000  0.81128000  1.0
  C  C78  1  0.29252000  0.51117000  0.31128000  1.0
  C  C79  1  0.70748000  0.01118000  0.68872000  1.0
  S  S80  1  0.28839000  0.49538000  0.56681000  1.0
  S  S81  1  0.71163000  0.99539000  0.43319000  1.0
  S  S82  1  0.78839000  0.99539000  0.93319000  1.0
  S  S83  1  0.21161000  0.49538000  0.06681000  1.0
  S  S84  1  0.78057000  0.50021000  0.45012000  1.0
  S  S85  1  0.21943000  0.00021000  0.54988000  1.0
  S  S86  1  0.28057000  0.00021000  0.04988000  1.0
  S  S87  1  0.71943000  0.50021000  0.95012000  1.0
  S  S88  1  0.00300000  0.27156000  0.58320000  1.0
  S  S89  1  0.99700000  0.77156000  0.41680000  1.0
  S  S90  1  0.50300000  0.77156000  0.91679000  1.0
  S  S91  1  0.49700000  0.27156000  0.08320000  1.0
  S  S92  1  0.76752000  0.49233000  0.69550000  1.0
  S  S93  1  0.23249000  0.99233000  0.30450000  1.0
  S  S94  1  0.26752000  0.99233000  0.80450000  1.0
  S  S95  1  0.73248000  0.49233000  0.19551000  1.0
  N  N96  1  0.40380000  0.35057000  0.47292000  1.0
  N  N97  1  0.59621000  0.85058000  0.52707000  1.0
  N  N98  1  0.90381000  0.85057000  0.02707000  1.0
  N  N99  1  0.09620000  0.35057000  0.97292000  1.0
  N  N100  1  0.86031000  0.35269000  0.80117000  1.0
  N  N101  1  0.13970000  0.85269000  0.19883000  1.0
  N  N102  1  0.36031000  0.85269000  0.69883000  1.0
  N  N103  1  0.63970000  0.35269000  0.30117000  1.0
  N  N104  1  0.65248000  0.64227000  0.54432000  1.0
  N  N105  1  0.34753000  0.14226000  0.45568000  1.0
  N  N106  1  0.15247000  0.14226000  0.95568000  1.0
  N  N107  1  0.84753000  0.64227000  0.04432000  1.0
  N  N108  1  0.76951000  0.22557000  0.45451000  1.0
  N  N109  1  0.23048000  0.72557000  0.54549000  1.0
  N  N110  1  0.26952000  0.72557000  0.04549000  1.0
  N  N111  1  0.73049000  0.22557000  0.95450000  1.0
  N  N112  1  0.98388000  0.22655000  0.25683000  1.0
  N  N113  1  0.01612000  0.72655000  0.74317000  1.0
  N  N114  1  0.48388000  0.72655000  0.24317000  1.0
  N  N115  1  0.51612000  0.22655000  0.75683000  1.0
  N  N116  1  0.62392000  0.05521000  0.17605000  1.0
  N  N117  1  0.37607000  0.55521000  0.82394000  1.0
  N  N118  1  0.12392000  0.55521000  0.32394000  1.0
  N  N119  1  0.87608000  0.05521000  0.67606000  1.0
  O  O120  1  0.27217000  0.25347000  0.28966000  1.0
  O  O121  1  0.72782000  0.75347000  0.71034000  1.0
  O  O122  1  0.77217000  0.75347000  0.21034000  1.0
  O  O123  1  0.22783000  0.25347000  0.78966000  1.0
  O  O124  1  0.64028000  0.14412000  0.28909000  1.0
  O  O125  1  0.35971000  0.64412000  0.71090000  1.0
  O  O126  1  0.14028000  0.64412000  0.21091000  1.0
  O  O127  1  0.85972000  0.14412000  0.78909000  1.0
