# generated using pymatgen
data_H12RhC20N(O2F)2
_symmetry_space_group_name_H-M   'P 1'
_cell_length_a   9.79676000
_cell_length_b   10.87650000
_cell_length_c   11.27930000
_cell_angle_alpha   66.36870000
_cell_angle_beta   66.73040000
_cell_angle_gamma   65.46940000
_symmetry_Int_Tables_number   1
_chemical_formula_structural   H12RhC20N(O2F)2
_chemical_formula_sum   'H24 Rh2 C40 N2 O8 F4'
_cell_volume   963.26606395
_cell_formula_units_Z   2
loop_
 _symmetry_equiv_pos_site_id
 _symmetry_equiv_pos_as_xyz
  1  'x, y, z'
loop_
 _atom_site_type_symbol
 _atom_site_label
 _atom_site_symmetry_multiplicity
 _atom_site_fract_x
 _atom_site_fract_y
 _atom_site_fract_z
 _atom_site_occupancy
  H  H0  1  0.01908000  0.84942000  0.12967000  1.0
  H  H1  1  0.98091000  0.15057000  0.87036000  1.0
  H  H2  1  0.86245000  0.07782000  0.19254000  1.0
  H  H3  1  0.13755000  0.92218000  0.80747000  1.0
  H  H4  1  0.28545000  0.14043000  0.15255000  1.0
  H  H5  1  0.71455000  0.85957000  0.84744000  1.0
  H  H6  1  0.44147000  0.91535000  0.08697000  1.0
  H  H7  1  0.55852000  0.08463000  0.91304000  1.0
  H  H8  1  0.69008000  0.25924000  0.39070000  1.0
  H  H9  1  0.30988000  0.74074000  0.60929000  1.0
  H  H10  1  0.67371000  0.10159000  0.62852000  1.0
  H  H11  1  0.32625000  0.89838000  0.37147000  1.0
  H  H12  1  0.23584000  0.07548000  0.65530000  1.0
  H  H13  1  0.76409000  0.92455000  0.34470000  1.0
  H  H14  1  0.25426000  0.22894000  0.41780000  1.0
  H  H15  1  0.74568000  0.77109000  0.58221000  1.0
  H  H16  1  0.14272000  0.48919000  0.24082000  1.0
  H  H17  1  0.85733000  0.51083000  0.75918000  1.0
  H  H18  1  0.90557000  0.55440000  0.42178000  1.0
  H  H19  1  0.09447000  0.44561000  0.57823000  1.0
  H  H20  1  0.64203000  0.61834000  0.39302000  1.0
  H  H21  1  0.35803000  0.38165000  0.60699000  1.0
  H  H22  1  0.61756000  0.61128000  0.18649000  1.0
  H  H23  1  0.38248000  0.38872000  0.81352000  1.0
  Rh  Rh24  1  0.38086000  0.48383000  0.00666000  1.0
  Rh  Rh25  1  0.61916000  0.51617000  0.99334000  1.0
  C  C26  1  0.33324000  0.73514000  0.06849000  1.0
  C  C27  1  0.66678000  0.26486000  0.93151000  1.0
  C  C28  1  0.23958000  0.86844000  0.10606000  1.0
  C  C29  1  0.76042000  0.13155000  0.89394000  1.0
  C  C30  1  0.07621000  0.91299000  0.13581000  1.0
  C  C31  1  0.92379000  0.08700000  0.86420000  1.0
  C  C32  1  0.98894000  0.03735000  0.17236000  1.0
  C  C33  1  0.01106000  0.96265000  0.82764000  1.0
  C  C34  1  0.06724000  0.11372000  0.18062000  1.0
  C  C35  1  0.93276000  0.88629000  0.81937000  1.0
  C  C36  1  0.22906000  0.07500000  0.14834000  1.0
  C  C37  1  0.77094000  0.92500000  0.85164000  1.0
  C  C38  1  0.31472000  0.95075000  0.11120000  1.0
  C  C39  1  0.68527000  0.04925000  0.88880000  1.0
  C  C40  1  0.48283000  0.34338000  0.24989000  1.0
  C  C41  1  0.51716000  0.65662000  0.75010000  1.0
  C  C42  1  0.47312000  0.25300000  0.39049000  1.0
  C  C43  1  0.52685000  0.74700000  0.60951000  1.0
  C  C44  1  0.59172000  0.21781000  0.44921000  1.0
  C  C45  1  0.40825000  0.78217000  0.55079000  1.0
  C  C46  1  0.58339000  0.13078000  0.58052000  1.0
  C  C47  1  0.41657000  0.86920000  0.41948000  1.0
  C  C48  1  0.45460000  0.08153000  0.65114000  1.0
  C  C49  1  0.54535000  0.91846000  0.34885000  1.0
  C  C50  1  0.33474000  0.11561000  0.59620000  1.0
  C  C51  1  0.66521000  0.88440000  0.40379000  1.0
  C  C52  1  0.34515000  0.20134000  0.46469000  1.0
  C  C53  1  0.65480000  0.79868000  0.53530000  1.0
  C  C54  1  0.01838000  0.51037000  0.10937000  1.0
  C  C55  1  0.98166000  0.48964000  0.89064000  1.0
  C  C56  1  0.02796000  0.51637000  0.22950000  1.0
  C  C57  1  0.97209000  0.48365000  0.77049000  1.0
  C  C58  1  0.89567000  0.55210000  0.32973000  1.0
  C  C59  1  0.10438000  0.44791000  0.67027000  1.0
  C  C60  1  0.74623000  0.58752000  0.31396000  1.0
  C  C61  1  0.25382000  0.41249000  0.68606000  1.0
  C  C62  1  0.73170000  0.58321000  0.19960000  1.0
  C  C63  1  0.26835000  0.41679000  0.80041000  1.0
  C  C64  1  0.86576000  0.54082000  0.09575000  1.0
  C  C65  1  0.13426000  0.45919000  0.90426000  1.0
  N  N66  1  0.15090000  0.47229000  0.01234000  1.0
  N  N67  1  0.84914000  0.52771000  0.98767000  1.0
  O  O68  1  0.25932000  0.66696000  0.05993000  1.0
  O  O69  1  0.74069000  0.33304000  0.94006000  1.0
  O  O70  1  0.48157000  0.69748000  0.04793000  1.0
  O  O71  1  0.51845000  0.30252000  0.95208000  1.0
  O  O72  1  0.37479000  0.36395000  0.20063000  1.0
  O  O73  1  0.62522000  0.63604000  0.79936000  1.0
  O  O74  1  0.59754000  0.39389000  0.18826000  1.0
  O  O75  1  0.40245000  0.60612000  0.81175000  1.0
  F  F76  1  0.98053000  0.23128000  0.22330000  1.0
  F  F77  1  0.01947000  0.76873000  0.77668000  1.0
  F  F78  1  0.44439000  0.99645000  0.78004000  1.0
  F  F79  1  0.55556000  0.00353000  0.21995000  1.0
