# generated using pymatgen
data_GdH6C2ClO7
_symmetry_space_group_name_H-M   'P 1'
_cell_length_a   5.84562000
_cell_length_b   8.22313000
_cell_length_c   15.55590000
_cell_angle_alpha   90.00000000
_cell_angle_beta   90.00010000
_cell_angle_gamma   105.04400000
_symmetry_Int_Tables_number   1
_chemical_formula_structural   GdH6C2ClO7
_chemical_formula_sum   'Gd4 H24 C8 Cl4 O28'
_cell_volume   722.13293868
_cell_formula_units_Z   4
loop_
 _symmetry_equiv_pos_site_id
 _symmetry_equiv_pos_as_xyz
  1  'x, y, z'
loop_
 _atom_site_type_symbol
 _atom_site_label
 _atom_site_symmetry_multiplicity
 _atom_site_fract_x
 _atom_site_fract_y
 _atom_site_fract_z
 _atom_site_occupancy
  Gd  Gd0  1  0.98120000  0.16875000  0.39186000  1.0
  Gd  Gd1  1  0.51880000  0.33126000  0.89185000  1.0
  Gd  Gd2  1  0.01879000  0.83126000  0.60815000  1.0
  Gd  Gd3  1  0.48121000  0.66874000  0.10814000  1.0
  H  H4  1  0.33997000  0.49720000  0.33294000  1.0
  H  H5  1  0.16005000  0.00280000  0.83293000  1.0
  H  H6  1  0.66004000  0.50280000  0.66706000  1.0
  H  H7  1  0.83996000  0.99720000  0.16706000  1.0
  H  H8  1  0.49800000  0.37944000  0.36830000  1.0
  H  H9  1  0.00201000  0.12056000  0.86829000  1.0
  H  H10  1  0.50201000  0.62056000  0.63171000  1.0
  H  H11  1  0.99800000  0.87944000  0.13171000  1.0
  H  H12  1  0.21218000  0.95506000  0.27785000  1.0
  H  H13  1  0.28783000  0.54494000  0.77785000  1.0
  H  H14  1  0.78783000  0.04495000  0.72215000  1.0
  H  H15  1  0.71218000  0.45506000  0.22215000  1.0
  H  H16  1  0.37746000  0.13644000  0.26662000  1.0
  H  H17  1  0.12255000  0.36356000  0.76662000  1.0
  H  H18  1  0.62255000  0.86357000  0.73338000  1.0
  H  H19  1  0.87746000  0.63644000  0.23338000  1.0
  H  H20  1  0.64585000  0.83362000  0.32370000  1.0
  H  H21  1  0.85415000  0.66639000  0.82370000  1.0
  H  H22  1  0.35415000  0.16639000  0.67630000  1.0
  H  H23  1  0.14585000  0.33362000  0.17630000  1.0
  H  H24  1  0.83072000  0.79259000  0.39121000  1.0
  H  H25  1  0.66927000  0.70742000  0.89120000  1.0
  H  H26  1  0.16928000  0.20742000  0.60879000  1.0
  H  H27  1  0.33072000  0.29259000  0.10879000  1.0
  C  C28  1  0.05681000  0.46418000  0.53815000  1.0
  C  C29  1  0.44318000  0.03581000  0.03815000  1.0
  C  C30  1  0.94318000  0.53581000  0.46185000  1.0
  C  C31  1  0.55679000  0.96417000  0.96185000  1.0
  C  C32  1  0.44181000  0.04859000  0.46834000  1.0
  C  C33  1  0.05819000  0.45140000  0.96834000  1.0
  C  C34  1  0.55819000  0.95140000  0.53166000  1.0
  C  C35  1  0.94181000  0.54859000  0.03166000  1.0
  Cl  Cl36  1  0.79047000  0.21809000  0.22878000  1.0
  Cl  Cl37  1  0.70954000  0.28191000  0.72878000  1.0
  Cl  Cl38  1  0.20953000  0.78191000  0.77121000  1.0
  Cl  Cl39  1  0.29047000  0.71809000  0.27122000  1.0
  O  O40  1  0.08042000  0.31563000  0.52836000  1.0
  O  O41  1  0.41958000  0.18437000  0.02836000  1.0
  O  O42  1  0.91959000  0.68438000  0.47164000  1.0
  O  O43  1  0.58040000  0.81562000  0.97164000  1.0
  O  O44  1  0.11604000  0.55669000  0.60315000  1.0
  O  O45  1  0.38395000  0.94332000  0.10315000  1.0
  O  O46  1  0.88395000  0.44330000  0.39686000  1.0
  O  O47  1  0.61603000  0.05669000  0.89685000  1.0
  O  O48  1  0.57452000  0.14727000  0.41673000  1.0
  O  O49  1  0.92546000  0.35271000  0.91673000  1.0
  O  O50  1  0.42545000  0.85271000  0.58327000  1.0
  O  O51  1  0.07453000  0.64727000  0.08327000  1.0
  O  O52  1  0.21796000  0.02115000  0.47363000  1.0
  O  O53  1  0.28203000  0.47884000  0.97364000  1.0
  O  O54  1  0.78202000  0.97884000  0.52636000  1.0
  O  O55  1  0.71797000  0.52115000  0.02637000  1.0
  O  O56  1  0.33597000  0.39155000  0.36400000  1.0
  O  O57  1  0.16404000  0.10845000  0.86400000  1.0
  O  O58  1  0.66404000  0.60845000  0.63600000  1.0
  O  O59  1  0.83597000  0.89155000  0.13600000  1.0
  O  O60  1  0.21472000  0.07558000  0.28157000  1.0
  O  O61  1  0.28528000  0.42442000  0.78157000  1.0
  O  O62  1  0.78528000  0.92443000  0.71843000  1.0
  O  O63  1  0.71472000  0.57558000  0.21843000  1.0
  O  O64  1  0.79998000  0.88069000  0.35177000  1.0
  O  O65  1  0.70002000  0.61932000  0.85177000  1.0
  O  O66  1  0.20002000  0.11932000  0.64823000  1.0
  O  O67  1  0.29998000  0.38069000  0.14823000  1.0
