# generated using pymatgen
data_CdH24C38(NO)4
_symmetry_space_group_name_H-M   'P 1'
_cell_length_a   10.64110000
_cell_length_b   10.72380000
_cell_length_c   14.83000000
_cell_angle_alpha   93.26600000
_cell_angle_beta   93.29140000
_cell_angle_gamma   109.80100000
_symmetry_Int_Tables_number   1
_chemical_formula_structural   CdH24C38(NO)4
_chemical_formula_sum   'Cd2 H48 C76 N8 O8'
_cell_volume   1584.34288577
_cell_formula_units_Z   2
loop_
 _symmetry_equiv_pos_site_id
 _symmetry_equiv_pos_as_xyz
  1  'x, y, z'
loop_
 _atom_site_type_symbol
 _atom_site_label
 _atom_site_symmetry_multiplicity
 _atom_site_fract_x
 _atom_site_fract_y
 _atom_site_fract_z
 _atom_site_occupancy
  Cd  Cd0  1  0.27291000  0.72509000  0.74917000  1.0
  Cd  Cd1  1  0.72709000  0.27492000  0.25083000  1.0
  H  H2  1  0.36260000  0.00154000  0.88633000  1.0
  H  H3  1  0.99598000  0.63629000  0.61333000  1.0
  H  H4  1  0.63740000  0.99846000  0.11367000  1.0
  H  H5  1  0.00399000  0.36369000  0.38667000  1.0
  H  H6  1  0.44432000  0.25041000  0.88424000  1.0
  H  H7  1  0.74507000  0.55514000  0.61527000  1.0
  H  H8  1  0.55568000  0.74960000  0.11575000  1.0
  H  H9  1  0.25491000  0.44486000  0.38474000  1.0
  H  H10  1  0.46489000  0.34889000  0.73405000  1.0
  H  H11  1  0.64575000  0.53399000  0.76547000  1.0
  H  H12  1  0.53509000  0.65111000  0.26594000  1.0
  H  H13  1  0.35424000  0.46601000  0.23455000  1.0
  H  H14  1  0.45355000  0.31438000  0.56613000  1.0
  H  H15  1  0.68056000  0.54393000  0.93350000  1.0
  H  H16  1  0.54643000  0.68562000  0.43387000  1.0
  H  H17  1  0.31945000  0.45606000  0.06652000  1.0
  H  H18  1  0.39445000  0.15945000  0.42579000  1.0
  H  H19  1  0.83700000  0.60295000  0.07390000  1.0
  H  H20  1  0.60554000  0.84056000  0.57421000  1.0
  H  H21  1  0.16303000  0.39706000  0.92612000  1.0
  H  H22  1  0.29946000  0.93221000  0.35387000  1.0
  H  H23  1  0.06565000  0.69913000  0.14579000  1.0
  H  H24  1  0.70053000  0.06778000  0.64612000  1.0
  H  H25  1  0.93437000  0.30088000  0.85421000  1.0
  H  H26  1  0.20302000  0.68480000  0.37100000  1.0
  H  H27  1  0.31495000  0.79717000  0.12856000  1.0
  H  H28  1  0.79698000  0.31520000  0.62901000  1.0
  H  H29  1  0.68508000  0.20282000  0.87143000  1.0
  H  H30  1  0.19017000  0.60723000  0.52864000  1.0
  H  H31  1  0.39290000  0.81049000  0.97096000  1.0
  H  H32  1  0.80982000  0.39277000  0.47136000  1.0
  H  H33  1  0.60712000  0.18951000  0.02902000  1.0
  H  H34  1  0.60006000  0.81454000  0.97377000  1.0
  H  H35  1  0.18121000  0.39775000  0.52463000  1.0
  H  H36  1  0.39995000  0.18546000  0.02622000  1.0
  H  H37  1  0.81877000  0.60224000  0.47537000  1.0
  H  H38  1  0.80740000  0.90346000  0.07627000  1.0
  H  H39  1  0.09358000  0.19114000  0.42293000  1.0
  H  H40  1  0.19260000  0.09652000  0.92373000  1.0
  H  H41  1  0.90641000  0.80886000  0.57707000  1.0
  H  H42  1  0.82377000  0.93505000  0.74490000  1.0
  H  H43  1  0.06495000  0.17642000  0.75456000  1.0
  H  H44  1  0.17623000  0.06497000  0.25510000  1.0
  H  H45  1  0.93503000  0.82358000  0.24544000  1.0
  H  H46  1  0.03468000  0.01810000  0.84451000  1.0
  H  H47  1  0.98338000  0.96654000  0.65569000  1.0
  H  H48  1  0.96533000  0.98191000  0.15549000  1.0
  H  H49  1  0.01661000  0.03346000  0.34430000  1.0
  C  C50  1  0.37305000  0.04808000  0.82235000  1.0
  C  C51  1  0.94889000  0.62593000  0.67723000  1.0
  C  C52  1  0.62695000  0.95192000  0.17764000  1.0
  C  C53  1  0.05109000  0.37407000  0.32277000  1.0
  C  C54  1  0.41989000  0.18738000  0.82091000  1.0
  C  C55  1  0.80854000  0.57931000  0.67862000  1.0
  C  C56  1  0.58011000  0.81263000  0.17908000  1.0
  C  C57  1  0.19143000  0.42069000  0.32139000  1.0
  C  C58  1  0.43222000  0.24154000  0.73819000  1.0
  C  C59  1  0.75396000  0.56668000  0.76134000  1.0
  C  C60  1  0.56777000  0.75846000  0.26180000  1.0
  C  C61  1  0.24604000  0.43332000  0.23868000  1.0
  C  C62  1  0.40001000  0.15706000  0.65749000  1.0
  C  C63  1  0.83907000  0.59854000  0.84210000  1.0
  C  C64  1  0.59999000  0.84295000  0.34250000  1.0
  C  C65  1  0.16093000  0.40145000  0.15792000  1.0
  C  C66  1  0.41501000  0.20688000  0.56991000  1.0
  C  C67  1  0.78892000  0.58291000  0.92970000  1.0
  C  C68  1  0.58499000  0.79312000  0.43008000  1.0
  C  C69  1  0.21109000  0.41709000  0.07031000  1.0
  C  C70  1  0.38154000  0.12276000  0.49303000  1.0
  C  C71  1  0.87374000  0.61625000  0.00663000  1.0
  C  C72  1  0.61846000  0.87724000  0.50696000  1.0
  C  C73  1  0.12628000  0.38375000  0.99338000  1.0
  C  C74  1  0.32813000  0.98180000  0.49850000  1.0
  C  C75  1  0.01570000  0.67036000  0.00117000  1.0
  C  C76  1  0.67187000  0.01820000  0.50150000  1.0
  C  C77  1  0.98432000  0.32964000  0.99883000  1.0
  C  C78  1  0.28786000  0.89200000  0.42013000  1.0
  C  C79  1  0.10617000  0.71103000  0.07953000  1.0
  C  C80  1  0.71212000  0.10799000  0.57986000  1.0
  C  C81  1  0.89386000  0.28897000  0.92047000  1.0
  C  C82  1  0.23625000  0.75710000  0.42976000  1.0
  C  C83  1  0.24205000  0.76346000  0.06983000  1.0
  C  C84  1  0.76373000  0.24289000  0.57024000  1.0
  C  C85  1  0.75798000  0.23654000  0.93016000  1.0
  C  C86  1  0.22690000  0.71282000  0.51744000  1.0
  C  C87  1  0.28653000  0.77310000  0.98212000  1.0
  C  C88  1  0.77309000  0.28718000  0.48255000  1.0
  C  C89  1  0.71348000  0.22690000  0.01787000  1.0
  C  C90  1  0.31258000  0.92771000  0.58428000  1.0
  C  C91  1  0.07011000  0.68637000  0.91535000  1.0
  C  C92  1  0.68743000  0.07229000  0.41572000  1.0
  C  C93  1  0.92990000  0.31362000  0.08464000  1.0
  C  C94  1  0.35063000  0.01734000  0.66569000  1.0
  C  C95  1  0.97981000  0.64818000  0.83394000  1.0
  C  C96  1  0.64937000  0.98266000  0.33431000  1.0
  C  C97  1  0.02019000  0.35181000  0.16607000  1.0
  C  C98  1  0.57089000  0.82202000  0.79258000  1.0
  C  C99  1  0.17496000  0.42758000  0.70611000  1.0
  C  C100  1  0.42912000  0.17798000  0.20742000  1.0
  C  C101  1  0.82504000  0.57241000  0.29389000  1.0
  C  C102  1  0.69874000  0.87180000  0.85340000  1.0
  C  C103  1  0.12617000  0.30026000  0.64560000  1.0
  C  C104  1  0.30127000  0.12821000  0.14660000  1.0
  C  C105  1  0.87382000  0.69974000  0.35440000  1.0
  C  C106  1  0.69629000  0.86297000  0.94702000  1.0
  C  C107  1  0.13415000  0.30216000  0.55185000  1.0
  C  C108  1  0.30371000  0.13703000  0.05297000  1.0
  C  C109  1  0.86585000  0.69785000  0.44815000  1.0
  C  C110  1  0.81324000  0.91295000  0.00387000  1.0
  C  C111  1  0.08492000  0.18564000  0.49539000  1.0
  C  C112  1  0.18677000  0.08704000  0.99613000  1.0
  C  C113  1  0.91508000  0.81437000  0.50461000  1.0
  C  C114  1  0.82241000  0.92906000  0.81796000  1.0
  C  C115  1  0.07048000  0.17754000  0.68149000  1.0
  C  C116  1  0.17760000  0.07096000  0.18204000  1.0
  C  C117  1  0.92951000  0.82246000  0.31851000  1.0
  C  C118  1  0.93994000  0.97677000  0.87466000  1.0
  C  C119  1  0.02356000  0.06054000  0.62517000  1.0
  C  C120  1  0.06007000  0.02324000  0.12534000  1.0
  C  C121  1  0.97643000  0.93946000  0.37483000  1.0
  C  C122  1  0.93812000  0.97253000  0.96942000  1.0
  C  C123  1  0.02701000  0.06171000  0.53031000  1.0
  C  C124  1  0.06189000  0.02747000  0.03058000  1.0
  C  C125  1  0.97297000  0.93828000  0.46969000  1.0
  N  N126  1  0.33769000  0.96600000  0.74748000  1.0
  N  N127  1  0.03150000  0.66117000  0.75217000  1.0
  N  N128  1  0.66231000  0.03400000  0.25252000  1.0
  N  N129  1  0.96850000  0.33883000  0.24783000  1.0
  N  N130  1  0.26339000  0.79510000  0.59242000  1.0
  N  N131  1  0.20364000  0.73620000  0.90713000  1.0
  N  N132  1  0.73661000  0.20489000  0.40758000  1.0
  N  N133  1  0.79636000  0.26379000  0.09286000  1.0
  O  O134  1  0.46693000  0.75236000  0.83074000  1.0
  O  O135  1  0.24304000  0.53124000  0.66757000  1.0
  O  O136  1  0.53308000  0.24765000  0.16925000  1.0
  O  O137  1  0.75695000  0.46876000  0.33244000  1.0
  O  O138  1  0.57217000  0.85242000  0.71199000  1.0
  O  O139  1  0.14527000  0.42584000  0.78694000  1.0
  O  O140  1  0.42784000  0.14760000  0.28800000  1.0
  O  O141  1  0.85475000  0.57415000  0.21307000  1.0
