# generated using pymatgen
data_HgH4C4N3ClO2
_symmetry_space_group_name_H-M   'P 1'
_cell_length_a   6.84494000
_cell_length_b   8.14886000
_cell_length_c   13.39970000
_cell_angle_alpha   89.99980000
_cell_angle_beta   89.99980000
_cell_angle_gamma   69.37200000
_symmetry_Int_Tables_number   1
_chemical_formula_structural   HgH4C4N3ClO2
_chemical_formula_sum   'Hg4 H16 C16 N12 Cl4 O8'
_cell_volume   699.49596830
_cell_formula_units_Z   4
loop_
 _symmetry_equiv_pos_site_id
 _symmetry_equiv_pos_as_xyz
  1  'x, y, z'
loop_
 _atom_site_type_symbol
 _atom_site_label
 _atom_site_symmetry_multiplicity
 _atom_site_fract_x
 _atom_site_fract_y
 _atom_site_fract_z
 _atom_site_occupancy
  Hg  Hg0  1  0.00000000  0.50000000  0.50000000  1.0
  Hg  Hg1  1  0.00000000  0.00001000  0.00000000  1.0
  Hg  Hg2  1  0.00000000  0.50001000  1.00000000  1.0
  Hg  Hg3  1  0.00000000  0.00000000  0.50000000  1.0
  H  H4  1  0.07739000  0.61263000  0.26914000  1.0
  H  H5  1  0.92261000  0.88737000  0.76913000  1.0
  H  H6  1  0.92261000  0.38736000  0.73086000  1.0
  H  H7  1  0.07739000  0.11263000  0.23086000  1.0
  H  H8  1  0.58194000  0.45563000  0.36578000  1.0
  H  H9  1  0.41806000  0.04437000  0.86577000  1.0
  H  H10  1  0.41806000  0.54437000  0.63422000  1.0
  H  H11  1  0.58194000  0.95564000  0.13422000  1.0
  H  H12  1  0.42305000  0.44232000  0.19497000  1.0
  H  H13  1  0.57694000  0.05768000  0.69497000  1.0
  H  H14  1  0.57695000  0.55767000  0.80503000  1.0
  H  H15  1  0.42306000  0.94232000  0.30503000  1.0
  H  H16  1  0.58643000  0.43647000  0.09032000  1.0
  H  H17  1  0.41357000  0.06354000  0.59032000  1.0
  H  H18  1  0.41356000  0.56353000  0.90968000  1.0
  H  H19  1  0.58643000  0.93646000  0.40967000  1.0
  C  C20  1  0.93722000  0.57992000  0.26887000  1.0
  C  C21  1  0.06278000  0.92008000  0.76886000  1.0
  C  C22  1  0.06278000  0.42008000  0.73113000  1.0
  C  C23  1  0.93721000  0.07992000  0.23113000  1.0
  C  C24  1  0.68606000  0.50126000  0.32185000  1.0
  C  C25  1  0.31394000  0.99874000  0.82185000  1.0
  C  C26  1  0.31393000  0.49874000  0.67815000  1.0
  C  C27  1  0.68607000  0.00126000  0.17815000  1.0
  C  C28  1  0.50890000  0.51401000  0.15549000  1.0
  C  C29  1  0.49110000  0.98599000  0.65549000  1.0
  C  C30  1  0.49109000  0.48599000  0.84451000  1.0
  C  C31  1  0.50890000  0.01401000  0.34451000  1.0
  C  C32  1  0.35830000  0.69406000  0.12003000  1.0
  C  C33  1  0.64170000  0.80593000  0.62003000  1.0
  C  C34  1  0.64170000  0.30594000  0.87998000  1.0
  C  C35  1  0.35831000  0.19407000  0.37997000  1.0
  N  N36  1  0.66846000  0.52755000  0.22312000  1.0
  N  N37  1  0.33154000  0.97244000  0.72312000  1.0
  N  N38  1  0.33154000  0.47244000  0.77688000  1.0
  N  N39  1  0.66847000  0.02755000  0.27688000  1.0
  N  N40  1  0.82617000  0.57820000  0.18848000  1.0
  N  N41  1  0.17384000  0.92180000  0.68847000  1.0
  N  N42  1  0.17383000  0.42180000  0.81152000  1.0
  N  N43  1  0.82616000  0.07820000  0.31152000  1.0
  N  N44  1  0.85549000  0.53390000  0.35263000  1.0
  N  N45  1  0.14451000  0.96610000  0.85263000  1.0
  N  N46  1  0.14451000  0.46610000  0.64737000  1.0
  N  N47  1  0.85549000  0.03391000  0.14737000  1.0
  Cl  Cl48  1  0.23823000  0.23009000  0.06237000  1.0
  Cl  Cl49  1  0.76177000  0.26992000  0.56238000  1.0
  Cl  Cl50  1  0.76177000  0.76991000  0.93762000  1.0
  Cl  Cl51  1  0.23823000  0.73008000  0.43762000  1.0
  O  O52  1  0.23731000  0.68627000  0.04842000  1.0
  O  O53  1  0.76269000  0.81374000  0.54841000  1.0
  O  O54  1  0.76270000  0.31374000  0.95159000  1.0
  O  O55  1  0.23731000  0.18626000  0.45159000  1.0
  O  O56  1  0.36102000  0.83118000  0.16102000  1.0
  O  O57  1  0.63898000  0.66882000  0.66101000  1.0
  O  O58  1  0.63897000  0.16882000  0.83900000  1.0
  O  O59  1  0.36103000  0.33118000  0.33899000  1.0
