# generated using pymatgen
data_AgH8C12(NO)2
_symmetry_space_group_name_H-M   'P 1'
_cell_length_a   6.77901000
_cell_length_b   13.25300000
_cell_length_c   14.14660923
_cell_angle_alpha   117.92179178
_cell_angle_beta   100.19194117
_cell_angle_gamma   90.02470000
_symmetry_Int_Tables_number   1
_chemical_formula_structural   AgH8C12(NO)2
_chemical_formula_sum   'Ag4 H32 C48 N8 O8'
_cell_volume   1100.20561530
_cell_formula_units_Z   4
loop_
 _symmetry_equiv_pos_site_id
 _symmetry_equiv_pos_as_xyz
  1  'x, y, z'
loop_
 _atom_site_type_symbol
 _atom_site_label
 _atom_site_symmetry_multiplicity
 _atom_site_fract_x
 _atom_site_fract_y
 _atom_site_fract_z
 _atom_site_occupancy
  Ag  Ag0  1  0.10933000  0.47108000  0.07613000  1.0
  Ag  Ag1  1  0.39049000  0.39496000  0.92388000  1.0
  Ag  Ag2  1  0.89068000  0.52893000  0.92387000  1.0
  Ag  Ag3  1  0.60951000  0.60503000  0.07612000  1.0
  H  H4  1  0.34020000  0.81935000  0.32960000  1.0
  H  H5  1  0.16007000  0.48983000  0.67039000  1.0
  H  H6  1  0.65980000  0.18065000  0.67040000  1.0
  H  H7  1  0.83993000  0.51017000  0.32962000  1.0
  H  H8  1  0.46891000  0.16418000  0.39158000  1.0
  H  H9  1  0.03135000  0.77263000  0.60839000  1.0
  H  H10  1  0.53108000  0.83582000  0.60843000  1.0
  H  H11  1  0.96866000  0.22738000  0.39163000  1.0
  H  H12  1  0.30943000  0.10799000  0.19717000  1.0
  H  H13  1  0.19078000  0.91086000  0.80283000  1.0
  H  H14  1  0.69056000  0.89202000  0.80284000  1.0
  H  H15  1  0.80922000  0.08915000  0.19719000  1.0
  H  H16  1  0.15807000  0.90527000  0.07174000  1.0
  H  H17  1  0.34213000  0.83362000  0.92825000  1.0
  H  H18  1  0.84192000  0.09474000  0.92827000  1.0
  H  H19  1  0.65787000  0.16638000  0.07176000  1.0
  H  H20  1  0.35787000  0.64612000  0.30552000  1.0
  H  H21  1  0.14202000  0.34061000  0.69452000  1.0
  H  H22  1  0.64213000  0.35388000  0.69448000  1.0
  H  H23  1  0.85799000  0.65939000  0.30548000  1.0
  H  H24  1  0.51583000  0.67366000  0.48856000  1.0
  H  H25  1  0.98415000  0.18508000  0.51144000  1.0
  H  H26  1  0.48417000  0.32634000  0.51144000  1.0
  H  H27  1  0.01584000  0.81491000  0.48856000  1.0
  H  H28  1  0.37271000  0.30978000  0.36369000  1.0
  H  H29  1  0.12719000  0.94606000  0.63628000  1.0
  H  H30  1  0.62728000  0.69022000  0.63631000  1.0
  H  H31  1  0.87280000  0.05395000  0.36373000  1.0
  H  H32  1  0.22508000  0.29886000  0.18615000  1.0
  H  H33  1  0.27471000  0.11270000  0.81385000  1.0
  H  H34  1  0.77492000  0.70115000  0.81385000  1.0
  H  H35  1  0.72528000  0.88729000  0.18615000  1.0
  C  C36  1  0.15527000  0.72798000  0.11815000  1.0
  C  C37  1  0.34476000  0.60986000  0.88185000  1.0
  C  C38  1  0.84473000  0.27203000  0.88185000  1.0
  C  C39  1  0.65524000  0.39014000  0.11816000  1.0
  C  C40  1  0.24179000  0.85024000  0.19295000  1.0
  C  C41  1  0.25833000  0.65736000  0.80705000  1.0
  C  C42  1  0.75821000  0.14976000  0.80705000  1.0
  C  C43  1  0.74168000  0.34265000  0.19296000  1.0
  C  C44  1  0.33046000  0.88244000  0.30079000  1.0
  C  C45  1  0.16976000  0.58172000  0.69919000  1.0
  C  C46  1  0.66954000  0.11756000  0.69921000  1.0
  C  C47  1  0.83025000  0.41828000  0.30082000  1.0
  C  C48  1  0.40730000  0.99649000  0.37295000  1.0
  C  C49  1  0.09288000  0.62358000  0.62701000  1.0
  C  C50  1  0.59270000  0.00350000  0.62705000  1.0
  C  C51  1  0.90712000  0.37642000  0.37299000  1.0
  C  C52  1  0.40081000  0.07725000  0.33486000  1.0
  C  C53  1  0.09938000  0.74243000  0.66512000  1.0
  C  C54  1  0.59918000  0.92276000  0.66515000  1.0
  C  C55  1  0.90063000  0.25758000  0.33489000  1.0
  C  C56  1  0.31313000  0.04511000  0.22660000  1.0
  C  C57  1  0.18700000  0.81853000  0.77338000  1.0
  C  C58  1  0.68686000  0.95490000  0.77341000  1.0
  C  C59  1  0.81300000  0.18148000  0.22663000  1.0
  C  C60  1  0.23080000  0.93226000  0.15610000  1.0
  C  C61  1  0.26932000  0.77622000  0.84390000  1.0
  C  C62  1  0.76919000  0.06775000  0.84391000  1.0
  C  C63  1  0.73069000  0.22378000  0.15611000  1.0
  C  C64  1  0.36452000  0.57409000  0.32291000  1.0
  C  C65  1  0.13537000  0.25119000  0.67711000  1.0
  C  C66  1  0.63549000  0.42591000  0.67709000  1.0
  C  C67  1  0.86462000  0.74882000  0.32290000  1.0
  C  C68  1  0.45204000  0.58826000  0.42544000  1.0
  C  C69  1  0.04789000  0.16282000  0.57455000  1.0
  C  C70  1  0.54796000  0.41174000  0.57456000  1.0
  C  C71  1  0.95211000  0.83719000  0.42546000  1.0
  C  C72  1  0.45680000  0.49399000  0.44553000  1.0
  C  C73  1  0.04318000  0.04844000  0.55447000  1.0
  C  C74  1  0.54320000  0.50601000  0.55447000  1.0
  C  C75  1  0.95682000  0.95156000  0.44553000  1.0
  C  C76  1  0.37479000  0.38777000  0.35629000  1.0
  C  C77  1  0.12513000  0.03145000  0.64370000  1.0
  C  C78  1  0.62521000  0.61223000  0.64371000  1.0
  C  C79  1  0.87486000  0.96855000  0.35631000  1.0
  C  C80  1  0.29074000  0.38071000  0.25600000  1.0
  C  C81  1  0.20912000  0.12470000  0.74399000  1.0
  C  C82  1  0.70926000  0.61929000  0.74400000  1.0
  C  C83  1  0.79088000  0.87529000  0.25601000  1.0
  N  N84  1  0.49918000  0.03725000  0.48377000  1.0
  N  N85  1  0.00098000  0.55349000  0.51620000  1.0
  N  N86  1  0.50082000  0.96274000  0.51623000  1.0
  N  N87  1  0.99903000  0.44652000  0.48381000  1.0
  N  N88  1  0.28277000  0.47217000  0.23886000  1.0
  N  N89  1  0.21707000  0.23330000  0.76115000  1.0
  N  N90  1  0.71723000  0.52783000  0.76114000  1.0
  N  N91  1  0.78293000  0.76670000  0.23886000  1.0
  O  O92  1  0.21772000  0.65583000  0.14957000  1.0
  O  O93  1  0.28230000  0.50624000  0.85035000  1.0
  O  O94  1  0.78227000  0.34417000  0.85043000  1.0
  O  O95  1  0.71770000  0.49376000  0.14965000  1.0
  O  O96  1  0.02776000  0.70853000  0.03282000  1.0
  O  O97  1  0.47223000  0.67573000  0.96721000  1.0
  O  O98  1  0.97224000  0.29148000  0.96718000  1.0
  O  O99  1  0.52778000  0.32427000  0.03280000  1.0
