# generated using pymatgen
data_HgH6C8(N2Cl)2
_symmetry_space_group_name_H-M   'P 1'
_cell_length_a   3.81582000
_cell_length_b   10.51360000
_cell_length_c   12.84030000
_cell_angle_alpha   90.54710000
_cell_angle_beta   91.93870000
_cell_angle_gamma   94.43420000
_symmetry_Int_Tables_number   1
_chemical_formula_structural   HgH6C8(N2Cl)2
_chemical_formula_sum   'Hg2 H12 C16 N8 Cl4'
_cell_volume   513.25310505
_cell_formula_units_Z   2
loop_
 _symmetry_equiv_pos_site_id
 _symmetry_equiv_pos_as_xyz
  1  'x, y, z'
loop_
 _atom_site_type_symbol
 _atom_site_label
 _atom_site_symmetry_multiplicity
 _atom_site_fract_x
 _atom_site_fract_y
 _atom_site_fract_z
 _atom_site_occupancy
  Hg  Hg0  1  0.11065000  0.00696000  0.74493000  1.0
  Hg  Hg1  1  0.88935000  0.99304000  0.25508000  1.0
  H  H2  1  0.88231000  0.17370000  0.52105000  1.0
  H  H3  1  0.11769000  0.82630000  0.47895000  1.0
  H  H4  1  0.66607000  0.54751000  0.58306000  1.0
  H  H5  1  0.33392000  0.45249000  0.41694000  1.0
  H  H6  1  0.11569000  0.31296000  0.82082000  1.0
  H  H7  1  0.88429000  0.68705000  0.17918000  1.0
  H  H8  1  0.89507000  0.83579000  0.97694000  1.0
  H  H9  1  0.10495000  0.16420000  0.02307000  1.0
  H  H10  1  0.66824000  0.44912000  0.91731000  1.0
  H  H11  1  0.33178000  0.55087000  0.08268000  1.0
  H  H12  1  0.12440000  0.70071000  0.68412000  1.0
  H  H13  1  0.87560000  0.29930000  0.31588000  1.0
  C  C14  1  0.88572000  0.25367000  0.57601000  1.0
  C  C15  1  0.11427000  0.74634000  0.42399000  1.0
  C  C16  1  0.77112000  0.45933000  0.61060000  1.0
  C  C17  1  0.22887000  0.54067000  0.38939000  1.0
  C  C18  1  0.89486000  0.44890000  0.71421000  1.0
  C  C19  1  0.10514000  0.55111000  0.28578000  1.0
  C  C20  1  0.01320000  0.33064000  0.74208000  1.0
  C  C21  1  0.98680000  0.66936000  0.25792000  1.0
  C  C22  1  0.89889000  0.75476000  0.92328000  1.0
  C  C23  1  0.10112000  0.24523000  0.07673000  1.0
  C  C24  1  0.77621000  0.54186000  0.88994000  1.0
  C  C25  1  0.22379000  0.45813000  0.11005000  1.0
  C  C26  1  0.89861000  0.55622000  0.78849000  1.0
  C  C27  1  0.10139000  0.44378000  0.21151000  1.0
  C  C28  1  0.02170000  0.68002000  0.76118000  1.0
  C  C29  1  0.97831000  0.31999000  0.23883000  1.0
  N  N30  1  0.00935000  0.23434000  0.67300000  1.0
  N  N31  1  0.99064000  0.76566000  0.32700000  1.0
  N  N32  1  0.76578000  0.36270000  0.54158000  1.0
  N  N33  1  0.23422000  0.63730000  0.45842000  1.0
  N  N34  1  0.02197000  0.77820000  0.82829000  1.0
  N  N35  1  0.97804000  0.22180000  0.17171000  1.0
  N  N36  1  0.77616000  0.64014000  0.95725000  1.0
  N  N37  1  0.22384000  0.35985000  0.04275000  1.0
  Cl  Cl38  1  0.54373000  0.09410000  0.87550000  1.0
  Cl  Cl39  1  0.45627000  0.90590000  0.12450000  1.0
  Cl  Cl40  1  0.66035000  0.91718000  0.61763000  1.0
  Cl  Cl41  1  0.33966000  0.08282000  0.38237000  1.0
