# generated using pymatgen
data_CdH8C12(NO2)2
_symmetry_space_group_name_H-M   'P 1'
_cell_length_a   6.84689000
_cell_length_b   15.53560000
_cell_length_c   15.53560000
_cell_angle_alpha   90.00770000
_cell_angle_beta   90.00000000
_cell_angle_gamma   90.00000000
_symmetry_Int_Tables_number   1
_chemical_formula_structural   CdH8C12(NO2)2
_chemical_formula_sum   'Cd4 H32 C48 N8 O16'
_cell_volume   1652.53021286
_cell_formula_units_Z   4
loop_
 _symmetry_equiv_pos_site_id
 _symmetry_equiv_pos_as_xyz
  1  'x, y, z'
loop_
 _atom_site_type_symbol
 _atom_site_label
 _atom_site_symmetry_multiplicity
 _atom_site_fract_x
 _atom_site_fract_y
 _atom_site_fract_z
 _atom_site_occupancy
  Cd  Cd0  1  0.75000000  0.26650000  0.73350000  1.0
  Cd  Cd1  1  0.25000000  0.73350000  0.26650000  1.0
  Cd  Cd2  1  0.00000000  0.76647000  0.76647000  1.0
  Cd  Cd3  1  0.50000000  0.23353000  0.23353000  1.0
  H  H4  1  0.16640000  0.30276000  0.79421000  1.0
  H  H5  1  0.66640000  0.69724000  0.20579000  1.0
  H  H6  1  0.41642000  0.70580000  0.80273000  1.0
  H  H7  1  0.91642000  0.29420000  0.19727000  1.0
  H  H8  1  0.08358000  0.19727000  0.29420000  1.0
  H  H9  1  0.58358000  0.80273000  0.70580000  1.0
  H  H10  1  0.83360000  0.79421000  0.30276000  1.0
  H  H11  1  0.33361000  0.20579000  0.69724000  1.0
  H  H12  1  0.38892000  0.29498000  0.92164000  1.0
  H  H13  1  0.88892000  0.70502000  0.07836000  1.0
  H  H14  1  0.63883000  0.57832000  0.79499000  1.0
  H  H15  1  0.13883000  0.42168000  0.20501000  1.0
  H  H16  1  0.86117000  0.20501000  0.42168000  1.0
  H  H17  1  0.36117000  0.79499000  0.57832000  1.0
  H  H18  1  0.61108000  0.92164000  0.29498000  1.0
  H  H19  1  0.11108000  0.07836000  0.70502000  1.0
  H  H20  1  0.90395000  0.19799000  0.07020000  1.0
  H  H21  1  0.40396000  0.80202000  0.92980000  1.0
  H  H22  1  0.15385000  0.42978000  0.69797000  1.0
  H  H23  1  0.65385000  0.57022000  0.30203000  1.0
  H  H24  1  0.34615000  0.30203000  0.57022000  1.0
  H  H25  1  0.84615000  0.69796000  0.42978000  1.0
  H  H26  1  0.09605000  0.07020000  0.19798000  1.0
  H  H27  1  0.59604000  0.92980000  0.80202000  1.0
  H  H28  1  0.69896000  0.20815000  0.93764000  1.0
  H  H29  1  0.19896000  0.79185000  0.06235000  1.0
  H  H30  1  0.94889000  0.56236000  0.70819000  1.0
  H  H31  1  0.44889000  0.43764000  0.29181000  1.0
  H  H32  1  0.55111000  0.29181000  0.43764000  1.0
  H  H33  1  0.05111000  0.70819000  0.56236000  1.0
  H  H34  1  0.30104000  0.93764000  0.20815000  1.0
  H  H35  1  0.80104000  0.06236000  0.79185000  1.0
  C  C36  1  0.11347000  0.27933000  0.85607000  1.0
  C  C37  1  0.61347000  0.72067000  0.14393000  1.0
  C  C38  1  0.36347000  0.64392000  0.77934000  1.0
  C  C39  1  0.86347000  0.35608000  0.22066000  1.0
  C  C40  1  0.13653000  0.22066000  0.35608000  1.0
  C  C41  1  0.63653000  0.77934000  0.64392000  1.0
  C  C42  1  0.88653000  0.85607000  0.27933000  1.0
  C  C43  1  0.38653000  0.14393000  0.72067000  1.0
  C  C44  1  0.23715000  0.27473000  0.92679000  1.0
  C  C45  1  0.73714000  0.72527000  0.07321000  1.0
  C  C46  1  0.48702000  0.57318000  0.77477000  1.0
  C  C47  1  0.98702000  0.42682000  0.22523000  1.0
  C  C48  1  0.01298000  0.22523000  0.42682000  1.0
  C  C49  1  0.51298000  0.77477000  0.57318000  1.0
  C  C50  1  0.76286000  0.92679000  0.27473000  1.0
  C  C51  1  0.26286000  0.07321000  0.72527000  1.0
  C  C52  1  0.16380000  0.24465000  0.00516000  1.0
  C  C53  1  0.66380000  0.75535000  0.99484000  1.0
  C  C54  1  0.41364000  0.49481000  0.74469000  1.0
  C  C55  1  0.91364000  0.50519000  0.25531000  1.0
  C  C56  1  0.08636000  0.25531000  0.50519000  1.0
  C  C57  1  0.58636000  0.74469000  0.49481000  1.0
  C  C58  1  0.83620000  0.00516000  0.24465000  1.0
  C  C59  1  0.33620000  0.99484000  0.75535000  1.0
  C  C60  1  0.96705000  0.22048000  0.00981000  1.0
  C  C61  1  0.46705000  0.77952000  0.99019000  1.0
  C  C62  1  0.21694000  0.49015000  0.72049000  1.0
  C  C63  1  0.71694000  0.50984000  0.27951000  1.0
  C  C64  1  0.28306000  0.27951000  0.50985000  1.0
  C  C65  1  0.78306000  0.72049000  0.49016000  1.0
  C  C66  1  0.03295000  0.00981000  0.22048000  1.0
  C  C67  1  0.53295000  0.99019000  0.77952000  1.0
  C  C68  1  0.85296000  0.22606000  0.93587000  1.0
  C  C69  1  0.35297000  0.77394000  0.06413000  1.0
  C  C70  1  0.10291000  0.56411000  0.72610000  1.0
  C  C71  1  0.60291000  0.43589000  0.27390000  1.0
  C  C72  1  0.39709000  0.27390000  0.43589000  1.0
  C  C73  1  0.89709000  0.72610000  0.56411000  1.0
  C  C74  1  0.14704000  0.93587000  0.22606000  1.0
  C  C75  1  0.64704000  0.06413000  0.77394000  1.0
  C  C76  1  0.29448000  0.23993000  0.08277000  1.0
  C  C77  1  0.79448000  0.76007000  0.91723000  1.0
  C  C78  1  0.54430000  0.41722000  0.73992000  1.0
  C  C79  1  0.04430000  0.58278000  0.26008000  1.0
  C  C80  1  0.95570000  0.26008000  0.58278000  1.0
  C  C81  1  0.45570000  0.73992000  0.41722000  1.0
  C  C82  1  0.70552000  0.08277000  0.23993000  1.0
  C  C83  1  0.20551000  0.91723000  0.76007000  1.0
  N  N84  1  0.92480000  0.25476000  0.86035000  1.0
  N  N85  1  0.42479000  0.74524000  0.13965000  1.0
  N  N86  1  0.17478000  0.63964000  0.75478000  1.0
  N  N87  1  0.67478000  0.36036000  0.24522000  1.0
  N  N88  1  0.32522000  0.24522000  0.36036000  1.0
  N  N89  1  0.82522000  0.75478000  0.63964000  1.0
  N  N90  1  0.07521000  0.86035000  0.25476000  1.0
  N  N91  1  0.57521000  0.13965000  0.74524000  1.0
  O  O92  1  0.47745000  0.24568000  0.07294000  1.0
  O  O93  1  0.97745000  0.75432000  0.92706000  1.0
  O  O94  1  0.72726000  0.42709000  0.74568000  1.0
  O  O95  1  0.22726000  0.57291000  0.25432000  1.0
  O  O96  1  0.77274000  0.25432000  0.57291000  1.0
  O  O97  1  0.27274000  0.74568000  0.42709000  1.0
  O  O98  1  0.52255000  0.07294000  0.24568000  1.0
  O  O99  1  0.02255000  0.92706000  0.75432000  1.0
  O  O100  1  0.21134000  0.23097000  0.15622000  1.0
  O  O101  1  0.71135000  0.76903000  0.84378000  1.0
  O  O102  1  0.46126000  0.34375000  0.73089000  1.0
  O  O103  1  0.96126000  0.65625000  0.26911000  1.0
  O  O104  1  0.03874000  0.26911000  0.65625000  1.0
  O  O105  1  0.53874000  0.73089000  0.34375000  1.0
  O  O106  1  0.78866000  0.15622000  0.23097000  1.0
  O  O107  1  0.28865000  0.84378000  0.76903000  1.0
