# generated using pymatgen
data_Cu2H8C11N4O7
_symmetry_space_group_name_H-M   'P 1'
_cell_length_a   7.27127000
_cell_length_b   13.72280000
_cell_length_c   14.09740000
_cell_angle_alpha   67.76600000
_cell_angle_beta   90.01650000
_cell_angle_gamma   90.00540000
_symmetry_Int_Tables_number   1
_chemical_formula_structural   Cu2H8C11N4O7
_chemical_formula_sum   'Cu8 H32 C44 N16 O28'
_cell_volume   1302.07810292
_cell_formula_units_Z   4
loop_
 _symmetry_equiv_pos_site_id
 _symmetry_equiv_pos_as_xyz
  1  'x, y, z'
loop_
 _atom_site_type_symbol
 _atom_site_label
 _atom_site_symmetry_multiplicity
 _atom_site_fract_x
 _atom_site_fract_y
 _atom_site_fract_z
 _atom_site_occupancy
  Cu  Cu0  1  0.10335000  0.90609000  0.58854000  1.0
  Cu  Cu1  1  0.60351000  0.59387000  0.91145000  1.0
  Cu  Cu2  1  0.89664000  0.09391000  0.41145000  1.0
  Cu  Cu3  1  0.39648000  0.40613000  0.08855000  1.0
  Cu  Cu4  1  0.43525000  0.65175000  0.09068000  1.0
  Cu  Cu5  1  0.93532000  0.84831000  0.40921000  1.0
  Cu  Cu6  1  0.56478000  0.34825000  0.90932000  1.0
  Cu  Cu7  1  0.06467000  0.15169000  0.59079000  1.0
  H  H8  1  0.72663000  0.92106000  0.49669000  1.0
  H  H9  1  0.22635000  0.57902000  0.00324000  1.0
  H  H10  1  0.27336000  0.07894000  0.50331000  1.0
  H  H11  1  0.77366000  0.42099000  0.99676000  1.0
  H  H12  1  0.89638000  0.85577000  0.01238000  1.0
  H  H13  1  0.39636000  0.64427000  0.48762000  1.0
  H  H14  1  0.10363000  0.14424000  0.98762000  1.0
  H  H15  1  0.60364000  0.35571000  0.51238000  1.0
  H  H16  1  0.11419000  0.81096000  0.00495000  1.0
  H  H17  1  0.61422000  0.68908000  0.49510000  1.0
  H  H18  1  0.88582000  0.18904000  0.99505000  1.0
  H  H19  1  0.38578000  0.31090000  0.50490000  1.0
  H  H20  1  0.02025000  0.77315000  0.83959000  1.0
  H  H21  1  0.52016000  0.72693000  0.66045000  1.0
  H  H22  1  0.97976000  0.22685000  0.16040000  1.0
  H  H23  1  0.47982000  0.27306000  0.33955000  1.0
  H  H24  1  0.02976000  0.08030000  0.84340000  1.0
  H  H25  1  0.52987000  0.41980000  0.65664000  1.0
  H  H26  1  0.97023000  0.91970000  0.15660000  1.0
  H  H27  1  0.47015000  0.58019000  0.34337000  1.0
  H  H28  1  0.45137000  0.77817000  0.33423000  1.0
  H  H29  1  0.95127000  0.72176000  0.16575000  1.0
  H  H30  1  0.54865000  0.22183000  0.66578000  1.0
  H  H31  1  0.04875000  0.27824000  0.83424000  1.0
  H  H32  1  0.43580000  0.09690000  0.32156000  1.0
  H  H33  1  0.93569000  0.40300000  0.17852000  1.0
  H  H34  1  0.56418000  0.90311000  0.67844000  1.0
  H  H35  1  0.06430000  0.59700000  0.82148000  1.0
  H  H36  1  0.59917000  0.03434000  0.05614000  1.0
  H  H37  1  0.09910000  0.46564000  0.44393000  1.0
  H  H38  1  0.40084000  0.96565000  0.94387000  1.0
  H  H39  1  0.90090000  0.53436000  0.55607000  1.0
  C  C40  1  0.02577000  0.85842000  0.81294000  1.0
  C  C41  1  0.52569000  0.64166000  0.68711000  1.0
  C  C42  1  0.97424000  0.14158000  0.18706000  1.0
  C  C43  1  0.47430000  0.35833000  0.31289000  1.0
  C  C44  1  0.02901000  0.01695000  0.81538000  1.0
  C  C45  1  0.52904000  0.48314000  0.68466000  1.0
  C  C46  1  0.97098000  0.98305000  0.18462000  1.0
  C  C47  1  0.47097000  0.51685000  0.31535000  1.0
  C  C48  1  0.53030000  0.89845000  0.19089000  1.0
  C  C49  1  0.03021000  0.60151000  0.30913000  1.0
  C  C50  1  0.46971000  0.10155000  0.80911000  1.0
  C  C51  1  0.96980000  0.39850000  0.69086000  1.0
  C  C52  1  0.47527000  0.86196000  0.29354000  1.0
  C  C53  1  0.97518000  0.63796000  0.20647000  1.0
  C  C54  1  0.52474000  0.13804000  0.70647000  1.0
  C  C55  1  0.02483000  0.36204000  0.79352000  1.0
  C  C56  1  0.44845000  0.93295000  0.34179000  1.0
  C  C57  1  0.94826000  0.56695000  0.15825000  1.0
  C  C58  1  0.55155000  0.06705000  0.65821000  1.0
  C  C59  1  0.05175000  0.43306000  0.84175000  1.0
  C  C60  1  0.46373000  0.04117000  0.28529000  1.0
  C  C61  1  0.96358000  0.45873000  0.21479000  1.0
  C  C62  1  0.53626000  0.95883000  0.71471000  1.0
  C  C63  1  0.03642000  0.54128000  0.78521000  1.0
  C  C64  1  0.51558000  0.07809000  0.18194000  1.0
  C  C65  1  0.01556000  0.42184000  0.31815000  1.0
  C  C66  1  0.48442000  0.92191000  0.81807000  1.0
  C  C67  1  0.98444000  0.57817000  0.68186000  1.0
  C  C68  1  0.55451000  0.00625000  0.13570000  1.0
  C  C69  1  0.05441000  0.49371000  0.36437000  1.0
  C  C70  1  0.44549000  0.99375000  0.86430000  1.0
  C  C71  1  0.94559000  0.50629000  0.63563000  1.0
  C  C72  1  0.56281000  0.82248000  0.13890000  1.0
  C  C73  1  0.06274000  0.67752000  0.36109000  1.0
  C  C74  1  0.43721000  0.17753000  0.86109000  1.0
  C  C75  1  0.93726000  0.32249000  0.63891000  1.0
  C  C76  1  0.39336000  0.89629000  0.45289000  1.0
  C  C77  1  0.89311000  0.60363000  0.04714000  1.0
  C  C78  1  0.60664000  0.10371000  0.54711000  1.0
  C  C79  1  0.10690000  0.39638000  0.95286000  1.0
  C  C80  1  0.52119000  0.19418000  0.11995000  1.0
  C  C81  1  0.02151000  0.30576000  0.38010000  1.0
  C  C82  1  0.47880000  0.80582000  0.88004000  1.0
  C  C83  1  0.97848000  0.69425000  0.61991000  1.0
  N  N84  1  0.04048000  0.02542000  0.71921000  1.0
  N  N85  1  0.54047000  0.47465000  0.78083000  1.0
  N  N86  1  0.95951000  0.97459000  0.28079000  1.0
  N  N87  1  0.45954000  0.52534000  0.21917000  1.0
  N  N88  1  0.04033000  0.92693000  0.71744000  1.0
  N  N89  1  0.54022000  0.57313000  0.78262000  1.0
  N  N90  1  0.95967000  0.07307000  0.28256000  1.0
  N  N91  1  0.45978000  0.42686000  0.21737000  1.0
  N  N92  1  0.01981000  0.91303000  0.87622000  1.0
  N  N93  1  0.51980000  0.58707000  0.62381000  1.0
  N  N94  1  0.98020000  0.08698000  0.12377000  1.0
  N  N95  1  0.48020000  0.41291000  0.37619000  1.0
  N  N96  1  0.02762000  0.87435000  0.98280000  1.0
  N  N97  1  0.52761000  0.62571000  0.51724000  1.0
  N  N98  1  0.97239000  0.12565000  0.01720000  1.0
  N  N99  1  0.47239000  0.37427000  0.48276000  1.0
  O  O100  1  0.45744000  0.74032000  0.17034000  1.0
  O  O101  1  0.95738000  0.75967000  0.32957000  1.0
  O  O102  1  0.54260000  0.25967000  0.82966000  1.0
  O  O103  1  0.04261000  0.24033000  0.67043000  1.0
  O  O104  1  0.68194000  0.84269000  0.07024000  1.0
  O  O105  1  0.18182000  0.65732000  0.42982000  1.0
  O  O106  1  0.31807000  0.15732000  0.92977000  1.0
  O  O107  1  0.81817000  0.34269000  0.57018000  1.0
  O  O108  1  0.51159000  0.87415000  0.52298000  1.0
  O  O109  1  0.01122000  0.62592000  0.97702000  1.0
  O  O110  1  0.48840000  0.12585000  0.47702000  1.0
  O  O111  1  0.98880000  0.37409000  0.02298000  1.0
  O  O112  1  0.21873000  0.89338000  0.46721000  1.0
  O  O113  1  0.71844000  0.60645000  0.03287000  1.0
  O  O114  1  0.78126000  0.10663000  0.53278000  1.0
  O  O115  1  0.28157000  0.39356000  0.96712000  1.0
  O  O116  1  0.43240000  0.25251000  0.15615000  1.0
  O  O117  1  0.93325000  0.24732000  0.34378000  1.0
  O  O118  1  0.56756000  0.74749000  0.84384000  1.0
  O  O119  1  0.06674000  0.75269000  0.65621000  1.0
  O  O120  1  0.61242000  0.22440000  0.03619000  1.0
  O  O121  1  0.11265000  0.27551000  0.46392000  1.0
  O  O122  1  0.38758000  0.77560000  0.96382000  1.0
  O  O123  1  0.88732000  0.72449000  0.53608000  1.0
  O  O124  1  0.85579000  0.94290000  0.47346000  1.0
  O  O125  1  0.35550000  0.55717000  0.02647000  1.0
  O  O126  1  0.14420000  0.05711000  0.52654000  1.0
  O  O127  1  0.64451000  0.44283000  0.97353000  1.0
