# generated using pymatgen
data_CuH6(C2N)3
_symmetry_space_group_name_H-M   'P 1'
_cell_length_a   9.50904000
_cell_length_b   9.51543000
_cell_length_c   14.40700000
_cell_angle_alpha   90.00000000
_cell_angle_beta   90.00000000
_cell_angle_gamma   90.00000000
_symmetry_Int_Tables_number   1
_chemical_formula_structural   CuH6(C2N)3
_chemical_formula_sum   'Cu8 H48 C48 N24'
_cell_volume   1303.58288285
_cell_formula_units_Z   8
loop_
 _symmetry_equiv_pos_site_id
 _symmetry_equiv_pos_as_xyz
  1  'x, y, z'
loop_
 _atom_site_type_symbol
 _atom_site_label
 _atom_site_symmetry_multiplicity
 _atom_site_fract_x
 _atom_site_fract_y
 _atom_site_fract_z
 _atom_site_occupancy
  Cu  Cu0  1  0.81902000  0.56354000  0.17251000  1.0
  Cu  Cu1  1  0.18098000  0.93647000  0.67251000  1.0
  Cu  Cu2  1  0.31902000  0.43647000  0.32749000  1.0
  Cu  Cu3  1  0.68098000  0.06354000  0.82749000  1.0
  Cu  Cu4  1  0.18706000  0.56894000  0.92264000  1.0
  Cu  Cu5  1  0.81294000  0.93106000  0.42264000  1.0
  Cu  Cu6  1  0.68706000  0.43105000  0.57736000  1.0
  Cu  Cu7  1  0.31294000  0.06894000  0.07737000  1.0
  H  H8  1  0.66975000  0.87251000  0.98751000  1.0
  H  H9  1  0.33025000  0.62748000  0.48752000  1.0
  H  H10  1  0.16975000  0.12748000  0.51249000  1.0
  H  H11  1  0.83024000  0.37251000  0.01249000  1.0
  H  H12  1  0.80641000  0.74336000  0.99596000  1.0
  H  H13  1  0.19360000  0.75663000  0.49596000  1.0
  H  H14  1  0.30640000  0.25663000  0.50404000  1.0
  H  H15  1  0.69359000  0.24337000  0.00405000  1.0
  H  H16  1  0.74124000  0.82095000  0.09777000  1.0
  H  H17  1  0.25876000  0.67905000  0.59778000  1.0
  H  H18  1  0.24125000  0.17904000  0.40223000  1.0
  H  H19  1  0.75875000  0.32095000  0.90223000  1.0
  H  H20  1  0.45118000  0.76535000  0.94507000  1.0
  H  H21  1  0.54882000  0.73465000  0.44507000  1.0
  H  H22  1  0.95118000  0.23466000  0.55493000  1.0
  H  H23  1  0.04881000  0.26535000  0.05493000  1.0
  H  H24  1  0.34389000  0.36910000  0.04478000  1.0
  H  H25  1  0.65611000  0.13091000  0.54478000  1.0
  H  H26  1  0.84390000  0.63090000  0.45522000  1.0
  H  H27  1  0.15610000  0.86910000  0.95522000  1.0
  H  H28  1  0.56210000  0.36387000  0.13831000  1.0
  H  H29  1  0.43790000  0.13612000  0.63831000  1.0
  H  H30  1  0.06211000  0.63612000  0.36169000  1.0
  H  H31  1  0.93789000  0.86388000  0.86169000  1.0
  H  H32  1  0.12787000  0.08458000  0.24594000  1.0
  H  H33  1  0.87212000  0.41542000  0.74594000  1.0
  H  H34  1  0.62787000  0.91542000  0.25406000  1.0
  H  H35  1  0.37213000  0.58458000  0.75406000  1.0
  H  H36  1  0.99615000  0.95262000  0.23236000  1.0
  H  H37  1  0.00384000  0.54738000  0.73235000  1.0
  H  H38  1  0.49615000  0.04737000  0.26764000  1.0
  H  H39  1  0.50385000  0.45262000  0.76764000  1.0
  H  H40  1  0.05648000  0.99211000  0.34461000  1.0
  H  H41  1  0.94351000  0.50789000  0.84461000  1.0
  H  H42  1  0.55647000  0.00789000  0.15539000  1.0
  H  H43  1  0.44353000  0.49211000  0.65539000  1.0
  H  H44  1  0.01611000  0.29972000  0.19585000  1.0
  H  H45  1  0.98389000  0.20028000  0.69585000  1.0
  H  H46  1  0.51611000  0.70028000  0.30415000  1.0
  H  H47  1  0.48389000  0.79972000  0.80415000  1.0
  H  H48  1  0.61907000  0.40677000  0.29470000  1.0
  H  H49  1  0.38092000  0.09323000  0.79470000  1.0
  H  H50  1  0.11908000  0.59322000  0.20530000  1.0
  H  H51  1  0.88092000  0.90678000  0.70530000  1.0
  H  H52  1  0.61401000  0.18921000  0.38873000  1.0
  H  H53  1  0.38599000  0.31079000  0.88873000  1.0
  H  H54  1  0.11401000  0.81078000  0.11127000  1.0
  H  H55  1  0.88599000  0.68922000  0.61126000  1.0
  C  C56  1  0.04858000  0.56153000  0.01553000  1.0
  C  C57  1  0.95142000  0.93848000  0.51553000  1.0
  C  C58  1  0.54858000  0.43847000  0.48447000  1.0
  C  C59  1  0.45142000  0.06153000  0.98447000  1.0
  C  C60  1  0.81226000  0.70226000  0.26526000  1.0
  C  C61  1  0.18775000  0.79773000  0.76525000  1.0
  C  C62  1  0.31226000  0.29774000  0.23474000  1.0
  C  C63  1  0.68774000  0.20227000  0.73475000  1.0
  C  C64  1  0.60467000  0.66970000  0.03590000  1.0
  C  C65  1  0.39533000  0.83030000  0.53591000  1.0
  C  C66  1  0.10468000  0.33030000  0.46410000  1.0
  C  C67  1  0.89532000  0.16970000  0.96410000  1.0
  C  C68  1  0.71016000  0.78451000  0.02833000  1.0
  C  C69  1  0.28984000  0.71549000  0.52833000  1.0
  C  C70  1  0.21017000  0.21549000  0.47167000  1.0
  C  C71  1  0.78983000  0.28451000  0.97168000  1.0
  C  C72  1  0.47839000  0.67306000  0.98600000  1.0
  C  C73  1  0.52162000  0.82694000  0.48600000  1.0
  C  C74  1  0.97839000  0.32695000  0.51400000  1.0
  C  C75  1  0.02161000  0.17306000  0.01400000  1.0
  C  C76  1  0.41784000  0.45613000  0.04125000  1.0
  C  C77  1  0.58216000  0.04387000  0.54125000  1.0
  C  C78  1  0.91785000  0.54388000  0.45875000  1.0
  C  C79  1  0.08216000  0.95613000  0.95875000  1.0
  C  C80  1  0.54032000  0.45342000  0.09359000  1.0
  C  C81  1  0.45968000  0.04657000  0.59359000  1.0
  C  C82  1  0.04033000  0.54657000  0.40641000  1.0
  C  C83  1  0.95967000  0.95343000  0.90641000  1.0
  C  C84  1  0.91935000  0.14561000  0.28572000  1.0
  C  C85  1  0.08065000  0.35439000  0.78571000  1.0
  C  C86  1  0.41934000  0.85438000  0.21428000  1.0
  C  C87  1  0.58066000  0.64561000  0.71428000  1.0
  C  C88  1  0.03308000  0.03916000  0.27670000  1.0
  C  C89  1  0.96692000  0.46084000  0.77670000  1.0
  C  C90  1  0.53308000  0.96083000  0.22330000  1.0
  C  C91  1  0.46692000  0.53916000  0.72330000  1.0
  C  C92  1  0.92340000  0.27236000  0.23638000  1.0
  C  C93  1  0.07660000  0.22765000  0.73638000  1.0
  C  C94  1  0.42340000  0.72764000  0.26362000  1.0
  C  C95  1  0.57660000  0.77236000  0.76362000  1.0
  C  C96  1  0.70620000  0.33290000  0.29134000  1.0
  C  C97  1  0.29380000  0.16710000  0.79134000  1.0
  C  C98  1  0.20620000  0.66709000  0.20866000  1.0
  C  C99  1  0.79380000  0.83291000  0.70866000  1.0
  C  C100  1  0.70337000  0.21053000  0.34372000  1.0
  C  C101  1  0.29662000  0.28947000  0.84372000  1.0
  C  C102  1  0.20337000  0.78946000  0.15628000  1.0
  C  C103  1  0.79663000  0.71054000  0.65628000  1.0
  N  N104  1  0.96581000  0.55322000  0.07643000  1.0
  N  N105  1  0.03419000  0.94678000  0.57644000  1.0
  N  N106  1  0.46582000  0.44678000  0.42356000  1.0
  N  N107  1  0.53419000  0.05322000  0.92357000  1.0
  N  N108  1  0.80376000  0.78494000  0.32616000  1.0
  N  N109  1  0.19625000  0.71505000  0.82616000  1.0
  N  N110  1  0.30375000  0.21505000  0.17384000  1.0
  N  N111  1  0.69624000  0.28495000  0.67384000  1.0
  N  N112  1  0.63495000  0.55842000  0.09152000  1.0
  N  N113  1  0.36505000  0.94158000  0.59152000  1.0
  N  N114  1  0.13496000  0.44158000  0.40848000  1.0
  N  N115  1  0.86504000  0.05842000  0.90848000  1.0
  N  N116  1  0.80809000  0.11559000  0.34141000  1.0
  N  N117  1  0.19190000  0.38441000  0.84141000  1.0
  N  N118  1  0.30809000  0.88440000  0.15859000  1.0
  N  N119  1  0.69191000  0.61560000  0.65859000  1.0
  N  N120  1  0.38524000  0.56652000  0.98680000  1.0
  N  N121  1  0.61476000  0.93349000  0.48680000  1.0
  N  N122  1  0.88525000  0.43349000  0.51320000  1.0
  N  N123  1  0.11475000  0.06651000  0.01320000  1.0
  N  N124  1  0.81692000  0.36554000  0.23713000  1.0
  N  N125  1  0.18308000  0.13446000  0.73713000  1.0
  N  N126  1  0.31692000  0.63445000  0.26287000  1.0
  N  N127  1  0.68308000  0.86555000  0.76286000  1.0
