# generated using pymatgen
data_CdH9C11N7O5
_symmetry_space_group_name_H-M   'P 1'
_cell_length_a   6.68958000
_cell_length_b   9.79505000
_cell_length_c   12.39930000
_cell_angle_alpha   95.13310000
_cell_angle_beta   104.54600000
_cell_angle_gamma   98.13570000
_symmetry_Int_Tables_number   1
_chemical_formula_structural   CdH9C11N7O5
_chemical_formula_sum   'Cd2 H18 C22 N14 O10'
_cell_volume   771.85010018
_cell_formula_units_Z   2
loop_
 _symmetry_equiv_pos_site_id
 _symmetry_equiv_pos_as_xyz
  1  'x, y, z'
loop_
 _atom_site_type_symbol
 _atom_site_label
 _atom_site_symmetry_multiplicity
 _atom_site_fract_x
 _atom_site_fract_y
 _atom_site_fract_z
 _atom_site_occupancy
  Cd  Cd0  1  0.24898000  0.22846000  0.49967000  1.0
  Cd  Cd1  1  0.75101000  0.77153000  0.50033000  1.0
  H  H2  1  0.00408000  0.28932000  0.24386000  1.0
  H  H3  1  0.99592000  0.71068000  0.75614000  1.0
  H  H4  1  0.83107000  0.85592000  0.12474000  1.0
  H  H5  1  0.16892000  0.14408000  0.87526000  1.0
  H  H6  1  0.56329000  0.00375000  0.76604000  1.0
  H  H7  1  0.43669000  0.99626000  0.23397000  1.0
  H  H8  1  0.70779000  0.91339000  0.94577000  1.0
  H  H9  1  0.29218000  0.08662000  0.05422000  1.0
  H  H10  1  0.57316000  0.25943000  0.76205000  1.0
  H  H11  1  0.42683000  0.74058000  0.23795000  1.0
  H  H12  1  0.80377000  0.50589000  0.13270000  1.0
  H  H13  1  0.19626000  0.49410000  0.86731000  1.0
  H  H14  1  0.64233000  0.49601000  0.77791000  1.0
  H  H15  1  0.35768000  0.50400000  0.22210000  1.0
  H  H16  1  0.97991000  0.16567000  0.63055000  1.0
  H  H17  1  0.02008000  0.83431000  0.36945000  1.0
  H  H18  1  0.84592000  0.23674000  0.53327000  1.0
  H  H19  1  0.15408000  0.76325000  0.46672000  1.0
  C  C20  1  0.56797000  0.03686000  0.46406000  1.0
  C  C21  1  0.43203000  0.96313000  0.53593000  1.0
  C  C22  1  0.56469000  0.49753000  0.56216000  1.0
  C  C23  1  0.43530000  0.50246000  0.43784000  1.0
  C  C24  1  0.78688000  0.12256000  0.03999000  1.0
  C  C25  1  0.21315000  0.87745000  0.96002000  1.0
  C  C26  1  0.71333000  0.30434000  0.94285000  1.0
  C  C27  1  0.28669000  0.69566000  0.05714000  1.0
  C  C28  1  0.98114000  0.17742000  0.24081000  1.0
  C  C29  1  0.01886000  0.82259000  0.75919000  1.0
  C  C30  1  0.89333000  0.95493000  0.17951000  1.0
  C  C31  1  0.10667000  0.04507000  0.82049000  1.0
  C  C32  1  0.62851000  0.07569000  0.84332000  1.0
  C  C33  1  0.37149000  0.92432000  0.15668000  1.0
  C  C34  1  0.70764000  0.02454000  0.94425000  1.0
  C  C35  1  0.29233000  0.97546000  0.05575000  1.0
  C  C36  1  0.63166000  0.21808000  0.84048000  1.0
  C  C37  1  0.36831000  0.78192000  0.15951000  1.0
  C  C38  1  0.76736000  0.53992000  0.05026000  1.0
  C  C39  1  0.23267000  0.46009000  0.94975000  1.0
  C  C40  1  0.68351000  0.53453000  0.86740000  1.0
  C  C41  1  0.31651000  0.46549000  0.13261000  1.0
  N  N42  1  0.99858000  0.96810000  0.28593000  1.0
  N  N43  1  0.00141000  0.03190000  0.71406000  1.0
  N  N44  1  0.72184000  0.45086000  0.95161000  1.0
  N  N45  1  0.27818000  0.54914000  0.04840000  1.0
  N  N46  1  0.78783000  0.25844000  0.04031000  1.0
  N  N47  1  0.21217000  0.74156000  0.95969000  1.0
  N  N48  1  0.87802000  0.08476000  0.14725000  1.0
  N  N49  1  0.12197000  0.91525000  0.85275000  1.0
  N  N50  1  0.05304000  0.10853000  0.32420000  1.0
  N  N51  1  0.94695000  0.89147000  0.67579000  1.0
  N  N52  1  0.70401000  0.66480000  0.91171000  1.0
  N  N53  1  0.29600000  0.33522000  0.08830000  1.0
  N  N54  1  0.75667000  0.66774000  0.02786000  1.0
  N  N55  1  0.24336000  0.33227000  0.97216000  1.0
  O  O56  1  0.49832000  0.40320000  0.61484000  1.0
  O  O57  1  0.50166000  0.59678000  0.38516000  1.0
  O  O58  1  0.55826000  0.16338000  0.45305000  1.0
  O  O59  1  0.44173000  0.83662000  0.54694000  1.0
  O  O60  1  0.72752000  0.58787000  0.60367000  1.0
  O  O61  1  0.27245000  0.41212000  0.39634000  1.0
  O  O62  1  0.68121000  0.96646000  0.42174000  1.0
  O  O63  1  0.31880000  0.03353000  0.57826000  1.0
  O  O64  1  0.98629000  0.24664000  0.58603000  1.0
  O  O65  1  0.01371000  0.75335000  0.41396000  1.0
