# generated using pymatgen
data_AgH17C10S(NO2)2
_symmetry_space_group_name_H-M   'P 1'
_cell_length_a   9.92878000
_cell_length_b   17.50334200
_cell_length_c   17.50670000
_cell_angle_alpha   116.48952598
_cell_angle_beta   100.90700000
_cell_angle_gamma   100.88771575
_symmetry_Int_Tables_number   1
_chemical_formula_structural   AgH17C10S(NO2)2
_chemical_formula_sum   'Ag6 H102 C60 S6 N12 O24'
_cell_volume   2541.28123196
_cell_formula_units_Z   6
loop_
 _symmetry_equiv_pos_site_id
 _symmetry_equiv_pos_as_xyz
  1  'x, y, z'
loop_
 _atom_site_type_symbol
 _atom_site_label
 _atom_site_symmetry_multiplicity
 _atom_site_fract_x
 _atom_site_fract_y
 _atom_site_fract_z
 _atom_site_occupancy
  Ag  Ag0  1  0.04160000  0.67009000  0.24553000  1.0
  Ag  Ag1  1  0.79603000  0.75455000  0.42474000  1.0
  Ag  Ag2  1  0.37168000  0.57518000  0.32981000  1.0
  Ag  Ag3  1  0.95841000  0.32992000  0.75448000  1.0
  Ag  Ag4  1  0.20398000  0.24546000  0.57527000  1.0
  Ag  Ag5  1  0.62832000  0.42481000  0.67017000  1.0
  H  H6  1  0.05275000  0.34840000  0.17423000  1.0
  H  H7  1  0.87853000  0.82571000  0.17434000  1.0
  H  H8  1  0.70374000  0.82569000  0.65152000  1.0
  H  H9  1  0.94726000  0.65160000  0.82577000  1.0
  H  H10  1  0.12146000  0.17428000  0.82566000  1.0
  H  H11  1  0.29626000  0.17431000  0.34848000  1.0
  H  H12  1  0.22878000  0.39544000  0.17639000  1.0
  H  H13  1  0.05244000  0.82360000  0.21929000  1.0
  H  H14  1  0.83286000  0.78092000  0.60455000  1.0
  H  H15  1  0.77122000  0.60456000  0.82361000  1.0
  H  H16  1  0.94755000  0.17639000  0.78070000  1.0
  H  H17  1  0.16714000  0.21908000  0.39544000  1.0
  H  H18  1  0.15126000  0.31870000  0.00987000  1.0
  H  H19  1  0.14137000  0.99011000  0.30880000  1.0
  H  H20  1  0.83234000  0.69120000  0.68144000  1.0
  H  H21  1  0.84873000  0.68129000  0.99012000  1.0
  H  H22  1  0.85862000  0.00988000  0.69120000  1.0
  H  H23  1  0.16766000  0.30880000  0.31856000  1.0
  H  H24  1  0.10963000  0.23926000  0.04517000  1.0
  H  H25  1  0.06439000  0.95471000  0.19406000  1.0
  H  H26  1  0.87008000  0.80592000  0.76078000  1.0
  H  H27  1  0.89037000  0.76074000  0.95482000  1.0
  H  H28  1  0.93562000  0.04529000  0.80594000  1.0
  H  H29  1  0.12992000  0.19408000  0.23922000  1.0
  H  H30  1  0.85318000  0.23857000  0.01618000  1.0
  H  H31  1  0.83700000  0.98385000  0.22234000  1.0
  H  H32  1  0.61431000  0.77765000  0.76146000  1.0
  H  H33  1  0.14682000  0.76143000  0.98382000  1.0
  H  H34  1  0.16300000  0.01615000  0.77766000  1.0
  H  H35  1  0.38569000  0.22235000  0.23854000  1.0
  H  H36  1  0.90372000  0.21412000  0.91814000  1.0
  H  H37  1  0.98560000  0.08188000  0.29583000  1.0
  H  H38  1  0.68940000  0.70416000  0.78612000  1.0
  H  H39  1  0.09629000  0.78588000  0.08186000  1.0
  H  H40  1  0.01440000  0.91812000  0.70417000  1.0
  H  H41  1  0.31060000  0.29584000  0.21388000  1.0
  H  H42  1  0.76843000  0.32656000  0.94848000  1.0
  H  H43  1  0.82010000  0.05168000  0.37802000  1.0
  H  H44  1  0.44178000  0.62193000  0.67368000  1.0
  H  H45  1  0.23157000  0.67344000  0.05152000  1.0
  H  H46  1  0.17990000  0.94832000  0.62198000  1.0
  H  H47  1  0.55822000  0.37807000  0.32632000  1.0
  H  H48  1  0.94574000  0.37125000  0.95192000  1.0
  H  H49  1  0.99394000  0.04818000  0.41923000  1.0
  H  H50  1  0.57452000  0.58073000  0.62909000  1.0
  H  H51  1  0.05425000  0.62875000  0.04808000  1.0
  H  H52  1  0.00606000  0.95182000  0.58077000  1.0
  H  H53  1  0.42548000  0.41927000  0.37091000  1.0
  H  H54  1  0.88836000  0.48267000  0.08158000  1.0
  H  H55  1  0.80686000  0.91861000  0.40121000  1.0
  H  H56  1  0.40555000  0.59869000  0.51743000  1.0
  H  H57  1  0.11163000  0.51732000  0.91841000  1.0
  H  H58  1  0.19314000  0.08139000  0.59879000  1.0
  H  H59  1  0.59445000  0.40131000  0.48257000  1.0
  H  H60  1  0.84064000  0.40245000  0.11458000  1.0
  H  H61  1  0.72608000  0.88554000  0.28802000  1.0
  H  H62  1  0.43779000  0.71190000  0.59746000  1.0
  H  H63  1  0.15936000  0.59755000  0.88542000  1.0
  H  H64  1  0.27392000  0.11446000  0.71198000  1.0
  H  H65  1  0.56221000  0.28810000  0.40255000  1.0
  H  H66  1  0.14068000  0.48158000  0.10971000  1.0
  H  H67  1  0.03095000  0.89030000  0.37201000  1.0
  H  H68  1  0.65901000  0.62806000  0.51857000  1.0
  H  H69  1  0.85932000  0.51842000  0.89029000  1.0
  H  H70  1  0.96905000  0.10971000  0.62800000  1.0
  H  H71  1  0.34099000  0.37194000  0.48143000  1.0
  H  H72  1  0.96021000  0.55467000  0.33956000  1.0
  H  H73  1  0.62052000  0.66043000  0.21528000  1.0
  H  H74  1  0.40517000  0.78471000  0.44512000  1.0
  H  H75  1  0.03979000  0.44533000  0.66045000  1.0
  H  H76  1  0.37948000  0.33957000  0.78473000  1.0
  H  H77  1  0.59484000  0.21529000  0.55487000  1.0
  H  H78  1  0.91825000  0.44545000  0.25061000  1.0
  H  H79  1  0.66744000  0.74947000  0.19507000  1.0
  H  H80  1  0.47209000  0.80488000  0.55436000  1.0
  H  H81  1  0.08175000  0.55455000  0.74939000  1.0
  H  H82  1  0.33255000  0.25053000  0.80493000  1.0
  H  H83  1  0.52791000  0.19512000  0.44564000  1.0
  H  H84  1  0.82590000  0.39902000  0.41793000  1.0
  H  H85  1  0.40786000  0.58215000  0.98120000  1.0
  H  H86  1  0.42613000  0.01867000  0.60064000  1.0
  H  H87  1  0.17412000  0.60099000  0.58207000  1.0
  H  H88  1  0.59214000  0.41785000  0.01880000  1.0
  H  H89  1  0.57387000  0.98133000  0.39936000  1.0
  H  H90  1  0.82203000  0.46168000  0.36055000  1.0
  H  H91  1  0.46115000  0.63928000  0.10117000  1.0
  H  H92  1  0.35969000  0.89868000  0.53789000  1.0
  H  H93  1  0.17797000  0.53832000  0.63945000  1.0
  H  H94  1  0.53884000  0.36072000  0.89883000  1.0
  H  H95  1  0.64031000  0.10132000  0.46211000  1.0
  H  H96  1  0.22132000  0.45958000  0.49056000  1.0
  H  H97  1  0.73084000  0.50973000  0.96920000  1.0
  H  H98  1  0.76170000  0.03095000  0.54094000  1.0
  H  H99  1  0.77869000  0.54042000  0.50944000  1.0
  H  H100  1  0.26916000  0.49027000  0.03080000  1.0
  H  H101  1  0.23829000  0.96904000  0.45905000  1.0
  H  H102  1  0.06232000  0.39456000  0.49370000  1.0
  H  H103  1  0.56867000  0.50663000  0.90110000  1.0
  H  H104  1  0.66733000  0.09897000  0.60572000  1.0
  H  H105  1  0.93768000  0.60544000  0.50630000  1.0
  H  H106  1  0.43134000  0.49338000  0.09892000  1.0
  H  H107  1  0.33266000  0.90102000  0.39427000  1.0
  C  C108  1  0.11371000  0.37294000  0.13880000  1.0
  C  C109  1  0.97494000  0.86120000  0.23431000  1.0
  C  C110  1  0.74037000  0.76578000  0.62709000  1.0
  C  C111  1  0.88629000  0.62706000  0.86120000  1.0
  C  C112  1  0.02505000  0.13880000  0.76569000  1.0
  C  C113  1  0.25963000  0.23422000  0.37291000  1.0
  C  C114  1  0.08146000  0.29619000  0.04266000  1.0
  C  C115  1  0.03877000  0.95732000  0.25353000  1.0
  C  C116  1  0.78499000  0.74648000  0.70392000  1.0
  C  C117  1  0.91854000  0.70381000  0.95733000  1.0
  C  C118  1  0.96123000  0.04268000  0.74647000  1.0
  C  C119  1  0.21501000  0.25352000  0.29608000  1.0
  C  C120  1  0.92337000  0.26736000  0.98737000  1.0
  C  C121  1  0.93602000  0.01267000  0.27991000  1.0
  C  C122  1  0.65576000  0.72006000  0.73280000  1.0
  C  C123  1  0.07663000  0.73264000  0.01263000  1.0
  C  C124  1  0.06398000  0.98733000  0.72009000  1.0
  C  C125  1  0.34424000  0.27994000  0.26720000  1.0
  C  C126  1  0.88275000  0.34726000  0.98674000  1.0
  C  C127  1  0.89612000  0.01337000  0.36047000  1.0
  C  C128  1  0.53540000  0.63949000  0.65296000  1.0
  C  C129  1  0.11725000  0.65274000  0.01326000  1.0
  C  C130  1  0.10388000  0.98663000  0.63953000  1.0
  C  C131  1  0.46461000  0.36051000  0.34704000  1.0
  C  C132  1  0.91261000  0.42424000  0.08238000  1.0
  C  C133  1  0.83030000  0.91774000  0.34197000  1.0
  C  C134  1  0.48816000  0.65797000  0.57580000  1.0
  C  C135  1  0.08739000  0.57576000  0.91762000  1.0
  C  C136  1  0.16970000  0.08226000  0.65803000  1.0
  C  C137  1  0.51185000  0.34203000  0.42420000  1.0
  C  C138  1  0.07005000  0.45149000  0.13714000  1.0
  C  C139  1  0.93289000  0.86288000  0.31449000  1.0
  C  C140  1  0.61831000  0.68552000  0.54854000  1.0
  C  C141  1  0.92995000  0.54851000  0.86286000  1.0
  C  C142  1  0.06711000  0.13712000  0.68551000  1.0
  C  C143  1  0.38169000  0.31448000  0.45146000  1.0
  C  C144  1  0.00903000  0.50370000  0.30375000  1.0
  C  C145  1  0.70512000  0.69628000  0.20013000  1.0
  C  C146  1  0.50483000  0.79983000  0.49617000  1.0
  C  C147  1  0.99097000  0.49630000  0.69625000  1.0
  C  C148  1  0.29488000  0.30372000  0.79988000  1.0
  C  C149  1  0.49517000  0.20017000  0.50384000  1.0
  C  C150  1  0.09638000  0.48035000  0.36733000  1.0
  C  C151  1  0.72892000  0.63278000  0.11323000  1.0
  C  C152  1  0.61556000  0.88677000  0.51963000  1.0
  C  C153  1  0.90362000  0.51965000  0.63267000  1.0
  C  C154  1  0.27107000  0.36722000  0.88677000  1.0
  C  C155  1  0.38445000  0.11323000  0.48037000  1.0
  C  C156  1  0.88159000  0.46039000  0.41905000  1.0
  C  C157  1  0.46242000  0.58091000  0.04139000  1.0
  C  C158  1  0.42077000  0.95850000  0.53933000  1.0
  C  C159  1  0.11841000  0.53961000  0.58095000  1.0
  C  C160  1  0.53758000  0.41909000  0.95861000  1.0
  C  C161  1  0.57923000  0.04150000  0.46067000  1.0
  C  C162  1  0.11247000  0.45707000  0.49519000  1.0
  C  C163  1  0.61736000  0.50504000  0.96205000  1.0
  C  C164  1  0.65528000  0.03806000  0.54323000  1.0
  C  C165  1  0.88753000  0.54293000  0.50481000  1.0
  C  C166  1  0.38263000  0.49496000  0.03795000  1.0
  C  C167  1  0.34472000  0.96194000  0.45677000  1.0
  S  S168  1  0.11571000  0.54744000  0.25089000  1.0
  S  S169  1  0.86467000  0.74913000  0.29673000  1.0
  S  S170  1  0.56790000  0.70326000  0.45253000  1.0
  S  S171  1  0.88429000  0.45256000  0.74911000  1.0
  S  S172  1  0.13534000  0.25088000  0.70328000  1.0
  S  S173  1  0.43210000  0.29674000  0.54747000  1.0
  N  N174  1  0.02798000  0.45866000  0.41793000  1.0
  N  N175  1  0.61000000  0.58218000  0.04091000  1.0
  N  N176  1  0.56897000  0.95912000  0.54138000  1.0
  N  N177  1  0.97203000  0.54135000  0.58208000  1.0
  N  N178  1  0.39000000  0.41782000  0.95909000  1.0
  N  N179  1  0.43103000  0.04088000  0.45862000  1.0
  N  N180  1  0.36819000  0.74348000  0.25877000  1.0
  N  N181  1  0.10932000  0.74122000  0.48481000  1.0
  N  N182  1  0.62474000  0.51514000  0.25632000  1.0
  N  N183  1  0.63181000  0.25652000  0.74123000  1.0
  N  N184  1  0.89067000  0.25878000  0.51519000  1.0
  N  N185  1  0.37525000  0.48485000  0.74367000  1.0
  O  O186  1  0.22431000  0.48133000  0.37314000  1.0
  O  O187  1  0.85111000  0.62707000  0.10844000  1.0
  O  O188  1  0.74257000  0.89160000  0.51878000  1.0
  O  O189  1  0.77570000  0.51867000  0.62686000  1.0
  O  O190  1  0.14889000  0.37293000  0.89157000  1.0
  O  O191  1  0.25742000  0.10840000  0.48122000  1.0
  O  O192  1  0.25703000  0.77116000  0.26378000  1.0
  O  O193  1  0.99318000  0.73608000  0.50749000  1.0
  O  O194  1  0.48592000  0.49256000  0.22861000  1.0
  O  O195  1  0.74297000  0.22884000  0.73621000  1.0
  O  O196  1  0.00681000  0.26392000  0.49252000  1.0
  O  O197  1  0.51409000  0.50744000  0.77140000  1.0
  O  O198  1  0.49223000  0.80030000  0.29876000  1.0
  O  O199  1  0.19343000  0.70114000  0.50143000  1.0
  O  O200  1  0.69205000  0.49832000  0.19956000  1.0
  O  O201  1  0.50778000  0.19971000  0.70125000  1.0
  O  O202  1  0.80656000  0.29886000  0.49857000  1.0
  O  O203  1  0.30795000  0.50168000  0.80044000  1.0
  O  O204  1  0.35121000  0.66012000  0.21446000  1.0
  O  O205  1  0.13658000  0.78578000  0.44598000  1.0
  O  O206  1  0.69102000  0.55410000  0.33969000  1.0
  O  O207  1  0.64879000  0.33988000  0.78554000  1.0
  O  O208  1  0.86341000  0.21422000  0.55402000  1.0
  O  O209  1  0.30899000  0.44591000  0.66032000  1.0
