# generated using pymatgen
data_ZnH10C28I5NO4
_symmetry_space_group_name_H-M   'P 1'
_cell_length_a   14.46090000
_cell_length_b   15.08230000
_cell_length_c   15.08250000
_cell_angle_alpha   79.54880000
_cell_angle_beta   84.29170000
_cell_angle_gamma   84.29610000
_symmetry_Int_Tables_number   1
_chemical_formula_structural   ZnH10C28I5NO4
_chemical_formula_sum   'Zn2 H20 C56 I10 N2 O8'
_cell_volume   3207.79047048
_cell_formula_units_Z   2
loop_
 _symmetry_equiv_pos_site_id
 _symmetry_equiv_pos_as_xyz
  1  'x, y, z'
loop_
 _atom_site_type_symbol
 _atom_site_label
 _atom_site_symmetry_multiplicity
 _atom_site_fract_x
 _atom_site_fract_y
 _atom_site_fract_z
 _atom_site_occupancy
  Zn  Zn0  1  0.58192000  0.53820000  0.51858000  1.0
  Zn  Zn1  1  0.41808000  0.48140000  0.46180000  1.0
  H  H2  1  0.64573000  0.93305000  0.72107000  1.0
  H  H3  1  0.21285000  0.05861000  0.51492000  1.0
  H  H4  1  0.35425000  0.27894000  0.06696000  1.0
  H  H5  1  0.78718000  0.48502000  0.94140000  1.0
  H  H6  1  0.87723000  0.41109000  0.42193000  1.0
  H  H7  1  0.12275000  0.57796000  0.58907000  1.0
  H  H8  1  0.49730000  0.78192000  0.55648000  1.0
  H  H9  1  0.45094000  0.22613000  0.52219000  1.0
  H  H10  1  0.50269000  0.44353000  0.21807000  1.0
  H  H11  1  0.54910000  0.47774000  0.77386000  1.0
  H  H12  1  0.72756000  0.07474000  0.67225000  1.0
  H  H13  1  0.19783000  0.92399000  0.44510000  1.0
  H  H14  1  0.27244000  0.32772000  0.92528000  1.0
  H  H15  1  0.80219000  0.55489000  0.07600000  1.0
  H  H16  1  0.01388000  0.33197000  0.35445000  1.0
  H  H17  1  0.98609000  0.64543000  0.66818000  1.0
  H  H18  1  0.76898000  0.48447000  0.46684000  1.0
  H  H19  1  0.23102000  0.53314000  0.51557000  1.0
  H  H20  1  0.65194000  0.64302000  0.65177000  1.0
  H  H21  1  0.34805000  0.34822000  0.35699000  1.0
  C  C22  1  0.57582000  0.52047000  0.32775000  1.0
  C  C23  1  0.43495000  0.47543000  0.65807000  1.0
  C  C24  1  0.42418000  0.67224000  0.47953000  1.0
  C  C25  1  0.56509000  0.34193000  0.52453000  1.0
  C  C26  1  0.59147000  0.96314000  0.67698000  1.0
  C  C27  1  0.28281000  0.03094000  0.53151000  1.0
  C  C28  1  0.40852000  0.32302000  0.03687000  1.0
  C  C29  1  0.71722000  0.46844000  0.96906000  1.0
  C  C30  1  0.19684000  0.35506000  0.37297000  1.0
  C  C31  1  0.80313000  0.62701000  0.64500000  1.0
  C  C32  1  0.28346000  0.37932000  0.38599000  1.0
  C  C33  1  0.71652000  0.61401000  0.62070000  1.0
  C  C34  1  0.21721000  0.48277000  0.47638000  1.0
  C  C35  1  0.78277000  0.52366000  0.51723000  1.0
  C  C36  1  0.12596000  0.46249000  0.46750000  1.0
  C  C37  1  0.87402000  0.53252000  0.53753000  1.0
  C  C38  1  0.11448000  0.39791000  0.41154000  1.0
  C  C39  1  0.88550000  0.58845000  0.60215000  1.0
  C  C40  1  0.04511000  0.50547000  0.51211000  1.0
  C  C41  1  0.95486000  0.48793000  0.49452000  1.0
  C  C42  1  0.94617000  0.42542000  0.43576000  1.0
  C  C43  1  0.05381000  0.56416000  0.57470000  1.0
  C  C44  1  0.02262000  0.38084000  0.39740000  1.0
  C  C45  1  0.97736000  0.60254000  0.61926000  1.0
  C  C46  1  0.58260000  0.24287000  0.56173000  1.0
  C  C47  1  0.38001000  0.76448000  0.49069000  1.0
  C  C48  1  0.41743000  0.43822000  0.75713000  1.0
  C  C49  1  0.62000000  0.50931000  0.23550000  1.0
  C  C50  1  0.66528000  0.10852000  0.64177000  1.0
  C  C51  1  0.26208000  0.89156000  0.47268000  1.0
  C  C52  1  0.33473000  0.35820000  0.89149000  1.0
  C  C53  1  0.73794000  0.52730000  0.10843000  1.0
  C  C54  1  0.66237000  0.19950000  0.60389000  1.0
  C  C55  1  0.29338000  0.80450000  0.45999000  1.0
  C  C56  1  0.33766000  0.39606000  0.80050000  1.0
  C  C57  1  0.70663000  0.53999000  0.19548000  1.0
  C  C58  1  0.50873000  0.19135000  0.55877000  1.0
  C  C59  1  0.42941000  0.81292000  0.53756000  1.0
  C  C60  1  0.49131000  0.44115000  0.80864000  1.0
  C  C61  1  0.57059000  0.46244000  0.18708000  1.0
  C  C62  1  0.50791000  0.09958000  0.59774000  1.0
  C  C63  1  0.39717000  0.89908000  0.55646000  1.0
  C  C64  1  0.49211000  0.40222000  0.90042000  1.0
  C  C65  1  0.60284000  0.44352000  0.10093000  1.0
  C  C66  1  0.58926000  0.05703000  0.63913000  1.0
  C  C67  1  0.31332000  0.94075000  0.51942000  1.0
  C  C68  1  0.41074000  0.36085000  0.94299000  1.0
  C  C69  1  0.68670000  0.48055000  0.05925000  1.0
  C  C70  1  0.43313000  0.04604000  0.58816000  1.0
  C  C71  1  0.45147000  0.95033000  0.60122000  1.0
  C  C72  1  0.56689000  0.41181000  0.95397000  1.0
  C  C73  1  0.54853000  0.39875000  0.04968000  1.0
  C  C74  1  0.52509000  0.91207000  0.65802000  1.0
  C  C75  1  0.34081000  0.08178000  0.56408000  1.0
  C  C76  1  0.47490000  0.34197000  0.08793000  1.0
  C  C77  1  0.65922000  0.43586000  0.91823000  1.0
  I  I78  1  0.20948000  0.74206000  0.38644000  1.0
  I  I79  1  0.78635000  0.26327000  0.60308000  1.0
  I  I80  1  0.79052000  0.61357000  0.25791000  1.0
  I  I81  1  0.21371000  0.39681000  0.73672000  1.0
  I  I82  1  0.51934000  0.78060000  0.73666000  1.0
  I  I83  1  0.27894000  0.20453000  0.60307000  1.0
  I  I84  1  0.48062000  0.26334000  0.21942000  1.0
  I  I85  1  0.72111000  0.39688000  0.79547000  1.0
  I  I86  1  0.19129000  0.25082000  0.29859000  1.0
  I  I87  1  0.80867000  0.70139000  0.74925000  1.0
  N  N88  1  0.29246000  0.44376000  0.43600000  1.0
  N  N89  1  0.70753000  0.56402000  0.55624000  1.0
  O  O90  1  0.62991000  0.52251000  0.38870000  1.0
  O  O91  1  0.39164000  0.44433000  0.60284000  1.0
  O  O92  1  0.37009000  0.61127000  0.47751000  1.0
  O  O93  1  0.60840000  0.39716000  0.55563000  1.0
  O  O94  1  0.48719000  0.52340000  0.33831000  1.0
  O  O95  1  0.49696000  0.53193000  0.63706000  1.0
  O  O96  1  0.51281000  0.66168000  0.47659000  1.0
  O  O97  1  0.50306000  0.36295000  0.46804000  1.0
