# generated using pymatgen
data_NaH7C7SO6
_symmetry_space_group_name_H-M   'P 1'
_cell_length_a   6.05222000
_cell_length_b   6.68267000
_cell_length_c   22.32290000
_cell_angle_alpha   90.01070000
_cell_angle_beta   90.00270000
_cell_angle_gamma   81.99040000
_symmetry_Int_Tables_number   1
_chemical_formula_structural   NaH7C7SO6
_chemical_formula_sum   'Na4 H28 C28 S4 O24'
_cell_volume   894.04189522
_cell_formula_units_Z   4
loop_
 _symmetry_equiv_pos_site_id
 _symmetry_equiv_pos_as_xyz
  1  'x, y, z'
loop_
 _atom_site_type_symbol
 _atom_site_label
 _atom_site_symmetry_multiplicity
 _atom_site_fract_x
 _atom_site_fract_y
 _atom_site_fract_z
 _atom_site_occupancy
  Na  Na0  1  0.30221000  0.41508000  0.78972000  1.0
  Na  Na1  1  0.19763000  0.58499000  0.28971000  1.0
  Na  Na2  1  0.69779000  0.58493000  0.21028000  1.0
  Na  Na3  1  0.80237000  0.41499000  0.71030000  1.0
  H  H4  1  0.38102000  0.62673000  0.53897000  1.0
  H  H5  1  0.11906000  0.37325000  0.03900000  1.0
  H  H6  1  0.61898000  0.37325000  0.46102000  1.0
  H  H7  1  0.88095000  0.62678000  0.96100000  1.0
  H  H8  1  0.81231000  0.85601000  0.64693000  1.0
  H  H9  1  0.68776000  0.14373000  0.14692000  1.0
  H  H10  1  0.18772000  0.14396000  0.35307000  1.0
  H  H11  1  0.31222000  0.85628000  0.85308000  1.0
  H  H12  1  0.35067000  0.61703000  0.43005000  1.0
  H  H13  1  0.14936000  0.38301000  0.93008000  1.0
  H  H14  1  0.64938000  0.38296000  0.56995000  1.0
  H  H15  1  0.85055000  0.61699000  0.06992000  1.0
  H  H16  1  0.57660000  0.91254000  0.55624000  1.0
  H  H17  1  0.92348000  0.08734000  0.05622000  1.0
  H  H18  1  0.42341000  0.08743000  0.44376000  1.0
  H  H19  1  0.07654000  0.91270000  0.94378000  1.0
  H  H20  1  0.81257000  0.78900000  0.41126000  1.0
  H  H21  1  0.68753000  0.21112000  0.91126000  1.0
  H  H22  1  0.18746000  0.21101000  0.58875000  1.0
  H  H23  1  0.31243000  0.78889000  0.08873000  1.0
  H  H24  1  0.14002000  0.07303000  0.73441000  1.0
  H  H25  1  0.36016000  0.92662000  0.23443000  1.0
  H  H26  1  0.86000000  0.92693000  0.26559000  1.0
  H  H27  1  0.63983000  0.07341000  0.76557000  1.0
  H  H28  1  0.98639000  0.08331000  0.78989000  1.0
  H  H29  1  0.51362000  0.91637000  0.28994000  1.0
  H  H30  1  0.01361000  0.91669000  0.21011000  1.0
  H  H31  1  0.48640000  0.08362000  0.71006000  1.0
  C  C32  1  0.84316000  0.79821000  0.49579000  1.0
  C  C33  1  0.65689000  0.20179000  0.99579000  1.0
  C  C34  1  0.15682000  0.20180000  0.50421000  1.0
  C  C35  1  0.34309000  0.79821000  0.00420000  1.0
  C  C36  1  0.07360000  0.72054000  0.49069000  1.0
  C  C37  1  0.42649000  0.27947000  0.99070000  1.0
  C  C38  1  0.92642000  0.27948000  0.50931000  1.0
  C  C39  1  0.57348000  0.72053000  0.00930000  1.0
  C  C40  1  0.20507000  0.68829000  0.54281000  1.0
  C  C41  1  0.29502000  0.31165000  0.04283000  1.0
  C  C42  1  0.79495000  0.31170000  0.45719000  1.0
  C  C43  1  0.70496000  0.68839000  0.95718000  1.0
  C  C44  1  0.11137000  0.73503000  0.59847000  1.0
  C  C45  1  0.38874000  0.26481000  0.09847000  1.0
  C  C46  1  0.88867000  0.26493000  0.40153000  1.0
  C  C47  1  0.61127000  0.73524000  0.90152000  1.0
  C  C48  1  0.88451000  0.81653000  0.60304000  1.0
  C  C49  1  0.61557000  0.18327000  0.10304000  1.0
  C  C50  1  0.11551000  0.18341000  0.39696000  1.0
  C  C51  1  0.38443000  0.81676000  0.89696000  1.0
  C  C52  1  0.17098000  0.67572000  0.43253000  1.0
  C  C53  1  0.32909000  0.32435000  0.93255000  1.0
  C  C54  1  0.82909000  0.32426000  0.56747000  1.0
  C  C55  1  0.67086000  0.67565000  0.06746000  1.0
  C  C56  1  0.75101000  0.84674000  0.55251000  1.0
  C  C57  1  0.74905000  0.15315000  0.05250000  1.0
  C  C58  1  0.24898000  0.15323000  0.44749000  1.0
  C  C59  1  0.25095000  0.84687000  0.94750000  1.0
  S  S60  1  0.27330000  0.70632000  0.66513000  1.0
  S  S61  1  0.22675000  0.29358000  0.16515000  1.0
  S  S62  1  0.72669000  0.29367000  0.33486000  1.0
  S  S63  1  0.77321000  0.70644000  0.83486000  1.0
  O  O64  1  0.30077000  0.91609000  0.68164000  1.0
  O  O65  1  0.19949000  0.08384000  0.18166000  1.0
  O  O66  1  0.69932000  0.08390000  0.31837000  1.0
  O  O67  1  0.80043000  0.91623000  0.81834000  1.0
  O  O68  1  0.13656000  0.61322000  0.70889000  1.0
  O  O69  1  0.36343000  0.38686000  0.20887000  1.0
  O  O70  1  0.86341000  0.38679000  0.29111000  1.0
  O  O71  1  0.63660000  0.61311000  0.79112000  1.0
  O  O72  1  0.48452000  0.58168000  0.65031000  1.0
  O  O73  1  0.01554000  0.41807000  0.15030000  1.0
  O  O74  1  0.51554000  0.41828000  0.34969000  1.0
  O  O75  1  0.98448000  0.58196000  0.84969000  1.0
  O  O76  1  0.71228000  0.82600000  0.44706000  1.0
  O  O77  1  0.78780000  0.17408000  0.94705000  1.0
  O  O78  1  0.28775000  0.17400000  0.55295000  1.0
  O  O79  1  0.21215000  0.82593000  0.05294000  1.0
  O  O80  1  0.06670000  0.16925000  0.76441000  1.0
  O  O81  1  0.43347000  0.83041000  0.26442000  1.0
  O  O82  1  0.93332000  0.83073000  0.23559000  1.0
  O  O83  1  0.56651000  0.16960000  0.73558000  1.0
  O  O84  1  0.06081000  0.70156000  0.38494000  1.0
  O  O85  1  0.43922000  0.29859000  0.88495000  1.0
  O  O86  1  0.93924000  0.29841000  0.61506000  1.0
  O  O87  1  0.56069000  0.70142000  0.11505000  1.0
