# generated using pymatgen
data_CdH21C18(NO2)2
_symmetry_space_group_name_H-M   'P 1'
_cell_length_a   9.13277000
_cell_length_b   10.19840000
_cell_length_c   10.81790000
_cell_angle_alpha   64.43140000
_cell_angle_beta   74.24800000
_cell_angle_gamma   88.54580000
_symmetry_Int_Tables_number   1
_chemical_formula_structural   CdH21C18(NO2)2
_chemical_formula_sum   'Cd2 H42 C36 N4 O8'
_cell_volume   869.86695974
_cell_formula_units_Z   2
loop_
 _symmetry_equiv_pos_site_id
 _symmetry_equiv_pos_as_xyz
  1  'x, y, z'
loop_
 _atom_site_type_symbol
 _atom_site_label
 _atom_site_symmetry_multiplicity
 _atom_site_fract_x
 _atom_site_fract_y
 _atom_site_fract_z
 _atom_site_occupancy
  Cd  Cd0  1  0.57017000  0.41665000  0.36242000  1.0
  Cd  Cd1  1  0.42983000  0.58335000  0.63758000  1.0
  H  H2  1  0.56824000  0.92822000  0.36708000  1.0
  H  H3  1  0.43176000  0.07178000  0.63292000  1.0
  H  H4  1  0.98744000  0.75351000  0.24799000  1.0
  H  H5  1  0.01256000  0.24649000  0.75201000  1.0
  H  H6  1  0.99606000  0.15568000  0.28826000  1.0
  H  H7  1  0.00394000  0.84433000  0.71174000  1.0
  H  H8  1  0.23724000  0.18893000  0.19402000  1.0
  H  H9  1  0.76276000  0.81107000  0.80598000  1.0
  H  H10  1  0.38554000  0.07579000  0.22898000  1.0
  H  H11  1  0.61446000  0.92421000  0.77102000  1.0
  H  H12  1  0.21725000  0.04769000  0.36881000  1.0
  H  H13  1  0.78275000  0.95231000  0.63119000  1.0
  H  H14  1  0.20130000  0.93931000  0.02526000  1.0
  H  H15  1  0.79870000  0.06069000  0.97474000  1.0
  H  H16  1  0.37231000  0.02731000  0.01620000  1.0
  H  H17  1  0.62770000  0.97268000  0.98380000  1.0
  H  H18  1  0.20840000  0.12408000  0.99627000  1.0
  H  H19  1  0.79160000  0.87592000  0.00373000  1.0
  H  H20  1  0.20688000  0.77813000  0.41130000  1.0
  H  H21  1  0.79312000  0.22187000  0.58870000  1.0
  H  H22  1  0.37240000  0.82612000  0.26300000  1.0
  H  H23  1  0.62760000  0.17388000  0.73701000  1.0
  H  H24  1  0.20786000  0.73484000  0.26801000  1.0
  H  H25  1  0.79214000  0.26515000  0.73200000  1.0
  H  H26  1  0.61922000  0.67083000  0.03675000  1.0
  H  H27  1  0.38079000  0.32917000  0.96325000  1.0
  H  H28  1  0.39554000  0.75526000  0.89491000  1.0
  H  H29  1  0.60446000  0.24474000  0.10509000  1.0
  H  H30  1  0.21808000  0.29307000  0.40478000  1.0
  H  H31  1  0.78192000  0.70693000  0.59522000  1.0
  H  H32  1  0.06577000  0.36787000  0.33173000  1.0
  H  H33  1  0.93423000  0.63213000  0.66827000  1.0
  H  H34  1  0.13145000  0.43960000  0.43237000  1.0
  H  H35  1  0.86855000  0.56040000  0.56763000  1.0
  H  H36  1  0.10601000  0.71536000  0.98979000  1.0
  H  H37  1  0.89399000  0.28464000  0.01021000  1.0
  H  H38  1  0.01516000  0.58454000  0.16663000  1.0
  H  H39  1  0.98484000  0.41546000  0.83337000  1.0
  H  H40  1  0.08420000  0.38287000  0.09216000  1.0
  H  H41  1  0.91580000  0.61713000  0.90784000  1.0
  H  H42  1  0.16786000  0.51633000  0.91364000  1.0
  H  H43  1  0.83214000  0.48367000  0.08636000  1.0
  C  C44  1  0.69694000  0.17829000  0.34428000  1.0
  C  C45  1  0.30305000  0.82171000  0.65572000  1.0
  C  C46  1  0.77639000  0.05562000  0.32454000  1.0
  C  C47  1  0.22361000  0.94438000  0.67546000  1.0
  C  C48  1  0.69254000  0.93583000  0.33647000  1.0
  C  C49  1  0.30746000  0.06417000  0.66353000  1.0
  C  C50  1  0.77093000  0.82656000  0.31018000  1.0
  C  C51  1  0.22907000  0.17344000  0.68982000  1.0
  C  C52  1  0.93105000  0.83955000  0.27007000  1.0
  C  C53  1  0.06896000  0.16045000  0.72993000  1.0
  C  C54  1  0.01703000  0.95617000  0.26198000  1.0
  C  C55  1  0.98297000  0.04383000  0.73802000  1.0
  C  C56  1  0.93642000  0.06301000  0.29103000  1.0
  C  C57  1  0.06358000  0.93699000  0.70897000  1.0
  C  C58  1  0.68647000  0.69290000  0.32862000  1.0
  C  C59  1  0.31353000  0.30710000  0.67138000  1.0
  C  C60  1  0.19183000  0.96708000  0.21736000  1.0
  C  C61  1  0.80817000  0.03292000  0.78264000  1.0
  C  C62  1  0.26093000  0.07635000  0.25417000  1.0
  C  C63  1  0.73907000  0.92365000  0.74583000  1.0
  C  C64  1  0.24671000  0.01748000  0.05420000  1.0
  C  C65  1  0.75329000  0.98252000  0.94580000  1.0
  C  C66  1  0.24692000  0.81758000  0.29464000  1.0
  C  C67  1  0.75308000  0.18242000  0.70536000  1.0
  C  C68  1  0.49892000  0.63179000  0.07328000  1.0
  C  C69  1  0.50107000  0.36821000  0.92673000  1.0
  C  C70  1  0.38926000  0.67656000  0.00324000  1.0
  C  C71  1  0.61074000  0.32344000  0.99676000  1.0
  C  C72  1  0.28409000  0.49951000  0.22293000  1.0
  C  C73  1  0.71591000  0.50049000  0.77707000  1.0
  C  C74  1  0.16837000  0.39477000  0.35400000  1.0
  C  C75  1  0.83163000  0.60524000  0.64601000  1.0
  C  C76  1  0.10674000  0.60272000  0.06915000  1.0
  C  C77  1  0.89326000  0.39728000  0.93085000  1.0
  C  C78  1  0.07811000  0.49458000  0.01341000  1.0
  C  C79  1  0.92189000  0.50542000  0.98658000  1.0
  N  N80  1  0.43275000  0.52204000  0.20887000  1.0
  N  N81  1  0.56725000  0.47796000  0.79113000  1.0
  N  N82  1  0.25438000  0.59314000  0.09898000  1.0
  N  N83  1  0.74562000  0.40686000  0.90102000  1.0
  O  O84  1  0.55569000  0.18311000  0.35108000  1.0
  O  O85  1  0.44431000  0.81688000  0.64892000  1.0
  O  O86  1  0.77544000  0.27831000  0.34863000  1.0
  O  O87  1  0.22455000  0.72169000  0.65137000  1.0
  O  O88  1  0.75665000  0.61446000  0.27125000  1.0
  O  O89  1  0.24335000  0.38554000  0.72874000  1.0
  O  O90  1  0.54500000  0.65898000  0.40236000  1.0
  O  O91  1  0.45500000  0.34102000  0.59764000  1.0
