# generated using pymatgen
data_Cu2H14C19S2(IN3)2
_symmetry_space_group_name_H-M   'P 1'
_cell_length_a   8.51861000
_cell_length_b   9.22792000
_cell_length_c   15.78990000
_cell_angle_alpha   100.75400000
_cell_angle_beta   90.04270000
_cell_angle_gamma   117.47100000
_symmetry_Int_Tables_number   1
_chemical_formula_structural   Cu2H14C19S2(IN3)2
_chemical_formula_sum   'Cu4 H28 C38 S4 I4 N12'
_cell_volume   1076.55212263
_cell_formula_units_Z   2
loop_
 _symmetry_equiv_pos_site_id
 _symmetry_equiv_pos_as_xyz
  1  'x, y, z'
loop_
 _atom_site_type_symbol
 _atom_site_label
 _atom_site_symmetry_multiplicity
 _atom_site_fract_x
 _atom_site_fract_y
 _atom_site_fract_z
 _atom_site_occupancy
  Cu  Cu0  1  0.99324000  0.85966000  0.97328000  1.0
  Cu  Cu1  1  0.13354000  0.14031000  0.52679000  1.0
  Cu  Cu2  1  0.00677000  0.14033000  0.02672000  1.0
  Cu  Cu3  1  0.86646000  0.85970000  0.47321000  1.0
  H  H4  1  0.73774000  0.23129000  0.90681000  1.0
  H  H5  1  0.50648000  0.76867000  0.59299000  1.0
  H  H6  1  0.26226000  0.76871000  0.09319000  1.0
  H  H7  1  0.49352000  0.23133000  0.40702000  1.0
  H  H8  1  0.52985000  0.17055000  0.02183000  1.0
  H  H9  1  0.35890000  0.82923000  0.47790000  1.0
  H  H10  1  0.47014000  0.82944000  0.97817000  1.0
  H  H11  1  0.64110000  0.17077000  0.52211000  1.0
  H  H12  1  0.71712000  0.70151000  0.10394000  1.0
  H  H13  1  0.01508000  0.29826000  0.39603000  1.0
  H  H14  1  0.28287000  0.29848000  0.89606000  1.0
  H  H15  1  0.98492000  0.70174000  0.60397000  1.0
  H  H16  1  0.52143000  0.40771000  0.12337000  1.0
  H  H17  1  0.11306000  0.59202000  0.37647000  1.0
  H  H18  1  0.47856000  0.59228000  0.87663000  1.0
  H  H19  1  0.88694000  0.40798000  0.62353000  1.0
  H  H20  1  0.90031000  0.29822000  0.80515000  1.0
  H  H21  1  0.60228000  0.70176000  0.69487000  1.0
  H  H22  1  0.09969000  0.70178000  0.19485000  1.0
  H  H23  1  0.39772000  0.29824000  0.30513000  1.0
  H  H24  1  0.12028000  0.41405000  0.70115000  1.0
  H  H25  1  0.70617000  0.58591000  0.79906000  1.0
  H  H26  1  0.87973000  0.58595000  0.29885000  1.0
  H  H27  1  0.29383000  0.41409000  0.20094000  1.0
  H  H28  1  0.56537000  0.11199000  0.76890000  1.0
  H  H29  1  0.45285000  0.88752000  0.73134000  1.0
  H  H30  1  0.43464000  0.88801000  0.23110000  1.0
  H  H31  1  0.54714000  0.11248000  0.26866000  1.0
  C  C32  1  0.95804000  0.54712000  0.87708000  1.0
  C  C33  1  0.41098000  0.45293000  0.62294000  1.0
  C  C34  1  0.04196000  0.45288000  0.12292000  1.0
  C  C35  1  0.58902000  0.54707000  0.37706000  1.0
  C  C36  1  0.72664000  0.33279000  0.94954000  1.0
  C  C37  1  0.39378000  0.66714000  0.55029000  1.0
  C  C38  1  0.27336000  0.66721000  0.05046000  1.0
  C  C39  1  0.60622000  0.33287000  0.44971000  1.0
  C  C40  1  0.83100000  0.49884000  0.94274000  1.0
  C  C41  1  0.33201000  0.50113000  0.55721000  1.0
  C  C42  1  0.16900000  0.50116000  0.05726000  1.0
  C  C43  1  0.66799000  0.49887000  0.44279000  1.0
  C  C44  1  0.61321000  0.29866000  0.01480000  1.0
  C  C45  1  0.31426000  0.70116000  0.48498000  1.0
  C  C46  1  0.38679000  0.70133000  0.98519000  1.0
  C  C47  1  0.68574000  0.29884000  0.51502000  1.0
  C  C48  1  0.71572000  0.59361000  0.06087000  1.0
  C  C49  1  0.12171000  0.40621000  0.43903000  1.0
  C  C50  1  0.28428000  0.40639000  0.93913000  1.0
  C  C51  1  0.87830000  0.59379000  0.56097000  1.0
  C  C52  1  0.60832000  0.43125000  0.07160000  1.0
  C  C53  1  0.17665000  0.56854000  0.42822000  1.0
  C  C54  1  0.39167000  0.56874000  0.92839000  1.0
  C  C55  1  0.82335000  0.43146000  0.57178000  1.0
  C  C56  1  0.17863000  0.76370000  0.82438000  1.0
  C  C57  1  0.41502000  0.23630000  0.67573000  1.0
  C  C58  1  0.82137000  0.23630000  0.17562000  1.0
  C  C59  1  0.58498000  0.76370000  0.32427000  1.0
  C  C60  1  0.97725000  0.43286000  0.81163000  1.0
  C  C61  1  0.54447000  0.56713000  0.68843000  1.0
  C  C62  1  0.02275000  0.56714000  0.18837000  1.0
  C  C63  1  0.45553000  0.43288000  0.31158000  1.0
  C  C64  1  0.10142000  0.49809000  0.75385000  1.0
  C  C65  1  0.60334000  0.50187000  0.74630000  1.0
  C  C66  1  0.89859000  0.50191000  0.24615000  1.0
  C  C67  1  0.39666000  0.49813000  0.25370000  1.0
  C  C68  1  0.43678000  0.99988000  0.75009000  1.0
  C  C69  1  0.56322000  0.00012000  0.24991000  1.0
  S  S70  1  0.31125000  0.98079000  0.84345000  1.0
  S  S71  1  0.33068000  0.01921000  0.65659000  1.0
  S  S72  1  0.68875000  0.01921000  0.15655000  1.0
  S  S73  1  0.66932000  0.98079000  0.34341000  1.0
  I  I74  1  0.81887000  0.96030000  0.88221000  1.0
  I  I75  1  0.85860000  0.03959000  0.61769000  1.0
  I  I76  1  0.18112000  0.03969000  0.11779000  1.0
  I  I77  1  0.14141000  0.96041000  0.38231000  1.0
  N  N78  1  0.82367000  0.62734000  0.99745000  1.0
  N  N79  1  0.19609000  0.37259000  0.50252000  1.0
  N  N80  1  0.17632000  0.37265000  0.00254000  1.0
  N  N81  1  0.80391000  0.62741000  0.49749000  1.0
  N  N82  1  0.05949000  0.71377000  0.88305000  1.0
  N  N83  1  0.34577000  0.28626000  0.61701000  1.0
  N  N84  1  0.94050000  0.28622000  0.11695000  1.0
  N  N85  1  0.65423000  0.71374000  0.38299000  1.0
  N  N86  1  0.20219000  0.66283000  0.75904000  1.0
  N  N87  1  0.53939000  0.33713000  0.74115000  1.0
  N  N88  1  0.79781000  0.33717000  0.24096000  1.0
  N  N89  1  0.46061000  0.66287000  0.25885000  1.0
