# generated using pymatgen
data_CuP2H20(C4O3)4
_symmetry_space_group_name_H-M   'P 1'
_cell_length_a   4.62452000
_cell_length_b   5.91598000
_cell_length_c   17.79777475
_cell_angle_alpha   98.56937675
_cell_angle_beta   91.94063273
_cell_angle_gamma   96.30880000
_symmetry_Int_Tables_number   1
_chemical_formula_structural   CuP2H20(C4O3)4
_chemical_formula_sum   'Cu1 P2 H20 C16 O12'
_cell_volume   477.94429077
_cell_formula_units_Z   1
loop_
 _symmetry_equiv_pos_site_id
 _symmetry_equiv_pos_as_xyz
  1  'x, y, z'
loop_
 _atom_site_type_symbol
 _atom_site_label
 _atom_site_symmetry_multiplicity
 _atom_site_fract_x
 _atom_site_fract_y
 _atom_site_fract_z
 _atom_site_occupancy
  Cu  Cu0  1  0.00002000  0.99999000  0.50000000  1.0
  P  P1  1  0.51222000  0.71409000  0.38467000  1.0
  P  P2  1  0.48780000  0.28591000  0.61533000  1.0
  H  H3  1  0.93439000  0.56945000  0.39306000  1.0
  H  H4  1  0.06563000  0.43055000  0.60694000  1.0
  H  H5  1  0.41031000  0.81801000  0.98091000  1.0
  H  H6  1  0.58970000  0.18199000  0.01908000  1.0
  H  H7  1  0.76299000  0.64218000  0.56029000  1.0
  H  H8  1  0.23703000  0.35783000  0.43972000  1.0
  H  H9  1  0.56795000  0.85536000  0.56592000  1.0
  H  H10  1  0.43207000  0.14465000  0.43409000  1.0
  H  H11  1  0.22982000  0.59596000  0.26921000  1.0
  H  H12  1  0.77019000  0.40404000  0.73079000  1.0
  H  H13  1  0.23491000  0.89328000  0.30314000  1.0
  H  H14  1  0.76508000  0.10672000  0.69686000  1.0
  H  H15  1  0.70871000  0.16396000  0.28624000  1.0
  H  H16  1  0.29127000  0.83605000  0.71375000  1.0
  H  H17  1  0.06934000  0.24500000  0.18989000  1.0
  H  H18  1  0.93062000  0.75499000  0.81010000  1.0
  H  H19  1  0.90663000  0.54262000  0.07980000  1.0
  H  H20  1  0.09336000  0.45738000  0.92020000  1.0
  H  H21  1  0.54166000  0.46005000  0.17365000  1.0
  H  H22  1  0.45835000  0.53995000  0.82635000  1.0
  C  C23  1  0.37377000  0.75362000  0.29180000  1.0
  C  C24  1  0.62624000  0.24638000  0.70820000  1.0
  C  C25  1  0.60051000  0.80589000  0.23656000  1.0
  C  C26  1  0.39950000  0.19412000  0.76345000  1.0
  C  C27  1  0.75139000  0.02746000  0.24106000  1.0
  C  C28  1  0.24863000  0.97255000  0.75894000  1.0
  C  C29  1  0.95468000  0.07299000  0.18779000  1.0
  C  C30  1  0.04532000  0.92701000  0.81221000  1.0
  C  C31  1  0.01151000  0.89856000  0.12950000  1.0
  C  C32  1  0.98846000  0.10142000  0.87049000  1.0
  C  C33  1  0.86317000  0.67703000  0.12534000  1.0
  C  C34  1  0.13678000  0.32297000  0.87465000  1.0
  C  C35  1  0.65986000  0.63188000  0.17856000  1.0
  C  C36  1  0.34011000  0.36814000  0.82144000  1.0
  C  C37  1  0.22670000  0.94893000  0.07296000  1.0
  C  C38  1  0.77323000  0.05104000  0.92703000  1.0
  O  O39  1  0.24925000  0.63260000  0.42840000  1.0
  O  O40  1  0.75078000  0.36739000  0.57160000  1.0
  O  O41  1  0.68323000  0.94457000  0.42153000  1.0
  O  O42  1  0.31679000  0.05541000  0.57847000  1.0
  O  O43  1  0.72208000  0.51954000  0.37366000  1.0
  O  O44  1  0.27794000  0.48048000  0.62634000  1.0
  O  O45  1  0.37161000  0.14260000  0.07735000  1.0
  O  O46  1  0.62840000  0.85738000  0.92264000  1.0
  O  O47  1  0.25164000  0.77602000  0.01850000  1.0
  O  O48  1  0.74834000  0.22396000  0.98149000  1.0
  O  O49  1  0.77099000  0.81421000  0.56600000  1.0
  O  O50  1  0.22904000  0.18580000  0.43401000  1.0
