# generated using pymatgen
data_Zn4H24C36N8O29
_symmetry_space_group_name_H-M   'P 1'
_cell_length_a   17.73110000
_cell_length_b   18.64880000
_cell_length_c   23.26332269
_cell_angle_alpha   113.60503101
_cell_angle_beta   110.13663238
_cell_angle_gamma   90.08520000
_symmetry_Int_Tables_number   1
_chemical_formula_structural   Zn4H24C36N8O29
_chemical_formula_sum   'Zn8 H48 C72 N16 O58'
_cell_volume   6530.46838261
_cell_formula_units_Z   2
loop_
 _symmetry_equiv_pos_site_id
 _symmetry_equiv_pos_as_xyz
  1  'x, y, z'
loop_
 _atom_site_type_symbol
 _atom_site_label
 _atom_site_symmetry_multiplicity
 _atom_site_fract_x
 _atom_site_fract_y
 _atom_site_fract_z
 _atom_site_occupancy
  Zn  Zn0  1  0.11908000  0.52795000  0.05471000  1.0
  Zn  Zn1  1  0.97044000  0.38812000  0.95037000  1.0
  Zn  Zn2  1  0.97981000  0.56167000  0.94988000  1.0
  Zn  Zn3  1  0.93484000  0.53084000  0.06153000  1.0
  Zn  Zn4  1  0.38335000  0.97815000  0.95137000  1.0
  Zn  Zn5  1  0.52781000  0.94316000  0.05913000  1.0
  Zn  Zn6  1  0.52122000  0.11685000  0.05981000  1.0
  Zn  Zn7  1  0.57140000  0.97427000  0.95136000  1.0
  H  H8  1  0.20016000  0.79069000  0.09091000  1.0
  H  H9  1  0.12671000  0.78533000  0.01439000  1.0
  H  H10  1  0.21411000  0.87999000  0.01560000  1.0
  H  H11  1  0.28765000  0.88450000  0.09186000  1.0
  H  H12  1  0.21372000  0.78209000  0.90269000  1.0
  H  H13  1  0.28640000  0.71807000  0.89892000  1.0
  H  H14  1  0.12632000  0.68716000  0.90174000  1.0
  H  H15  1  0.19995000  0.62362000  0.89846000  1.0
  H  H16  1  0.30542000  0.69762000  0.08649000  1.0
  H  H17  1  0.30527000  0.62975000  0.00794000  1.0
  H  H18  1  0.39313000  0.72437000  0.00938000  1.0
  H  H19  1  0.39237000  0.79265000  0.08764000  1.0
  H  H20  1  0.88994000  0.29419000  0.09727000  1.0
  H  H21  1  0.88844000  0.22735000  0.01711000  1.0
  H  H22  1  0.79979000  0.13272000  0.01494000  1.0
  H  H23  1  0.80142000  0.20019000  0.09496000  1.0
  H  H24  1  0.69527000  0.12983000  0.90785000  1.0
  H  H25  1  0.62296000  0.19451000  0.91167000  1.0
  H  H26  1  0.78382000  0.22469000  0.90999000  1.0
  H  H27  1  0.71113000  0.28926000  0.91429000  1.0
  H  H28  1  0.78669000  0.38912000  0.10395000  1.0
  H  H29  1  0.71357000  0.38665000  0.02929000  1.0
  H  H30  1  0.62521000  0.29265000  0.02808000  1.0
  H  H31  1  0.69894000  0.29408000  0.10209000  1.0
  H  H32  1  0.16098000  0.27051000  0.06389000  1.0
  H  H33  1  0.24474000  0.34822000  0.10431000  1.0
  H  H34  1  0.33303000  0.25588000  0.10666000  1.0
  H  H35  1  0.24881000  0.17810000  0.06408000  1.0
  H  H36  1  0.39179000  0.30026000  0.03944000  1.0
  H  H37  1  0.35184000  0.25235000  0.95021000  1.0
  H  H38  1  0.30144000  0.39079000  0.03523000  1.0
  H  H39  1  0.26013000  0.34093000  0.94589000  1.0
  H  H40  1  0.09978000  0.19954000  0.93476000  1.0
  H  H41  1  0.13944000  0.22907000  0.88675000  1.0
  H  H42  1  0.23053000  0.13893000  0.88863000  1.0
  H  H43  1  0.19005000  0.10869000  0.93592000  1.0
  H  H44  1  0.89929000  0.80221000  0.06990000  1.0
  H  H45  1  0.85490000  0.76960000  0.11453000  1.0
  H  H46  1  0.76739000  0.86282000  0.11302000  1.0
  H  H47  1  0.80906000  0.89194000  0.06507000  1.0
  H  H48  1  0.65067000  0.74935000  0.05368000  1.0
  H  H49  1  0.60612000  0.70160000  0.96457000  1.0
  H  H50  1  0.73887000  0.65632000  0.05218000  1.0
  H  H51  1  0.69620000  0.61086000  0.96276000  1.0
  H  H52  1  0.83998000  0.73681000  0.94078000  1.0
  H  H53  1  0.75893000  0.65738000  0.89658000  1.0
  H  H54  1  0.66579000  0.74539000  0.89500000  1.0
  H  H55  1  0.74700000  0.82481000  0.93717000  1.0
  C  C56  1  0.13868000  0.36229000  0.99629000  1.0
  C  C57  1  0.91270000  0.41264000  0.82716000  1.0
  C  C58  1  0.14641000  0.63764000  0.99948000  1.0
  C  C59  1  0.86185000  0.64076000  0.00699000  1.0
  C  C60  1  0.08872000  0.59157000  0.18141000  1.0
  C  C61  1  0.85946000  0.36627000  0.01149000  1.0
  C  C62  1  0.35925000  0.86573000  0.00330000  1.0
  C  C63  1  0.58504000  0.09210000  0.18219000  1.0
  C  C64  1  0.35541000  0.14221000  0.00159000  1.0
  C  C65  1  0.64520000  0.13978000  0.00876000  1.0
  C  C66  1  0.42183000  0.91645000  0.82783000  1.0
  C  C67  1  0.64391000  0.86102000  0.00488000  1.0
  C  C68  1  0.38307000  0.87623000  0.75129000  1.0
  C  C69  1  0.42949000  0.85808000  0.71061000  1.0
  C  C70  1  0.39340000  0.81935000  0.64036000  1.0
  C  C71  1  0.30800000  0.80231000  0.60646000  1.0
  C  C72  1  0.26144000  0.82320000  0.64751000  1.0
  C  C73  1  0.29815000  0.85613000  0.71773000  1.0
  C  C74  1  0.27099000  0.76661000  0.53534000  1.0
  C  C75  1  0.23861000  0.73615000  0.47387000  1.0
  C  C76  1  0.20194000  0.70097000  0.40274000  1.0
  C  C77  1  0.24887000  0.68077000  0.36197000  1.0
  C  C78  1  0.21257000  0.64310000  0.29173000  1.0
  C  C79  1  0.12774000  0.62925000  0.25788000  1.0
  C  C80  1  0.08094000  0.65218000  0.29823000  1.0
  C  C81  1  0.11659000  0.68417000  0.36851000  1.0
  C  C82  1  0.62525000  0.13028000  0.25834000  1.0
  C  C83  1  0.64732000  0.21277000  0.29512000  1.0
  C  C84  1  0.68146000  0.24812000  0.36544000  1.0
  C  C85  1  0.70092000  0.20217000  0.40263000  1.0
  C  C86  1  0.68192000  0.11903000  0.36520000  1.0
  C  C87  1  0.64247000  0.08443000  0.29520000  1.0
  C  C88  1  0.73726000  0.23747000  0.47365000  1.0
  C  C89  1  0.76809000  0.26780000  0.53515000  1.0
  C  C90  1  0.80336000  0.30298000  0.60622000  1.0
  C  C91  1  0.82239000  0.38609000  0.64382000  1.0
  C  C92  1  0.85424000  0.42065000  0.71417000  1.0
  C  C93  1  0.87467000  0.37466000  0.75081000  1.0
  C  C94  1  0.85863000  0.29201000  0.71352000  1.0
  C  C95  1  0.82123000  0.25691000  0.64332000  1.0
  C  C96  1  0.19061000  0.78123000  0.03893000  1.0
  C  C97  1  0.24876000  0.84392000  0.03965000  1.0
  C  C98  1  0.30337000  0.80189000  0.00082000  1.0
  C  C99  1  0.24815000  0.74667000  0.92739000  1.0
  C  C100  1  0.19033000  0.68386000  0.92678000  1.0
  C  C101  1  0.20587000  0.69677000  0.00010000  1.0
  C  C102  1  0.29471000  0.68999000  0.03483000  1.0
  C  C103  1  0.35273000  0.75274000  0.03565000  1.0
  C  C104  1  0.84957000  0.25581000  0.04482000  1.0
  C  C105  1  0.79059000  0.19302000  0.04334000  1.0
  C  C106  1  0.70135000  0.20215000  0.00954000  1.0
  C  C107  1  0.68673000  0.19010000  0.93675000  1.0
  C  C108  1  0.74539000  0.25288000  0.93823000  1.0
  C  C109  1  0.80070000  0.30769000  0.01230000  1.0
  C  C110  1  0.74754000  0.34901000  0.05173000  1.0
  C  C111  1  0.68901000  0.28637000  0.05060000  1.0
  C  C112  1  0.21732000  0.29053000  0.06085000  1.0
  C  C113  1  0.27618000  0.22942000  0.06187000  1.0
  C  C114  1  0.29622000  0.20027000  0.99708000  1.0
  C  C115  1  0.33511000  0.27267000  0.99490000  1.0
  C  C116  1  0.27496000  0.33242000  0.99248000  1.0
  C  C117  1  0.19560000  0.30146000  0.99475000  1.0
  C  C118  1  0.15671000  0.22107000  0.93364000  1.0
  C  C119  1  0.21666000  0.16097000  0.93476000  1.0
  C  C120  1  0.84117000  0.77970000  0.06883000  1.0
  C  C121  1  0.78162000  0.84050000  0.06707000  1.0
  C  C122  1  0.70167000  0.80076000  0.00393000  1.0
  C  C123  1  0.66444000  0.72876000  0.00769000  1.0
  C  C124  1  0.72381000  0.66798000  0.00716000  1.0
  C  C125  1  0.80313000  0.69991000  0.00552000  1.0
  C  C126  1  0.78332000  0.71423000  0.94161000  1.0
  C  C127  1  0.72221000  0.77301000  0.94008000  1.0
  N  N128  1  0.51979000  0.88060000  0.74214000  1.0
  N  N129  1  0.24406000  0.86893000  0.75667000  1.0
  N  N130  1  0.17149000  0.80864000  0.61415000  1.0
  N  N131  1  0.44464000  0.79589000  0.59924000  1.0
  N  N132  1  0.33877000  0.69992000  0.39567000  1.0
  N  N133  1  0.06478000  0.70229000  0.40919000  1.0
  N  N134  1  0.99061000  0.64312000  0.26645000  1.0
  N  N135  1  0.26682000  0.61701000  0.25295000  1.0
  N  N136  1  0.63560000  0.26493000  0.25917000  1.0
  N  N137  1  0.61806000  0.99658000  0.25981000  1.0
  N  N138  1  0.70410000  0.06858000  0.40217000  1.0
  N  N139  1  0.69925000  0.33570000  0.40293000  1.0
  N  N140  1  0.80668000  0.43648000  0.60660000  1.0
  N  N141  1  0.80021000  0.16940000  0.60573000  1.0
  N  N142  1  0.88250000  0.23930000  0.74867000  1.0
  N  N143  1  0.86555000  0.50870000  0.75025000  1.0
  O  O144  1  0.00082000  0.50269000  0.00535000  1.0
  O  O145  1  0.16653000  0.43179000  0.04469000  1.0
  O  O146  1  0.89975000  0.37185000  0.85618000  1.0
  O  O147  1  0.07083000  0.63651000  0.96876000  1.0
  O  O148  1  0.06750000  0.33988000  0.95006000  1.0
  O  O149  1  0.17502000  0.59401000  0.02970000  1.0
  O  O150  1  0.95368000  0.48137000  0.85412000  1.0
  O  O151  1  0.88889000  0.61632000  0.95938000  1.0
  O  O152  1  0.01543000  0.55796000  0.15594000  1.0
  O  O153  1  0.87947000  0.61949000  0.05542000  1.0
  O  O154  1  0.13375000  0.59771000  0.15099000  1.0
  O  O155  1  0.90573000  0.33618000  0.97931000  1.0
  O  O156  1  0.85864000  0.44027000  0.04180000  1.0
  O  O157  1  0.50085000  0.00235000  0.00373000  1.0
  O  O158  1  0.33316000  0.88900000  0.95621000  1.0
  O  O159  1  0.59697000  0.02203000  0.15298000  1.0
  O  O160  1  0.43073000  0.17155000  0.03588000  1.0
  O  O161  1  0.42760000  0.89298000  0.05325000  1.0
  O  O162  1  0.32604000  0.06847000  0.97244000  1.0
  O  O163  1  0.54375000  0.13386000  0.15548000  1.0
  O  O164  1  0.61659000  0.16211000  0.05544000  1.0
  O  O165  1  0.49497000  0.90877000  0.85444000  1.0
  O  O166  1  0.63175000  0.06937000  0.96215000  1.0
  O  O167  1  0.37622000  0.95389000  0.85707000  1.0
  O  O168  1  0.59766000  0.86506000  0.03740000  1.0
  O  O169  1  0.64608000  0.90400000  0.97418000  1.0
  O  O170  1  0.54621000  0.95175000  0.76722000  1.0
  O  O171  1  0.55876000  0.82542000  0.73851000  1.0
  O  O172  1  0.24535000  0.82448000  0.78419000  1.0
  O  O173  1  0.20170000  0.92099000  0.75562000  1.0
  O  O174  1  0.14301000  0.84104000  0.57624000  1.0
  O  O175  1  0.13398000  0.76534000  0.62719000  1.0
  O  O176  1  0.43209000  0.72515000  0.55986000  1.0
  O  O177  1  0.49438000  0.84921000  0.60799000  1.0
  O  O178  1  0.36710000  0.77028000  0.43376000  1.0
  O  O179  1  0.37642000  0.64380000  0.38268000  1.0
  O  O180  1  0.07634000  0.67113000  0.44863000  1.0
  O  O181  1  0.01555000  0.74703000  0.40002000  1.0
  O  O182  1  0.96450000  0.68907000  0.24119000  1.0
  O  O183  1  0.95133000  0.59188000  0.27030000  1.0
  O  O184  1  0.26612000  0.54512000  0.22610000  1.0
  O  O185  1  0.30851000  0.67015000  0.25329000  1.0
  O  O186  1  0.67999000  0.26056000  0.22766000  1.0
  O  O187  1  0.58415000  0.30848000  0.26593000  1.0
  O  O188  1  0.54461000  0.97183000  0.23576000  1.0
  O  O189  1  0.67407000  0.95767000  0.25963000  1.0
  O  O190  1  0.77658000  0.07888000  0.43816000  1.0
  O  O191  1  0.64803000  0.02154000  0.39366000  1.0
  O  O192  1  0.66707000  0.36520000  0.44451000  1.0
  O  O193  1  0.74487000  0.37054000  0.38921000  1.0
  O  O194  1  0.84082000  0.42465000  0.56631000  1.0
  O  O195  1  0.76066000  0.48485000  0.61914000  1.0
  O  O196  1  0.72810000  0.14283000  0.56880000  1.0
  O  O197  1  0.85680000  0.13168000  0.61463000  1.0
  O  O198  1  0.95600000  0.24008000  0.77430000  1.0
  O  O199  1  0.82621000  0.19891000  0.74713000  1.0
  O  O200  1  0.81964000  0.53541000  0.78027000  1.0
  O  O201  1  0.91832000  0.54586000  0.74499000  1.0
