# generated using pymatgen
data_FeH5C8O5
_symmetry_space_group_name_H-M   'P 1'
_cell_length_a   7.02942000
_cell_length_b   11.39340000
_cell_length_c   11.39340000
_cell_angle_alpha   77.95060000
_cell_angle_beta   72.03710000
_cell_angle_gamma   72.03600000
_symmetry_Int_Tables_number   1
_chemical_formula_structural   FeH5C8O5
_chemical_formula_sum   'Fe2 H10 C16 O10'
_cell_volume   819.15619821
_cell_formula_units_Z   2
loop_
 _symmetry_equiv_pos_site_id
 _symmetry_equiv_pos_as_xyz
  1  'x, y, z'
loop_
 _atom_site_type_symbol
 _atom_site_label
 _atom_site_symmetry_multiplicity
 _atom_site_fract_x
 _atom_site_fract_y
 _atom_site_fract_z
 _atom_site_occupancy
  Fe  Fe0  1  0.50000000  0.00000000  0.00000000  1.0
  Fe  Fe1  1  0.00000000  0.00000000  0.00000000  1.0
  H  H2  1  0.36325000  0.38375000  0.00042000  1.0
  H  H3  1  0.25000000  0.86849000  0.13151000  1.0
  H  H4  1  0.13675000  0.99958000  0.61625000  1.0
  H  H5  1  0.24727000  0.61641000  0.99953000  1.0
  H  H6  1  0.75000000  0.13151000  0.86849000  1.0
  H  H7  1  0.25273000  0.00048000  0.38358000  1.0
  H  H8  1  0.63675000  0.61625000  0.99959000  1.0
  H  H9  1  0.86325000  0.00041000  0.38375000  1.0
  H  H10  1  0.75273000  0.38359000  0.00048000  1.0
  H  H11  1  0.74727000  0.99952000  0.61641000  1.0
  C  C12  1  0.20482000  0.43591000  0.00004000  1.0
  C  C13  1  0.29518000  0.99996000  0.56409000  1.0
  C  C14  1  0.14069000  0.56421000  0.99987000  1.0
  C  C15  1  0.35931000  0.00013000  0.43579000  1.0
  C  C16  1  0.79518000  0.56409000  0.99996000  1.0
  C  C17  1  0.70482000  0.00004000  0.43591000  1.0
  C  C18  1  0.85931000  0.43579000  0.00014000  1.0
  C  C19  1  0.64069000  0.99987000  0.56421000  1.0
  C  C20  1  0.06448000  0.37108000  0.00009000  1.0
  C  C21  1  0.13414000  0.23326000  0.99880000  1.0
  C  C22  1  0.43551000  0.99991000  0.62892000  1.0
  C  C23  1  0.36589000  0.00120000  0.76674000  1.0
  C  C24  1  0.93552000  0.62892000  0.99992000  1.0
  C  C25  1  0.86586000  0.76674000  0.00120000  1.0
  C  C26  1  0.56449000  0.00009000  0.37108000  1.0
  C  C27  1  0.63411000  0.99880000  0.23326000  1.0
  O  O28  1  0.32284000  0.18010000  0.99771000  1.0
  O  O29  1  0.17714000  0.00228000  0.81991000  1.0
  O  O30  1  0.00018000  0.81999000  0.00242000  1.0
  O  O31  1  0.49983000  0.99759000  0.18001000  1.0
  O  O32  1  0.67716000  0.81990000  0.00228000  1.0
  O  O33  1  0.82286000  0.99772000  0.18009000  1.0
  O  O34  1  0.99982000  0.18001000  0.99758000  1.0
  O  O35  1  0.50017000  0.00241000  0.81999000  1.0
  O  O36  1  0.25000000  0.93630000  0.06371000  1.0
  O  O37  1  0.75000000  0.06370000  0.93629000  1.0
