# generated using pymatgen
data_ZnH8C9(NO)2
_symmetry_space_group_name_H-M   'P 1'
_cell_length_a   8.85114000
_cell_length_b   9.79708000
_cell_length_c   10.75770000
_cell_angle_alpha   89.99990000
_cell_angle_beta   99.62110000
_cell_angle_gamma   90.00000000
_symmetry_Int_Tables_number   1
_chemical_formula_structural   ZnH8C9(NO)2
_chemical_formula_sum   'Zn4 H32 C36 N8 O8'
_cell_volume   919.73641449
_cell_formula_units_Z   4
loop_
 _symmetry_equiv_pos_site_id
 _symmetry_equiv_pos_as_xyz
  1  'x, y, z'
loop_
 _atom_site_type_symbol
 _atom_site_label
 _atom_site_symmetry_multiplicity
 _atom_site_fract_x
 _atom_site_fract_y
 _atom_site_fract_z
 _atom_site_occupancy
  Zn  Zn0  1  0.65400000  0.77376000  0.35163000  1.0
  Zn  Zn1  1  0.84600000  0.27376000  0.64837000  1.0
  Zn  Zn2  1  0.34600000  0.22624000  0.64837000  1.0
  Zn  Zn3  1  0.15400000  0.72624000  0.35163000  1.0
  H  H4  1  0.47857000  0.83717000  0.59121000  1.0
  H  H5  1  0.02143000  0.33717000  0.40879000  1.0
  H  H6  1  0.52142000  0.16283000  0.40879000  1.0
  H  H7  1  0.97857000  0.66283000  0.59121000  1.0
  H  H8  1  0.41408000  0.80444000  0.80597000  1.0
  H  H9  1  0.08592000  0.30444000  0.19403000  1.0
  H  H10  1  0.58592000  0.19556000  0.19403000  1.0
  H  H11  1  0.91408000  0.69556000  0.80597000  1.0
  H  H12  1  0.51175000  0.60533000  0.93665000  1.0
  H  H13  1  0.98825000  0.10533000  0.06335000  1.0
  H  H14  1  0.48825000  0.39467000  0.06335000  1.0
  H  H15  1  0.01175000  0.89466000  0.93665000  1.0
  H  H16  1  0.67103000  0.42759000  0.85479000  1.0
  H  H17  1  0.82897000  0.92759000  0.14521000  1.0
  H  H18  1  0.32897000  0.57241000  0.14521000  1.0
  H  H19  1  0.17103000  0.07241000  0.85479000  1.0
  H  H20  1  0.79212000  0.47957000  0.41724000  1.0
  H  H21  1  0.70787000  0.97957000  0.58276000  1.0
  H  H22  1  0.20787000  0.52043000  0.58276000  1.0
  H  H23  1  0.29212000  0.02043000  0.41724000  1.0
  H  H24  1  0.46557000  0.99323000  0.12604000  1.0
  H  H25  1  0.03443000  0.49323000  0.87396000  1.0
  H  H26  1  0.53443000  0.00677000  0.87396000  1.0
  H  H27  1  0.96557000  0.50677000  0.12604000  1.0
  H  H28  1  0.31674000  0.91554000  0.01448000  1.0
  H  H29  1  0.18326000  0.41554000  0.98552000  1.0
  H  H30  1  0.68326000  0.08446000  0.98552000  1.0
  H  H31  1  0.81674000  0.58446000  0.01448000  1.0
  H  H32  1  0.49276000  0.82680000  0.07019000  1.0
  H  H33  1  0.00724000  0.32680000  0.92981000  1.0
  H  H34  1  0.50724000  0.17320000  0.92981000  1.0
  H  H35  1  0.99276000  0.67320000  0.07019000  1.0
  C  C36  1  0.61100000  0.64927000  0.60248000  1.0
  C  C37  1  0.88900000  0.14926000  0.39752000  1.0
  C  C38  1  0.38900000  0.35074000  0.39752000  1.0
  C  C39  1  0.11100000  0.85073000  0.60248000  1.0
  C  C40  1  0.52206000  0.74941000  0.64839000  1.0
  C  C41  1  0.97794000  0.24941000  0.35161000  1.0
  C  C42  1  0.47794000  0.25060000  0.35161000  1.0
  C  C43  1  0.02206000  0.75059000  0.64839000  1.0
  C  C44  1  0.48692000  0.73043000  0.76876000  1.0
  C  C45  1  0.01308000  0.23043000  0.23124000  1.0
  C  C46  1  0.51309000  0.26957000  0.23125000  1.0
  C  C47  1  0.98692000  0.76957000  0.76875000  1.0
  C  C48  1  0.54057000  0.61593000  0.84249000  1.0
  C  C49  1  0.95943000  0.11594000  0.15751000  1.0
  C  C50  1  0.45943000  0.38407000  0.15751000  1.0
  C  C51  1  0.04057000  0.88406000  0.84249000  1.0
  C  C52  1  0.62972000  0.51601000  0.79767000  1.0
  C  C53  1  0.87028000  0.01601000  0.20233000  1.0
  C  C54  1  0.37028000  0.48399000  0.20233000  1.0
  C  C55  1  0.12972000  0.98399000  0.79767000  1.0
  C  C56  1  0.66379000  0.53309000  0.67624000  1.0
  C  C57  1  0.83622000  0.03309000  0.32376000  1.0
  C  C58  1  0.33622000  0.46691000  0.32377000  1.0
  C  C59  1  0.16378000  0.96691000  0.67623000  1.0
  C  C60  1  0.73949000  0.51837000  0.49435000  1.0
  C  C61  1  0.76051000  0.01837000  0.50565000  1.0
  C  C62  1  0.26051000  0.48163000  0.50565000  1.0
  C  C63  1  0.23949000  0.98163000  0.49435000  1.0
  C  C64  1  0.40634000  0.89735000  0.09580000  1.0
  C  C65  1  0.09366000  0.39735000  0.90420000  1.0
  C  C66  1  0.59366000  0.10265000  0.90420000  1.0
  C  C67  1  0.90634000  0.60265000  0.09580000  1.0
  C  C68  1  0.34111000  0.83823000  0.20420000  1.0
  C  C69  1  0.15889000  0.33823000  0.79580000  1.0
  C  C70  1  0.65889000  0.16177000  0.79580000  1.0
  C  C71  1  0.84111000  0.66177000  0.20420000  1.0
  N  N72  1  0.66180000  0.63699000  0.48759000  1.0
  N  N73  1  0.83821000  0.13699000  0.51241000  1.0
  N  N74  1  0.33821000  0.36301000  0.51241000  1.0
  N  N75  1  0.16180000  0.86301000  0.48759000  1.0
  N  N76  1  0.74555000  0.45201000  0.60472000  1.0
  N  N77  1  0.75445000  0.95201000  0.39528000  1.0
  N  N78  1  0.25445000  0.54799000  0.39528000  1.0
  N  N79  1  0.24555000  0.04799000  0.60472000  1.0
  O  O80  1  0.19798000  0.81048000  0.18985000  1.0
  O  O81  1  0.30202000  0.31049000  0.81014000  1.0
  O  O82  1  0.80202000  0.18952000  0.81014000  1.0
  O  O83  1  0.69798000  0.68952000  0.18986000  1.0
  O  O84  1  0.42747000  0.81589000  0.30975000  1.0
  O  O85  1  0.07253000  0.31589000  0.69025000  1.0
  O  O86  1  0.57253000  0.18411000  0.69025000  1.0
  O  O87  1  0.92747000  0.68411000  0.30975000  1.0
