# generated using pymatgen
data_CuH10C12(N2O3)2
_symmetry_space_group_name_H-M   'P 1'
_cell_length_a   8.04766000
_cell_length_b   8.82474000
_cell_length_c   10.18880000
_cell_angle_alpha   89.99960000
_cell_angle_beta   83.05300000
_cell_angle_gamma   89.99890000
_symmetry_Int_Tables_number   1
_chemical_formula_structural   CuH10C12(N2O3)2
_chemical_formula_sum   'Cu2 H20 C24 N8 O12'
_cell_volume   718.28107481
_cell_formula_units_Z   2
loop_
 _symmetry_equiv_pos_site_id
 _symmetry_equiv_pos_as_xyz
  1  'x, y, z'
loop_
 _atom_site_type_symbol
 _atom_site_label
 _atom_site_symmetry_multiplicity
 _atom_site_fract_x
 _atom_site_fract_y
 _atom_site_fract_z
 _atom_site_occupancy
  Cu  Cu0  1  0.99999000  0.00000000  0.00000000  1.0
  Cu  Cu1  1  0.50000000  0.50000000  0.50000000  1.0
  H  H2  1  0.50656000  0.99877000  0.85671000  1.0
  H  H3  1  0.99344000  0.49877000  0.64330000  1.0
  H  H4  1  0.49344000  0.00123000  0.14329000  1.0
  H  H5  1  0.00656000  0.50123000  0.35670000  1.0
  H  H6  1  0.82653000  0.16714000  0.74866000  1.0
  H  H7  1  0.67347000  0.66714000  0.75134000  1.0
  H  H8  1  0.17347000  0.83286000  0.25134000  1.0
  H  H9  1  0.32653000  0.33286000  0.24866000  1.0
  H  H10  1  0.62146000  0.23066000  0.72467000  1.0
  H  H11  1  0.87854000  0.73066000  0.77533000  1.0
  H  H12  1  0.37854000  0.76934000  0.27533000  1.0
  H  H13  1  0.12146000  0.26934000  0.22467000  1.0
  H  H14  1  0.59978000  0.14225000  0.94612000  1.0
  H  H15  1  0.90021000  0.64225000  0.55389000  1.0
  H  H16  1  0.40022000  0.85775000  0.05388000  1.0
  H  H17  1  0.09979000  0.35775000  0.44611000  1.0
  H  H18  1  0.68865000  0.85190000  0.94317000  1.0
  H  H19  1  0.81135000  0.35190000  0.55683000  1.0
  H  H20  1  0.31135000  0.14810000  0.05683000  1.0
  H  H21  1  0.18865000  0.64810000  0.44317000  1.0
  C  C22  1  0.82571000  0.95717000  0.29079000  1.0
  C  C23  1  0.67428000  0.45717000  0.20923000  1.0
  C  C24  1  0.17429000  0.04283000  0.70921000  1.0
  C  C25  1  0.32572000  0.54283000  0.79077000  1.0
  C  C26  1  0.64679000  0.81882000  0.45257000  1.0
  C  C27  1  0.85321000  0.31881000  0.04743000  1.0
  C  C28  1  0.35322000  0.18118000  0.54743000  1.0
  C  C29  1  0.14679000  0.68118000  0.95257000  1.0
  C  C30  1  0.75036000  0.94238000  0.42071000  1.0
  C  C31  1  0.74964000  0.44238000  0.07930000  1.0
  C  C32  1  0.24965000  0.05762000  0.57930000  1.0
  C  C33  1  0.25036000  0.55763000  0.92070000  1.0
  C  C34  1  0.77670000  0.05717000  0.51872000  1.0
  C  C35  1  0.72328000  0.55718000  0.98129000  1.0
  C  C36  1  0.22330000  0.94283000  0.48128000  1.0
  C  C37  1  0.27672000  0.44282000  0.01871000  1.0
  C  C38  1  0.69679000  0.13132000  0.74410000  1.0
  C  C39  1  0.80321000  0.63132000  0.75590000  1.0
  C  C40  1  0.30321000  0.86868000  0.25590000  1.0
  C  C41  1  0.19679000  0.36868000  0.24410000  1.0
  C  C42  1  0.62620000  0.05377000  0.87016000  1.0
  C  C43  1  0.87380000  0.55377000  0.62984000  1.0
  C  C44  1  0.37380000  0.94623000  0.12984000  1.0
  C  C45  1  0.12620000  0.44623000  0.37016000  1.0
  N  N46  1  0.88906000  0.96689000  0.18163000  1.0
  N  N47  1  0.61095000  0.46688000  0.31837000  1.0
  N  N48  1  0.11094000  0.03312000  0.81837000  1.0
  N  N49  1  0.38905000  0.53312000  0.68163000  1.0
  N  N50  1  0.55189000  0.71855000  0.47620000  1.0
  N  N51  1  0.94810000  0.21856000  0.02380000  1.0
  N  N52  1  0.44811000  0.28145000  0.52380000  1.0
  N  N53  1  0.05190000  0.78145000  0.97620000  1.0
  O  O54  1  0.86510000  0.17121000  0.49501000  1.0
  O  O55  1  0.63491000  0.67119000  0.00500000  1.0
  O  O56  1  0.13490000  0.82879000  0.50499000  1.0
  O  O57  1  0.36509000  0.32881000  0.99500000  1.0
  O  O58  1  0.69206000  0.02279000  0.63720000  1.0
  O  O59  1  0.80794000  0.52278000  0.86281000  1.0
  O  O60  1  0.30794000  0.97721000  0.36280000  1.0
  O  O61  1  0.19206000  0.47722000  0.13719000  1.0
  O  O62  1  0.74379000  0.94637000  0.90838000  1.0
  O  O63  1  0.75621000  0.44637000  0.59162000  1.0
  O  O64  1  0.25621000  0.05363000  0.09162000  1.0
  O  O65  1  0.24379000  0.55363000  0.40838000  1.0
