# generated using pymatgen
data_CuH4(CO3)2
_symmetry_space_group_name_H-M   'P 1'
_cell_length_a   4.90633000
_cell_length_b   9.66233000
_cell_length_c   9.75954000
_cell_angle_alpha   90.00010000
_cell_angle_beta   89.99960000
_cell_angle_gamma   89.99840000
_symmetry_Int_Tables_number   1
_chemical_formula_structural   CuH4(CO3)2
_chemical_formula_sum   'Cu4 H16 C8 O24'
_cell_volume   462.66640918
_cell_formula_units_Z   4
loop_
 _symmetry_equiv_pos_site_id
 _symmetry_equiv_pos_as_xyz
  1  'x, y, z'
loop_
 _atom_site_type_symbol
 _atom_site_label
 _atom_site_symmetry_multiplicity
 _atom_site_fract_x
 _atom_site_fract_y
 _atom_site_fract_z
 _atom_site_occupancy
  Cu  Cu0  1  0.49999000  0.74998000  0.87635000  1.0
  Cu  Cu1  1  0.49999000  0.25002000  0.62365000  1.0
  Cu  Cu2  1  0.50000000  0.24999000  0.12362000  1.0
  Cu  Cu3  1  0.50000000  0.75001000  0.37638000  1.0
  H  H4  1  0.07160000  0.87551000  0.76536000  1.0
  H  H5  1  0.92840000  0.62446000  0.76531000  1.0
  H  H6  1  0.07165000  0.12448000  0.73465000  1.0
  H  H7  1  0.92835000  0.37553000  0.73468000  1.0
  H  H8  1  0.92837000  0.12444000  0.23465000  1.0
  H  H9  1  0.07169000  0.37555000  0.23461000  1.0
  H  H10  1  0.92832000  0.87556000  0.26533000  1.0
  H  H11  1  0.07166000  0.62446000  0.26539000  1.0
  H  H12  1  0.20942000  0.77857000  0.65140000  1.0
  H  H13  1  0.79059000  0.72141000  0.65137000  1.0
  H  H14  1  0.20943000  0.22142000  0.84860000  1.0
  H  H15  1  0.79056000  0.27858000  0.84863000  1.0
  H  H16  1  0.79063000  0.22139000  0.34861000  1.0
  H  H17  1  0.20943000  0.27861000  0.34858000  1.0
  H  H18  1  0.79059000  0.77859000  0.15139000  1.0
  H  H19  1  0.20940000  0.72142000  0.15141000  1.0
  C  C20  1  0.63068000  0.01864000  0.95877000  1.0
  C  C21  1  0.36928000  0.48135000  0.95876000  1.0
  C  C22  1  0.63071000  0.98136000  0.54124000  1.0
  C  C23  1  0.36929000  0.51865000  0.54124000  1.0
  C  C24  1  0.36925000  0.98135000  0.04122000  1.0
  C  C25  1  0.63074000  0.51865000  0.04120000  1.0
  C  C26  1  0.36922000  0.01867000  0.45878000  1.0
  C  C27  1  0.63079000  0.48134000  0.45879000  1.0
  O  O28  1  0.73472000  0.92541000  0.88441000  1.0
  O  O29  1  0.26525000  0.57459000  0.88439000  1.0
  O  O30  1  0.73473000  0.07459000  0.61559000  1.0
  O  O31  1  0.26526000  0.42543000  0.61560000  1.0
  O  O32  1  0.26521000  0.07458000  0.11559000  1.0
  O  O33  1  0.73479000  0.42543000  0.11555000  1.0
  O  O34  1  0.26523000  0.92545000  0.38444000  1.0
  O  O35  1  0.73477000  0.57457000  0.38444000  1.0
  O  O36  1  0.27604000  0.85976000  0.02723000  1.0
  O  O37  1  0.72394000  0.64022000  0.02720000  1.0
  O  O38  1  0.27606000  0.14025000  0.47278000  1.0
  O  O39  1  0.72396000  0.35977000  0.47280000  1.0
  O  O40  1  0.72390000  0.14022000  0.97277000  1.0
  O  O41  1  0.27606000  0.35978000  0.97274000  1.0
  O  O42  1  0.72390000  0.85980000  0.52723000  1.0
  O  O43  1  0.27609000  0.64023000  0.52724000  1.0
  O  O44  1  0.24594000  0.84426000  0.72661000  1.0
  O  O45  1  0.75408000  0.65572000  0.72657000  1.0
  O  O46  1  0.24595000  0.15572000  0.77341000  1.0
  O  O47  1  0.75405000  0.34427000  0.77343000  1.0
  O  O48  1  0.75408000  0.15572000  0.27339000  1.0
  O  O49  1  0.24599000  0.34428000  0.27335000  1.0
  O  O50  1  0.75402000  0.84427000  0.22661000  1.0
  O  O51  1  0.24597000  0.65572000  0.22664000  1.0
