# generated using pymatgen
data_Ni3H16C20(NO)12
_symmetry_space_group_name_H-M   'P 1'
_cell_length_a   7.47359000
_cell_length_b   9.10414000
_cell_length_c   12.10510000
_cell_angle_alpha   109.54900000
_cell_angle_beta   93.25830000
_cell_angle_gamma   109.62300000
_symmetry_Int_Tables_number   1
_chemical_formula_structural   Ni3H16C20(NO)12
_chemical_formula_sum   'Ni3 H16 C20 N12 O12'
_cell_volume   717.67604239
_cell_formula_units_Z   1
loop_
 _symmetry_equiv_pos_site_id
 _symmetry_equiv_pos_as_xyz
  1  'x, y, z'
loop_
 _atom_site_type_symbol
 _atom_site_label
 _atom_site_symmetry_multiplicity
 _atom_site_fract_x
 _atom_site_fract_y
 _atom_site_fract_z
 _atom_site_occupancy
  Ni  Ni0  1  0.00362000  0.05162000  0.16991000  1.0
  Ni  Ni1  1  0.99638000  0.94837000  0.83009000  1.0
  Ni  Ni2  1  0.49999000  0.49999000  0.50000000  1.0
  H  H3  1  0.29425000  0.38512000  0.24812000  1.0
  H  H4  1  0.21502000  0.29614000  0.10599000  1.0
  H  H5  1  0.64093000  0.81905000  0.07167000  1.0
  H  H6  1  0.72665000  0.77293000  0.17137000  1.0
  H  H7  1  0.04515000  0.81974000  0.56290000  1.0
  H  H8  1  0.19818000  0.62176000  0.44811000  1.0
  H  H9  1  0.43032000  0.61374000  0.76471000  1.0
  H  H10  1  0.33876000  0.85624000  0.28710000  1.0
  H  H11  1  0.70574000  0.61489000  0.75188000  1.0
  H  H12  1  0.78497000  0.70385000  0.89401000  1.0
  H  H13  1  0.35908000  0.18095000  0.92833000  1.0
  H  H14  1  0.27335000  0.22707000  0.82863000  1.0
  H  H15  1  0.95487000  0.18028000  0.43711000  1.0
  H  H16  1  0.80183000  0.37824000  0.55189000  1.0
  H  H17  1  0.56967000  0.38626000  0.23529000  1.0
  H  H18  1  0.66123000  0.14375000  0.71290000  1.0
  C  C19  1  0.26111000  0.82153000  0.91149000  1.0
  C  C20  1  0.25557000  0.76506000  0.78336000  1.0
  C  C21  1  0.12908000  0.77241000  0.60788000  1.0
  C  C22  1  0.21361000  0.66391000  0.54460000  1.0
  C  C23  1  0.34436000  0.65940000  0.71954000  1.0
  C  C24  1  0.25136000  0.11997000  0.39096000  1.0
  C  C25  1  0.37961000  0.06160000  0.45086000  1.0
  C  C26  1  0.47130000  0.14562000  0.57188000  1.0
  C  C27  1  0.46295000  0.30867000  0.65423000  1.0
  C  C28  1  0.40942000  0.91730000  0.38094000  1.0
  C  C29  1  0.73891000  0.17848000  0.08851000  1.0
  C  C30  1  0.74442000  0.23494000  0.21664000  1.0
  C  C31  1  0.87095000  0.22762000  0.39212000  1.0
  C  C32  1  0.78641000  0.33610000  0.45541000  1.0
  C  C33  1  0.65562000  0.34060000  0.28045000  1.0
  C  C34  1  0.74866000  0.88003000  0.60904000  1.0
  C  C35  1  0.62041000  0.93840000  0.54913000  1.0
  C  C36  1  0.52871000  0.85438000  0.42812000  1.0
  C  C37  1  0.53706000  0.69133000  0.34578000  1.0
  C  C38  1  0.59058000  0.08269000  0.61906000  1.0
  N  N39  1  0.13878000  0.89788000  0.95295000  1.0
  N  N40  1  0.16628000  0.93414000  0.06972000  1.0
  N  N41  1  0.30354000  0.88483000  0.10040000  1.0
  N  N42  1  0.36615000  0.81357000  0.00199000  1.0
  N  N43  1  0.14770000  0.82145000  0.72645000  1.0
  N  N44  1  0.32430000  0.61013000  0.60028000  1.0
  N  N45  1  0.86123000  0.10213000  0.04705000  1.0
  N  N46  1  0.83370000  0.06586000  0.93028000  1.0
  N  N47  1  0.69642000  0.11516000  0.89960000  1.0
  N  N48  1  0.63382000  0.18642000  0.99801000  1.0
  N  N49  1  0.85233000  0.17858000  0.27356000  1.0
  N  N50  1  0.67571000  0.38988000  0.39972000  1.0
  O  O51  1  0.11634000  0.00577000  0.30560000  1.0
  O  O52  1  0.27679000  0.27539000  0.42531000  1.0
  O  O53  1  0.57947000  0.44260000  0.64123000  1.0
  O  O54  1  0.36388000  0.31455000  0.73356000  1.0
  O  O55  1  0.23105000  0.27443000  0.17884000  1.0
  O  O56  1  0.76152000  0.81513000  0.10600000  1.0
  O  O57  1  0.88366000  0.99423000  0.69441000  1.0
  O  O58  1  0.72321000  0.72461000  0.57467000  1.0
  O  O59  1  0.42053000  0.55740000  0.35877000  1.0
  O  O60  1  0.63612000  0.68545000  0.26644000  1.0
  O  O61  1  0.76892000  0.72554000  0.82115000  1.0
  O  O62  1  0.23847000  0.18485000  0.89400000  1.0
