# generated using pymatgen
data_Zn2H15C28Br2N3O10
_symmetry_space_group_name_H-M   'P 1'
_cell_length_a   9.71975000
_cell_length_b   11.06160000
_cell_length_c   11.06970000
_cell_angle_alpha   83.97800000
_cell_angle_beta   87.92570000
_cell_angle_gamma   89.96690000
_symmetry_Int_Tables_number   1
_chemical_formula_structural   Zn2H15C28Br2N3O10
_chemical_formula_sum   'Zn2 H15 C28 Br2 N3 O10'
_cell_volume   1182.82020076
_cell_formula_units_Z   1
loop_
 _symmetry_equiv_pos_site_id
 _symmetry_equiv_pos_as_xyz
  1  'x, y, z'
loop_
 _atom_site_type_symbol
 _atom_site_label
 _atom_site_symmetry_multiplicity
 _atom_site_fract_x
 _atom_site_fract_y
 _atom_site_fract_z
 _atom_site_occupancy
  Zn  Zn0  1  0.35723000  0.49998000  0.49556000  1.0
  Zn  Zn1  1  0.64319000  0.50128000  0.48580000  1.0
  H  H2  1  0.52109000  0.66534000  0.83822000  1.0
  H  H3  1  0.48996000  0.08866000  0.20786000  1.0
  H  H4  1  0.51712000  0.29758000  0.26241000  1.0
  H  H5  1  0.52409000  0.69513000  0.05735000  1.0
  H  H6  1  0.71642000  0.89094000  0.48840000  1.0
  H  H7  1  0.71305000  0.11649000  0.48546000  1.0
  H  H8  1  0.16500000  0.10991000  0.53764000  1.0
  H  H9  1  0.16834000  0.87918000  0.54786000  1.0
  H  H10  1  0.18232000  0.89221000  0.38517000  1.0
  H  H11  1  0.88151000  0.40556000  0.33802000  1.0
  H  H12  1  0.14021000  0.40759000  0.34223000  1.0
  H  H13  1  0.11113000  0.56366000  0.76845000  1.0
  H  H14  1  0.11769000  0.70641000  0.67633000  1.0
  H  H15  1  0.84956000  0.56537000  0.76284000  1.0
  H  H16  1  0.85696000  0.70675000  0.66860000  1.0
  C  C17  1  0.49960000  0.73585000  0.49025000  1.0
  C  C18  1  0.49435000  0.47312000  0.73009000  1.0
  C  C19  1  0.49338000  0.26704000  0.47946000  1.0
  C  C20  1  0.51350000  0.51811000  0.25038000  1.0
  C  C21  1  0.46214000  0.24552000  0.92822000  1.0
  C  C22  1  0.46266000  0.14803000  0.01730000  1.0
  C  C23  1  0.48582000  0.16615000  0.13890000  1.0
  C  C24  1  0.50097000  0.28266000  0.16851000  1.0
  C  C25  1  0.49799000  0.38495000  0.08015000  1.0
  C  C26  1  0.48477000  0.36785000  0.95368000  1.0
  C  C27  1  0.49598000  0.47266000  0.86653000  1.0
  C  C28  1  0.51174000  0.58653000  0.90616000  1.0
  C  C29  1  0.51517000  0.60361000  0.03013000  1.0
  C  C30  1  0.50934000  0.50426000  0.11647000  1.0
  C  C31  1  0.37560000  0.93782000  0.47207000  1.0
  C  C32  1  0.49706000  0.87122000  0.48228000  1.0
  C  C33  1  0.61905000  0.93982000  0.48384000  1.0
  C  C34  1  0.61734000  0.06625000  0.48103000  1.0
  C  C35  1  0.49376000  0.13282000  0.47453000  1.0
  C  C36  1  0.37426000  0.06461000  0.46702000  1.0
  C  C37  1  0.21951000  0.06973000  0.46347000  1.0
  C  C38  1  0.22050000  0.92716000  0.46699000  1.0
  C  C39  1  0.92268000  0.54942000  0.57442000  1.0
  C  C40  1  0.93430000  0.44810000  0.40775000  1.0
  C  C41  1  0.07769000  0.44969000  0.40972000  1.0
  C  C42  1  0.06592000  0.55029000  0.57691000  1.0
  C  C43  1  0.06808000  0.61668000  0.68938000  1.0
  C  C44  1  0.90439000  0.61677000  0.68568000  1.0
  Br  Br45  1  0.14120000  0.15015000  0.31282000  1.0
  Br  Br46  1  0.43573000  0.98594000  0.98052000  1.0
  N  N47  1  0.85348000  0.49933000  0.49102000  1.0
  N  N48  1  0.14659000  0.50186000  0.49552000  1.0
  N  N49  1  0.43955000  0.21732000  0.80303000  1.0
  O  O50  1  0.38328000  0.68170000  0.50412000  1.0
  O  O51  1  0.61659000  0.68496000  0.48293000  1.0
  O  O52  1  0.37764000  0.46690000  0.68310000  1.0
  O  O53  1  0.61029000  0.48756000  0.67380000  1.0
  O  O54  1  0.37610000  0.31813000  0.48239000  1.0
  O  O55  1  0.60978000  0.32013000  0.47861000  1.0
  O  O56  1  0.39787000  0.52550000  0.30650000  1.0
  O  O57  1  0.63146000  0.51789000  0.29614000  1.0
  O  O58  1  0.54332000  0.21486000  0.73520000  1.0
  O  O59  1  0.32052000  0.19512000  0.77667000  1.0
