# generated using pymatgen
data_MnH4C5N2O5
_symmetry_space_group_name_H-M   'P 1'
_cell_length_a   7.07451000
_cell_length_b   13.55730000
_cell_length_c   14.25000000
_cell_angle_alpha   90.00000000
_cell_angle_beta   90.00000000
_cell_angle_gamma   90.00000000
_symmetry_Int_Tables_number   1
_chemical_formula_structural   MnH4C5N2O5
_chemical_formula_sum   'Mn8 H32 C40 N16 O40'
_cell_volume   1366.73537553
_cell_formula_units_Z   8
loop_
 _symmetry_equiv_pos_site_id
 _symmetry_equiv_pos_as_xyz
  1  'x, y, z'
loop_
 _atom_site_type_symbol
 _atom_site_label
 _atom_site_symmetry_multiplicity
 _atom_site_fract_x
 _atom_site_fract_y
 _atom_site_fract_z
 _atom_site_occupancy
  Mn  Mn0  1  0.56515000  0.64117000  0.41609000  1.0
  Mn  Mn1  1  0.93485000  0.35884000  0.91609000  1.0
  Mn  Mn2  1  0.43485000  0.14116000  0.08391000  1.0
  Mn  Mn3  1  0.06515000  0.85884000  0.58391000  1.0
  Mn  Mn4  1  0.43485000  0.35884000  0.58391000  1.0
  Mn  Mn5  1  0.06515000  0.64116000  0.08390000  1.0
  Mn  Mn6  1  0.56515000  0.85884000  0.91610000  1.0
  Mn  Mn7  1  0.93485000  0.14116000  0.41609000  1.0
  H  H8  1  0.46364000  0.82334000  0.49494000  1.0
  H  H9  1  0.03636000  0.17667000  0.99494000  1.0
  H  H10  1  0.53637000  0.32333000  0.00506000  1.0
  H  H11  1  0.96364000  0.67667000  0.50506000  1.0
  H  H12  1  0.53636000  0.17667000  0.50506000  1.0
  H  H13  1  0.96364000  0.82333000  0.00506000  1.0
  H  H14  1  0.46364000  0.67667000  0.99494000  1.0
  H  H15  1  0.03636000  0.32333000  0.49494000  1.0
  H  H16  1  0.64671000  0.78464000  0.55113000  1.0
  H  H17  1  0.85329000  0.21536000  0.05113000  1.0
  H  H18  1  0.35329000  0.28464000  0.94887000  1.0
  H  H19  1  0.14671000  0.71536000  0.44887000  1.0
  H  H20  1  0.35329000  0.21536000  0.44887000  1.0
  H  H21  1  0.14671000  0.78464000  0.94887000  1.0
  H  H22  1  0.64671000  0.71536000  0.05113000  1.0
  H  H23  1  0.85329000  0.28464000  0.55113000  1.0
  H  H24  1  0.85782000  0.66283000  0.67691000  1.0
  H  H25  1  0.64217000  0.33717000  0.17691000  1.0
  H  H26  1  0.14217000  0.16283000  0.82309000  1.0
  H  H27  1  0.35783000  0.83717000  0.32309000  1.0
  H  H28  1  0.14218000  0.33717000  0.32309000  1.0
  H  H29  1  0.35782000  0.66283000  0.82309000  1.0
  H  H30  1  0.85783000  0.83717000  0.17691000  1.0
  H  H31  1  0.64218000  0.16283000  0.67692000  1.0
  H  H32  1  0.93188000  0.62247000  0.84696000  1.0
  H  H33  1  0.56811000  0.37754000  0.34696000  1.0
  H  H34  1  0.06811000  0.12247000  0.65304000  1.0
  H  H35  1  0.43189000  0.87753000  0.15304000  1.0
  H  H36  1  0.06812000  0.37753000  0.15304000  1.0
  H  H37  1  0.43188000  0.62247000  0.65304000  1.0
  H  H38  1  0.93188000  0.87753000  0.34696000  1.0
  H  H39  1  0.56812000  0.12247000  0.84696000  1.0
  C  C40  1  0.89878000  0.56798000  0.79373000  1.0
  C  C41  1  0.60122000  0.43203000  0.29373000  1.0
  C  C42  1  0.10122000  0.06797000  0.70628000  1.0
  C  C43  1  0.39878000  0.93202000  0.20627000  1.0
  C  C44  1  0.10122000  0.43202000  0.20627000  1.0
  C  C45  1  0.39878000  0.56798000  0.70627000  1.0
  C  C46  1  0.89878000  0.93203000  0.29373000  1.0
  C  C47  1  0.60123000  0.06798000  0.79373000  1.0
  C  C48  1  0.75169000  0.51067000  0.55713000  1.0
  C  C49  1  0.74830000  0.48933000  0.05713000  1.0
  C  C50  1  0.24831000  0.01067000  0.94287000  1.0
  C  C51  1  0.25170000  0.98933000  0.44287000  1.0
  C  C52  1  0.24830000  0.48933000  0.44287000  1.0
  C  C53  1  0.25170000  0.51067000  0.94287000  1.0
  C  C54  1  0.75170000  0.98933000  0.05713000  1.0
  C  C55  1  0.74830000  0.01067000  0.55713000  1.0
  C  C56  1  0.81586000  0.50605000  0.65567000  1.0
  C  C57  1  0.68414000  0.49395000  0.15567000  1.0
  C  C58  1  0.18414000  0.00605000  0.84433000  1.0
  C  C59  1  0.31587000  0.99395000  0.34433000  1.0
  C  C60  1  0.18413000  0.49395000  0.34433000  1.0
  C  C61  1  0.31586000  0.50605000  0.84433000  1.0
  C  C62  1  0.81587000  0.99395000  0.15567000  1.0
  C  C63  1  0.68414000  0.00605000  0.65567000  1.0
  C  C64  1  0.82076000  0.43125000  0.72343000  1.0
  C  C65  1  0.67924000  0.56875000  0.22343000  1.0
  C  C66  1  0.17924000  0.93125000  0.77658000  1.0
  C  C67  1  0.32076000  0.06874000  0.27657000  1.0
  C  C68  1  0.17924000  0.56875000  0.27657000  1.0
  C  C69  1  0.32076000  0.43125000  0.77657000  1.0
  C  C70  1  0.82076000  0.06875000  0.22342000  1.0
  C  C71  1  0.67924000  0.93125000  0.72343000  1.0
  C  C72  1  0.76752000  0.32570000  0.72532000  1.0
  C  C73  1  0.73248000  0.67430000  0.22532000  1.0
  C  C74  1  0.23248000  0.82570000  0.77468000  1.0
  C  C75  1  0.26752000  0.17430000  0.27468000  1.0
  C  C76  1  0.23248000  0.67430000  0.27468000  1.0
  C  C77  1  0.26752000  0.32570000  0.77468000  1.0
  C  C78  1  0.76752000  0.17430000  0.22532000  1.0
  C  C79  1  0.73248000  0.82570000  0.72532000  1.0
  N  N80  1  0.87497000  0.47167000  0.80807000  1.0
  N  N81  1  0.62503000  0.52834000  0.30807000  1.0
  N  N82  1  0.12502000  0.97167000  0.69193000  1.0
  N  N83  1  0.37497000  0.02833000  0.19193000  1.0
  N  N84  1  0.12503000  0.52833000  0.19192000  1.0
  N  N85  1  0.37497000  0.47166000  0.69193000  1.0
  N  N86  1  0.87498000  0.02833000  0.30807000  1.0
  N  N87  1  0.62503000  0.97167000  0.80808000  1.0
  N  N88  1  0.86741000  0.59066000  0.70286000  1.0
  N  N89  1  0.63259000  0.40934000  0.20286000  1.0
  N  N90  1  0.13259000  0.09066000  0.79714000  1.0
  N  N91  1  0.36742000  0.90934000  0.29714000  1.0
  N  N92  1  0.13259000  0.40934000  0.29714000  1.0
  N  N93  1  0.36741000  0.59066000  0.79714000  1.0
  N  N94  1  0.86741000  0.90934000  0.20286000  1.0
  N  N95  1  0.63259000  0.09066000  0.70286000  1.0
  O  O96  1  0.78156000  0.59225000  0.51314000  1.0
  O  O97  1  0.71844000  0.40775000  0.01314000  1.0
  O  O98  1  0.21844000  0.09225000  0.98686000  1.0
  O  O99  1  0.28156000  0.90775000  0.48686000  1.0
  O  O100  1  0.21844000  0.40775000  0.48686000  1.0
  O  O101  1  0.28156000  0.59225000  0.98686000  1.0
  O  O102  1  0.78156000  0.90775000  0.01314000  1.0
  O  O103  1  0.71844000  0.09225000  0.51314000  1.0
  O  O104  1  0.54559000  0.76537000  0.50704000  1.0
  O  O105  1  0.95441000  0.23463000  0.00704000  1.0
  O  O106  1  0.45441000  0.26537000  0.99296000  1.0
  O  O107  1  0.04559000  0.73463000  0.49296000  1.0
  O  O108  1  0.45441000  0.23463000  0.49296000  1.0
  O  O109  1  0.04559000  0.76537000  0.99296000  1.0
  O  O110  1  0.54559000  0.73463000  0.00704000  1.0
  O  O111  1  0.95441000  0.26537000  0.50704000  1.0
  O  O112  1  0.66360000  0.43848000  0.52159000  1.0
  O  O113  1  0.83639000  0.56152000  0.02159000  1.0
  O  O114  1  0.33640000  0.93848000  0.97841000  1.0
  O  O115  1  0.16361000  0.06151000  0.47841000  1.0
  O  O116  1  0.33639000  0.56152000  0.47841000  1.0
  O  O117  1  0.16360000  0.43848000  0.97841000  1.0
  O  O118  1  0.66361000  0.06152000  0.02159000  1.0
  O  O119  1  0.83640000  0.93848000  0.52159000  1.0
  O  O120  1  0.69573000  0.28497000  0.65186000  1.0
  O  O121  1  0.80427000  0.71503000  0.15186000  1.0
  O  O122  1  0.30427000  0.78497000  0.84814000  1.0
  O  O123  1  0.19573000  0.21503000  0.34814000  1.0
  O  O124  1  0.30427000  0.71503000  0.34814000  1.0
  O  O125  1  0.19573000  0.28497000  0.84814000  1.0
  O  O126  1  0.69573000  0.21503000  0.15186000  1.0
  O  O127  1  0.80427000  0.78497000  0.65186000  1.0
  O  O128  1  0.79007000  0.28036000  0.80243000  1.0
  O  O129  1  0.70993000  0.71964000  0.30242000  1.0
  O  O130  1  0.20993000  0.78036000  0.69758000  1.0
  O  O131  1  0.29007000  0.21964000  0.19758000  1.0
  O  O132  1  0.20993000  0.71964000  0.19757000  1.0
  O  O133  1  0.29007000  0.28036000  0.69758000  1.0
  O  O134  1  0.79007000  0.21964000  0.30242000  1.0
  O  O135  1  0.70993000  0.78036000  0.80243000  1.0
