# generated using pymatgen
data_ZnCuH20C14(NO3)4
_symmetry_space_group_name_H-M   'P 1'
_cell_length_a   7.22240000
_cell_length_b   8.49964000
_cell_length_c   9.32927000
_cell_angle_alpha   101.25200000
_cell_angle_beta   107.30100000
_cell_angle_gamma   110.74600000
_symmetry_Int_Tables_number   1
_chemical_formula_structural   ZnCuH20C14(NO3)4
_chemical_formula_sum   'Zn1 Cu1 H20 C14 N4 O12'
_cell_volume   481.51326938
_cell_formula_units_Z   1
loop_
 _symmetry_equiv_pos_site_id
 _symmetry_equiv_pos_as_xyz
  1  'x, y, z'
loop_
 _atom_site_type_symbol
 _atom_site_label
 _atom_site_symmetry_multiplicity
 _atom_site_fract_x
 _atom_site_fract_y
 _atom_site_fract_z
 _atom_site_occupancy
  Zn  Zn0  1  0.99999000  0.50000000  0.50000000  1.0
  Cu  Cu1  1  0.00000000  0.00000000  0.00000000  1.0
  H  H2  1  0.26300000  0.36914000  0.43809000  1.0
  H  H3  1  0.73699000  0.63086000  0.56191000  1.0
  H  H4  1  0.31955000  0.54949000  0.40166000  1.0
  H  H5  1  0.68044000  0.45051000  0.59834000  1.0
  H  H6  1  0.99131000  0.71653000  0.84199000  1.0
  H  H7  1  0.00868000  0.28347000  0.15801000  1.0
  H  H8  1  0.13936000  0.76536000  0.03510000  1.0
  H  H9  1  0.86064000  0.23464000  0.96490000  1.0
  H  H10  1  0.58169000  0.89983000  0.88635000  1.0
  H  H11  1  0.41830000  0.10017000  0.11366000  1.0
  H  H12  1  0.67557000  0.88986000  0.06770000  1.0
  H  H13  1  0.32443000  0.11014000  0.93230000  1.0
  H  H14  1  0.83762000  0.64877000  0.09226000  1.0
  H  H15  1  0.16238000  0.35123000  0.90775000  1.0
  H  H16  1  0.76619000  0.48956000  0.90540000  1.0
  H  H17  1  0.23380000  0.51044000  0.09460000  1.0
  H  H18  1  0.47154000  0.58689000  0.90249000  1.0
  H  H19  1  0.52846000  0.41311000  0.09751000  1.0
  H  H20  1  0.57641000  0.63893000  0.76041000  1.0
  H  H21  1  0.42359000  0.36107000  0.23959000  1.0
  C  C22  1  0.26947000  0.86896000  0.59965000  1.0
  C  C23  1  0.73054000  0.13103000  0.40036000  1.0
  C  C24  1  0.11014000  0.82523000  0.44057000  1.0
  C  C25  1  0.88987000  0.17476000  0.55942000  1.0
  C  C26  1  0.14959000  0.99010000  0.40137000  1.0
  C  C27  1  0.85044000  0.00990000  0.59861000  1.0
  C  C28  1  0.34540000  0.13316000  0.53698000  1.0
  C  C29  1  0.65461000  0.86684000  0.46302000  1.0
  C  C30  1  0.41768000  0.05990000  0.66247000  1.0
  C  C31  1  0.58234000  0.94010000  0.33753000  1.0
  C  C32  1  0.80505000  0.62916000  0.96575000  1.0
  C  C33  1  0.19494000  0.37084000  0.03425000  1.0
  C  C34  1  0.61733000  0.66902000  0.88866000  1.0
  C  C35  1  0.38267000  0.33098000  0.11134000  1.0
  N  N36  1  0.99966000  0.75687000  0.95609000  1.0
  N  N37  1  0.00033000  0.24313000  0.04391000  1.0
  N  N38  1  0.68381000  0.86237000  0.95852000  1.0
  N  N39  1  0.31618000  0.13763000  0.04148000  1.0
  O  O40  1  0.26847000  0.75436000  0.66832000  1.0
  O  O41  1  0.73153000  0.24564000  0.33168000  1.0
  O  O42  1  0.96282000  0.66868000  0.35962000  1.0
  O  O43  1  0.03719000  0.33133000  0.64038000  1.0
  O  O44  1  0.04010000  0.01171000  0.28202000  1.0
  O  O45  1  0.95993000  0.98829000  0.71797000  1.0
  O  O46  1  0.42802000  0.29328000  0.54346000  1.0
  O  O47  1  0.57198000  0.70672000  0.45655000  1.0
  O  O48  1  0.56795000  0.14368000  0.79805000  1.0
  O  O49  1  0.43205000  0.85633000  0.20196000  1.0
  O  O50  1  0.19450000  0.44152000  0.39140000  1.0
  O  O51  1  0.80549000  0.55848000  0.60860000  1.0
