# generated using pymatgen
data_Zn2H8C23S5(NO5)2
_symmetry_space_group_name_H-M   'P 1'
_cell_length_a   11.41020000
_cell_length_b   12.69420000
_cell_length_c   23.76900000
_cell_angle_alpha   89.95700000
_cell_angle_beta   89.77130000
_cell_angle_gamma   89.67150000
_symmetry_Int_Tables_number   1
_chemical_formula_structural   Zn2H8C23S5(NO5)2
_chemical_formula_sum   'Zn4 H16 C46 S10 N4 O20'
_cell_volume   3442.69692137
_cell_formula_units_Z   2
loop_
 _symmetry_equiv_pos_site_id
 _symmetry_equiv_pos_as_xyz
  1  'x, y, z'
loop_
 _atom_site_type_symbol
 _atom_site_label
 _atom_site_symmetry_multiplicity
 _atom_site_fract_x
 _atom_site_fract_y
 _atom_site_fract_z
 _atom_site_occupancy
  Zn  Zn0  1  0.38086000  0.50510000  0.50067000  1.0
  Zn  Zn1  1  0.62398000  0.50374000  0.50395000  1.0
  Zn  Zn2  1  0.61907000  0.50270000  0.03540000  1.0
  Zn  Zn3  1  0.37620000  0.50448000  0.03937000  1.0
  H  H4  1  0.17418000  0.44276000  0.57713000  1.0
  H  H5  1  0.83240000  0.56700000  0.42257000  1.0
  H  H6  1  0.31758000  0.14870000  0.49381000  1.0
  H  H7  1  0.68812000  0.85953000  0.50084000  1.0
  H  H8  1  0.37322000  0.35634000  0.16384000  1.0
  H  H9  1  0.25612000  0.22554000  0.21548000  1.0
  H  H10  1  0.36994000  0.35300000  0.37387000  1.0
  H  H11  1  0.25365000  0.22430000  0.32057000  1.0
  H  H12  1  0.67075000  0.52642000  0.69246000  1.0
  H  H13  1  0.31269000  0.45116000  0.84798000  1.0
  H  H14  1  0.83234000  0.41799000  0.96551000  1.0
  H  H15  1  0.16180000  0.58739000  0.11224000  1.0
  H  H16  1  0.67664000  0.14445000  0.03995000  1.0
  H  H17  1  0.30354000  0.86162000  0.03900000  1.0
  H  H18  1  0.54657000  0.72630000  0.35231000  1.0
  H  H19  1  0.51669000  0.71087000  0.17890000  1.0
  C  C20  1  0.50338000  0.70843000  0.50264000  1.0
  C  C21  1  0.50846000  0.50646000  0.39217000  1.0
  C  C22  1  0.50333000  0.29978000  0.49794000  1.0
  C  C23  1  0.49114000  0.49494000  0.61196000  1.0
  C  C24  1  0.48887000  0.70778000  0.03399000  1.0
  C  C25  1  0.50691000  0.51346000  0.14751000  1.0
  C  C26  1  0.49442000  0.29897000  0.04472000  1.0
  C  C27  1  0.49728000  0.48841000  0.92799000  1.0
  C  C28  1  0.13252000  0.47224000  0.53902000  1.0
  C  C29  1  0.87218000  0.53653000  0.46113000  1.0
  C  C30  1  0.99309000  0.52553000  0.47312000  1.0
  C  C31  1  0.01177000  0.48266000  0.52721000  1.0
  C  C32  1  0.40678000  0.11829000  0.49545000  1.0
  C  C33  1  0.59891000  0.88997000  0.50003000  1.0
  C  C34  1  0.50317000  0.18375000  0.49702000  1.0
  C  C35  1  0.50254000  0.82444000  0.50037000  1.0
  C  C36  1  0.56422000  0.99687000  0.49881000  1.0
  C  C37  1  0.44130000  0.01133000  0.49707000  1.0
  C  C38  1  0.51009000  0.50868000  0.21077000  1.0
  C  C39  1  0.43975000  0.43261000  0.23919000  1.0
  C  C40  1  0.58522000  0.57424000  0.24031000  1.0
  C  C41  1  0.37230000  0.35686000  0.20967000  1.0
  C  C42  1  0.30668000  0.28374000  0.23866000  1.0
  C  C43  1  0.51284000  0.50292000  0.32895000  1.0
  C  C44  1  0.58926000  0.56890000  0.30018000  1.0
  C  C45  1  0.43933000  0.43119000  0.29950000  1.0
  C  C46  1  0.37015000  0.35499000  0.32804000  1.0
  C  C47  1  0.30539000  0.28298000  0.29813000  1.0
  C  C48  1  0.58429000  0.50782000  0.70889000  1.0
  C  C49  1  0.39949000  0.46816000  0.83141000  1.0
  C  C50  1  0.48972000  0.49085000  0.67396000  1.0
  C  C51  1  0.49438000  0.48628000  0.86604000  1.0
  C  C52  1  0.43192000  0.47540000  0.77410000  1.0
  C  C53  1  0.55173000  0.49908000  0.76600000  1.0
  C  C54  1  0.87043000  0.45935000  0.00109000  1.0
  C  C55  1  0.12383000  0.54559000  0.07677000  1.0
  C  C56  1  0.00387000  0.53195000  0.06399000  1.0
  C  C57  1  0.99004000  0.47241000  0.01425000  1.0
  C  C58  1  0.58718000  0.11561000  0.04138000  1.0
  C  C59  1  0.39301000  0.89061000  0.03929000  1.0
  C  C60  1  0.49175000  0.18293000  0.04432000  1.0
  C  C61  1  0.48914000  0.82376000  0.03665000  1.0
  C  C62  1  0.42842000  0.99692000  0.04195000  1.0
  C  C63  1  0.55152000  0.00933000  0.04047000  1.0
  C  C64  1  0.67563000  0.63379000  0.33333333  1.0
  C  C65  1  0.66047000  0.65206000  0.20901000  1.0
  S  S66  1  0.12564000  0.54843000  0.44147000  1.0
  S  S67  1  0.87929000  0.45942000  0.55870000  1.0
  S  S68  1  0.63592000  0.11601000  0.49994000  1.0
  S  S69  1  0.36950000  0.89211000  0.49853000  1.0
  S  S70  1  0.36070000  0.46417000  0.71043000  1.0
  S  S71  1  0.62324000  0.51194000  0.82929000  1.0
  S  S72  1  0.86893000  0.56567000  0.09045000  1.0
  S  S73  1  0.12501000  0.43875000  0.98790000  1.0
  S  S74  1  0.35804000  0.11750000  0.04605000  1.0
  S  S75  1  0.62242000  0.88929000  0.03742000  1.0
  N  N76  1  0.20042000  0.50452000  0.49701000  1.0
  N  N77  1  0.80448000  0.50423000  0.50325000  1.0
  N  N78  1  0.79933000  0.50522000  0.03812000  1.0
  N  N79  1  0.19521000  0.50022000  0.03973000  1.0
  O  O80  1  0.40437000  0.66336000  0.50954000  1.0
  O  O81  1  0.60250000  0.66281000  0.49734000  1.0
  O  O82  1  0.60439000  0.49072000  0.41768000  1.0
  O  O83  1  0.40919000  0.52636000  0.41438000  1.0
  O  O84  1  0.60083000  0.34388000  0.50885000  1.0
  O  O85  1  0.40625000  0.34668000  0.48787000  1.0
  O  O86  1  0.39383000  0.48086000  0.58656000  1.0
  O  O87  1  0.59011000  0.51273000  0.58886000  1.0
  O  O88  1  0.58815000  0.66170000  0.03829000  1.0
  O  O89  1  0.38977000  0.66297000  0.02801000  1.0
  O  O90  1  0.40826000  0.53310000  0.12487000  1.0
  O  O91  1  0.60346000  0.49690000  0.12230000  1.0
  O  O92  1  0.39736000  0.34673000  0.05487000  1.0
  O  O93  1  0.59259000  0.34241000  0.03467000  1.0
  O  O94  1  0.59774000  0.50371000  0.95014000  1.0
  O  O95  1  0.40077000  0.47581000  0.95440000  1.0
  O  O96  1  0.63104000  0.72172000  0.35868000  1.0
  O  O97  1  0.77862000  0.61139000  0.33856000  1.0
  O  O98  1  0.60099000  0.72392000  0.17689000  1.0
  O  O99  1  0.76663000  0.65528000  0.21152000  1.0
