# generated using pymatgen
data_CdH13C20NO5
_symmetry_space_group_name_H-M   'P 1'
_cell_length_a   7.64499000
_cell_length_b   10.11970000
_cell_length_c   12.12930000
_cell_angle_alpha   84.05960000
_cell_angle_beta   83.82560000
_cell_angle_gamma   84.12530000
_symmetry_Int_Tables_number   1
_chemical_formula_structural   CdH13C20NO5
_chemical_formula_sum   'Cd2 H26 C40 N2 O10'
_cell_volume   923.97332967
_cell_formula_units_Z   2
loop_
 _symmetry_equiv_pos_site_id
 _symmetry_equiv_pos_as_xyz
  1  'x, y, z'
loop_
 _atom_site_type_symbol
 _atom_site_label
 _atom_site_symmetry_multiplicity
 _atom_site_fract_x
 _atom_site_fract_y
 _atom_site_fract_z
 _atom_site_occupancy
  Cd  Cd0  1  0.25298000  0.48752000  0.47546000  1.0
  Cd  Cd1  1  0.74701000  0.51248000  0.52454000  1.0
  H  H2  1  0.99743000  0.69997000  0.34705000  1.0
  H  H3  1  0.00257000  0.30003000  0.65295000  1.0
  H  H4  1  0.94839000  0.94609000  0.29454000  1.0
  H  H5  1  0.05162000  0.05391000  0.70545000  1.0
  H  H6  1  0.14841000  0.09704000  0.36182000  1.0
  H  H7  1  0.85159000  0.90297000  0.63818000  1.0
  H  H8  1  0.40287000  0.74970000  0.53590000  1.0
  H  H9  1  0.59713000  0.25030000  0.46410000  1.0
  H  H10  1  0.37154000  0.12729000  0.48384000  1.0
  H  H11  1  0.62846000  0.87271000  0.51616000  1.0
  H  H12  1  0.61037000  0.48160000  0.79065000  1.0
  H  H13  1  0.38963000  0.51839000  0.20935000  1.0
  H  H14  1  0.76527000  0.37031000  0.95068000  1.0
  H  H15  1  0.23473000  0.62968000  0.04933000  1.0
  H  H16  1  0.55992000  0.99996000  0.90622000  1.0
  H  H17  1  0.44007000  0.00004000  0.09379000  1.0
  H  H18  1  0.40094000  0.11386000  0.74774000  1.0
  H  H19  1  0.59906000  0.88614000  0.25226000  1.0
  H  H20  1  0.58938000  0.25882000  0.17420000  1.0
  H  H21  1  0.41061000  0.74118000  0.82580000  1.0
  H  H22  1  0.73501000  0.37689000  0.30278000  1.0
  H  H23  1  0.26499000  0.62311000  0.69722000  1.0
  H  H24  1  0.24545000  0.22067000  0.16163000  1.0
  H  H25  1  0.75455000  0.77933000  0.83837000  1.0
  H  H26  1  0.09904000  0.10667000  0.02675000  1.0
  H  H27  1  0.90096000  0.89333000  0.97325000  1.0
  C  C28  1  0.07816000  0.76957000  0.37586000  1.0
  C  C29  1  0.92185000  0.23043000  0.62413000  1.0
  C  C30  1  0.05228000  0.90642000  0.34702000  1.0
  C  C31  1  0.94772000  0.09358000  0.65297000  1.0
  C  C32  1  0.16157000  0.98985000  0.38510000  1.0
  C  C33  1  0.83844000  0.01015000  0.61490000  1.0
  C  C34  1  0.29580000  0.93561000  0.45149000  1.0
  C  C35  1  0.70420000  0.06440000  0.54851000  1.0
  C  C36  1  0.30677000  0.79736000  0.48070000  1.0
  C  C37  1  0.69323000  0.20265000  0.51930000  1.0
  C  C38  1  0.41836000  0.02146000  0.48531000  1.0
  C  C39  1  0.58164000  0.97855000  0.51469000  1.0
  C  C40  1  0.49423000  0.30513000  0.76022000  1.0
  C  C41  1  0.50577000  0.69486000  0.23978000  1.0
  C  C42  1  0.59710000  0.37662000  0.81779000  1.0
  C  C43  1  0.40290000  0.62337000  0.18221000  1.0
  C  C44  1  0.68446000  0.31457000  0.90686000  1.0
  C  C45  1  0.31554000  0.68543000  0.09314000  1.0
  C  C46  1  0.67001000  0.17858000  0.93782000  1.0
  C  C47  1  0.32999000  0.82142000  0.06218000  1.0
  C  C48  1  0.56786000  0.10574000  0.88114000  1.0
  C  C49  1  0.43214000  0.89425000  0.11886000  1.0
  C  C50  1  0.47954000  0.16932000  0.79345000  1.0
  C  C51  1  0.52046000  0.83068000  0.20655000  1.0
  C  C52  1  0.83724000  0.17747000  0.09305000  1.0
  C  C53  1  0.16275000  0.82253000  0.90695000  1.0
  C  C54  1  0.73318000  0.25172000  0.17074000  1.0
  C  C55  1  0.26681000  0.74828000  0.82926000  1.0
  C  C56  1  0.81562000  0.31713000  0.24341000  1.0
  C  C57  1  0.18438000  0.68287000  0.75659000  1.0
  C  C58  1  0.00037000  0.30611000  0.24072000  1.0
  C  C59  1  0.99963000  0.69389000  0.75928000  1.0
  C  C60  1  0.10205000  0.22972000  0.16264000  1.0
  C  C61  1  0.89795000  0.77028000  0.83736000  1.0
  C  C62  1  0.02137000  0.16597000  0.08786000  1.0
  C  C63  1  0.97863000  0.83403000  0.91214000  1.0
  C  C64  1  0.41174000  0.36965000  0.66066000  1.0
  C  C65  1  0.58826000  0.63035000  0.33934000  1.0
  C  C66  1  0.08865000  0.37101000  0.32233000  1.0
  C  C67  1  0.91135000  0.62899000  0.67767000  1.0
  N  N68  1  0.20281000  0.71685000  0.44258000  1.0
  N  N69  1  0.79719000  0.28315000  0.55742000  1.0
  O  O70  1  0.30523000  0.30910000  0.61484000  1.0
  O  O71  1  0.69477000  0.69090000  0.38516000  1.0
  O  O72  1  0.45315000  0.48695000  0.62009000  1.0
  O  O73  1  0.54685000  0.51305000  0.37991000  1.0
  O  O74  1  0.00125000  0.46269000  0.37696000  1.0
  O  O75  1  0.99876000  0.53731000  0.62304000  1.0
  O  O76  1  0.24979000  0.33374000  0.33613000  1.0
  O  O77  1  0.75021000  0.66626000  0.66387000  1.0
  O  O78  1  0.75777000  0.10735000  0.02187000  1.0
  O  O79  1  0.24223000  0.89265000  0.97813000  1.0
