# generated using pymatgen
data_MnH18C14(NO)4
_symmetry_space_group_name_H-M   'P 1'
_cell_length_a   9.32222000
_cell_length_b   9.32237000
_cell_length_c   9.49764000
_cell_angle_alpha   97.05430000
_cell_angle_beta   97.05210000
_cell_angle_gamma   96.74270000
_symmetry_Int_Tables_number   1
_chemical_formula_structural   MnH18C14(NO)4
_chemical_formula_sum   'Mn2 H36 C28 N8 O8'
_cell_volume   805.56056283
_cell_formula_units_Z   2
loop_
 _symmetry_equiv_pos_site_id
 _symmetry_equiv_pos_as_xyz
  1  'x, y, z'
loop_
 _atom_site_type_symbol
 _atom_site_label
 _atom_site_symmetry_multiplicity
 _atom_site_fract_x
 _atom_site_fract_y
 _atom_site_fract_z
 _atom_site_occupancy
  Mn  Mn0  1  0.10130000  0.89871000  0.75000000  1.0
  Mn  Mn1  1  0.89131000  0.10869000  0.25000000  1.0
  H  H2  1  0.97895000  0.55688000  0.60162000  1.0
  H  H3  1  0.44314000  0.02106000  0.89835000  1.0
  H  H4  1  0.01274000  0.42898000  0.39838000  1.0
  H  H5  1  0.57102000  0.98726000  0.10165000  1.0
  H  H6  1  0.05009000  0.31543000  0.73254000  1.0
  H  H7  1  0.68460000  0.94990000  0.76744000  1.0
  H  H8  1  0.95513000  0.67241000  0.26597000  1.0
  H  H9  1  0.32758000  0.04484000  0.23405000  1.0
  H  H10  1  0.20942000  0.70703000  0.01248000  1.0
  H  H11  1  0.29299000  0.79057000  0.48751000  1.0
  H  H12  1  0.77438000  0.28421000  0.98881000  1.0
  H  H13  1  0.71580000  0.22563000  0.51121000  1.0
  H  H14  1  0.12363000  0.31405000  0.02438000  1.0
  H  H15  1  0.68597000  0.87635000  0.47561000  1.0
  H  H16  1  0.87817000  0.67818000  0.97810000  1.0
  H  H17  1  0.32181000  0.12181000  0.52192000  1.0
  H  H18  1  0.23748000  0.47301000  0.11072000  1.0
  H  H19  1  0.52700000  0.76251000  0.38927000  1.0
  H  H20  1  0.76192000  0.52215000  0.88906000  1.0
  H  H21  1  0.47785000  0.23808000  0.61096000  1.0
  H  H22  1  0.30053000  0.25886000  0.85956000  1.0
  H  H23  1  0.74115000  0.69946000  0.64043000  1.0
  H  H24  1  0.70154000  0.73757000  0.14043000  1.0
  H  H25  1  0.26243000  0.29844000  0.35958000  1.0
  H  H26  1  0.37905000  0.26984000  0.03938000  1.0
  H  H27  1  0.73017000  0.62093000  0.46062000  1.0
  H  H28  1  0.62424000  0.72778000  0.96013000  1.0
  H  H29  1  0.27222000  0.37574000  0.53986000  1.0
  H  H30  1  0.54271000  0.39071000  0.88217000  1.0
  H  H31  1  0.60930000  0.45728000  0.61784000  1.0
  H  H32  1  0.45639000  0.61017000  0.11612000  1.0
  H  H33  1  0.38983000  0.54358000  0.38387000  1.0
  H  H34  1  0.41929000  0.51586000  0.85247000  1.0
  H  H35  1  0.48414000  0.58071000  0.64752000  1.0
  H  H36  1  0.57746000  0.48306000  0.14737000  1.0
  H  H37  1  0.51694000  0.42251000  0.35264000  1.0
  C  C38  1  0.07897000  0.02783000  0.04308000  1.0
  C  C39  1  0.97218000  0.92105000  0.45691000  1.0
  C  C40  1  0.92286000  0.99127000  0.96907000  1.0
  C  C41  1  0.00874000  0.07715000  0.53095000  1.0
  C  C42  1  0.03653000  0.55130000  0.70666000  1.0
  C  C43  1  0.44870000  0.96347000  0.79331000  1.0
  C  C44  1  0.95555000  0.43605000  0.29369000  1.0
  C  C45  1  0.56396000  0.04444000  0.20633000  1.0
  C  C46  1  0.06809000  0.43189000  0.77062000  1.0
  C  C47  1  0.56812000  0.93190000  0.72938000  1.0
  C  C48  1  0.93059000  0.55620000  0.22835000  1.0
  C  C49  1  0.44379000  0.06939000  0.27167000  1.0
  C  C50  1  0.15532000  0.63481000  0.91774000  1.0
  C  C51  1  0.36521000  0.84468000  0.58225000  1.0
  C  C52  1  0.83228000  0.35516000  0.08247000  1.0
  C  C53  1  0.64485000  0.16772000  0.41754000  1.0
  C  C54  1  0.20770000  0.40078000  0.00827000  1.0
  C  C55  1  0.59925000  0.79226000  0.49171000  1.0
  C  C56  1  0.79194000  0.59272000  0.99242000  1.0
  C  C57  1  0.40726000  0.20807000  0.50761000  1.0
  C  C58  1  0.33899000  0.33575000  0.95810000  1.0
  C  C59  1  0.66425000  0.66096000  0.54190000  1.0
  C  C60  1  0.66199000  0.66113000  0.04180000  1.0
  C  C61  1  0.33887000  0.33802000  0.45820000  1.0
  C  C62  1  0.46182000  0.44927000  0.93221000  1.0
  C  C63  1  0.55072000  0.53815000  0.56779000  1.0
  C  C64  1  0.53678000  0.54998000  0.06709000  1.0
  C  C65  1  0.45003000  0.46321000  0.43292000  1.0
  N  N66  1  0.09137000  0.67711000  0.79930000  1.0
  N  N67  1  0.32289000  0.90862000  0.70069000  1.0
  N  N68  1  0.89328000  0.31074000  0.20204000  1.0
  N  N69  1  0.68927000  0.10671000  0.29796000  1.0
  N  N70  1  0.14289000  0.48700000  0.90478000  1.0
  N  N71  1  0.51302000  0.85710000  0.59521000  1.0
  N  N72  1  0.85312000  0.50344000  0.09504000  1.0
  N  N73  1  0.49656000  0.14686000  0.40498000  1.0
  O  O74  1  0.18200000  0.99716000  0.97324000  1.0
  O  O75  1  0.00285000  0.81801000  0.52674000  1.0
  O  O76  1  0.82366000  0.02418000  0.04631000  1.0
  O  O77  1  0.97583000  0.17634000  0.45369000  1.0
  O  O78  1  0.09490000  0.08545000  0.17480000  1.0
  O  O79  1  0.91456000  0.90510000  0.32519000  1.0
  O  O80  1  0.89760000  0.92887000  0.84036000  1.0
  O  O81  1  0.07114000  0.10242000  0.65965000  1.0
