# generated using pymatgen
data_YbH14C14N3O9F4
_symmetry_space_group_name_H-M   'P 1'
_cell_length_a   11.24150000
_cell_length_b   12.27386544
_cell_length_c   19.98640000
_cell_angle_alpha   91.10262477
_cell_angle_beta   106.31390000
_cell_angle_gamma   117.25206205
_symmetry_Int_Tables_number   1
_chemical_formula_structural   YbH14C14N3O9F4
_chemical_formula_sum   'Yb4 H56 C56 N12 O36 F16'
_cell_volume   2317.24723125
_cell_formula_units_Z   4
loop_
 _symmetry_equiv_pos_site_id
 _symmetry_equiv_pos_as_xyz
  1  'x, y, z'
loop_
 _atom_site_type_symbol
 _atom_site_label
 _atom_site_symmetry_multiplicity
 _atom_site_fract_x
 _atom_site_fract_y
 _atom_site_fract_z
 _atom_site_occupancy
  Yb  Yb0  1  0.83250000  0.89119000  0.69584000  1.0
  Yb  Yb1  1  0.74532000  0.60891000  0.80417000  1.0
  Yb  Yb2  1  0.16750000  0.10881000  0.30415000  1.0
  Yb  Yb3  1  0.25468000  0.39109000  0.19583000  1.0
  H  H4  1  0.57129000  0.97118000  0.61456000  1.0
  H  H5  1  0.48562000  0.52875000  0.88590000  1.0
  H  H6  1  0.42872000  0.02883000  0.38545000  1.0
  H  H7  1  0.51438000  0.47124000  0.11410000  1.0
  H  H8  1  0.80643000  0.34175000  0.65986000  1.0
  H  H9  1  0.30527000  0.15831000  0.83999000  1.0
  H  H10  1  0.19360000  0.65826000  0.34015000  1.0
  H  H11  1  0.69472000  0.84169000  0.16001000  1.0
  H  H12  1  0.83475000  0.30937000  0.58019000  1.0
  H  H13  1  0.44547000  0.19038000  0.91963000  1.0
  H  H14  1  0.16527000  0.69063000  0.41982000  1.0
  H  H15  1  0.55451000  0.80960000  0.08037000  1.0
  H  H16  1  0.90044000  0.25690000  0.65819000  1.0
  H  H17  1  0.48580000  0.24349000  0.84173000  1.0
  H  H18  1  0.09959000  0.74311000  0.34182000  1.0
  H  H19  1  0.51418000  0.75649000  0.15826000  1.0
  H  H20  1  0.46590000  0.06287000  0.54819000  1.0
  H  H21  1  0.35394000  0.43619000  0.95188000  1.0
  H  H22  1  0.53412000  0.93714000  0.45181000  1.0
  H  H23  1  0.64606000  0.56381000  0.04812000  1.0
  H  H24  1  0.57818000  0.17205000  0.50587000  1.0
  H  H25  1  0.39918000  0.32682000  0.99406000  1.0
  H  H26  1  0.42183000  0.82796000  0.49414000  1.0
  H  H27  1  0.60084000  0.67319000  0.00594000  1.0
  H  H28  1  0.53967000  0.22596000  0.57571000  1.0
  H  H29  1  0.23749000  0.27313000  0.92391000  1.0
  H  H30  1  0.46034000  0.77405000  0.42429000  1.0
  H  H31  1  0.76252000  0.72687000  0.07609000  1.0
  H  H32  1  0.15826000  0.98823000  0.68036000  1.0
  H  H33  1  0.98969000  0.51190000  0.81978000  1.0
  H  H34  1  0.84174000  0.01177000  0.31964000  1.0
  H  H35  1  0.01031000  0.48810000  0.18021000  1.0
  H  H36  1  0.37459000  0.08868000  0.68205000  1.0
  H  H37  1  0.10366000  0.41117000  0.81790000  1.0
  H  H38  1  0.62540000  0.91131000  0.31795000  1.0
  H  H39  1  0.89634000  0.58884000  0.18211000  1.0
  H  H40  1  0.47271000  0.24996000  0.72323000  1.0
  H  H41  1  0.99901000  0.24990000  0.77673000  1.0
  H  H42  1  0.52729000  0.75004000  0.27677000  1.0
  H  H43  1  0.00099000  0.75010000  0.22327000  1.0
  H  H44  1  0.40136000  0.20915000  0.62934000  1.0
  H  H45  1  0.06269000  0.29071000  0.87062000  1.0
  H  H46  1  0.59865000  0.79085000  0.37066000  1.0
  H  H47  1  0.93732000  0.70930000  0.12938000  1.0
  H  H48  1  0.15808000  0.28242000  0.69621000  1.0
  H  H49  1  0.67951000  0.21788000  0.80419000  1.0
  H  H50  1  0.84191000  0.71757000  0.30379000  1.0
  H  H51  1  0.32050000  0.78212000  0.19581000  1.0
  H  H52  1  0.22916000  0.31287000  0.62476000  1.0
  H  H53  1  0.79168000  0.18749000  0.87560000  1.0
  H  H54  1  0.77083000  0.68713000  0.37523000  1.0
  H  H55  1  0.20833000  0.81252000  0.12441000  1.0
  H  H56  1  0.34647000  0.36813000  0.71395000  1.0
  H  H57  1  0.76425000  0.13202000  0.78638000  1.0
  H  H58  1  0.65352000  0.63187000  0.28605000  1.0
  H  H59  1  0.23576000  0.86798000  0.21362000  1.0
  C  C60  1  0.54827000  0.75027000  0.75011000  1.0
  C  C61  1  0.45172000  0.24973000  0.24989000  1.0
  C  C62  1  0.41330000  0.75015000  0.74998000  1.0
  C  C63  1  0.58670000  0.24986000  0.25002000  1.0
  C  C64  1  0.41497000  0.85570000  0.77862000  1.0
  C  C65  1  0.28103000  0.64436000  0.72132000  1.0
  C  C66  1  0.58502000  0.14430000  0.22139000  1.0
  C  C67  1  0.71896000  0.35564000  0.27867000  1.0
  C  C68  1  0.29107000  0.85514000  0.77915000  1.0
  C  C69  1  0.15691000  0.64453000  0.72071000  1.0
  C  C70  1  0.70892000  0.14486000  0.22084000  1.0
  C  C71  1  0.84308000  0.35547000  0.27928000  1.0
  C  C72  1  0.15849000  0.74973000  0.74992000  1.0
  C  C73  1  0.84150000  0.25027000  0.25007000  1.0
  C  C74  1  0.02401000  0.74962000  0.74985000  1.0
  C  C75  1  0.97599000  0.25038000  0.25015000  1.0
  C  C76  1  0.63546000  0.56496000  0.65330000  1.0
  C  C77  1  0.91804000  0.93511000  0.84675000  1.0
  C  C78  1  0.36453000  0.43504000  0.34670000  1.0
  C  C79  1  0.08196000  0.06489000  0.15325000  1.0
  C  C80  1  0.56537000  0.53134000  0.57428000  1.0
  C  C81  1  0.96029000  0.96868000  0.92575000  1.0
  C  C82  1  0.43461000  0.46865000  0.42572000  1.0
  C  C83  1  0.03971000  0.03133000  0.07425000  1.0
  C  C84  1  0.44803000  0.54630000  0.54159000  1.0
  C  C85  1  0.86037000  0.95369000  0.95825000  1.0
  C  C86  1  0.55196000  0.45370000  0.45841000  1.0
  C  C87  1  0.13963000  0.04632000  0.04175000  1.0
  C  C88  1  0.38353000  0.51492000  0.46850000  1.0
  C  C89  1  0.89973000  0.98496000  0.03131000  1.0
  C  C90  1  0.61646000  0.48508000  0.53150000  1.0
  C  C91  1  0.10026000  0.01504000  0.96869000  1.0
  C  C92  1  0.67636000  0.05499000  0.63395000  1.0
  C  C93  1  0.48758000  0.44505000  0.86636000  1.0
  C  C94  1  0.32364000  0.94501000  0.36605000  1.0
  C  C95  1  0.51243000  0.55494000  0.13364000  1.0
  C  C96  1  0.81432000  0.27312000  0.62789000  1.0
  C  C97  1  0.41368000  0.22690000  0.87204000  1.0
  C  C98  1  0.18569000  0.72688000  0.37212000  1.0
  C  C99  1  0.58631000  0.77309000  0.12795000  1.0
  C  C100  1  0.55988000  0.15371000  0.55668000  1.0
  C  C101  1  0.34890000  0.34550000  0.94326000  1.0
  C  C102  1  0.44014000  0.84630000  0.44333000  1.0
  C  C103  1  0.65111000  0.65450000  0.05674000  1.0
  C  C104  1  0.14163000  0.06986000  0.68032000  1.0
  C  C105  1  0.89145000  0.43031000  0.81982000  1.0
  C  C106  1  0.85836000  0.93013000  0.31967000  1.0
  C  C107  1  0.10855000  0.56969000  0.18018000  1.0
  C  C108  1  0.38317000  0.18102000  0.67881000  1.0
  C  C109  1  0.02311000  0.31890000  0.82120000  1.0
  C  C110  1  0.61682000  0.81897000  0.32119000  1.0
  C  C111  1  0.97689000  0.68110000  0.17880000  1.0
  C  C112  1  0.24608000  0.29231000  0.67889000  1.0
  C  C113  1  0.77489000  0.20794000  0.82144000  1.0
  C  C114  1  0.75391000  0.70768000  0.32110000  1.0
  C  C115  1  0.22512000  0.79206000  0.17856000  1.0
  N  N116  1  0.68242000  0.15583000  0.60764000  1.0
  N  N117  1  0.41908000  0.34400000  0.89252000  1.0
  N  N118  1  0.31761000  0.84419000  0.39237000  1.0
  N  N119  1  0.58091000  0.65599000  0.10747000  1.0
  N  N120  1  0.25249000  0.17653000  0.68059000  1.0
  N  N121  1  0.89536000  0.32363000  0.81962000  1.0
  N  N122  1  0.74750000  0.82347000  0.31941000  1.0
  N  N123  1  0.10464000  0.67637000  0.18038000  1.0
  N  N124  1  0.75361000  0.81212000  0.54753000  1.0
  N  N125  1  0.89387000  0.68795000  0.95245000  1.0
  N  N126  1  0.24638000  0.18787000  0.45247000  1.0
  N  N127  1  0.10613000  0.31204000  0.04755000  1.0
  O  O128  1  0.62535000  0.83490000  0.72247000  1.0
  O  O129  1  0.56835000  0.66572000  0.77783000  1.0
  O  O130  1  0.37465000  0.16510000  0.27753000  1.0
  O  O131  1  0.43165000  0.33429000  0.22217000  1.0
  O  O132  1  0.01207000  0.84307000  0.73162000  1.0
  O  O133  1  0.93673000  0.65614000  0.76801000  1.0
  O  O134  1  0.98792000  0.15693000  0.26838000  1.0
  O  O135  1  0.06325000  0.34385000  0.23199000  1.0
  O  O136  1  0.71258000  0.67947000  0.68082000  1.0
  O  O137  1  0.85278000  0.82060000  0.81920000  1.0
  O  O138  1  0.28741000  0.32053000  0.31918000  1.0
  O  O139  1  0.14722000  0.17940000  0.18080000  1.0
  O  O140  1  0.61552000  0.48005000  0.69020000  1.0
  O  O141  1  0.94656000  0.02005000  0.80988000  1.0
  O  O142  1  0.38447000  0.51995000  0.30980000  1.0
  O  O143  1  0.05344000  0.97995000  0.19012000  1.0
  O  O144  1  0.78048000  0.05352000  0.67737000  1.0
  O  O145  1  0.54978000  0.44677000  0.82291000  1.0
  O  O146  1  0.21953000  0.94648000  0.32264000  1.0
  O  O147  1  0.45020000  0.55321000  0.17709000  1.0
  O  O148  1  0.02554000  0.05995000  0.68123000  1.0
  O  O149  1  0.78429000  0.44019000  0.81882000  1.0
  O  O150  1  0.97446000  0.94005000  0.31876000  1.0
  O  O151  1  0.21571000  0.55981000  0.18118000  1.0
  O  O152  1  0.86641000  0.82019000  0.59083000  1.0
  O  O153  1  0.95525000  0.67965000  0.90917000  1.0
  O  O154  1  0.13359000  0.17980000  0.40917000  1.0
  O  O155  1  0.04475000  0.32035000  0.09083000  1.0
  O  O156  1  0.71497000  0.77619000  0.48318000  1.0
  O  O157  1  0.95545000  0.72378000  0.01682000  1.0
  O  O158  1  0.28503000  0.22381000  0.51682000  1.0
  O  O159  1  0.04456000  0.27623000  0.98318000  1.0
  O  O160  1  0.68044000  0.84338000  0.57566000  1.0
  O  O161  1  0.76148000  0.65709000  0.92434000  1.0
  O  O162  1  0.31956000  0.15663000  0.42434000  1.0
  O  O163  1  0.23851000  0.34290000  0.07566000  1.0
  F  F164  1  0.53884000  0.96159000  0.80839000  1.0
  F  F165  1  0.26984000  0.53867000  0.69166000  1.0
  F  F166  1  0.46116000  0.03841000  0.19163000  1.0
  F  F167  1  0.73016000  0.46134000  0.30833000  1.0
  F  F168  1  0.30297000  0.96012000  0.81056000  1.0
  F  F169  1  0.03272000  0.53936000  0.68926000  1.0
  F  F170  1  0.69702000  0.03988000  0.18943000  1.0
  F  F171  1  0.96729000  0.46066000  0.31073000  1.0
  F  F172  1  0.39430000  0.59060000  0.58103000  1.0
  F  F173  1  0.72310000  0.90950000  0.91860000  1.0
  F  F174  1  0.60568000  0.40940000  0.41897000  1.0
  F  F175  1  0.27690000  0.09052000  0.08139000  1.0
  F  F176  1  0.26774000  0.52833000  0.43883000  1.0
  F  F177  1  0.79986000  0.97142000  0.06078000  1.0
  F  F178  1  0.73225000  0.47167000  0.56117000  1.0
  F  F179  1  0.20013000  0.02857000  0.93922000  1.0
