# generated using pymatgen
data_Zn5H42C68(N2O9)2
_symmetry_space_group_name_H-M   'P 1'
_cell_length_a   7.26141000
_cell_length_b   13.70470000
_cell_length_c   15.57370000
_cell_angle_alpha   84.16810000
_cell_angle_beta   88.52920000
_cell_angle_gamma   84.53070000
_symmetry_Int_Tables_number   1
_chemical_formula_structural   Zn5H42C68(N2O9)2
_chemical_formula_sum   'Zn5 H42 C68 N4 O18'
_cell_volume   1534.58316325
_cell_formula_units_Z   1
loop_
 _symmetry_equiv_pos_site_id
 _symmetry_equiv_pos_as_xyz
  1  'x, y, z'
loop_
 _atom_site_type_symbol
 _atom_site_label
 _atom_site_symmetry_multiplicity
 _atom_site_fract_x
 _atom_site_fract_y
 _atom_site_fract_z
 _atom_site_occupancy
  Zn  Zn0  1  0.50000000  0.00000000  0.00000000  1.0
  Zn  Zn1  1  0.83579000  0.97851000  0.86384000  1.0
  Zn  Zn2  1  0.16421000  0.02149000  0.13616000  1.0
  Zn  Zn3  1  0.86141000  0.83168000  0.06554000  1.0
  Zn  Zn4  1  0.13859000  0.16832000  0.93446000  1.0
  H  H5  1  0.03329000  0.65700000  0.85153000  1.0
  H  H6  1  0.96671000  0.34299000  0.14847000  1.0
  H  H7  1  0.06536000  0.49485000  0.79007000  1.0
  H  H8  1  0.93464000  0.50515000  0.20994000  1.0
  H  H9  1  0.26231000  0.36509000  0.72361000  1.0
  H  H10  1  0.73769000  0.63491000  0.27639000  1.0
  H  H11  1  0.59419000  0.38655000  0.68765000  1.0
  H  H12  1  0.40581000  0.61345000  0.31235000  1.0
  H  H13  1  0.73267000  0.53493000  0.72438000  1.0
  H  H14  1  0.26733000  0.46507000  0.27562000  1.0
  H  H15  1  0.70068000  0.69407000  0.79155000  1.0
  H  H16  1  0.29931000  0.30593000  0.20845000  1.0
  H  H17  1  0.01994000  0.74368000  0.34338000  1.0
  H  H18  1  0.98007000  0.25632000  0.65662000  1.0
  H  H19  1  0.02215000  0.71378000  0.50427000  1.0
  H  H20  1  0.97786000  0.28622000  0.49573000  1.0
  H  H21  1  0.19269000  0.70736000  0.64150000  1.0
  H  H22  1  0.80732000  0.29264000  0.35850000  1.0
  H  H23  1  0.51671000  0.75054000  0.64007000  1.0
  H  H24  1  0.48330000  0.24946000  0.35993000  1.0
  H  H25  1  0.67621000  0.79911000  0.50130000  1.0
  H  H26  1  0.32380000  0.20089000  0.49870000  1.0
  H  H27  1  0.66449000  0.83598000  0.34088000  1.0
  H  H28  1  0.33551000  0.16402000  0.65912000  1.0
  H  H29  1  0.16504000  0.00966000  0.74428000  1.0
  H  H30  1  0.83496000  0.99034000  0.25571000  1.0
  H  H31  1  0.25240000  0.02139000  0.58883000  1.0
  H  H32  1  0.74760000  0.97862000  0.41117000  1.0
  H  H33  1  0.69281000  0.96120000  0.53734000  1.0
  H  H34  1  0.30719000  0.03881000  0.46265000  1.0
  H  H35  1  0.63699000  0.94442000  0.69515000  1.0
  H  H36  1  0.36301000  0.05557000  0.30485000  1.0
  H  H37  1  0.46367000  0.76649000  0.08613000  1.0
  H  H38  1  0.53633000  0.23352000  0.91387000  1.0
  H  H39  1  0.30209000  0.62584000  0.06164000  1.0
  H  H40  1  0.69790000  0.37417000  0.93837000  1.0
  H  H41  1  0.82234000  0.48958000  0.96744000  1.0
  H  H42  1  0.17765000  0.51042000  0.03256000  1.0
  H  H43  1  0.96502000  0.63817000  0.00198000  1.0
  H  H44  1  0.03498000  0.36182000  0.99802000  1.0
  H  H45  1  0.83098000  0.01313000  0.03152000  1.0
  H  H46  1  0.16901000  0.98687000  0.96847000  1.0
  C  C47  1  0.13534000  0.81765000  0.91125000  1.0
  C  C48  1  0.86466000  0.18235000  0.08875000  1.0
  C  C49  1  0.25732000  0.74565000  0.86288000  1.0
  C  C50  1  0.74268000  0.25435000  0.13712000  1.0
  C  C51  1  0.17950000  0.66510000  0.83762000  1.0
  C  C52  1  0.82049000  0.33490000  0.16238000  1.0
  C  C53  1  0.28554000  0.59092000  0.79583000  1.0
  C  C54  1  0.71446000  0.40908000  0.20417000  1.0
  C  C55  1  0.21030000  0.50478000  0.77436000  1.0
  C  C56  1  0.78970000  0.49522000  0.22565000  1.0
  C  C57  1  0.32022000  0.43253000  0.73671000  1.0
  C  C58  1  0.67978000  0.56747000  0.26330000  1.0
  C  C59  1  0.50901000  0.44406000  0.71737000  1.0
  C  C60  1  0.49099000  0.55594000  0.28263000  1.0
  C  C61  1  0.58631000  0.52664000  0.73779000  1.0
  C  C62  1  0.41369000  0.47336000  0.26222000  1.0
  C  C63  1  0.47804000  0.60150000  0.77800000  1.0
  C  C64  1  0.52195000  0.39850000  0.22200000  1.0
  C  C65  1  0.55387000  0.68548000  0.80306000  1.0
  C  C66  1  0.44613000  0.31452000  0.19694000  1.0
  C  C67  1  0.44854000  0.75593000  0.84530000  1.0
  C  C68  1  0.55146000  0.24407000  0.15470000  1.0
  C  C69  1  0.54082000  0.83645000  0.88017000  1.0
  C  C70  1  0.45918000  0.16355000  0.11983000  1.0
  C  C71  1  0.12307000  0.79928000  0.18802000  1.0
  C  C72  1  0.87693000  0.20072000  0.81198000  1.0
  C  C73  1  0.23936000  0.80245000  0.26660000  1.0
  C  C74  1  0.76064000  0.19755000  0.73340000  1.0
  C  C75  1  0.15875000  0.76794000  0.34406000  1.0
  C  C76  1  0.84126000  0.23206000  0.65594000  1.0
  C  C77  1  0.25011000  0.76318000  0.42371000  1.0
  C  C78  1  0.74990000  0.23682000  0.57629000  1.0
  C  C79  1  0.16437000  0.73364000  0.50393000  1.0
  C  C80  1  0.83564000  0.26636000  0.49607000  1.0
  C  C81  1  0.25886000  0.73008000  0.58006000  1.0
  C  C82  1  0.74115000  0.26992000  0.41994000  1.0
  C  C83  1  0.44418000  0.75463000  0.57926000  1.0
  C  C84  1  0.55583000  0.24537000  0.42074000  1.0
  C  C85  1  0.53220000  0.78202000  0.50233000  1.0
  C  C86  1  0.46780000  0.21798000  0.49767000  1.0
  C  C87  1  0.43776000  0.78803000  0.42295000  1.0
  C  C88  1  0.56225000  0.21197000  0.57705000  1.0
  C  C89  1  0.52051000  0.81904000  0.34306000  1.0
  C  C90  1  0.47950000  0.18096000  0.65694000  1.0
  C  C91  1  0.42377000  0.83083000  0.26658000  1.0
  C  C92  1  0.57623000  0.16917000  0.73342000  1.0
  C  C93  1  0.52380000  0.87197000  0.18728000  1.0
  C  C94  1  0.47620000  0.12803000  0.81272000  1.0
  C  C95  1  0.06620000  0.99832000  0.69559000  1.0
  C  C96  1  0.93380000  0.00168000  0.30441000  1.0
  C  C97  1  0.11232000  0.00572000  0.60817000  1.0
  C  C98  1  0.88768000  0.99428000  0.39183000  1.0
  C  C99  1  0.97928000  0.99430000  0.54696000  1.0
  C  C100  1  0.02072000  0.00571000  0.45303000  1.0
  C  C101  1  0.80457000  0.97185000  0.57964000  1.0
  C  C102  1  0.19543000  0.02815000  0.42035000  1.0
  C  C103  1  0.77054000  0.96336000  0.66819000  1.0
  C  C104  1  0.22946000  0.03664000  0.33180000  1.0
  C  C105  1  0.54121000  0.70280000  0.06253000  1.0
  C  C106  1  0.45879000  0.29720000  0.93748000  1.0
  C  C107  1  0.44947000  0.62236000  0.04660000  1.0
  C  C108  1  0.55053000  0.37764000  0.95340000  1.0
  C  C109  1  0.54645000  0.54271000  0.01059000  1.0
  C  C110  1  0.45355000  0.45729000  0.98941000  1.0
  C  C111  1  0.73669000  0.54843000  0.99501000  1.0
  C  C112  1  0.26331000  0.45157000  0.00499000  1.0
  C  C113  1  0.81866000  0.63065000  0.01402000  1.0
  C  C114  1  0.18134000  0.36935000  0.98599000  1.0
  N  N115  1  0.89747000  0.97793000  0.72552000  1.0
  N  N116  1  0.10253000  0.02207000  0.27448000  1.0
  N  N117  1  0.72277000  0.70826000  0.04630000  1.0
  N  N118  1  0.27722000  0.29174000  0.95370000  1.0
  O  O119  1  0.10252000  0.90626000  0.87758000  1.0
  O  O120  1  0.89748000  0.09374000  0.12241000  1.0
  O  O121  1  0.06754000  0.78071000  0.98144000  1.0
  O  O122  1  0.93245000  0.21929000  0.01856000  1.0
  O  O123  1  0.45982000  0.87387000  0.94396000  1.0
  O  O124  1  0.54018000  0.12613000  0.05603000  1.0
  O  O125  1  0.69432000  0.85814000  0.84540000  1.0
  O  O126  1  0.30568000  0.14186000  0.15460000  1.0
  O  O127  1  0.06504000  0.88085000  0.14242000  1.0
  O  O128  1  0.93496000  0.11915000  0.85759000  1.0
  O  O129  1  0.07334000  0.71811000  0.17296000  1.0
  O  O130  1  0.92666000  0.28189000  0.82705000  1.0
  O  O131  1  0.43103000  0.93123000  0.13173000  1.0
  O  O132  1  0.56897000  0.06877000  0.86827000  1.0
  O  O133  1  0.69458000  0.84565000  0.18073000  1.0
  O  O134  1  0.30541000  0.15435000  0.81927000  1.0
  O  O135  1  0.78212000  0.96321000  0.99929000  1.0
  O  O136  1  0.21788000  0.03679000  0.00071000  1.0
