# generated using pymatgen
data_ErH18C19N3O11
_symmetry_space_group_name_H-M   'P 1'
_cell_length_a   6.98822000
_cell_length_b   11.16080000
_cell_length_c   13.38100000
_cell_angle_alpha   102.55400000
_cell_angle_beta   101.61000000
_cell_angle_gamma   90.63850000
_symmetry_Int_Tables_number   1
_chemical_formula_structural   ErH18C19N3O11
_chemical_formula_sum   'Er2 H36 C38 N6 O22'
_cell_volume   996.19989414
_cell_formula_units_Z   2
loop_
 _symmetry_equiv_pos_site_id
 _symmetry_equiv_pos_as_xyz
  1  'x, y, z'
loop_
 _atom_site_type_symbol
 _atom_site_label
 _atom_site_symmetry_multiplicity
 _atom_site_fract_x
 _atom_site_fract_y
 _atom_site_fract_z
 _atom_site_occupancy
  Er  Er0  1  0.90370000  0.11259000  0.85272000  1.0
  Er  Er1  1  0.09630000  0.88742000  0.14728000  1.0
  H  H2  1  0.65747000  0.52305000  0.87843000  1.0
  H  H3  1  0.34253000  0.47694000  0.12157000  1.0
  H  H4  1  0.31151000  0.64664000  0.62170000  1.0
  H  H5  1  0.68849000  0.35335000  0.37831000  1.0
  H  H6  1  0.42717000  0.26287000  0.58842000  1.0
  H  H7  1  0.57282000  0.73713000  0.41158000  1.0
  H  H8  1  0.65437000  0.47528000  0.04119000  1.0
  H  H9  1  0.34563000  0.52473000  0.95882000  1.0
  H  H10  1  0.85159000  0.36091000  0.04649000  1.0
  H  H11  1  0.14842000  0.63909000  0.95351000  1.0
  H  H12  1  0.16219000  0.26809000  0.32672000  1.0
  H  H13  1  0.83781000  0.73191000  0.67328000  1.0
  H  H14  1  0.02971000  0.64530000  0.33042000  1.0
  H  H15  1  0.97030000  0.35470000  0.66958000  1.0
  H  H16  1  0.49254000  0.07329000  0.89061000  1.0
  H  H17  1  0.50746000  0.92671000  0.10938000  1.0
  H  H18  1  0.54603000  0.94242000  0.83144000  1.0
  H  H19  1  0.45396000  0.05758000  0.16856000  1.0
  H  H20  1  0.23503000  0.00810000  0.96251000  1.0
  H  H21  1  0.76498000  0.99191000  0.03749000  1.0
  H  H22  1  0.30248000  0.15060000  0.99708000  1.0
  H  H23  1  0.69753000  0.84940000  0.00292000  1.0
  H  H24  1  0.31752000  0.07173000  0.72084000  1.0
  H  H25  1  0.68248000  0.92827000  0.27916000  1.0
  H  H26  1  0.07087000  0.75180000  0.54169000  1.0
  H  H27  1  0.92913000  0.24820000  0.45831000  1.0
  H  H28  1  0.03058000  0.84874000  0.45065000  1.0
  H  H29  1  0.96943000  0.15126000  0.54935000  1.0
  H  H30  1  0.90807000  0.87389000  0.55925000  1.0
  H  H31  1  0.09193000  0.12611000  0.44075000  1.0
  H  H32  1  0.50056000  0.98343000  0.61879000  1.0
  H  H33  1  0.49944000  0.01656000  0.38121000  1.0
  H  H34  1  0.38646000  0.90038000  0.48879000  1.0
  H  H35  1  0.61355000  0.09962000  0.51122000  1.0
  H  H36  1  0.44705000  0.82156000  0.59352000  1.0
  H  H37  1  0.55295000  0.17844000  0.40649000  1.0
  C  C38  1  0.65657000  0.28146000  0.78254000  1.0
  C  C39  1  0.34343000  0.71854000  0.21745000  1.0
  C  C40  1  0.54849000  0.38037000  0.74026000  1.0
  C  C41  1  0.45150000  0.61962000  0.25974000  1.0
  C  C42  1  0.56831000  0.50103000  0.79970000  1.0
  C  C43  1  0.43168000  0.49896000  0.20030000  1.0
  C  C44  1  0.48284000  0.59738000  0.75782000  1.0
  C  C45  1  0.51716000  0.40261000  0.24218000  1.0
  C  C46  1  0.37666000  0.57244000  0.65516000  1.0
  C  C47  1  0.62333000  0.42756000  0.34485000  1.0
  C  C48  1  0.35565000  0.45115000  0.59500000  1.0
  C  C49  1  0.64434000  0.54885000  0.40500000  1.0
  C  C50  1  0.44118000  0.35553000  0.63740000  1.0
  C  C51  1  0.55881000  0.64447000  0.36260000  1.0
  C  C52  1  0.51686000  0.72774000  0.82339000  1.0
  C  C53  1  0.48313000  0.27226000  0.17660000  1.0
  C  C54  1  0.83483000  0.60596000  0.12741000  1.0
  C  C55  1  0.16519000  0.39404000  0.87258000  1.0
  C  C56  1  0.92809000  0.51401000  0.18305000  1.0
  C  C57  1  0.07192000  0.48599000  0.81695000  1.0
  C  C58  1  0.91966000  0.39088000  0.12945000  1.0
  C  C59  1  0.08035000  0.60912000  0.87055000  1.0
  C  C60  1  0.00517000  0.30268000  0.18113000  1.0
  C  C61  1  0.99484000  0.69733000  0.81888000  1.0
  C  C62  1  0.09400000  0.33653000  0.28662000  1.0
  C  C63  1  0.90600000  0.66347000  0.71339000  1.0
  C  C64  1  0.09989000  0.45976000  0.34085000  1.0
  C  C65  1  0.90010000  0.54024000  0.65915000  1.0
  C  C66  1  0.02050000  0.54935000  0.28868000  1.0
  C  C67  1  0.97950000  0.45065000  0.71132000  1.0
  C  C68  1  0.00182000  0.17239000  0.12191000  1.0
  C  C69  1  0.99817000  0.82762000  0.87809000  1.0
  C  C70  1  0.18110000  0.01886000  0.67705000  1.0
  C  C71  1  0.81890000  0.98114000  0.32295000  1.0
  C  C72  1  0.04300000  0.84626000  0.53332000  1.0
  C  C73  1  0.95700000  0.15373000  0.46668000  1.0
  C  C74  1  0.39665000  0.90763000  0.57288000  1.0
  C  C75  1  0.60336000  0.09237000  0.42712000  1.0
  N  N76  1  0.25764000  0.41510000  0.48980000  1.0
  N  N77  1  0.74235000  0.58490000  0.51020000  1.0
  N  N78  1  0.19054000  0.50136000  0.44768000  1.0
  N  N79  1  0.80946000  0.49863000  0.55233000  1.0
  N  N80  1  0.20421000  0.93025000  0.59670000  1.0
  N  N81  1  0.79579000  0.06975000  0.40330000  1.0
  O  O82  1  0.68855000  0.18417000  0.71844000  1.0
  O  O83  1  0.31144000  0.81583000  0.28155000  1.0
  O  O84  1  0.72375000  0.29676000  0.88093000  1.0
  O  O85  1  0.27625000  0.70324000  0.11907000  1.0
  O  O86  1  0.61404000  0.73928000  0.91621000  1.0
  O  O87  1  0.38596000  0.26072000  0.08379000  1.0
  O  O88  1  0.44939000  0.81321000  0.77988000  1.0
  O  O89  1  0.55060000  0.18679000  0.22011000  1.0
  O  O90  1  0.88725000  0.71606000  0.14929000  1.0
  O  O91  1  0.11279000  0.28395000  0.85071000  1.0
  O  O92  1  0.68217000  0.56374000  0.04858000  1.0
  O  O93  1  0.31784000  0.43627000  0.95141000  1.0
  O  O94  1  0.91233000  0.14586000  0.02614000  1.0
  O  O95  1  0.08767000  0.85415000  0.97386000  1.0
  O  O96  1  0.08370000  0.09517000  0.17040000  1.0
  O  O97  1  0.91630000  0.90484000  0.82960000  1.0
  O  O98  1  0.59930000  0.03246000  0.86103000  1.0
  O  O99  1  0.40069000  0.96754000  0.13897000  1.0
  O  O100  1  0.24131000  0.08124000  0.93316000  1.0
  O  O101  1  0.75870000  0.91877000  0.06684000  1.0
  O  O102  1  0.01887000  0.04312000  0.70174000  1.0
  O  O103  1  0.98113000  0.95688000  0.29826000  1.0
