# generated using pymatgen
data_Zn5H41C38(NO)13
_symmetry_space_group_name_H-M   'P 1'
_cell_length_a   15.33190000
_cell_length_b   19.30550000
_cell_length_c   25.37350000
_cell_angle_alpha   90.00010000
_cell_angle_beta   90.00000000
_cell_angle_gamma   89.99950000
_symmetry_Int_Tables_number   1
_chemical_formula_structural   Zn5H41C38(NO)13
_chemical_formula_sum   'Zn20 H164 C152 N52 O52'
_cell_volume   7510.30214925
_cell_formula_units_Z   4
loop_
 _symmetry_equiv_pos_site_id
 _symmetry_equiv_pos_as_xyz
  1  'x, y, z'
loop_
 _atom_site_type_symbol
 _atom_site_label
 _atom_site_symmetry_multiplicity
 _atom_site_fract_x
 _atom_site_fract_y
 _atom_site_fract_z
 _atom_site_occupancy
  Zn  Zn0  1  0.46000000  0.66113000  0.51637000  1.0
  Zn  Zn1  1  0.04000000  0.33887000  0.01637000  1.0
  Zn  Zn2  1  0.96000000  0.83887000  0.48363000  1.0
  Zn  Zn3  1  0.54000000  0.16113000  0.98363000  1.0
  Zn  Zn4  1  0.44714000  0.84101000  0.51887000  1.0
  Zn  Zn5  1  0.05286000  0.15899000  0.01887000  1.0
  Zn  Zn6  1  0.94714000  0.65899000  0.48113000  1.0
  Zn  Zn7  1  0.55286000  0.34101000  0.98113000  1.0
  Zn  Zn8  1  0.32403000  0.74140000  0.44243000  1.0
  Zn  Zn9  1  0.17597000  0.25860000  0.94243000  1.0
  Zn  Zn10  1  0.82403000  0.75860000  0.55757000  1.0
  Zn  Zn11  1  0.67598000  0.24140000  0.05757000  1.0
  Zn  Zn12  1  0.03331000  0.04355000  0.79332000  1.0
  Zn  Zn13  1  0.46669000  0.95646000  0.29332000  1.0
  Zn  Zn14  1  0.53331000  0.45645000  0.20668000  1.0
  Zn  Zn15  1  0.96669000  0.54355000  0.70668000  1.0
  Zn  Zn16  1  0.98008000  0.97594000  0.70051000  1.0
  Zn  Zn17  1  0.51992000  0.02407000  0.20051000  1.0
  Zn  Zn18  1  0.48007000  0.52407000  0.29949000  1.0
  Zn  Zn19  1  0.01992000  0.47594000  0.79949000  1.0
  H  H20  1  0.62306000  0.59329000  0.53946000  1.0
  H  H21  1  0.87694000  0.40671000  0.03945000  1.0
  H  H22  1  0.12306000  0.90671000  0.46054000  1.0
  H  H23  1  0.37694000  0.09329000  0.96054000  1.0
  H  H24  1  0.71914000  0.61843000  0.57349000  1.0
  H  H25  1  0.78086000  0.38157000  0.07348000  1.0
  H  H26  1  0.21913000  0.88157000  0.42651000  1.0
  H  H27  1  0.28086000  0.11843000  0.92652000  1.0
  H  H28  1  0.71882000  0.61796000  0.50360000  1.0
  H  H29  1  0.78117000  0.38204000  0.00360000  1.0
  H  H30  1  0.21883000  0.88204000  0.49639000  1.0
  H  H31  1  0.28117000  0.11796000  0.99640000  1.0
  H  H32  1  0.70891000  0.89987000  0.50737000  1.0
  H  H33  1  0.79109000  0.10013000  0.00737000  1.0
  H  H34  1  0.20892000  0.60013000  0.49263000  1.0
  H  H35  1  0.29108000  0.39988000  0.99263000  1.0
  H  H36  1  0.71478000  0.89625000  0.57710000  1.0
  H  H37  1  0.78522000  0.10376000  0.07710000  1.0
  H  H38  1  0.21478000  0.60375000  0.42291000  1.0
  H  H39  1  0.28522000  0.39625000  0.92290000  1.0
  H  H40  1  0.61498000  0.92178000  0.54652000  1.0
  H  H41  1  0.88502000  0.07821000  0.04652000  1.0
  H  H42  1  0.11498000  0.57822000  0.45348000  1.0
  H  H43  1  0.38503000  0.42178000  0.95348000  1.0
  H  H44  1  0.52760000  0.97504000  0.46862000  1.0
  H  H45  1  0.97240000  0.02496000  0.96862000  1.0
  H  H46  1  0.02760000  0.52496000  0.53138000  1.0
  H  H47  1  0.47240000  0.47504000  0.03138000  1.0
  H  H48  1  0.52570000  0.01172000  0.40330000  1.0
  H  H49  1  0.97429000  0.98828000  0.90330000  1.0
  H  H50  1  0.02570000  0.48828000  0.59670000  1.0
  H  H51  1  0.47429000  0.51172000  0.09670000  1.0
  H  H52  1  0.59912000  0.94392000  0.41817000  1.0
  H  H53  1  0.90088000  0.05607000  0.91817000  1.0
  H  H54  1  0.09912000  0.55608000  0.58183000  1.0
  H  H55  1  0.40088000  0.44392000  0.08183000  1.0
  H  H56  1  0.27089000  0.79112000  0.33473000  1.0
  H  H57  1  0.22911000  0.20887000  0.83473000  1.0
  H  H58  1  0.77088000  0.70888000  0.66527000  1.0
  H  H59  1  0.72911000  0.29112000  0.16527000  1.0
  H  H60  1  0.35425000  0.81194000  0.28743000  1.0
  H  H61  1  0.14575000  0.18806000  0.78743000  1.0
  H  H62  1  0.85425000  0.68806000  0.71257000  1.0
  H  H63  1  0.64574000  0.31194000  0.21257000  1.0
  H  H64  1  0.27812000  0.87587000  0.30611000  1.0
  H  H65  1  0.22188000  0.12412000  0.80611000  1.0
  H  H66  1  0.77812000  0.62413000  0.69389000  1.0
  H  H67  1  0.72188000  0.37587000  0.19389000  1.0
  H  H68  1  0.61394000  0.54813000  0.41764000  1.0
  H  H69  1  0.88605000  0.45187000  0.91764000  1.0
  H  H70  1  0.11395000  0.95187000  0.58236000  1.0
  H  H71  1  0.38605000  0.04814000  0.08236000  1.0
  H  H72  1  0.54048000  0.47821000  0.41257000  1.0
  H  H73  1  0.95952000  0.52179000  0.91257000  1.0
  H  H74  1  0.04048000  0.02179000  0.58743000  1.0
  H  H75  1  0.45952000  0.97821000  0.08743000  1.0
  H  H76  1  0.54963000  0.52426000  0.47388000  1.0
  H  H77  1  0.95037000  0.47574000  0.97388000  1.0
  H  H78  1  0.04963000  0.97573000  0.52612000  1.0
  H  H79  1  0.45037000  0.02427000  0.02612000  1.0
  H  H80  1  0.26622000  0.67551000  0.33664000  1.0
  H  H81  1  0.23378000  0.32450000  0.83664000  1.0
  H  H82  1  0.76622000  0.82449000  0.66336000  1.0
  H  H83  1  0.73378000  0.17551000  0.16336000  1.0
  H  H84  1  0.30021000  0.59864000  0.30240000  1.0
  H  H85  1  0.19979000  0.40136000  0.80240000  1.0
  H  H86  1  0.80021000  0.90135000  0.69760000  1.0
  H  H87  1  0.69979000  0.09864000  0.19760000  1.0
  H  H88  1  0.35733000  0.67661000  0.29214000  1.0
  H  H89  1  0.14267000  0.32339000  0.79213000  1.0
  H  H90  1  0.85734000  0.82339000  0.70786000  1.0
  H  H91  1  0.64267000  0.17661000  0.20787000  1.0
  H  H92  1  0.78348000  0.08057000  0.86229000  1.0
  H  H93  1  0.71652000  0.91943000  0.36229000  1.0
  H  H94  1  0.28348000  0.41943000  0.13771000  1.0
  H  H95  1  0.21652000  0.58057000  0.63771000  1.0
  H  H96  1  0.69413000  0.97918000  0.72131000  1.0
  H  H97  1  0.80587000  0.02080000  0.22131000  1.0
  H  H98  1  0.19413000  0.52080000  0.27869000  1.0
  H  H99  1  0.30588000  0.47920000  0.77869000  1.0
  H  H100  1  0.50946000  0.04023000  0.84155000  1.0
  H  H101  1  0.99055000  0.95976000  0.34155000  1.0
  H  H102  1  0.00946000  0.45976000  0.15845000  1.0
  H  H103  1  0.49055000  0.54024000  0.65845000  1.0
  H  H104  1  0.24640000  0.92351000  0.63676000  1.0
  H  H105  1  0.25359000  0.07650000  0.13676000  1.0
  H  H106  1  0.74639000  0.57650000  0.36324000  1.0
  H  H107  1  0.75359000  0.42350000  0.86324000  1.0
  H  H108  1  0.27792000  0.11117000  0.72591000  1.0
  H  H109  1  0.22208000  0.88884000  0.22592000  1.0
  H  H110  1  0.77792000  0.38884000  0.27408000  1.0
  H  H111  1  0.72208000  0.61117000  0.77410000  1.0
  H  H112  1  0.47488000  0.04945000  0.61307000  1.0
  H  H113  1  0.02513000  0.95054000  0.11307000  1.0
  H  H114  1  0.97487000  0.45055000  0.38693000  1.0
  H  H115  1  0.52512000  0.54945000  0.88693000  1.0
  H  H116  1  0.00296000  0.26067000  0.74226000  1.0
  H  H117  1  0.49704000  0.73932000  0.24226000  1.0
  H  H118  1  0.50296000  0.23934000  0.25775000  1.0
  H  H119  1  0.99705000  0.76067000  0.75774000  1.0
  H  H120  1  0.95836000  0.37368000  0.59868000  1.0
  H  H121  1  0.54163000  0.62631000  0.09867000  1.0
  H  H122  1  0.45836000  0.12632000  0.40133000  1.0
  H  H123  1  0.04166000  0.87369000  0.90133000  1.0
  H  H124  1  0.97633000  0.15020000  0.59604000  1.0
  H  H125  1  0.52367000  0.84980000  0.09605000  1.0
  H  H126  1  0.47633000  0.34980000  0.40396000  1.0
  H  H127  1  0.02367000  0.65020000  0.90395000  1.0
  H  H128  1  0.53060000  0.97294000  0.70975000  1.0
  H  H129  1  0.96939000  0.02704000  0.20974000  1.0
  H  H130  1  0.03061000  0.52704000  0.29025000  1.0
  H  H131  1  0.46939000  0.47296000  0.79025000  1.0
  H  H132  1  0.46297000  0.98948000  0.76129000  1.0
  H  H133  1  0.03703000  0.01050000  0.26129000  1.0
  H  H134  1  0.96297000  0.51050000  0.23871000  1.0
  H  H135  1  0.53703000  0.48949000  0.73871000  1.0
  H  H136  1  0.41479000  0.17339000  0.71609000  1.0
  H  H137  1  0.08522000  0.82661000  0.21609000  1.0
  H  H138  1  0.91478000  0.32662000  0.28391000  1.0
  H  H139  1  0.58522000  0.67339000  0.78392000  1.0
  H  H140  1  0.49357000  0.14866000  0.67348000  1.0
  H  H141  1  0.00644000  0.85134000  0.17348000  1.0
  H  H142  1  0.99356000  0.35134000  0.32652000  1.0
  H  H143  1  0.50644000  0.64867000  0.82652000  1.0
  H  H144  1  0.93750000  0.21864000  0.51814000  1.0
  H  H145  1  0.56249000  0.78136000  0.01814000  1.0
  H  H146  1  0.43750000  0.28136000  0.48186000  1.0
  H  H147  1  0.06249000  0.71864000  0.98186000  1.0
  H  H148  1  0.93155000  0.30597000  0.51927000  1.0
  H  H149  1  0.56845000  0.69404000  0.01927000  1.0
  H  H150  1  0.43154000  0.19404000  0.48073000  1.0
  H  H151  1  0.06845000  0.80596000  0.98073000  1.0
  H  H152  1  0.33860000  0.73418000  0.54098000  1.0
  H  H153  1  0.16140000  0.26582000  0.04097000  1.0
  H  H154  1  0.83861000  0.76581000  0.45902000  1.0
  H  H155  1  0.66139000  0.23418000  0.95902000  1.0
  H  H156  1  0.86347000  0.61345000  0.23902000  1.0
  H  H157  1  0.63654000  0.38655000  0.73903000  1.0
  H  H158  1  0.36346000  0.88656000  0.76097000  1.0
  H  H159  1  0.13654000  0.11344000  0.26098000  1.0
  H  H160  1  0.75613000  0.58120000  0.22839000  1.0
  H  H161  1  0.74388000  0.41880000  0.72839000  1.0
  H  H162  1  0.25613000  0.91881000  0.77161000  1.0
  H  H163  1  0.24388000  0.08120000  0.27161000  1.0
  H  H164  1  0.79323000  0.65324000  0.19126000  1.0
  H  H165  1  0.70678000  0.34676000  0.69127000  1.0
  H  H166  1  0.29322000  0.84676000  0.80873000  1.0
  H  H167  1  0.20677000  0.15324000  0.30874000  1.0
  H  H168  1  0.72581000  0.51257000  0.14688000  1.0
  H  H169  1  0.77419000  0.48743000  0.64688000  1.0
  H  H170  1  0.22582000  0.98743000  0.85312000  1.0
  H  H171  1  0.27419000  0.01257000  0.35312000  1.0
  H  H172  1  0.81056000  0.50592000  0.09873000  1.0
  H  H173  1  0.68944000  0.49408000  0.59873000  1.0
  H  H174  1  0.31056000  0.99408000  0.90127000  1.0
  H  H175  1  0.18945000  0.00592000  0.40127000  1.0
  H  H176  1  0.75639000  0.58677000  0.11007000  1.0
  H  H177  1  0.74361000  0.41323000  0.61007000  1.0
  H  H178  1  0.25639000  0.91323000  0.88993000  1.0
  H  H179  1  0.24362000  0.08677000  0.38993000  1.0
  H  H180  1  0.90157000  0.57324000  0.15307000  1.0
  H  H181  1  0.59843000  0.42675000  0.65308000  1.0
  H  H182  1  0.40157000  0.92675000  0.84692000  1.0
  H  H183  1  0.09844000  0.07324000  0.34692000  1.0
  C  C184  1  0.67882000  0.62877000  0.53870000  1.0
  C  C185  1  0.82118000  0.37123000  0.03870000  1.0
  C  C186  1  0.17882000  0.87123000  0.46130000  1.0
  C  C187  1  0.32118000  0.12877000  0.96131000  1.0
  C  C188  1  0.64777000  0.70160000  0.53846000  1.0
  C  C189  1  0.85223000  0.29840000  0.03846000  1.0
  C  C190  1  0.14777000  0.79840000  0.46154000  1.0
  C  C191  1  0.35223000  0.20160000  0.96154000  1.0
  C  C192  1  0.64331000  0.81404000  0.54115000  1.0
  C  C193  1  0.85669000  0.18596000  0.04115000  1.0
  C  C194  1  0.14331000  0.68596000  0.45885000  1.0
  C  C195  1  0.35669000  0.31404000  0.95885000  1.0
  C  C196  1  0.67156000  0.88747000  0.54328000  1.0
  C  C197  1  0.82845000  0.11253000  0.04328000  1.0
  C  C198  1  0.17156000  0.61253000  0.45673000  1.0
  C  C199  1  0.32845000  0.38747000  0.95673000  1.0
  C  C200  1  0.53342000  0.96407000  0.42634000  1.0
  C  C201  1  0.96657000  0.03594000  0.92634000  1.0
  C  C202  1  0.03342000  0.53593000  0.57366000  1.0
  C  C203  1  0.46657000  0.46406000  0.07365000  1.0
  C  C204  1  0.46644000  0.91288000  0.41015000  1.0
  C  C205  1  0.03356000  0.08712000  0.91015000  1.0
  C  C206  1  0.96644000  0.58712000  0.58985000  1.0
  C  C207  1  0.53356000  0.41288000  0.08985000  1.0
  C  C208  1  0.37359000  0.85451000  0.36409000  1.0
  C  C209  1  0.12640000  0.14549000  0.86409000  1.0
  C  C210  1  0.87359000  0.64549000  0.63591000  1.0
  C  C211  1  0.62641000  0.35451000  0.13591000  1.0
  C  C212  1  0.31560000  0.83139000  0.32078000  1.0
  C  C213  1  0.18440000  0.16860000  0.82078000  1.0
  C  C214  1  0.81560000  0.66860000  0.67922000  1.0
  C  C215  1  0.68439000  0.33140000  0.17922000  1.0
  C  C216  1  0.54996000  0.52920000  0.43082000  1.0
  C  C217  1  0.95004000  0.47080000  0.93082000  1.0
  C  C218  1  0.04996000  0.97080000  0.56918000  1.0
  C  C219  1  0.45004000  0.02920000  0.06918000  1.0
  C  C220  1  0.47989000  0.57696000  0.41338000  1.0
  C  C221  1  0.02011000  0.42304000  0.91338000  1.0
  C  C222  1  0.97989000  0.92304000  0.58662000  1.0
  C  C223  1  0.52011000  0.07697000  0.08662000  1.0
  C  C224  1  0.38161000  0.62760000  0.36607000  1.0
  C  C225  1  0.11839000  0.37240000  0.86606000  1.0
  C  C226  1  0.88161000  0.87239000  0.63393000  1.0
  C  C227  1  0.61839000  0.12761000  0.13394000  1.0
  C  C228  1  0.32246000  0.64612000  0.32203000  1.0
  C  C229  1  0.17755000  0.35388000  0.82202000  1.0
  C  C230  1  0.82246000  0.85388000  0.67798000  1.0
  C  C231  1  0.67755000  0.14612000  0.17798000  1.0
  C  C232  1  0.62646000  0.09932000  0.90776000  1.0
  C  C233  1  0.87355000  0.90068000  0.40777000  1.0
  C  C234  1  0.12646000  0.40068000  0.09223000  1.0
  C  C235  1  0.37354000  0.59932000  0.59223000  1.0
  C  C236  1  0.64462000  0.06348000  0.85689000  1.0
  C  C237  1  0.85538000  0.93652000  0.35690000  1.0
  C  C238  1  0.14463000  0.43652000  0.14310000  1.0
  C  C239  1  0.35538000  0.56348000  0.64310000  1.0
  C  C240  1  0.73058000  0.05921000  0.83888000  1.0
  C  C241  1  0.76943000  0.94078000  0.33889000  1.0
  C  C242  1  0.23057000  0.44078000  0.16111000  1.0
  C  C243  1  0.26943000  0.55923000  0.66112000  1.0
  C  C244  1  0.74792000  0.02814000  0.79026000  1.0
  C  C245  1  0.75209000  0.97185000  0.29026000  1.0
  C  C246  1  0.24791000  0.47185000  0.20974000  1.0
  C  C247  1  0.25208000  0.52815000  0.70974000  1.0
  C  C248  1  0.84111000  0.02187000  0.77233000  1.0
  C  C249  1  0.65889000  0.97813000  0.27233000  1.0
  C  C250  1  0.34111000  0.47812000  0.22767000  1.0
  C  C251  1  0.15889000  0.52187000  0.72767000  1.0
  C  C252  1  0.67931000  0.00229000  0.75954000  1.0
  C  C253  1  0.82069000  0.99769000  0.25954000  1.0
  C  C254  1  0.17931000  0.49770000  0.24046000  1.0
  C  C255  1  0.32069000  0.50231000  0.74046000  1.0
  C  C256  1  0.59247000  0.00541000  0.77765000  1.0
  C  C257  1  0.90753000  0.99457000  0.27765000  1.0
  C  C258  1  0.09247000  0.49457000  0.22234000  1.0
  C  C259  1  0.40753000  0.50542000  0.72235000  1.0
  C  C260  1  0.57614000  0.03641000  0.82685000  1.0
  C  C261  1  0.92387000  0.96357000  0.32685000  1.0
  C  C262  1  0.07613000  0.46357000  0.17315000  1.0
  C  C263  1  0.42387000  0.53642000  0.67315000  1.0
  C  C264  1  0.39856000  0.93189000  0.58193000  1.0
  C  C265  1  0.10143000  0.06810000  0.08193000  1.0
  C  C266  1  0.89856000  0.56811000  0.41807000  1.0
  C  C267  1  0.60143000  0.43190000  0.91807000  1.0
  C  C268  1  0.36429000  0.98188000  0.62148000  1.0
  C  C269  1  0.13571000  0.01812000  0.12148000  1.0
  C  C270  1  0.86428000  0.51813000  0.37852000  1.0
  C  C271  1  0.63571000  0.48188000  0.87852000  1.0
  C  C272  1  0.28411000  0.96958000  0.64626000  1.0
  C  C273  1  0.21589000  0.03042000  0.14625000  1.0
  C  C274  1  0.78410000  0.53042000  0.35375000  1.0
  C  C275  1  0.71588000  0.46957000  0.85375000  1.0
  C  C276  1  0.25389000  0.01656000  0.68410000  1.0
  C  C277  1  0.24611000  0.98345000  0.18410000  1.0
  C  C278  1  0.75389000  0.48345000  0.31590000  1.0
  C  C279  1  0.74611000  0.51655000  0.81590000  1.0
  C  C280  1  0.16716000  0.00530000  0.71066000  1.0
  C  C281  1  0.33284000  0.99472000  0.21066000  1.0
  C  C282  1  0.66715000  0.49472000  0.28935000  1.0
  C  C283  1  0.83285000  0.50529000  0.78935000  1.0
  C  C284  1  0.30318000  0.07517000  0.69653000  1.0
  C  C285  1  0.19683000  0.92483000  0.19654000  1.0
  C  C286  1  0.80317000  0.42484000  0.30346000  1.0
  C  C287  1  0.69682000  0.57517000  0.80347000  1.0
  C  C288  1  0.38305000  0.08867000  0.67128000  1.0
  C  C289  1  0.11695000  0.91133000  0.17128000  1.0
  C  C290  1  0.88304000  0.41134000  0.32872000  1.0
  C  C291  1  0.61695000  0.58866000  0.82873000  1.0
  C  C292  1  0.41333000  0.04096000  0.63369000  1.0
  C  C293  1  0.08667000  0.95904000  0.13369000  1.0
  C  C294  1  0.91332000  0.45904000  0.36631000  1.0
  C  C295  1  0.58667000  0.54096000  0.86632000  1.0
  C  C296  1  0.99952000  0.13074000  0.69972000  1.0
  C  C297  1  0.50047000  0.86926000  0.19973000  1.0
  C  C298  1  0.49953000  0.36926000  0.30028000  1.0
  C  C299  1  0.00047000  0.63074000  0.80028000  1.0
  C  C300  1  0.99076000  0.19886000  0.67156000  1.0
  C  C301  1  0.50923000  0.80114000  0.17156000  1.0
  C  C302  1  0.49077000  0.30115000  0.32844000  1.0
  C  C303  1  0.00924000  0.69886000  0.82844000  1.0
  C  C304  1  0.99383000  0.26119000  0.69975000  1.0
  C  C305  1  0.50617000  0.73880000  0.19975000  1.0
  C  C306  1  0.49383000  0.23881000  0.30025000  1.0
  C  C307  1  0.00618000  0.76119000  0.80025000  1.0
  C  C308  1  0.98222000  0.32394000  0.67304000  1.0
  C  C309  1  0.51778000  0.67605000  0.17304000  1.0
  C  C310  1  0.48222000  0.17606000  0.32697000  1.0
  C  C311  1  0.01779000  0.82394000  0.82697000  1.0
  C  C312  1  0.98432000  0.39163000  0.70228000  1.0
  C  C313  1  0.51568000  0.60836000  0.20228000  1.0
  C  C314  1  0.48432000  0.10837000  0.29772000  1.0
  C  C315  1  0.01569000  0.89164000  0.79773000  1.0
  C  C316  1  0.96838000  0.32422000  0.61853000  1.0
  C  C317  1  0.53162000  0.67578000  0.11853000  1.0
  C  C318  1  0.46838000  0.17578000  0.38147000  1.0
  C  C319  1  0.03164000  0.82422000  0.88147000  1.0
  C  C320  1  0.96742000  0.26217000  0.58968000  1.0
  C  C321  1  0.53258000  0.73783000  0.08968000  1.0
  C  C322  1  0.46742000  0.23783000  0.41032000  1.0
  C  C323  1  0.03260000  0.76217000  0.91032000  1.0
  C  C324  1  0.97818000  0.19950000  0.61698000  1.0
  C  C325  1  0.52182000  0.80049000  0.11698000  1.0
  C  C326  1  0.47818000  0.30050000  0.38302000  1.0
  C  C327  1  0.02182000  0.69950000  0.88302000  1.0
  C  C328  1  0.81365000  0.60323000  0.20888000  1.0
  C  C329  1  0.68636000  0.39677000  0.70888000  1.0
  C  C330  1  0.31364000  0.89677000  0.79112000  1.0
  C  C331  1  0.18636000  0.10323000  0.29112000  1.0
  C  C332  1  0.78203000  0.53928000  0.12930000  1.0
  C  C333  1  0.71797000  0.46072000  0.62930000  1.0
  C  C334  1  0.28203000  0.96072000  0.87070000  1.0
  C  C335  1  0.21798000  0.03928000  0.37070000  1.0
  N  N336  1  0.56613000  0.72054000  0.52880000  1.0
  N  N337  1  0.93387000  0.27946000  0.02879000  1.0
  N  N338  1  0.06613000  0.77946000  0.47120000  1.0
  N  N339  1  0.43387000  0.22054000  0.97120000  1.0
  N  N340  1  0.56275000  0.79179000  0.53085000  1.0
  N  N341  1  0.93725000  0.20821000  0.03085000  1.0
  N  N342  1  0.06275000  0.70821000  0.46916000  1.0
  N  N343  1  0.43724000  0.29179000  0.96916000  1.0
  N  N344  1  0.69787000  0.75874000  0.54680000  1.0
  N  N345  1  0.80214000  0.24126000  0.04680000  1.0
  N  N346  1  0.19787000  0.74126000  0.45320000  1.0
  N  N347  1  0.30213000  0.25874000  0.95320000  1.0
  N  N348  1  0.43249000  0.86477000  0.44206000  1.0
  N  N349  1  0.06751000  0.13523000  0.94206000  1.0
  N  N350  1  0.93248000  0.63523000  0.55794000  1.0
  N  N351  1  0.56751000  0.36477000  0.05793000  1.0
  N  N352  1  0.37364000  0.82747000  0.41250000  1.0
  N  N353  1  0.12636000  0.17253000  0.91251000  1.0
  N  N354  1  0.87363000  0.67253000  0.58750000  1.0
  N  N355  1  0.62637000  0.32747000  0.08749000  1.0
  N  N356  1  0.43096000  0.90765000  0.36125000  1.0
  N  N357  1  0.06903000  0.09236000  0.86125000  1.0
  N  N358  1  0.93096000  0.59236000  0.63875000  1.0
  N  N359  1  0.56903000  0.40764000  0.13875000  1.0
  N  N360  1  0.44404000  0.62620000  0.44340000  1.0
  N  N361  1  0.05596000  0.37380000  0.94340000  1.0
  N  N362  1  0.94404000  0.87380000  0.55660000  1.0
  N  N363  1  0.55597000  0.12620000  0.05660000  1.0
  N  N364  1  0.38141000  0.65836000  0.41320000  1.0
  N  N365  1  0.11860000  0.34164000  0.91320000  1.0
  N  N366  1  0.88141000  0.84164000  0.58680000  1.0
  N  N367  1  0.61860000  0.15836000  0.08680000  1.0
  N  N368  1  0.44240000  0.57675000  0.36501000  1.0
  N  N369  1  0.05761000  0.42326000  0.86501000  1.0
  N  N370  1  0.94240000  0.92325000  0.63500000  1.0
  N  N371  1  0.55760000  0.07675000  0.13500000  1.0
  N  N372  1  0.52417000  0.97623000  0.74943000  1.0
  N  N373  1  0.97583000  0.02376000  0.24942000  1.0
  N  N374  1  0.02417000  0.52375000  0.25057000  1.0
  N  N375  1  0.47584000  0.47624000  0.75057000  1.0
  N  N376  1  0.42887000  0.14921000  0.68167000  1.0
  N  N377  1  0.07114000  0.85079000  0.18167000  1.0
  N  N378  1  0.92886000  0.35080000  0.31833000  1.0
  N  N379  1  0.57114000  0.64921000  0.81834000  1.0
  N  N380  1  0.95941000  0.26301000  0.53496000  1.0
  N  N381  1  0.54058000  0.73699000  0.03496000  1.0
  N  N382  1  0.45941000  0.23700000  0.46504000  1.0
  N  N383  1  0.04059000  0.76300000  0.96504000  1.0
  N  N384  1  0.84674000  0.55346000  0.17026000  1.0
  N  N385  1  0.65326000  0.44654000  0.67027000  1.0
  N  N386  1  0.34674000  0.94655000  0.82973000  1.0
  N  N387  1  0.15326000  0.05345000  0.32973000  1.0
  O  O388  1  0.54534000  0.09859000  0.92376000  1.0
  O  O389  1  0.95466000  0.90142000  0.42377000  1.0
  O  O390  1  0.04534000  0.40141000  0.07624000  1.0
  O  O391  1  0.45466000  0.59859000  0.57624000  1.0
  O  O392  1  0.68597000  0.12968000  0.93300000  1.0
  O  O393  1  0.81403000  0.87033000  0.43301000  1.0
  O  O394  1  0.18598000  0.37034000  0.06698000  1.0
  O  O395  1  0.31402000  0.62967000  0.56699000  1.0
  O  O396  1  0.89995000  0.03689000  0.80579000  1.0
  O  O397  1  0.60004000  0.96310000  0.30579000  1.0
  O  O398  1  0.39995000  0.46310000  0.19421000  1.0
  O  O399  1  0.10005000  0.53691000  0.69421000  1.0
  O  O400  1  0.85500000  0.00112000  0.72533000  1.0
  O  O401  1  0.64500000  0.99888000  0.22534000  1.0
  O  O402  1  0.35500000  0.49888000  0.27466000  1.0
  O  O403  1  0.14500000  0.50112000  0.77467000  1.0
  O  O404  1  0.35206000  0.87898000  0.56885000  1.0
  O  O405  1  0.14792000  0.12102000  0.06885000  1.0
  O  O406  1  0.85206000  0.62102000  0.43115000  1.0
  O  O407  1  0.64792000  0.37898000  0.93115000  1.0
  O  O408  1  0.47371000  0.94049000  0.56107000  1.0
  O  O409  1  0.02628000  0.05950000  0.06107000  1.0
  O  O410  1  0.97371000  0.55951000  0.43892000  1.0
  O  O411  1  0.52627000  0.44050000  0.93892000  1.0
  O  O412  1  0.11386000  0.96447000  0.68807000  1.0
  O  O413  1  0.38614000  0.03553000  0.18807000  1.0
  O  O414  1  0.61385000  0.53554000  0.31193000  1.0
  O  O415  1  0.88614000  0.46447000  0.81193000  1.0
  O  O416  1  0.15306000  0.03832000  0.75330000  1.0
  O  O417  1  0.34694000  0.96169000  0.25330000  1.0
  O  O418  1  0.65305000  0.46169000  0.24670000  1.0
  O  O419  1  0.84694000  0.53832000  0.74670000  1.0
  O  O420  1  0.01139000  0.13255000  0.74939000  1.0
  O  O421  1  0.48859000  0.86745000  0.24940000  1.0
  O  O422  1  0.51140000  0.36745000  0.25061000  1.0
  O  O423  1  0.98860000  0.63255000  0.75061000  1.0
  O  O424  1  0.99438000  0.07577000  0.67191000  1.0
  O  O425  1  0.50562000  0.92423000  0.17192000  1.0
  O  O426  1  0.49438000  0.42424000  0.32808000  1.0
  O  O427  1  0.00562000  0.57576000  0.82808000  1.0
  O  O428  1  0.01781000  0.39197000  0.74823000  1.0
  O  O429  1  0.48219000  0.60802000  0.24823000  1.0
  O  O430  1  0.51780000  0.10803000  0.25177000  1.0
  O  O431  1  0.98220000  0.89197000  0.75178000  1.0
  O  O432  1  0.95297000  0.44437000  0.67859000  1.0
  O  O433  1  0.54704000  0.55563000  0.17858000  1.0
  O  O434  1  0.45297000  0.05564000  0.32141000  1.0
  O  O435  1  0.04705000  0.94437000  0.82141000  1.0
  O  O436  1  0.38064000  0.74594000  0.51336000  1.0
  O  O437  1  0.11936000  0.25406000  0.01336000  1.0
  O  O438  1  0.88064000  0.75406000  0.48664000  1.0
  O  O439  1  0.61936000  0.24594000  0.98664000  1.0
