# generated using pymatgen
data_ZnH13C15NO5
_symmetry_space_group_name_H-M   'P 1'
_cell_length_a   8.44372000
_cell_length_b   12.92050000
_cell_length_c   15.66000000
_cell_angle_alpha   90.00000000
_cell_angle_beta   90.00000000
_cell_angle_gamma   91.36590000
_symmetry_Int_Tables_number   1
_chemical_formula_structural   ZnH13C15NO5
_chemical_formula_sum   'Zn4 H52 C60 N4 O20'
_cell_volume   1707.97488685
_cell_formula_units_Z   4
loop_
 _symmetry_equiv_pos_site_id
 _symmetry_equiv_pos_as_xyz
  1  'x, y, z'
loop_
 _atom_site_type_symbol
 _atom_site_label
 _atom_site_symmetry_multiplicity
 _atom_site_fract_x
 _atom_site_fract_y
 _atom_site_fract_z
 _atom_site_occupancy
  Zn  Zn0  1  0.38210000  0.07821000  0.99627000  1.0
  Zn  Zn1  1  0.38210000  0.57821000  0.50373000  1.0
  Zn  Zn2  1  0.61790000  0.92179000  0.00373000  1.0
  Zn  Zn3  1  0.61790000  0.42179000  0.49627000  1.0
  H  H4  1  0.03352000  0.94027000  0.15801000  1.0
  H  H5  1  0.03352000  0.44027000  0.34199000  1.0
  H  H6  1  0.96649000  0.05973000  0.84199000  1.0
  H  H7  1  0.96649000  0.55973000  0.65802000  1.0
  H  H8  1  0.41914000  0.74115000  0.21632000  1.0
  H  H9  1  0.41913000  0.24115000  0.28368000  1.0
  H  H10  1  0.58087000  0.25886000  0.78369000  1.0
  H  H11  1  0.58086000  0.75885000  0.71632000  1.0
  H  H12  1  0.24579000  0.63604000  0.31421000  1.0
  H  H13  1  0.24579000  0.13604000  0.18580000  1.0
  H  H14  1  0.75421000  0.36397000  0.68580000  1.0
  H  H15  1  0.75420000  0.86397000  0.81420000  1.0
  H  H16  1  0.97948000  0.59796000  0.37352000  1.0
  H  H17  1  0.97947000  0.09796000  0.12648000  1.0
  H  H18  1  0.02053000  0.40204000  0.62648000  1.0
  H  H19  1  0.02052000  0.90205000  0.87352000  1.0
  H  H20  1  0.59182000  0.79569000  0.31569000  1.0
  H  H21  1  0.59182000  0.29569000  0.18431000  1.0
  H  H22  1  0.40819000  0.20431000  0.68431000  1.0
  H  H23  1  0.40818000  0.70432000  0.81569000  1.0
  H  H24  1  0.76743000  0.90521000  0.22170000  1.0
  H  H25  1  0.76743000  0.40521000  0.27830000  1.0
  H  H26  1  0.23257000  0.09479000  0.77830000  1.0
  H  H27  1  0.23257000  0.59479000  0.72170000  1.0
  H  H28  1  0.34240000  0.27085000  0.89462000  1.0
  H  H29  1  0.34240000  0.77085000  0.60539000  1.0
  H  H30  1  0.65759000  0.72914000  0.10539000  1.0
  H  H31  1  0.65760000  0.22915000  0.39461000  1.0
  H  H32  1  0.19086000  0.49878000  0.90738000  1.0
  H  H33  1  0.19086000  0.99879000  0.59262000  1.0
  H  H34  1  0.80914000  0.50120000  0.09262000  1.0
  H  H35  1  0.80914000  0.00121000  0.40738000  1.0
  H  H36  1  0.06165000  0.43918000  0.83040000  1.0
  H  H37  1  0.06165000  0.93918000  0.66960000  1.0
  H  H38  1  0.93835000  0.56081000  0.16959000  1.0
  H  H39  1  0.93835000  0.06081000  0.33040000  1.0
  H  H40  1  0.26663000  0.41053000  0.83043000  1.0
  H  H41  1  0.26663000  0.91054000  0.66958000  1.0
  H  H42  1  0.73337000  0.58945000  0.16957000  1.0
  H  H43  1  0.73337000  0.08946000  0.33042000  1.0
  H  H44  1  0.96494000  0.26121000  0.00262000  1.0
  H  H45  1  0.96496000  0.76121000  0.49738000  1.0
  H  H46  1  0.03503000  0.73879000  0.99738000  1.0
  H  H47  1  0.03505000  0.23879000  0.50261000  1.0
  H  H48  1  0.89107000  0.36545000  0.93966000  1.0
  H  H49  1  0.89108000  0.86545000  0.56034000  1.0
  H  H50  1  0.10891000  0.63455000  0.06033000  1.0
  H  H51  1  0.10892000  0.13455000  0.43965000  1.0
  H  H52  1  0.00345000  0.39145000  0.03496000  1.0
  H  H53  1  0.00347000  0.89146000  0.46504000  1.0
  H  H54  1  0.99653000  0.60854000  0.96503000  1.0
  H  H55  1  0.99654000  0.10855000  0.53496000  1.0
  C  C56  1  0.34038000  0.90851000  0.12280000  1.0
  C  C57  1  0.34037000  0.40852000  0.37720000  1.0
  C  C58  1  0.65964000  0.09148000  0.87721000  1.0
  C  C59  1  0.65963000  0.59149000  0.62280000  1.0
  C  C60  1  0.07914000  0.87446000  0.19298000  1.0
  C  C61  1  0.07913000  0.37446000  0.30702000  1.0
  C  C62  1  0.92087000  0.12554000  0.80703000  1.0
  C  C63  1  0.92087000  0.62554000  0.69298000  1.0
  C  C64  1  0.23585000  0.84771000  0.18265000  1.0
  C  C65  1  0.23585000  0.34771000  0.31735000  1.0
  C  C66  1  0.76416000  0.15229000  0.81736000  1.0
  C  C67  1  0.76415000  0.65229000  0.68265000  1.0
  C  C68  1  0.29573000  0.76056000  0.22619000  1.0
  C  C69  1  0.29572000  0.26056000  0.27381000  1.0
  C  C70  1  0.70429000  0.23944000  0.77382000  1.0
  C  C71  1  0.70428000  0.73944000  0.72619000  1.0
  C  C72  1  0.19993000  0.70222000  0.27956000  1.0
  C  C73  1  0.19993000  0.20221000  0.22044000  1.0
  C  C74  1  0.80008000  0.29779000  0.72044000  1.0
  C  C75  1  0.80007000  0.79779000  0.77956000  1.0
  C  C76  1  0.03802000  0.72715000  0.29005000  1.0
  C  C77  1  0.03802000  0.22715000  0.20995000  1.0
  C  C78  1  0.96199000  0.27285000  0.70995000  1.0
  C  C79  1  0.96198000  0.77285000  0.79005000  1.0
  C  C80  1  0.93409000  0.66511000  0.34024000  1.0
  C  C81  1  0.93409000  0.16511000  0.15976000  1.0
  C  C82  1  0.06591000  0.33489000  0.65976000  1.0
  C  C83  1  0.06591000  0.83489000  0.84024000  1.0
  C  C84  1  0.77568000  0.68869000  0.34778000  1.0
  C  C85  1  0.77568000  0.18870000  0.15222000  1.0
  C  C86  1  0.22432000  0.31130000  0.65222000  1.0
  C  C87  1  0.22432000  0.81131000  0.84778000  1.0
  C  C88  1  0.71627000  0.77797000  0.30687000  1.0
  C  C89  1  0.71627000  0.27798000  0.19313000  1.0
  C  C90  1  0.28373000  0.22202000  0.69313000  1.0
  C  C91  1  0.28373000  0.72203000  0.80688000  1.0
  C  C92  1  0.81389000  0.83908000  0.25634000  1.0
  C  C93  1  0.81389000  0.33908000  0.24366000  1.0
  C  C94  1  0.18612000  0.16092000  0.74366000  1.0
  C  C95  1  0.18611000  0.66092000  0.75634000  1.0
  C  C96  1  0.97647000  0.81519000  0.24614000  1.0
  C  C97  1  0.97647000  0.31520000  0.25386000  1.0
  C  C98  1  0.02353000  0.18481000  0.75386000  1.0
  C  C99  1  0.02353000  0.68481000  0.74615000  1.0
  C  C100  1  0.66784000  0.61909000  0.39901000  1.0
  C  C101  1  0.66784000  0.11909000  0.10099000  1.0
  C  C102  1  0.33216000  0.38091000  0.60099000  1.0
  C  C103  1  0.33217000  0.88091000  0.89901000  1.0
  C  C104  1  0.23733000  0.26431000  0.93615000  1.0
  C  C105  1  0.23734000  0.76433000  0.56386000  1.0
  C  C106  1  0.76264000  0.73566000  0.06386000  1.0
  C  C107  1  0.76266000  0.23567000  0.43614000  1.0
  C  C108  1  0.16513000  0.42723000  0.87140000  1.0
  C  C109  1  0.16514000  0.92724000  0.62861000  1.0
  C  C110  1  0.83486000  0.57275000  0.12860000  1.0
  C  C111  1  0.83486000  0.07276000  0.37139000  1.0
  C  C112  1  0.98973000  0.33979000  0.97944000  1.0
  C  C113  1  0.98974000  0.83979000  0.52056000  1.0
  C  C114  1  0.01025000  0.66021000  0.02055000  1.0
  C  C115  1  0.01026000  0.16021000  0.47943000  1.0
  N  N116  1  0.13418000  0.34038000  0.92861000  1.0
  N  N117  1  0.13419000  0.84038000  0.57139000  1.0
  N  N118  1  0.86581000  0.65961000  0.07139000  1.0
  N  N119  1  0.86581000  0.15962000  0.42860000  1.0
  O  O120  1  0.28798000  0.99419000  0.09554000  1.0
  O  O121  1  0.28797000  0.49418000  0.40447000  1.0
  O  O122  1  0.71203000  0.00582000  0.90447000  1.0
  O  O123  1  0.71203000  0.50582000  0.59553000  1.0
  O  O124  1  0.47225000  0.86916000  0.10276000  1.0
  O  O125  1  0.47225000  0.36916000  0.39723000  1.0
  O  O126  1  0.52774000  0.13084000  0.89723000  1.0
  O  O127  1  0.52775000  0.63084000  0.60276000  1.0
  O  O128  1  0.71797000  0.52879000  0.41486000  1.0
  O  O129  1  0.71797000  0.02880000  0.08514000  1.0
  O  O130  1  0.28204000  0.47120000  0.58514000  1.0
  O  O131  1  0.28202000  0.97121000  0.91487000  1.0
  O  O132  1  0.53587000  0.65548000  0.42239000  1.0
  O  O133  1  0.53587000  0.15549000  0.07761000  1.0
  O  O134  1  0.46413000  0.34451000  0.57761000  1.0
  O  O135  1  0.46413000  0.84452000  0.92238000  1.0
  O  O136  1  0.21741000  0.18913000  0.98637000  1.0
  O  O137  1  0.21742000  0.68913000  0.51363000  1.0
  O  O138  1  0.78256000  0.81086000  0.01362000  1.0
  O  O139  1  0.78258000  0.31087000  0.48637000  1.0
