# generated using pymatgen
data_Zn4H14(C8O5)3
_symmetry_space_group_name_H-M   'P 1'
_cell_length_a   18.46940000
_cell_length_b   18.56290000
_cell_length_c   18.59278979
_cell_angle_alpha   60.19721462
_cell_angle_beta   60.31263589
_cell_angle_gamma   60.44700000
_symmetry_Int_Tables_number   1
_chemical_formula_structural   Zn4H14(C8O5)3
_chemical_formula_sum   'Zn8 H28 C48 O30'
_cell_volume   4539.90746427
_cell_formula_units_Z   2
loop_
 _symmetry_equiv_pos_site_id
 _symmetry_equiv_pos_as_xyz
  1  'x, y, z'
loop_
 _atom_site_type_symbol
 _atom_site_label
 _atom_site_symmetry_multiplicity
 _atom_site_fract_x
 _atom_site_fract_y
 _atom_site_fract_z
 _atom_site_occupancy
  Zn  Zn0  1  0.54462000  0.04387000  0.86773000  1.0
  Zn  Zn1  1  0.54121000  0.87262000  0.04153000  1.0
  Zn  Zn2  1  0.37118000  0.04395000  0.04135000  1.0
  Zn  Zn3  1  0.54376000  0.04413000  0.04137000  1.0
  Zn  Zn4  1  0.95831000  0.45571000  0.62965000  1.0
  Zn  Zn5  1  0.12783000  0.45819000  0.45551000  1.0
  Zn  Zn6  1  0.95549000  0.62856000  0.45790000  1.0
  Zn  Zn7  1  0.95385000  0.45528000  0.45897000  1.0
  H  H8  1  0.93018000  0.97434000  0.70414000  1.0
  H  H9  1  0.71915000  0.68684000  0.18446000  1.0
  H  H10  1  0.52945000  0.27997000  0.89552000  1.0
  H  H11  1  0.69596000  0.84367000  0.22033000  1.0
  H  H12  1  0.09356000  0.81165000  0.30710000  1.0
  H  H13  1  0.26386000  0.65678000  0.27120000  1.0
  H  H14  1  0.18787000  0.90589000  0.19629000  1.0
  H  H15  1  0.34299000  0.73893000  0.24000000  1.0
  H  H16  1  0.79001000  0.81284000  0.59770000  1.0
  H  H17  1  0.80423000  0.65118000  0.76517000  1.0
  H  H18  1  0.72500000  0.89707000  0.69867000  1.0
  H  H19  1  0.27060000  0.31435000  0.64708000  1.0
  H  H20  1  0.47099000  0.43331000  0.88902000  1.0
  H  H21  1  0.56723000  0.52805000  0.79524000  1.0
  H  H22  1  0.72153000  0.46871000  0.70886000  1.0
  H  H23  1  0.96886000  0.22135000  0.60674000  1.0
  H  H24  1  0.02659000  0.06890000  0.61096000  1.0
  H  H25  1  0.77688000  0.03255000  0.79288000  1.0
  H  H26  1  0.09992000  0.32130000  0.80829000  1.0
  H  H27  1  0.20666000  0.29528000  0.98487000  1.0
  H  H28  1  0.58442000  0.66221000  0.86905000  1.0
  H  H29  1  0.33277000  0.18227000  0.74100000  1.0
  H  H30  1  0.09231000  0.28708000  0.30356000  1.0
  H  H31  1  0.26162000  0.30364000  0.27984000  1.0
  H  H32  1  0.18602000  0.20917000  0.19607000  1.0
  H  H33  1  0.34594000  0.20308000  0.21481000  1.0
  H  H34  1  0.79202000  0.59312000  0.29768000  1.0
  H  H35  1  0.80707000  0.76245000  0.27400000  1.0
  C  C36  1  0.64082000  0.86216000  0.13061000  1.0
  C  C37  1  0.95864000  0.09552000  0.65007000  1.0
  C  C38  1  0.90392000  0.04180000  0.70305000  1.0
  C  C39  1  0.36505000  0.13280000  0.85929000  1.0
  C  C40  1  0.81835000  0.07426000  0.75286000  1.0
  C  C41  1  0.17105000  0.30235000  0.77362000  1.0
  C  C42  1  0.20054000  0.32728000  0.68530000  1.0
  C  C43  1  0.22784000  0.25075000  0.82769000  1.0
  C  C44  1  0.30780000  0.19101000  0.80400000  1.0
  C  C45  1  0.16318000  0.27562000  0.27825000  1.0
  C  C46  1  0.19216000  0.31073000  0.30333000  1.0
  C  C47  1  0.67998000  0.42708000  0.74901000  1.0
  C  C48  1  0.21895000  0.22452000  0.21941000  1.0
  C  C49  1  0.30803000  0.19320000  0.19242000  1.0
  C  C50  1  0.77977000  0.66386000  0.27257000  1.0
  C  C51  1  0.62180000  0.86570000  0.86253000  1.0
  C  C52  1  0.81431000  0.69317000  0.29802000  1.0
  C  C53  1  0.72887000  0.71920000  0.21310000  1.0
  C  C54  1  0.69166000  0.80738000  0.19185000  1.0
  C  C55  1  0.16454000  0.78021000  0.28025000  1.0
  C  C56  1  0.19452000  0.69246000  0.29855000  1.0
  C  C57  1  0.21960000  0.83579000  0.22594000  1.0
  C  C58  1  0.71650000  0.33854000  0.75019000  1.0
  C  C59  1  0.30715000  0.80727000  0.21027000  1.0
  C  C60  1  0.77551000  0.77800000  0.66842000  1.0
  C  C61  1  0.81159000  0.68964000  0.69618000  1.0
  C  C62  1  0.72220000  0.83068000  0.72548000  1.0
  C  C63  1  0.36162000  0.14145000  0.13242000  1.0
  C  C64  1  0.66805000  0.80680000  0.80932000  1.0
  C  C65  1  0.13349000  0.36156000  0.36417000  1.0
  C  C66  1  0.86439000  0.63762000  0.63634000  1.0
  C  C67  1  0.14057000  0.37453000  0.63343000  1.0
  C  C68  1  0.86468000  0.63494000  0.35970000  1.0
  C  C69  1  0.66085000  0.28375000  0.80445000  1.0
  C  C70  1  0.13644000  0.63793000  0.35709000  1.0
  C  C71  1  0.86120000  0.36093000  0.64111000  1.0
  C  C72  1  0.36142000  0.86536000  0.15008000  1.0
  C  C73  1  0.63749000  0.14002000  0.86102000  1.0
  C  C74  1  0.57186000  0.32074000  0.85424000  1.0
  C  C75  1  0.53928000  0.40630000  0.85086000  1.0
  C  C76  1  0.59398000  0.46004000  0.79769000  1.0
  C  C77  1  0.18782000  0.26296000  0.91539000  1.0
  C  C78  1  0.65244000  0.71996000  0.85641000  1.0
  C  C79  1  0.80362000  0.30384000  0.69867000  1.0
  C  C80  1  0.83779000  0.21717000  0.69861000  1.0
  C  C81  1  0.78217000  0.16239000  0.75276000  1.0
  C  C82  1  0.69513000  0.19700000  0.80455000  1.0
  C  C83  1  0.92646000  0.18057000  0.64795000  1.0
  O  O84  1  0.50045000  0.00205000  0.99663000  1.0
  O  O85  1  0.88646000  0.67458000  0.38213000  1.0
  O  O86  1  0.17589000  0.55502000  0.37354000  1.0
  O  O87  1  0.61081000  0.94470000  0.11790000  1.0
  O  O88  1  0.88002000  0.38420000  0.55857000  1.0
  O  O89  1  0.05357000  0.67644000  0.38658000  1.0
  O  O90  1  0.88621000  0.38098000  0.67957000  1.0
  O  O91  1  0.05772000  0.39080000  0.67454000  1.0
  O  O92  1  0.88223000  0.55198000  0.38523000  1.0
  O  O93  1  0.17344000  0.38307000  0.38655000  1.0
  O  O94  1  0.88345000  0.67819000  0.55355000  1.0
  O  O95  1  0.62479000  0.94387000  0.82349000  1.0
  O  O96  1  0.44804000  0.10937000  0.81819000  1.0
  O  O97  1  0.58284000  0.83139000  0.94401000  1.0
  O  O98  1  0.32169000  0.12629000  0.10403000  1.0
  O  O99  1  0.44480000  0.82663000  0.13294000  1.0
  O  O100  1  0.61721000  0.11650000  0.94387000  1.0
  O  O101  1  0.32222000  0.94775000  0.11972000  1.0
  O  O102  1  0.61395000  0.12012000  0.82114000  1.0
  O  O103  1  0.11815000  0.25160000  0.96919000  1.0
  O  O104  1  0.23532000  0.29273000  0.92510000  1.0
  O  O105  1  0.68960000  0.65642000  0.90691000  1.0
  O  O106  1  0.44513000  0.11594000  0.11409000  1.0
  O  O107  1  0.59083000  0.72074000  0.83586000  1.0
  O  O108  1  0.63055000  0.82462000  0.09586000  1.0
  O  O109  1  0.32656000  0.10982000  0.94216000  1.0
  O  O110  1  0.99826000  0.49934000  0.50056000  1.0
  O  O111  1  0.05016000  0.37963000  0.38905000  1.0
  O  O112  1  0.88577000  0.55436000  0.67501000  1.0
  O  O113  1  0.17868000  0.39453000  0.55009000  1.0
