# generated using pymatgen
data_NaMo2H22C14(NO5)3
_symmetry_space_group_name_H-M   'P 1'
_cell_length_a   7.32368000
_cell_length_b   7.72498000
_cell_length_c   11.08000000
_cell_angle_alpha   71.44450000
_cell_angle_beta   75.44730000
_cell_angle_gamma   82.87410000
_symmetry_Int_Tables_number   1
_chemical_formula_structural   NaMo2H22C14(NO5)3
_chemical_formula_sum   'Na1 Mo2 H22 C14 N3 O15'
_cell_volume   574.53733766
_cell_formula_units_Z   1
loop_
 _symmetry_equiv_pos_site_id
 _symmetry_equiv_pos_as_xyz
  1  'x, y, z'
loop_
 _atom_site_type_symbol
 _atom_site_label
 _atom_site_symmetry_multiplicity
 _atom_site_fract_x
 _atom_site_fract_y
 _atom_site_fract_z
 _atom_site_occupancy
  Na  Na0  1  0.02704000  0.98175000  0.12713000  1.0
  Mo  Mo1  1  0.90561000  0.60355000  0.62414000  1.0
  Mo  Mo2  1  0.82457000  0.54580000  0.43059000  1.0
  H  H3  1  0.77013000  0.41263000  0.96834000  1.0
  H  H4  1  0.75683000  0.18300000  0.97041000  1.0
  H  H5  1  0.44727000  0.43301000  0.94115000  1.0
  H  H6  1  0.43560000  0.53195000  0.77508000  1.0
  H  H7  1  0.57068000  0.13206000  0.86475000  1.0
  H  H8  1  0.78086000  0.15160000  0.74319000  1.0
  H  H9  1  0.44698000  0.12887000  0.70424000  1.0
  H  H10  1  0.41335000  0.36370000  0.68512000  1.0
  H  H11  1  0.64106000  0.01774000  0.52441000  1.0
  H  H12  1  0.82645000  0.08364000  0.57473000  1.0
  H  H13  1  0.33753000  0.25165000  0.51909000  1.0
  H  H14  1  0.51168000  0.28505000  0.37322000  1.0
  H  H15  1  0.28131000  0.55571000  0.37399000  1.0
  H  H16  1  0.35117000  0.57785000  0.50992000  1.0
  H  H17  1  0.64330000  0.91681000  0.30356000  1.0
  H  H18  1  0.46631000  0.83198000  0.44434000  1.0
  H  H19  1  0.64397000  0.47884000  0.21367000  1.0
  H  H20  1  0.46955000  0.65442000  0.16535000  1.0
  H  H21  1  0.97732000  0.73696000  0.96817000  1.0
  H  H22  1  0.20567000  0.16379000  0.26575000  1.0
  H  H23  1  0.27008000  0.81199000  0.90535000  1.0
  H  H24  1  0.12687000  0.98545000  0.88785000  1.0
  C  C25  1  0.01324000  0.31986000  0.85771000  1.0
  C  C26  1  0.80025000  0.31968000  0.90752000  1.0
  C  C27  1  0.59452000  0.68417000  0.83885000  1.0
  C  C28  1  0.53002000  0.50159000  0.84282000  1.0
  C  C29  1  0.64699000  0.22485000  0.77258000  1.0
  C  C30  1  0.52298000  0.25573000  0.67527000  1.0
  C  C31  1  0.72943000  0.13183000  0.50837000  1.0
  C  C32  1  0.85056000  0.18556000  0.37045000  1.0
  C  C33  1  0.46098000  0.33196000  0.45996000  1.0
  C  C34  1  0.39995000  0.53228000  0.42255000  1.0
  C  C35  1  0.51463000  0.83947000  0.34089000  1.0
  C  C36  1  0.36662000  0.94814000  0.27049000  1.0
  C  C37  1  0.59880000  0.62202000  0.20342000  1.0
  C  C38  1  0.75021000  0.73931000  0.10235000  1.0
  N  N39  1  0.69613000  0.38791000  0.80126000  1.0
  N  N40  1  0.61474000  0.29385000  0.53327000  1.0
  N  N41  1  0.55955000  0.64806000  0.33609000  1.0
  O  O42  1  0.67687000  0.66175000  0.55734000  1.0
  O  O43  1  0.97839000  0.40168000  0.54869000  1.0
  O  O44  1  0.95328000  0.70008000  0.29940000  1.0
  O  O45  1  0.06050000  0.77345000  0.55081000  1.0
  O  O46  1  0.07745000  0.44697000  0.75216000  1.0
  O  O47  1  0.11726000  0.20542000  0.92226000  1.0
  O  O48  1  0.75724000  0.73349000  0.76391000  1.0
  O  O49  1  0.49220000  0.77807000  0.90564000  1.0
  O  O50  1  0.89388000  0.07673000  0.30462000  1.0
  O  O51  1  0.90846000  0.35082000  0.32724000  1.0
  O  O52  1  0.75614000  0.90446000  0.08763000  1.0
  O  O53  1  0.87108000  0.64933000  0.03123000  1.0
  O  O54  1  0.31663000  0.10579000  0.30122000  1.0
  O  O55  1  0.30020000  0.90494000  0.19394000  1.0
  O  O56  1  0.13838000  0.85474000  0.89406000  1.0
