# generated using pymatgen
data_CaH10C10N2O5
_symmetry_space_group_name_H-M   'P 1'
_cell_length_a   6.45626000
_cell_length_b   10.78560000
_cell_length_c   16.54930000
_cell_angle_alpha   89.99950000
_cell_angle_beta   89.99950000
_cell_angle_gamma   99.84400000
_symmetry_Int_Tables_number   1
_chemical_formula_structural   CaH10C10N2O5
_chemical_formula_sum   'Ca4 H40 C40 N8 O20'
_cell_volume   1135.43754116
_cell_formula_units_Z   4
loop_
 _symmetry_equiv_pos_site_id
 _symmetry_equiv_pos_as_xyz
  1  'x, y, z'
loop_
 _atom_site_type_symbol
 _atom_site_label
 _atom_site_symmetry_multiplicity
 _atom_site_fract_x
 _atom_site_fract_y
 _atom_site_fract_z
 _atom_site_occupancy
  Ca  Ca0  1  0.78365000  0.58302000  0.95733000  1.0
  Ca  Ca1  1  0.71637000  0.91698000  0.45733000  1.0
  Ca  Ca2  1  0.21635000  0.41698000  0.04267000  1.0
  Ca  Ca3  1  0.28366000  0.08303000  0.54267000  1.0
  H  H4  1  0.19923000  0.75367000  0.76036000  1.0
  H  H5  1  0.30077000  0.74632000  0.26036000  1.0
  H  H6  1  0.80077000  0.24632000  0.23963000  1.0
  H  H7  1  0.69924000  0.25367000  0.73964000  1.0
  H  H8  1  0.82554000  0.87260000  0.66861000  1.0
  H  H9  1  0.67445000  0.62742000  0.16862000  1.0
  H  H10  1  0.17446000  0.12739000  0.33139000  1.0
  H  H11  1  0.32555000  0.37260000  0.83139000  1.0
  H  H12  1  0.42824000  0.76218000  0.04398000  1.0
  H  H13  1  0.07177000  0.73781000  0.54398000  1.0
  H  H14  1  0.57174000  0.23782000  0.95602000  1.0
  H  H15  1  0.92822000  0.26218000  0.45601000  1.0
  H  H16  1  0.95381000  0.77103000  0.79070000  1.0
  H  H17  1  0.54619000  0.72899000  0.29071000  1.0
  H  H18  1  0.04618000  0.22896000  0.20930000  1.0
  H  H19  1  0.45382000  0.27103000  0.70930000  1.0
  H  H20  1  0.27262000  0.88522000  0.11228000  1.0
  H  H21  1  0.22738000  0.61477000  0.61228000  1.0
  H  H22  1  0.72738000  0.11478000  0.88773000  1.0
  H  H23  1  0.77261000  0.38523000  0.38772000  1.0
  H  H24  1  0.37945000  0.04900000  0.10765000  1.0
  H  H25  1  0.12055000  0.45099000  0.60765000  1.0
  H  H26  1  0.62056000  0.95100000  0.89236000  1.0
  H  H27  1  0.87943000  0.54900000  0.39236000  1.0
  H  H28  1  0.42598000  0.95946000  0.19441000  1.0
  H  H29  1  0.07401000  0.54052000  0.69441000  1.0
  H  H30  1  0.57402000  0.04054000  0.80559000  1.0
  H  H31  1  0.92597000  0.45947000  0.30559000  1.0
  H  H32  1  0.91866000  0.97333000  0.07185000  1.0
  H  H33  1  0.58135000  0.52667000  0.57185000  1.0
  H  H34  1  0.08135000  0.02666000  0.92816000  1.0
  H  H35  1  0.41863000  0.47332000  0.42815000  1.0
  H  H36  1  0.83094000  0.01043000  0.17062000  1.0
  H  H37  1  0.66905000  0.48957000  0.67062000  1.0
  H  H38  1  0.16905000  0.98956000  0.82939000  1.0
  H  H39  1  0.33093000  0.51043000  0.32938000  1.0
  H  H40  1  0.78723000  0.10505000  0.08597000  1.0
  H  H41  1  0.71276000  0.39495000  0.58597000  1.0
  H  H42  1  0.21276000  0.89494000  0.91403000  1.0
  H  H43  1  0.28723000  0.60505000  0.41403000  1.0
  C  C44  1  0.45263000  0.70061000  0.82883000  1.0
  C  C45  1  0.04738000  0.79939000  0.32884000  1.0
  C  C46  1  0.54736000  0.29939000  0.17116000  1.0
  C  C47  1  0.95264000  0.20061000  0.67116000  1.0
  C  C48  1  0.39820000  0.88375000  0.63742000  1.0
  C  C49  1  0.10180000  0.61626000  0.13743000  1.0
  C  C50  1  0.60183000  0.11626000  0.36257000  1.0
  C  C51  1  0.89819000  0.38374000  0.86257000  1.0
  C  C52  1  0.36742000  0.75688000  0.76408000  1.0
  C  C53  1  0.13258000  0.74311000  0.26409000  1.0
  C  C54  1  0.63257000  0.24311000  0.23591000  1.0
  C  C55  1  0.86743000  0.25689000  0.73591000  1.0
  C  C56  1  0.71404000  0.82379000  0.71224000  1.0
  C  C57  1  0.78596000  0.67622000  0.21225000  1.0
  C  C58  1  0.28596000  0.17620000  0.28776000  1.0
  C  C59  1  0.21405000  0.32379000  0.78776000  1.0
  C  C60  1  0.49727000  0.81884000  0.70414000  1.0
  C  C61  1  0.00272000  0.68117000  0.20414000  1.0
  C  C62  1  0.50273000  0.18116000  0.29586000  1.0
  C  C63  1  0.99728000  0.31884000  0.79586000  1.0
  C  C64  1  0.58739000  0.81926000  0.04743000  1.0
  C  C65  1  0.91262000  0.68075000  0.54743000  1.0
  C  C66  1  0.41260000  0.18074000  0.95257000  1.0
  C  C67  1  0.08737000  0.31925000  0.45257000  1.0
  C  C68  1  0.31055000  0.63720000  0.89509000  1.0
  C  C69  1  0.18946000  0.86280000  0.39509000  1.0
  C  C70  1  0.68945000  0.36281000  0.10491000  1.0
  C  C71  1  0.81056000  0.13720000  0.60492000  1.0
  C  C72  1  0.78668000  0.76669000  0.77992000  1.0
  C  C73  1  0.71333000  0.73332000  0.27993000  1.0
  C  C74  1  0.21332000  0.23331000  0.22008000  1.0
  C  C75  1  0.28668000  0.26669000  0.72008000  1.0
  C  C76  1  0.40851000  0.95664000  0.12832000  1.0
  C  C77  1  0.09149000  0.54335000  0.62832000  1.0
  C  C78  1  0.59149000  0.04336000  0.87169000  1.0
  C  C79  1  0.90849000  0.45664000  0.37168000  1.0
  C  C80  1  0.79493000  0.00857000  0.10553000  1.0
  C  C81  1  0.70507000  0.49142000  0.60554000  1.0
  C  C82  1  0.20507000  0.99142000  0.89447000  1.0
  C  C83  1  0.29492000  0.50857000  0.39447000  1.0
  N  N84  1  0.66132000  0.70466000  0.83665000  1.0
  N  N85  1  0.83868000  0.79534000  0.33666000  1.0
  N  N86  1  0.33866000  0.29533000  0.16335000  1.0
  N  N87  1  0.16134000  0.20467000  0.66335000  1.0
  N  N88  1  0.59618000  0.92544000  0.09058000  1.0
  N  N89  1  0.90382000  0.57456000  0.59058000  1.0
  N  N90  1  0.40381000  0.07455000  0.90942000  1.0
  N  N91  1  0.09617000  0.42544000  0.40942000  1.0
  O  O92  1  0.39385000  0.57186000  0.94646000  1.0
  O  O93  1  0.10617000  0.92814000  0.44646000  1.0
  O  O94  1  0.60614000  0.42814000  0.05354000  1.0
  O  O95  1  0.89386000  0.07186000  0.55354000  1.0
  O  O96  1  0.48619000  0.89547000  0.56859000  1.0
  O  O97  1  0.01381000  0.60455000  0.06860000  1.0
  O  O98  1  0.51385000  0.10455000  0.43141000  1.0
  O  O99  1  0.98618000  0.39546000  0.93140000  1.0
  O  O100  1  0.23132000  0.92590000  0.65441000  1.0
  O  O101  1  0.26866000  0.57410000  0.15441000  1.0
  O  O102  1  0.76869000  0.07410000  0.34558000  1.0
  O  O103  1  0.73132000  0.42589000  0.84559000  1.0
  O  O104  1  0.12273000  0.65581000  0.89422000  1.0
  O  O105  1  0.37728000  0.84419000  0.39422000  1.0
  O  O106  1  0.87727000  0.34419000  0.10578000  1.0
  O  O107  1  0.62275000  0.15582000  0.60578000  1.0
  O  O108  1  0.74152000  0.78510000  0.01386000  1.0
  O  O109  1  0.75850000  0.71491000  0.51387000  1.0
  O  O110  1  0.25847000  0.21490000  0.98613000  1.0
  O  O111  1  0.24149000  0.28508000  0.48613000  1.0
