# generated using pymatgen
data_CuH4C6N5
_symmetry_space_group_name_H-M   'P 1'
_cell_length_a   8.48659000
_cell_length_b   8.65504000
_cell_length_c   19.07950000
_cell_angle_alpha   90.00010000
_cell_angle_beta   90.00010000
_cell_angle_gamma   72.15200000
_symmetry_Int_Tables_number   1
_chemical_formula_structural   CuH4C6N5
_chemical_formula_sum   'Cu8 H32 C48 N40'
_cell_volume   1333.97681006
_cell_formula_units_Z   8
loop_
 _symmetry_equiv_pos_site_id
 _symmetry_equiv_pos_as_xyz
  1  'x, y, z'
loop_
 _atom_site_type_symbol
 _atom_site_label
 _atom_site_symmetry_multiplicity
 _atom_site_fract_x
 _atom_site_fract_y
 _atom_site_fract_z
 _atom_site_occupancy
  Cu  Cu0  1  0.45408000  0.19041000  0.17334000  1.0
  Cu  Cu1  1  0.04592000  0.30959000  0.67334000  1.0
  Cu  Cu2  1  0.54592000  0.80959000  0.82666000  1.0
  Cu  Cu3  1  0.95408000  0.69041000  0.32666000  1.0
  Cu  Cu4  1  0.46436000  0.56441000  0.09167000  1.0
  Cu  Cu5  1  0.03564000  0.93559000  0.59167000  1.0
  Cu  Cu6  1  0.53564000  0.43559000  0.90833000  1.0
  Cu  Cu7  1  0.96436000  0.06440000  0.40833000  1.0
  H  H8  1  0.42661000  0.84978000  0.20524000  1.0
  H  H9  1  0.07339000  0.65023000  0.70524000  1.0
  H  H10  1  0.57338000  0.15022000  0.79476000  1.0
  H  H11  1  0.92661000  0.34977000  0.29476000  1.0
  H  H12  1  0.90786000  0.90031000  0.18142000  1.0
  H  H13  1  0.59214000  0.59970000  0.68142000  1.0
  H  H14  1  0.09214000  0.09970000  0.81858000  1.0
  H  H15  1  0.40786000  0.40030000  0.31858000  1.0
  H  H16  1  0.86229000  0.19152000  0.14815000  1.0
  H  H17  1  0.63771000  0.30848000  0.64815000  1.0
  H  H18  1  0.13770000  0.80848000  0.85185000  1.0
  H  H19  1  0.36229000  0.69152000  0.35185000  1.0
  H  H20  1  0.10872000  0.29092000  0.13862000  1.0
  H  H21  1  0.39128000  0.20908000  0.63862000  1.0
  H  H22  1  0.89128000  0.70908000  0.86138000  1.0
  H  H23  1  0.60872000  0.79092000  0.36138000  1.0
  H  H24  1  0.98981000  0.85683000  0.03085000  1.0
  H  H25  1  0.51018000  0.64317000  0.53086000  1.0
  H  H26  1  0.01018000  0.14317000  0.96914000  1.0
  H  H27  1  0.48982000  0.35683000  0.46914000  1.0
  H  H28  1  0.48311000  0.90273000  0.08401000  1.0
  H  H29  1  0.01689000  0.59727000  0.58401000  1.0
  H  H30  1  0.51689000  0.09727000  0.91599000  1.0
  H  H31  1  0.98311000  0.40273000  0.41599000  1.0
  H  H32  1  0.83244000  0.44806000  0.09341000  1.0
  H  H33  1  0.66756000  0.05194000  0.59341000  1.0
  H  H34  1  0.16756000  0.55194000  0.90659000  1.0
  H  H35  1  0.33244000  0.94806000  0.40659000  1.0
  H  H36  1  0.05956000  0.56082000  0.05791000  1.0
  H  H37  1  0.44044000  0.93919000  0.55791000  1.0
  H  H38  1  0.94044000  0.43918000  0.94209000  1.0
  H  H39  1  0.55956000  0.06082000  0.44209000  1.0
  C  C40  1  0.73016000  0.90337000  0.05696000  1.0
  C  C41  1  0.76984000  0.59663000  0.55696000  1.0
  C  C42  1  0.26984000  0.09663000  0.94304000  1.0
  C  C43  1  0.23017000  0.40337000  0.44304000  1.0
  C  C44  1  0.68249000  0.07837000  0.04444000  1.0
  C  C45  1  0.81751000  0.42163000  0.54444000  1.0
  C  C46  1  0.31751000  0.92162000  0.95556000  1.0
  C  C47  1  0.18249000  0.57837000  0.45556000  1.0
  C  C48  1  0.30056000  0.92022000  0.19091000  1.0
  C  C49  1  0.19944000  0.57978000  0.69091000  1.0
  C  C50  1  0.69944000  0.07978000  0.80909000  1.0
  C  C51  1  0.80056000  0.42022000  0.30909000  1.0
  C  C52  1  0.17120000  0.85132000  0.19308000  1.0
  C  C53  1  0.32880000  0.64868000  0.69308000  1.0
  C  C54  1  0.82880000  0.14867000  0.80692000  1.0
  C  C55  1  0.67119000  0.35133000  0.30692000  1.0
  C  C56  1  0.01027000  0.95056000  0.17900000  1.0
  C  C57  1  0.48973000  0.54944000  0.67900000  1.0
  C  C58  1  0.98973000  0.04944000  0.82100000  1.0
  C  C59  1  0.51027000  0.45056000  0.32100000  1.0
  C  C60  1  0.98575000  0.11132000  0.16005000  1.0
  C  C61  1  0.51425000  0.38868000  0.66005000  1.0
  C  C62  1  0.01425000  0.88868000  0.83995000  1.0
  C  C63  1  0.48575000  0.61132000  0.33995000  1.0
  C  C64  1  0.12190000  0.16741000  0.15520000  1.0
  C  C65  1  0.37811000  0.33260000  0.65520000  1.0
  C  C66  1  0.87810000  0.83260000  0.84480000  1.0
  C  C67  1  0.62190000  0.66740000  0.34480000  1.0
  C  C68  1  0.89383000  0.80483000  0.04727000  1.0
  C  C69  1  0.60617000  0.69518000  0.54727000  1.0
  C  C70  1  0.10617000  0.19517000  0.95273000  1.0
  C  C71  1  0.39383000  0.30482000  0.45273000  1.0
  C  C72  1  0.61206000  0.83024000  0.07813000  1.0
  C  C73  1  0.88794000  0.66976000  0.57813000  1.0
  C  C74  1  0.38794000  0.16976000  0.92187000  1.0
  C  C75  1  0.11206000  0.33024000  0.42187000  1.0
  C  C76  1  0.80741000  0.57706000  0.08305000  1.0
  C  C77  1  0.69259000  0.92294000  0.58305000  1.0
  C  C78  1  0.19259000  0.42294000  0.91695000  1.0
  C  C79  1  0.30741000  0.07706000  0.41696000  1.0
  C  C80  1  0.93258000  0.63997000  0.06243000  1.0
  C  C81  1  0.56742000  0.86003000  0.56244000  1.0
  C  C82  1  0.06742000  0.36003000  0.93756000  1.0
  C  C83  1  0.43258000  0.13997000  0.43757000  1.0
  C  C84  1  0.20254000  0.67783000  0.20529000  1.0
  C  C85  1  0.29746000  0.82217000  0.70529000  1.0
  C  C86  1  0.79746000  0.32217000  0.79471000  1.0
  C  C87  1  0.70254000  0.17783000  0.29471000  1.0
  N  N88  1  0.57708000  0.19408000  0.08471000  1.0
  N  N89  1  0.92293000  0.30592000  0.58471000  1.0
  N  N90  1  0.42292000  0.80592000  0.91529000  1.0
  N  N91  1  0.07708000  0.69408000  0.41529000  1.0
  N  N92  1  0.27701000  0.07586000  0.17211000  1.0
  N  N93  1  0.22299000  0.42414000  0.67211000  1.0
  N  N94  1  0.72299000  0.92414000  0.82789000  1.0
  N  N95  1  0.77701000  0.57586000  0.32789000  1.0
  N  N96  1  0.56782000  0.33601000  0.05328000  1.0
  N  N97  1  0.93218000  0.16399000  0.55328000  1.0
  N  N98  1  0.43218000  0.66399000  0.94672000  1.0
  N  N99  1  0.06782000  0.83601000  0.44672000  1.0
  N  N100  1  0.73660000  0.14559000  0.98952000  1.0
  N  N101  1  0.76340000  0.35441000  0.48952000  1.0
  N  N102  1  0.26340000  0.85441000  0.01048000  1.0
  N  N103  1  0.23660000  0.64559000  0.51048000  1.0
  N  N104  1  0.66158000  0.30600000  0.99539000  1.0
  N  N105  1  0.83842000  0.19400000  0.49539000  1.0
  N  N106  1  0.33842000  0.69400000  0.00461000  1.0
  N  N107  1  0.16158000  0.80600000  0.50461000  1.0
  N  N108  1  0.64754000  0.66930000  0.08927000  1.0
  N  N109  1  0.85246000  0.83070000  0.58927000  1.0
  N  N110  1  0.35246000  0.33070000  0.91073000  1.0
  N  N111  1  0.14754000  0.16930000  0.41073000  1.0
  N  N112  1  0.31747000  0.56057000  0.17025000  1.0
  N  N113  1  0.18253000  0.93943000  0.67025000  1.0
  N  N114  1  0.68253000  0.43943000  0.82975000  1.0
  N  N115  1  0.81747000  0.06057000  0.32975000  1.0
  N  N116  1  0.30081000  0.41887000  0.19357000  1.0
  N  N117  1  0.19919000  0.08113000  0.69356000  1.0
  N  N118  1  0.69919000  0.58113000  0.80643000  1.0
  N  N119  1  0.80081000  0.91887000  0.30644000  1.0
  N  N120  1  0.11647000  0.60959000  0.24862000  1.0
  N  N121  1  0.38352000  0.89041000  0.74862000  1.0
  N  N122  1  0.88352000  0.39041000  0.75138000  1.0
  N  N123  1  0.61648000  0.10959000  0.25138000  1.0
  N  N124  1  0.18060000  0.44781000  0.24040000  1.0
  N  N125  1  0.31940000  0.05220000  0.74040000  1.0
  N  N126  1  0.81940000  0.55219000  0.75960000  1.0
  N  N127  1  0.68061000  0.94780000  0.25960000  1.0
