# generated using pymatgen
data_ZnH10C15N3O4
_symmetry_space_group_name_H-M   'P 1'
_cell_length_a   11.26390000
_cell_length_b   15.85790000
_cell_length_c   17.28880000
_cell_angle_alpha   86.61930000
_cell_angle_beta   86.43960000
_cell_angle_gamma   70.85830000
_symmetry_Int_Tables_number   1
_chemical_formula_structural   ZnH10C15N3O4
_chemical_formula_sum   'Zn2 H20 C30 N6 O8'
_cell_volume   2909.34116977
_cell_formula_units_Z   2
loop_
 _symmetry_equiv_pos_site_id
 _symmetry_equiv_pos_as_xyz
  1  'x, y, z'
loop_
 _atom_site_type_symbol
 _atom_site_label
 _atom_site_symmetry_multiplicity
 _atom_site_fract_x
 _atom_site_fract_y
 _atom_site_fract_z
 _atom_site_occupancy
  Zn  Zn0  1  0.48050000  0.59068000  0.50277000  1.0
  Zn  Zn1  1  0.52027000  0.40832000  0.50216000  1.0
  H  H2  1  0.13034000  0.42281000  0.50826000  1.0
  H  H3  1  0.86867000  0.57460000  0.51539000  1.0
  H  H4  1  0.65890000  0.25494000  0.40528000  1.0
  H  H5  1  0.34091000  0.74556000  0.59746000  1.0
  H  H6  1  0.05844000  0.62744000  0.51511000  1.0
  H  H7  1  0.94263000  0.37055000  0.50230000  1.0
  H  H8  1  0.49886000  0.61446000  0.89327000  1.0
  H  H9  1  0.57922000  0.37611000  0.10960000  1.0
  H  H10  1  0.49595000  0.66058000  0.10653000  1.0
  H  H11  1  0.56769000  0.33145000  0.89555000  1.0
  H  H12  1  0.48616000  0.65577000  0.25306000  1.0
  H  H13  1  0.54788000  0.34034000  0.75024000  1.0
  H  H14  1  0.61081000  0.70447000  0.41783000  1.0
  H  H15  1  0.38682000  0.29425000  0.58352000  1.0
  H  H16  1  0.61779000  0.86231000  0.42182000  1.0
  H  H17  1  0.38029000  0.13654000  0.57779000  1.0
  H  H18  1  0.66302000  0.09538000  0.39092000  1.0
  H  H19  1  0.33661000  0.90552000  0.60972000  1.0
  H  H20  1  0.47837000  0.62286000  0.74856000  1.0
  H  H21  1  0.56919000  0.37172000  0.25562000  1.0
  C  C22  1  0.51560000  0.51039000  0.34965000  1.0
  C  C23  1  0.49943000  0.48818000  0.65511000  1.0
  C  C24  1  0.50679000  0.59514000  0.22098000  1.0
  C  C25  1  0.53701000  0.39970000  0.78233000  1.0
  C  C26  1  0.44674000  0.24704000  0.54257000  1.0
  C  C27  1  0.55168000  0.75208000  0.45878000  1.0
  C  C28  1  0.44315000  0.16078000  0.53920000  1.0
  C  C29  1  0.55525000  0.83848000  0.46106000  1.0
  C  C30  1  0.52302000  0.10485000  0.48417000  1.0
  C  C31  1  0.47601000  0.89495000  0.51598000  1.0
  C  C32  1  0.60169000  0.13792000  0.43437000  1.0
  C  C33  1  0.39759000  0.86241000  0.56650000  1.0
  C  C34  1  0.59980000  0.22521000  0.44213000  1.0
  C  C35  1  0.39960000  0.77495000  0.55989000  1.0
  C  C36  1  0.74580000  0.45785000  0.50325000  1.0
  C  C37  1  0.25516000  0.53978000  0.50806000  1.0
  C  C38  1  0.88314000  0.44025000  0.50582000  1.0
  C  C39  1  0.11729000  0.55749000  0.51254000  1.0
  C  C40  1  0.93328000  0.50614000  0.51158000  1.0
  C  C41  1  0.06618000  0.49148000  0.51141000  1.0
  C  C42  1  0.52615000  0.51356000  0.26261000  1.0
  C  C43  1  0.51116000  0.48220000  0.74141000  1.0
  C  C44  1  0.55363000  0.43449000  0.22212000  1.0
  C  C45  1  0.49786000  0.55956000  0.78167000  1.0
  C  C46  1  0.55915000  0.43662000  0.14173000  1.0
  C  C47  1  0.50939000  0.55512000  0.86127000  1.0
  C  C48  1  0.53646000  0.51907000  0.10016000  1.0
  C  C49  1  0.53447000  0.47217000  0.90229000  1.0
  C  C50  1  0.51216000  0.59787000  0.14031000  1.0
  C  C51  1  0.54839000  0.39469000  0.86225000  1.0
  N  N52  1  0.53265000  0.53044000  0.01860000  1.0
  N  N53  1  0.54427000  0.45994000  0.98352000  1.0
  N  N54  1  0.52412000  0.27825000  0.49530000  1.0
  N  N55  1  0.47504000  0.72128000  0.50704000  1.0
  N  N56  1  0.52993000  0.01519000  0.47390000  1.0
  N  N57  1  0.46939000  0.98458000  0.52580000  1.0
  O  O58  1  0.49652000  0.58340000  0.38330000  1.0
  O  O59  1  0.51647000  0.41547000  0.62145000  1.0
  O  O60  1  0.52554000  0.43487000  0.38336000  1.0
  O  O61  1  0.47438000  0.56558000  0.62196000  1.0
  O  O62  1  0.67398000  0.53898000  0.50448000  1.0
  O  O63  1  0.32660000  0.45853000  0.50767000  1.0
  O  O64  1  0.71012000  0.38955000  0.49984000  1.0
  O  O65  1  0.29170000  0.60828000  0.50432000  1.0
