# generated using pymatgen
data_ZnH16C23N2(ClO2)2
_symmetry_space_group_name_H-M   'P 1'
_cell_length_a   16.28840000
_cell_length_b   17.15870000
_cell_length_c   17.66770000
_cell_angle_alpha   91.76210000
_cell_angle_beta   97.46440000
_cell_angle_gamma   90.27580000
_symmetry_Int_Tables_number   1
_chemical_formula_structural   ZnH16C23N2(ClO2)2
_chemical_formula_sum   'Zn2 H32 C46 N4 Cl4 O8'
_cell_volume   4893.55256875
_cell_formula_units_Z   2
loop_
 _symmetry_equiv_pos_site_id
 _symmetry_equiv_pos_as_xyz
  1  'x, y, z'
loop_
 _atom_site_type_symbol
 _atom_site_label
 _atom_site_symmetry_multiplicity
 _atom_site_fract_x
 _atom_site_fract_y
 _atom_site_fract_z
 _atom_site_occupancy
  Zn  Zn0  1  0.58515000  0.50987000  0.50818000  1.0
  Zn  Zn1  1  0.41338000  0.49008000  0.49293000  1.0
  H  H2  1  0.29066000  0.57016000  0.56465000  1.0
  H  H3  1  0.13865000  0.57731000  0.56653000  1.0
  H  H4  1  0.11360000  0.38740000  0.39712000  1.0
  H  H5  1  0.88649000  0.59620000  0.61909000  1.0
  H  H6  1  0.85792000  0.44011000  0.41949000  1.0
  H  H7  1  0.70608000  0.44286000  0.42504000  1.0
  H  H8  1  0.99069000  0.43743000  0.43585000  1.0
  H  H9  1  0.00759000  0.56223000  0.56620000  1.0
  H  H10  1  0.39975000  0.55681000  0.73607000  1.0
  H  H11  1  0.40527000  0.55904000  0.87675000  1.0
  H  H12  1  0.62330000  0.41532000  0.88949000  1.0
  H  H13  1  0.35812000  0.56105000  0.11140000  1.0
  H  H14  1  0.60576000  0.46891000  0.12407000  1.0
  H  H15  1  0.61332000  0.46941000  0.26474000  1.0
  H  H16  1  0.57929000  0.45547000  0.00367000  1.0
  H  H17  1  0.41434000  0.54329000  0.99724000  1.0
  H  H18  1  0.39460000  0.25152000  0.47626000  1.0
  H  H19  1  0.39680000  0.10482000  0.47087000  1.0
  H  H20  1  0.35146000  0.89246000  0.52165000  1.0
  H  H21  1  0.59545000  0.89213000  0.45598000  1.0
  H  H22  1  0.72782000  0.23396000  0.57195000  1.0
  H  H23  1  0.67468000  0.32454000  0.56385000  1.0
  H  H24  1  0.71394000  0.28212000  0.48396000  1.0
  H  H25  1  0.73077000  0.12559000  0.48374000  1.0
  H  H26  1  0.67684000  0.03838000  0.50165000  1.0
  H  H27  1  0.71507000  0.10370000  0.57794000  1.0
  H  H28  1  0.34348000  0.69761000  0.57695000  1.0
  H  H29  1  0.29704000  0.70319000  0.48152000  1.0
  H  H30  1  0.28481000  0.78163000  0.54805000  1.0
  H  H31  1  0.65873000  0.77999000  0.42360000  1.0
  H  H32  1  0.60782000  0.68704000  0.41430000  1.0
  H  H33  1  0.66051000  0.71846000  0.50333000  1.0
  C  C34  1  0.50161000  0.49434000  0.64739000  1.0
  C  C35  1  0.47941000  0.65009000  0.49915000  1.0
  C  C36  1  0.49884000  0.50621000  0.35337000  1.0
  C  C37  1  0.51851000  0.35044000  0.49839000  1.0
  C  C38  1  0.24821000  0.53122000  0.52856000  1.0
  C  C39  1  0.16352000  0.53425000  0.52929000  1.0
  C  C40  1  0.11168000  0.48189000  0.48171000  1.0
  C  C41  1  0.14994000  0.42936000  0.43530000  1.0
  C  C42  1  0.23599000  0.43044000  0.43814000  1.0
  C  C43  1  0.02184000  0.47911000  0.47822000  1.0
  C  C44  1  0.97635000  0.52172000  0.52274000  1.0
  C  C45  1  0.84942000  0.56117000  0.57469000  1.0
  C  C46  1  0.88659000  0.51835000  0.51966000  1.0
  C  C47  1  0.83383000  0.47451000  0.46435000  1.0
  C  C48  1  0.74932000  0.47571000  0.46652000  1.0
  C  C49  1  0.76350000  0.55887000  0.57279000  1.0
  C  C50  1  0.50818000  0.48794000  0.73248000  1.0
  C  C51  1  0.44883000  0.52644000  0.77105000  1.0
  C  C52  1  0.45199000  0.52712000  0.84977000  1.0
  C  C53  1  0.51554000  0.48745000  0.89463000  1.0
  C  C54  1  0.57414000  0.44761000  0.85663000  1.0
  C  C55  1  0.57102000  0.44758000  0.77736000  1.0
  C  C56  1  0.52403000  0.48532000  0.97757000  1.0
  C  C57  1  0.47084000  0.51535000  0.02328000  1.0
  C  C58  1  0.41419000  0.53934000  0.14424000  1.0
  C  C59  1  0.48024000  0.51350000  0.10629000  1.0
  C  C60  1  0.55253000  0.48797000  0.15111000  1.0
  C  C61  1  0.55703000  0.48804000  0.22996000  1.0
  C  C62  1  0.49031000  0.51156000  0.26814000  1.0
  C  C63  1  0.41858000  0.53774000  0.22351000  1.0
  C  C64  1  0.52682000  0.26340000  0.49951000  1.0
  C  C65  1  0.45264000  0.21981000  0.48508000  1.0
  C  C66  1  0.45356000  0.13941000  0.48202000  1.0
  C  C67  1  0.52976000  0.10045000  0.49290000  1.0
  C  C68  1  0.60525000  0.14276000  0.50739000  1.0
  C  C69  1  0.60372000  0.22516000  0.51277000  1.0
  C  C70  1  0.40485000  0.85923000  0.50798000  1.0
  C  C71  1  0.47389000  0.90040000  0.49044000  1.0
  C  C72  1  0.54293000  0.85936000  0.47141000  1.0
  C  C73  1  0.54529000  0.77831000  0.47288000  1.0
  C  C74  1  0.47572000  0.73715000  0.49335000  1.0
  C  C75  1  0.40435000  0.77793000  0.50960000  1.0
  C  C76  1  0.68422000  0.26884000  0.53469000  1.0
  C  C77  1  0.68630000  0.10012000  0.51796000  1.0
  C  C78  1  0.32809000  0.73799000  0.53022000  1.0
  C  C79  1  0.62213000  0.73867000  0.45202000  1.0
  N  N80  1  0.28471000  0.48023000  0.48371000  1.0
  N  N81  1  0.71392000  0.51739000  0.51976000  1.0
  N  N82  1  0.53517000  0.01844000  0.48959000  1.0
  N  N83  1  0.46787000  0.98246000  0.49437000  1.0
  Cl  Cl84  1  0.28164000  0.36547000  0.38144000  1.0
  Cl  Cl85  1  0.71919000  0.61122000  0.64068000  1.0
  Cl  Cl86  1  0.64608000  0.39309000  0.73924000  1.0
  Cl  Cl87  1  0.33423000  0.57297000  0.26412000  1.0
  O  O88  1  0.56775000  0.48501000  0.61738000  1.0
  O  O89  1  0.43060000  0.51000000  0.61176000  1.0
  O  O90  1  0.41376000  0.60993000  0.47889000  1.0
  O  O91  1  0.54942000  0.62187000  0.52484000  1.0
  O  O92  1  0.43669000  0.48006000  0.38129000  1.0
  O  O93  1  0.56849000  0.52665000  0.39044000  1.0
  O  O94  1  0.57938000  0.39127000  0.48258000  1.0
  O  O95  1  0.44903000  0.37791000  0.51206000  1.0
