# generated using pymatgen
data_Zn4H47C57BrN16
_symmetry_space_group_name_H-M   'P 1'
_cell_length_a   14.79090000
_cell_length_b   14.90600000
_cell_length_c   14.98962872
_cell_angle_alpha   65.48728436
_cell_angle_beta   65.66060938
_cell_angle_gamma   99.37510000
_symmetry_Int_Tables_number   1
_chemical_formula_structural   Zn4H47C57BrN16
_chemical_formula_sum   'Zn4 H47 C57 Br1 N16'
_cell_volume   2507.64614509
_cell_formula_units_Z   1
loop_
 _symmetry_equiv_pos_site_id
 _symmetry_equiv_pos_as_xyz
  1  'x, y, z'
loop_
 _atom_site_type_symbol
 _atom_site_label
 _atom_site_symmetry_multiplicity
 _atom_site_fract_x
 _atom_site_fract_y
 _atom_site_fract_z
 _atom_site_occupancy
  Zn  Zn0  1  0.14460000  0.50014000  0.85992000  1.0
  Zn  Zn1  1  0.85777000  0.49921000  0.14083000  1.0
  Zn  Zn2  1  0.99997000  0.35376000  0.14204000  1.0
  Zn  Zn3  1  0.99837000  0.64111000  0.85662000  1.0
  H  H4  1  0.23678000  0.32447000  0.81034000  1.0
  H  H5  1  0.73154000  0.35387000  0.78945000  1.0
  H  H6  1  0.71291000  0.30583000  0.66537000  1.0
  H  H7  1  0.63574000  0.54892000  0.18984000  1.0
  H  H8  1  0.76189000  0.44498000  0.56573000  1.0
  H  H9  1  0.01422000  0.56646000  0.55714000  1.0
  H  H10  1  0.96755000  0.55222000  0.43016000  1.0
  H  H11  1  0.96763000  0.27376000  0.71639000  1.0
  H  H12  1  0.82495000  0.22527000  0.79345000  1.0
  H  H13  1  0.83744000  0.20646000  0.64141000  1.0
  H  H14  1  0.97888000  0.28339000  0.55297000  1.0
  H  H15  1  0.78803000  0.47460000  0.39190000  1.0
  H  H16  1  0.07637000  0.47513000  0.55851000  1.0
  H  H17  1  0.05427000  0.48488000  0.40876000  1.0
  H  H18  1  0.85016000  0.15689000  0.16244000  1.0
  H  H19  1  0.48224000  0.77760000  0.84841000  1.0
  H  H20  1  0.25977000  0.46088000  0.30163000  1.0
  H  H21  1  0.28749000  0.38838000  0.23081000  1.0
  H  H22  1  0.43419000  0.48282000  0.29439000  1.0
  H  H23  1  0.46202000  0.41106000  0.22288000  1.0
  H  H24  1  0.33605000  0.00528000  0.38570000  1.0
  H  H25  1  0.49857000  0.16991000  0.23479000  1.0
  H  H26  1  0.14843000  0.47819000  0.19759000  1.0
  H  H27  1  0.74775000  0.94982000  0.28167000  1.0
  H  H28  1  0.73036000  0.98916000  0.38376000  1.0
  H  H29  1  0.57923000  0.77957000  0.44217000  1.0
  H  H30  1  0.84120000  0.52779000  0.80282000  1.0
  H  H31  1  0.10082000  0.98609000  0.17363000  1.0
  H  H32  1  0.08221000  0.82155000  0.17256000  1.0
  H  H33  1  0.29056000  0.05331000  0.70505000  1.0
  H  H34  1  0.15187000  0.02509000  0.74837000  1.0
  H  H35  1  0.30758000  0.22247000  0.70662000  1.0
  H  H36  1  0.16861000  0.19290000  0.75092000  1.0
  H  H37  1  0.17252000  0.84294000  0.80791000  1.0
  H  H38  1  0.64916000  0.33885000  0.17794000  1.0
  H  H39  1  0.03899000  0.34294000  0.80103000  1.0
  H  H40  1  0.81771000  0.73154000  0.81466000  1.0
  H  H41  1  0.04190000  0.12897000  0.18548000  1.0
  H  H42  1  0.37133000  0.67689000  0.60274000  1.0
  H  H43  1  0.73679000  0.86087000  0.83165000  1.0
  H  H44  1  0.72447000  0.81296000  0.74514000  1.0
  H  H45  1  0.65839000  0.89654000  0.76967000  1.0
  H  H46  1  0.98484000  0.66135000  0.18411000  1.0
  H  H47  1  0.34658000  0.67193000  0.82141000  1.0
  H  H48  1  0.18065000  0.86825000  0.59024000  1.0
  H  H49  1  0.96595000  0.27122000  0.40072000  1.0
  H  H50  1  0.80697000  0.49098000  0.67640000  1.0
  C  C51  1  0.18618000  0.29118000  0.90272000  1.0
  C  C52  1  0.28383000  0.61719000  0.91274000  1.0
  C  C53  1  0.21229000  0.80650000  0.60937000  1.0
  C  C54  1  0.69501000  0.59046000  0.09757000  1.0
  C  C55  1  0.92310000  0.32225000  0.38270000  1.0
  C  C56  1  0.31783000  0.81309000  0.54789000  1.0
  C  C57  1  0.87577000  0.37124000  0.44046000  1.0
  C  C58  1  0.28725000  0.59694000  0.01161000  1.0
  C  C59  1  0.09990000  0.79451000  0.99490000  1.0
  C  C60  1  0.80057000  0.40884000  0.69937000  1.0
  C  C61  1  0.78201000  0.38330000  0.61656000  1.0
  C  C62  1  0.68510000  0.65035000  0.00321000  1.0
  C  C63  1  0.00241000  0.48725000  0.56733000  1.0
  C  C64  1  0.89934000  0.28824000  0.71001000  1.0
  C  C65  1  0.90532000  0.39925000  0.69202000  1.0
  C  C66  1  0.81486000  0.21562000  0.16013000  1.0
  C  C67  1  0.88377000  0.37817000  0.53417000  1.0
  C  C68  1  0.98280000  0.48250000  0.47584000  1.0
  C  C69  1  0.90089000  0.28224000  0.60850000  1.0
  C  C70  1  0.48470000  0.57783000  0.10820000  1.0
  C  C71  1  0.58539000  0.65717000  0.01002000  1.0
  C  C72  1  0.57998000  0.73376000  0.91777000  1.0
  C  C73  1  0.70811000  0.20542000  0.19166000  1.0
  C  C74  1  0.48109000  0.71858000  0.92333000  1.0
  C  C75  1  0.38199000  0.62997000  0.01743000  1.0
  C  C76  1  0.38736000  0.56485000  0.11257000  1.0
  C  C77  1  0.32280000  0.45972000  0.23025000  1.0
  C  C78  1  0.89617000  0.48911000  0.81029000  1.0
  C  C79  1  0.43315000  0.47405000  0.22543000  1.0
  C  C80  1  0.52016000  0.91247000  0.41521000  1.0
  C  C81  1  0.41519000  0.90639000  0.44565000  1.0
  C  C82  1  0.41393000  0.00332000  0.37214000  1.0
  C  C83  1  0.50758000  0.09789000  0.28472000  1.0
  C  C84  1  0.92510000  0.41965000  0.77399000  1.0
  C  C85  1  0.61258000  0.10498000  0.26088000  1.0
  C  C86  1  0.61367000  0.00637000  0.32688000  1.0
  C  C87  1  0.68891000  0.95627000  0.35100000  1.0
  C  C88  1  0.58354000  0.85051000  0.44867000  1.0
  C  C89  1  0.18984000  0.08983000  0.89203000  1.0
  C  C90  1  0.71270000  0.30888000  0.16666000  1.0
  C  C91  1  0.15733000  0.09195000  0.99262000  1.0
  C  C92  1  0.12314000  0.99115000  0.09204000  1.0
  C  C93  1  0.11265000  0.89669000  0.09132000  1.0
  C  C94  1  0.13528000  0.89379000  0.99120000  1.0
  C  C95  1  0.30959000  0.70914000  0.61599000  1.0
  C  C96  1  0.17974000  0.99562000  0.89116000  1.0
  C  C97  1  0.21434000  0.05183000  0.76435000  1.0
  C  C98  1  0.22521000  0.15836000  0.76561000  1.0
  C  C99  1  0.99693000  0.39507000  0.80932000  1.0
  C  C100  1  0.78766000  0.68453000  0.90645000  1.0
  C  C101  1  0.08786000  0.19169000  0.09386000  1.0
  C  C102  1  0.14790000  0.18604000  0.99668000  1.0
  C  C103  1  0.68013000  0.83095000  0.81083000  1.0
  C  C104  1  0.83278000  0.42578000  0.37808000  1.0
  C  C105  1  0.18333000  0.51721000  0.10478000  1.0
  C  C106  1  0.11793000  0.78434000  0.90032000  1.0
  C  C107  1  0.02291000  0.69145000  0.09228000  1.0
  Br  Br108  1  0.55693000  0.79875000  0.60670000  1.0
  N  N109  1  0.15176000  0.35359000  0.94099000  1.0
  N  N110  1  0.87600000  0.31589000  0.12260000  1.0
  N  N111  1  0.94883000  0.50574000  0.86107000  1.0
  N  N112  1  0.81328000  0.37314000  0.12686000  1.0
  N  N113  1  0.01072000  0.44783000  0.86053000  1.0
  N  N114  1  0.85196000  0.64764000  0.94093000  1.0
  N  N115  1  0.09039000  0.29154000  0.06010000  1.0
  N  N116  1  0.20841000  0.64674000  0.70930000  1.0
  N  N117  1  0.85321000  0.41069000  0.29010000  1.0
  N  N118  1  0.12453000  0.49156000  0.06365000  1.0
  N  N119  1  0.05486000  0.68413000  0.93941000  1.0
  N  N120  1  0.99640000  0.62715000  0.05723000  1.0
  N  N121  1  0.18632000  0.55260000  0.94584000  1.0
  N  N122  1  0.14755000  0.70735000  0.70555000  1.0
  N  N123  1  0.90958000  0.34603000  0.29291000  1.0
  N  N124  1  0.79423000  0.58933000  0.06002000  1.0
