# generated using pymatgen
data_Co3H24C30(NO5)2
_symmetry_space_group_name_H-M   'P 1'
_cell_length_a   14.90610000
_cell_length_b   17.66500000
_cell_length_c   17.67220000
_cell_angle_alpha   90.00420000
_cell_angle_beta   90.63300000
_cell_angle_gamma   90.00090000
_symmetry_Int_Tables_number   1
_chemical_formula_structural   Co3H24C30(NO5)2
_chemical_formula_sum   'Co12 H96 C120 N8 O40'
_cell_volume   4653.09354957
_cell_formula_units_Z   4
loop_
 _symmetry_equiv_pos_site_id
 _symmetry_equiv_pos_as_xyz
  1  'x, y, z'
loop_
 _atom_site_type_symbol
 _atom_site_label
 _atom_site_symmetry_multiplicity
 _atom_site_fract_x
 _atom_site_fract_y
 _atom_site_fract_z
 _atom_site_occupancy
  Co  Co0  1  0.03426000  0.84895000  0.10440000  1.0
  Co  Co1  1  0.03513000  0.15102000  0.89558000  1.0
  Co  Co2  1  0.96667000  0.89593000  0.84933000  1.0
  Co  Co3  1  0.96749000  0.10495000  0.14926000  1.0
  Co  Co4  1  0.53422000  0.15106000  0.10439000  1.0
  Co  Co5  1  0.53513000  0.84904000  0.89558000  1.0
  Co  Co6  1  0.46666000  0.10408000  0.84931000  1.0
  Co  Co7  1  0.46756000  0.89505000  0.14918000  1.0
  Co  Co8  1  0.24898000  0.85377000  0.14986000  1.0
  Co  Co9  1  0.25054000  0.14632000  0.85402000  1.0
  Co  Co10  1  0.75048000  0.85372000  0.85396000  1.0
  Co  Co11  1  0.74897000  0.14626000  0.14983000  1.0
  H  H12  1  0.23245000  0.89088000  0.97986000  1.0
  H  H13  1  0.26312000  0.75232000  0.00803000  1.0
  H  H14  1  0.22782000  0.77018000  0.91243000  1.0
  H  H15  1  0.15123000  0.73086000  0.97935000  1.0
  H  H16  1  0.94725000  0.87721000  0.32482000  1.0
  H  H17  1  0.90826000  0.89804000  0.45990000  1.0
  H  H18  1  0.18832000  0.88085000  0.52148000  1.0
  H  H19  1  0.22607000  0.86317000  0.38572000  1.0
  H  H20  1  0.14344000  0.95956000  0.61509000  1.0
  H  H21  1  0.10317000  0.96169000  0.75171000  1.0
  H  H22  1  0.86474000  0.84824000  0.71052000  1.0
  H  H23  1  0.89509000  0.83919000  0.57285000  1.0
  H  H24  1  0.23455000  0.11133000  0.02457000  1.0
  H  H25  1  0.26087000  0.25023000  0.99374000  1.0
  H  H26  1  0.22838000  0.23267000  0.08949000  1.0
  H  H27  1  0.14915000  0.26970000  0.02202000  1.0
  H  H28  1  0.94750000  0.12369000  0.67382000  1.0
  H  H29  1  0.90813000  0.10391000  0.53787000  1.0
  H  H30  1  0.18828000  0.12003000  0.48150000  1.0
  H  H31  1  0.22636000  0.13646000  0.61799000  1.0
  H  H32  1  0.14292000  0.04166000  0.38742000  1.0
  H  H33  1  0.10346000  0.03995000  0.24997000  1.0
  H  H34  1  0.86564000  0.15471000  0.28604000  1.0
  H  H35  1  0.89540000  0.16356000  0.42415000  1.0
  H  H36  1  0.76902000  0.02396000  0.89029000  1.0
  H  H37  1  0.73868000  0.99351000  0.75157000  1.0
  H  H38  1  0.77330000  0.08919000  0.76885000  1.0
  H  H39  1  0.85044000  0.02148000  0.73125000  1.0
  H  H40  1  0.05221000  0.67526000  0.87717000  1.0
  H  H41  1  0.09146000  0.53972000  0.89773000  1.0
  H  H42  1  0.81103000  0.48096000  0.88098000  1.0
  H  H43  1  0.77315000  0.61717000  0.86399000  1.0
  H  H44  1  0.85698000  0.38616000  0.95827000  1.0
  H  H45  1  0.89795000  0.24927000  0.96025000  1.0
  H  H46  1  0.13591000  0.28952000  0.84873000  1.0
  H  H47  1  0.10454000  0.42732000  0.83954000  1.0
  H  H48  1  0.76818000  0.97694000  0.10531000  1.0
  H  H49  1  0.73776000  0.00626000  0.24334000  1.0
  H  H50  1  0.77433000  0.91122000  0.22679000  1.0
  H  H51  1  0.85020000  0.98018000  0.26567000  1.0
  H  H52  1  0.04990000  0.32398000  0.12232000  1.0
  H  H53  1  0.08974000  0.45937000  0.10253000  1.0
  H  H54  1  0.81022000  0.51956000  0.11955000  1.0
  H  H55  1  0.77172000  0.38357000  0.13648000  1.0
  H  H56  1  0.85491000  0.61372000  0.04156000  1.0
  H  H57  1  0.89616000  0.75048000  0.03947000  1.0
  H  H58  1  0.13580000  0.71023000  0.15294000  1.0
  H  H59  1  0.10447000  0.57244000  0.16195000  1.0
  H  H60  1  0.73243000  0.10914000  0.97985000  1.0
  H  H61  1  0.76312000  0.24770000  0.00802000  1.0
  H  H62  1  0.72782000  0.22983000  0.91242000  1.0
  H  H63  1  0.65123000  0.26916000  0.97935000  1.0
  H  H64  1  0.44729000  0.12277000  0.32479000  1.0
  H  H65  1  0.40827000  0.10196000  0.45987000  1.0
  H  H66  1  0.68835000  0.11914000  0.52146000  1.0
  H  H67  1  0.72610000  0.13678000  0.38568000  1.0
  H  H68  1  0.64347000  0.04045000  0.61505000  1.0
  H  H69  1  0.60320000  0.03832000  0.75166000  1.0
  H  H70  1  0.36473000  0.15170000  0.71048000  1.0
  H  H71  1  0.39509000  0.16077000  0.57282000  1.0
  H  H72  1  0.73460000  0.88862000  0.02453000  1.0
  H  H73  1  0.76085000  0.74970000  0.99370000  1.0
  H  H74  1  0.72842000  0.76731000  0.08947000  1.0
  H  H75  1  0.64914000  0.73027000  0.02204000  1.0
  H  H76  1  0.44746000  0.87627000  0.67375000  1.0
  H  H77  1  0.40808000  0.89604000  0.53780000  1.0
  H  H78  1  0.68823000  0.87993000  0.48145000  1.0
  H  H79  1  0.72632000  0.86352000  0.61794000  1.0
  H  H80  1  0.64291000  0.95829000  0.38738000  1.0
  H  H81  1  0.60348000  0.95999000  0.24993000  1.0
  H  H82  1  0.36564000  0.84523000  0.28594000  1.0
  H  H83  1  0.39536000  0.83640000  0.42406000  1.0
  H  H84  1  0.26899000  0.97607000  0.89026000  1.0
  H  H85  1  0.23870000  0.00645000  0.75153000  1.0
  H  H86  1  0.27327000  0.91079000  0.76883000  1.0
  H  H87  1  0.35045000  0.97846000  0.73122000  1.0
  H  H88  1  0.55225000  0.32480000  0.87718000  1.0
  H  H89  1  0.59148000  0.46034000  0.89776000  1.0
  H  H90  1  0.31106000  0.51907000  0.88101000  1.0
  H  H91  1  0.27319000  0.38286000  0.86400000  1.0
  H  H92  1  0.35695000  0.61391000  0.95828000  1.0
  H  H93  1  0.39790000  0.75080000  0.96025000  1.0
  H  H94  1  0.63590000  0.71055000  0.84878000  1.0
  H  H95  1  0.60455000  0.57275000  0.83960000  1.0
  H  H96  1  0.26818000  0.02306000  0.10528000  1.0
  H  H97  1  0.23780000  0.99373000  0.24332000  1.0
  H  H98  1  0.27436000  0.08877000  0.22677000  1.0
  H  H99  1  0.35024000  0.01983000  0.26562000  1.0
  H  H100  1  0.54992000  0.67603000  0.12228000  1.0
  H  H101  1  0.58974000  0.54062000  0.10251000  1.0
  H  H102  1  0.31021000  0.48045000  0.11958000  1.0
  H  H103  1  0.27174000  0.61645000  0.13649000  1.0
  H  H104  1  0.35489000  0.38630000  0.04157000  1.0
  H  H105  1  0.39610000  0.24952000  0.03950000  1.0
  H  H106  1  0.63577000  0.28977000  0.15293000  1.0
  H  H107  1  0.60447000  0.42757000  0.16194000  1.0
  C  C108  1  0.09356000  0.87188000  0.95070000  1.0
  C  C109  1  0.17851000  0.85080000  0.99440000  1.0
  C  C110  1  0.20703000  0.77064000  0.97179000  1.0
  C  C111  1  0.11157000  0.85678000  0.26588000  1.0
  C  C112  1  0.08890000  0.86837000  0.34710000  1.0
  C  C113  1  0.99930000  0.87806000  0.36861000  1.0
  C  C114  1  0.97805000  0.88913000  0.44420000  1.0
  C  C115  1  0.04545000  0.89045000  0.50063000  1.0
  C  C116  1  0.13527000  0.88162000  0.47842000  1.0
  C  C117  1  0.15666000  0.87079000  0.40283000  1.0
  C  C118  1  0.02307000  0.89801000  0.58118000  1.0
  C  C119  1  0.08154000  0.93285000  0.63348000  1.0
  C  C120  1  0.05948000  0.93534000  0.70949000  1.0
  C  C121  1  0.92573000  0.87222000  0.68680000  1.0
  C  C122  1  0.94276000  0.86825000  0.60997000  1.0
  C  C123  1  0.09486000  0.12832000  0.05016000  1.0
  C  C124  1  0.17966000  0.15010000  0.00811000  1.0
  C  C125  1  0.20620000  0.23110000  0.03011000  1.0
  C  C126  1  0.11205000  0.14312000  0.73576000  1.0
  C  C127  1  0.08913000  0.13196000  0.65409000  1.0
  C  C128  1  0.99946000  0.12287000  0.63093000  1.0
  C  C129  1  0.97800000  0.11241000  0.55489000  1.0
  C  C130  1  0.04535000  0.11116000  0.49967000  1.0
  C  C131  1  0.13527000  0.11932000  0.52359000  1.0
  C  C132  1  0.15685000  0.12947000  0.59961000  1.0
  C  C133  1  0.02300000  0.10398000  0.41867000  1.0
  C  C134  1  0.08138000  0.06877000  0.36764000  1.0
  C  C135  1  0.05969000  0.06645000  0.29118000  1.0
  C  C136  1  0.92641000  0.13033000  0.31094000  1.0
  C  C137  1  0.94310000  0.13424000  0.38816000  1.0
  C  C138  1  0.90808000  0.05036000  0.87197000  1.0
  C  C139  1  0.82271000  0.00772000  0.85096000  1.0
  C  C140  1  0.79443000  0.02972000  0.77023000  1.0
  C  C141  1  0.88785000  0.73588000  0.85730000  1.0
  C  C142  1  0.91049000  0.65436000  0.86870000  1.0
  C  C143  1  0.00019000  0.63195000  0.87810000  1.0
  C  C144  1  0.02154000  0.55612000  0.88896000  1.0
  C  C145  1  0.95413000  0.50031000  0.89019000  1.0
  C  C146  1  0.86418000  0.52345000  0.88169000  1.0
  C  C147  1  0.84268000  0.59932000  0.87122000  1.0
  C  C148  1  0.97680000  0.41955000  0.89748000  1.0
  C  C149  1  0.91880000  0.36746000  0.93183000  1.0
  C  C150  1  0.94130000  0.29130000  0.93428000  1.0
  C  C151  1  0.07471000  0.31345000  0.87217000  1.0
  C  C152  1  0.05715000  0.39039000  0.86816000  1.0
  C  C153  1  0.90754000  0.95097000  0.12568000  1.0
  C  C154  1  0.82206000  0.99336000  0.14541000  1.0
  C  C155  1  0.79434000  0.97098000  0.22567000  1.0
  C  C156  1  0.88598000  0.26421000  0.14272000  1.0
  C  C157  1  0.90865000  0.34565000  0.13129000  1.0
  C  C158  1  0.99824000  0.36762000  0.12174000  1.0
  C  C159  1  0.01992000  0.44336000  0.11125000  1.0
  C  C160  1  0.95289000  0.49951000  0.11023000  1.0
  C  C161  1  0.86301000  0.47679000  0.11868000  1.0
  C  C162  1  0.84118000  0.40103000  0.12906000  1.0
  C  C163  1  0.97576000  0.58023000  0.10310000  1.0
  C  C164  1  0.91726000  0.63237000  0.06834000  1.0
  C  C165  1  0.93986000  0.70849000  0.06588000  1.0
  C  C166  1  0.07422000  0.68633000  0.12902000  1.0
  C  C167  1  0.05664000  0.60938000  0.13294000  1.0
  C  C168  1  0.59355000  0.12814000  0.95069000  1.0
  C  C169  1  0.67849000  0.14922000  0.99440000  1.0
  C  C170  1  0.70702000  0.22937000  0.97179000  1.0
  C  C171  1  0.61159000  0.14320000  0.26586000  1.0
  C  C172  1  0.58893000  0.13159000  0.34709000  1.0
  C  C173  1  0.49934000  0.12191000  0.36859000  1.0
  C  C174  1  0.47807000  0.11086000  0.44417000  1.0
  C  C175  1  0.54547000  0.10954000  0.50060000  1.0
  C  C176  1  0.63530000  0.11836000  0.47839000  1.0
  C  C177  1  0.65670000  0.12917000  0.40280000  1.0
  C  C178  1  0.52309000  0.10198000  0.58115000  1.0
  C  C179  1  0.58156000  0.06715000  0.63344000  1.0
  C  C180  1  0.55950000  0.06465000  0.70945000  1.0
  C  C181  1  0.42573000  0.12775000  0.68676000  1.0
  C  C182  1  0.44277000  0.13172000  0.60994000  1.0
  C  C183  1  0.59493000  0.87169000  0.05015000  1.0
  C  C184  1  0.67968000  0.84986000  0.00808000  1.0
  C  C185  1  0.70621000  0.76885000  0.03009000  1.0
  C  C186  1  0.61200000  0.85688000  0.73571000  1.0
  C  C187  1  0.58908000  0.86802000  0.65404000  1.0
  C  C188  1  0.49941000  0.87709000  0.63087000  1.0
  C  C189  1  0.47796000  0.88754000  0.55483000  1.0
  C  C190  1  0.54531000  0.88880000  0.49962000  1.0
  C  C191  1  0.63522000  0.88065000  0.52354000  1.0
  C  C192  1  0.65681000  0.87050000  0.59956000  1.0
  C  C193  1  0.52297000  0.89597000  0.41862000  1.0
  C  C194  1  0.58137000  0.93117000  0.36759000  1.0
  C  C195  1  0.55969000  0.93349000  0.29113000  1.0
  C  C196  1  0.42641000  0.86961000  0.31085000  1.0
  C  C197  1  0.44308000  0.86571000  0.38808000  1.0
  C  C198  1  0.40806000  0.94963000  0.87197000  1.0
  C  C199  1  0.32271000  0.99227000  0.85093000  1.0
  C  C200  1  0.29443000  0.97025000  0.77020000  1.0
  C  C201  1  0.38788000  0.26415000  0.85732000  1.0
  C  C202  1  0.41052000  0.34568000  0.86873000  1.0
  C  C203  1  0.50021000  0.36811000  0.87813000  1.0
  C  C204  1  0.52156000  0.44393000  0.88900000  1.0
  C  C205  1  0.45414000  0.49974000  0.89024000  1.0
  C  C206  1  0.36420000  0.47659000  0.88172000  1.0
  C  C207  1  0.34272000  0.40071000  0.87124000  1.0
  C  C208  1  0.47680000  0.58051000  0.89752000  1.0
  C  C209  1  0.41878000  0.63261000  0.93185000  1.0
  C  C210  1  0.44126000  0.70877000  0.93429000  1.0
  C  C211  1  0.57469000  0.68662000  0.87221000  1.0
  C  C212  1  0.55715000  0.60968000  0.86822000  1.0
  C  C213  1  0.40756000  0.04902000  0.12565000  1.0
  C  C214  1  0.32208000  0.00663000  0.14537000  1.0
  C  C215  1  0.29437000  0.02901000  0.22564000  1.0
  C  C216  1  0.38600000  0.73581000  0.14267000  1.0
  C  C217  1  0.40866000  0.65437000  0.13127000  1.0
  C  C218  1  0.49825000  0.63240000  0.12172000  1.0
  C  C219  1  0.51993000  0.55665000  0.11124000  1.0
  C  C220  1  0.45289000  0.50050000  0.11023000  1.0
  C  C221  1  0.36300000  0.52323000  0.11869000  1.0
  C  C222  1  0.34119000  0.59900000  0.12907000  1.0
  C  C223  1  0.47576000  0.41977000  0.10310000  1.0
  C  C224  1  0.41724000  0.36764000  0.06834000  1.0
  C  C225  1  0.43982000  0.29151000  0.06590000  1.0
  C  C226  1  0.57420000  0.31368000  0.12903000  1.0
  C  C227  1  0.55663000  0.39063000  0.13294000  1.0
  N  N228  1  0.98340000  0.90480000  0.73645000  1.0
  N  N229  1  0.98396000  0.09740000  0.26250000  1.0
  N  N230  1  0.01746000  0.26401000  0.90425000  1.0
  N  N231  1  0.01652000  0.73579000  0.09642000  1.0
  N  N232  1  0.48341000  0.09519000  0.73641000  1.0
  N  N233  1  0.48398000  0.90254000  0.26242000  1.0
  N  N234  1  0.51741000  0.73606000  0.90427000  1.0
  N  N235  1  0.51648000  0.26423000  0.09643000  1.0
  O  O236  1  0.09870000  0.88726000  0.88047000  1.0
  O  O237  1  0.01931000  0.87049000  0.98549000  1.0
  O  O238  1  0.15963000  0.85650000  0.07291000  1.0
  O  O239  1  0.19570000  0.85503000  0.24998000  1.0
  O  O240  1  0.04754000  0.84987000  0.21861000  1.0
  O  O241  1  0.09970000  0.11355000  0.12069000  1.0
  O  O242  1  0.02089000  0.12866000  0.01364000  1.0
  O  O243  1  0.16133000  0.14286000  0.92929000  1.0
  O  O244  1  0.19614000  0.14335000  0.75313000  1.0
  O  O245  1  0.04820000  0.15120000  0.78184000  1.0
  O  O246  1  0.90339000  0.12084000  0.88660000  1.0
  O  O247  1  0.98212000  0.01457000  0.87115000  1.0
  O  O248  1  0.84078000  0.92898000  0.85798000  1.0
  O  O249  1  0.80389000  0.75288000  0.85754000  1.0
  O  O250  1  0.95187000  0.78219000  0.84858000  1.0
  O  O251  1  0.90319000  0.88050000  0.11085000  1.0
  O  O252  1  0.98143000  0.98705000  0.12778000  1.0
  O  O253  1  0.83959000  0.07211000  0.13863000  1.0
  O  O254  1  0.80219000  0.24756000  0.14681000  1.0
  O  O255  1  0.95037000  0.21742000  0.14721000  1.0
  O  O256  1  0.59870000  0.11276000  0.88046000  1.0
  O  O257  1  0.51929000  0.12952000  0.98546000  1.0
  O  O258  1  0.65961000  0.14353000  0.07290000  1.0
  O  O259  1  0.69571000  0.14495000  0.24997000  1.0
  O  O260  1  0.54755000  0.15012000  0.21860000  1.0
  O  O261  1  0.59979000  0.88646000  0.12068000  1.0
  O  O262  1  0.52095000  0.87142000  0.01364000  1.0
  O  O263  1  0.66133000  0.85708000  0.92927000  1.0
  O  O264  1  0.69609000  0.85662000  0.75307000  1.0
  O  O265  1  0.54815000  0.84884000  0.78181000  1.0
  O  O266  1  0.40336000  0.87916000  0.88660000  1.0
  O  O267  1  0.48212000  0.98541000  0.87115000  1.0
  O  O268  1  0.34080000  0.07102000  0.85792000  1.0
  O  O269  1  0.30392000  0.24715000  0.85758000  1.0
  O  O270  1  0.45189000  0.21784000  0.84857000  1.0
  O  O271  1  0.40317000  0.11949000  0.11085000  1.0
  O  O272  1  0.48144000  0.01295000  0.12774000  1.0
  O  O273  1  0.33961000  0.92788000  0.13856000  1.0
  O  O274  1  0.30224000  0.75247000  0.14684000  1.0
  O  O275  1  0.45040000  0.78259000  0.14705000  1.0
