# generated using pymatgen
data_CdH9C7NO7
_symmetry_space_group_name_H-M   'P 1'
_cell_length_a   6.80263000
_cell_length_b   8.65312000
_cell_length_c   16.85830000
_cell_angle_alpha   89.99990000
_cell_angle_beta   90.00000000
_cell_angle_gamma   90.00000000
_symmetry_Int_Tables_number   1
_chemical_formula_structural   CdH9C7NO7
_chemical_formula_sum   'Cd4 H36 C28 N4 O28'
_cell_volume   992.34652792
_cell_formula_units_Z   4
loop_
 _symmetry_equiv_pos_site_id
 _symmetry_equiv_pos_as_xyz
  1  'x, y, z'
loop_
 _atom_site_type_symbol
 _atom_site_label
 _atom_site_symmetry_multiplicity
 _atom_site_fract_x
 _atom_site_fract_y
 _atom_site_fract_z
 _atom_site_occupancy
  Cd  Cd0  1  0.06710000  0.38764000  0.10190000  1.0
  Cd  Cd1  1  0.93290000  0.88764000  0.89810000  1.0
  Cd  Cd2  1  0.06710000  0.88764000  0.39810000  1.0
  Cd  Cd3  1  0.93290000  0.38764000  0.60190000  1.0
  H  H4  1  0.61186000  0.72413000  0.33899000  1.0
  H  H5  1  0.38814000  0.22413000  0.66101000  1.0
  H  H6  1  0.61187000  0.22413000  0.16101000  1.0
  H  H7  1  0.38813000  0.72413000  0.83899000  1.0
  H  H8  1  0.68347000  0.74617000  0.19463000  1.0
  H  H9  1  0.31652000  0.24617000  0.80537000  1.0
  H  H10  1  0.68348000  0.24617000  0.30537000  1.0
  H  H11  1  0.31652000  0.74617000  0.69463000  1.0
  H  H12  1  0.47048000  0.60227000  0.09779000  1.0
  H  H13  1  0.52952000  0.10227000  0.90221000  1.0
  H  H14  1  0.47049000  0.10227000  0.40221000  1.0
  H  H15  1  0.52951000  0.60227000  0.59779000  1.0
  H  H16  1  0.79403000  0.17578000  0.03226000  1.0
  H  H17  1  0.20597000  0.67578000  0.96774000  1.0
  H  H18  1  0.79403000  0.67578000  0.46774000  1.0
  H  H19  1  0.20597000  0.17578000  0.53226000  1.0
  H  H20  1  0.71154000  0.34770000  0.01101000  1.0
  H  H21  1  0.28846000  0.84770000  0.98899000  1.0
  H  H22  1  0.71154000  0.84770000  0.48899000  1.0
  H  H23  1  0.28846000  0.34770000  0.51101000  1.0
  H  H24  1  0.84447000  0.63209000  0.03614000  1.0
  H  H25  1  0.15553000  0.13209000  0.96386000  1.0
  H  H26  1  0.84447000  0.13209000  0.46386000  1.0
  H  H27  1  0.15553000  0.63209000  0.53614000  1.0
  H  H28  1  0.95033000  0.70822000  0.11203000  1.0
  H  H29  1  0.04967000  0.20822000  0.88797000  1.0
  H  H30  1  0.95033000  0.20822000  0.38797000  1.0
  H  H31  1  0.04967000  0.70822000  0.61203000  1.0
  H  H32  1  0.11657000  0.44660000  0.93017000  1.0
  H  H33  1  0.88342000  0.94660000  0.06983000  1.0
  H  H34  1  0.11658000  0.94660000  0.56983000  1.0
  H  H35  1  0.88343000  0.44660000  0.43017000  1.0
  H  H36  1  0.33993000  0.45175000  0.96105000  1.0
  H  H37  1  0.66007000  0.95175000  0.03895000  1.0
  H  H38  1  0.33993000  0.95175000  0.53895000  1.0
  H  H39  1  0.66007000  0.45175000  0.46105000  1.0
  C  C40  1  0.24970000  0.49594000  0.26321000  1.0
  C  C41  1  0.75030000  0.99593000  0.73679000  1.0
  C  C42  1  0.24970000  0.99594000  0.23679000  1.0
  C  C43  1  0.75030000  0.49594000  0.76321000  1.0
  C  C44  1  0.07774000  0.39339000  0.28554000  1.0
  C  C45  1  0.92226000  0.89340000  0.71446000  1.0
  C  C46  1  0.07774000  0.89340000  0.21446000  1.0
  C  C47  1  0.92226000  0.39340000  0.78554000  1.0
  C  C48  1  0.36334000  0.57149000  0.32065000  1.0
  C  C49  1  0.63666000  0.07149000  0.67935000  1.0
  C  C50  1  0.36335000  0.07149000  0.17935000  1.0
  C  C51  1  0.63665000  0.57149000  0.82065000  1.0
  C  C52  1  0.32576000  0.55708000  0.40821000  1.0
  C  C53  1  0.67424000  0.05708000  0.59179000  1.0
  C  C54  1  0.32577000  0.05707000  0.09179000  1.0
  C  C55  1  0.67423000  0.55707000  0.90821000  1.0
  C  C56  1  0.52074000  0.66383000  0.29554000  1.0
  C  C57  1  0.47926000  0.16383000  0.70446000  1.0
  C  C58  1  0.52074000  0.16383000  0.20446000  1.0
  C  C59  1  0.47926000  0.66383000  0.79554000  1.0
  C  C60  1  0.56020000  0.67710000  0.21502000  1.0
  C  C61  1  0.43979000  0.17710000  0.78498000  1.0
  C  C62  1  0.56021000  0.17711000  0.28498000  1.0
  C  C63  1  0.43979000  0.67710000  0.71502000  1.0
  C  C64  1  0.44225000  0.59704000  0.16136000  1.0
  C  C65  1  0.55775000  0.09704000  0.83864000  1.0
  C  C66  1  0.44225000  0.09704000  0.33864000  1.0
  C  C67  1  0.55775000  0.59704000  0.66136000  1.0
  N  N68  1  0.29097000  0.50958000  0.18525000  1.0
  N  N69  1  0.70903000  0.00958000  0.81475000  1.0
  N  N70  1  0.29097000  0.00959000  0.31475000  1.0
  N  N71  1  0.70903000  0.50959000  0.68525000  1.0
  O  O72  1  0.04187000  0.38109000  0.35954000  1.0
  O  O73  1  0.95812000  0.88108000  0.64046000  1.0
  O  O74  1  0.04188000  0.88109000  0.14046000  1.0
  O  O75  1  0.95812000  0.38109000  0.85954000  1.0
  O  O76  1  0.98423000  0.32387000  0.23140000  1.0
  O  O77  1  0.01577000  0.82387000  0.76861000  1.0
  O  O78  1  0.98424000  0.82387000  0.26861000  1.0
  O  O79  1  0.01577000  0.32387000  0.73139000  1.0
  O  O80  1  0.21718000  0.65885000  0.44113000  1.0
  O  O81  1  0.78282000  0.15885000  0.55887000  1.0
  O  O82  1  0.21718000  0.15885000  0.05887000  1.0
  O  O83  1  0.78282000  0.65885000  0.94113000  1.0
  O  O84  1  0.41576000  0.45138000  0.44577000  1.0
  O  O85  1  0.58424000  0.95138000  0.55423000  1.0
  O  O86  1  0.41576000  0.95138000  0.05423000  1.0
  O  O87  1  0.58424000  0.45138000  0.94577000  1.0
  O  O88  1  0.78498000  0.28471000  0.05096000  1.0
  O  O89  1  0.21502000  0.78471000  0.94904000  1.0
  O  O90  1  0.78498000  0.78472000  0.44904000  1.0
  O  O91  1  0.21502000  0.28472000  0.55096000  1.0
  O  O92  1  0.88775000  0.61155000  0.09181000  1.0
  O  O93  1  0.11225000  0.11155000  0.90819000  1.0
  O  O94  1  0.88775000  0.11155000  0.40819000  1.0
  O  O95  1  0.11225000  0.61155000  0.59181000  1.0
  O  O96  1  0.20141000  0.47774000  0.97565000  1.0
  O  O97  1  0.79859000  0.97774000  0.02435000  1.0
  O  O98  1  0.20141000  0.97774000  0.52435000  1.0
  O  O99  1  0.79859000  0.47775000  0.47565000  1.0
