# generated using pymatgen
data_GdH3(C3O2)3
_symmetry_space_group_name_H-M   'P 1'
_cell_length_a   10.39590000
_cell_length_b   10.39560000
_cell_length_c   13.98580000
_cell_angle_alpha   90.00030000
_cell_angle_beta   90.00010000
_cell_angle_gamma   89.99990000
_symmetry_Int_Tables_number   1
_chemical_formula_structural   GdH3(C3O2)3
_chemical_formula_sum   'Gd4 H12 C36 O24'
_cell_volume   1511.46803556
_cell_formula_units_Z   4
loop_
 _symmetry_equiv_pos_site_id
 _symmetry_equiv_pos_as_xyz
  1  'x, y, z'
loop_
 _atom_site_type_symbol
 _atom_site_label
 _atom_site_symmetry_multiplicity
 _atom_site_fract_x
 _atom_site_fract_y
 _atom_site_fract_z
 _atom_site_occupancy
  Gd  Gd0  1  0.12208000  0.87791000  0.62499000  1.0
  Gd  Gd1  1  0.87791000  0.12209000  0.12499000  1.0
  Gd  Gd2  1  0.12208000  0.12209000  0.37501000  1.0
  Gd  Gd3  1  0.87792000  0.87792000  0.87501000  1.0
  H  H4  1  0.52787000  0.93032000  0.64521000  1.0
  H  H5  1  0.47213000  0.06968000  0.14520000  1.0
  H  H6  1  0.06970000  0.52787000  0.39520000  1.0
  H  H7  1  0.93030000  0.47214000  0.89520000  1.0
  H  H8  1  0.52787000  0.06967000  0.35480000  1.0
  H  H9  1  0.47213000  0.93033000  0.85480000  1.0
  H  H10  1  0.06970000  0.47213000  0.60480000  1.0
  H  H11  1  0.93031000  0.52786000  0.10480000  1.0
  H  H12  1  0.88649000  1.00000000  0.50000000  1.0
  H  H13  1  0.11351000  0.00000000  1.00000000  1.0
  H  H14  1  0.00000000  0.88649000  0.25000000  1.0
  H  H15  1  0.00000000  0.11351000  0.75000000  1.0
  C  C16  1  0.37021000  0.99999000  0.50000000  1.0
  C  C17  1  0.62979000  0.00001000  1.00000000  1.0
  C  C18  1  0.00000000  0.37020000  0.25000000  1.0
  C  C19  1  0.00000000  0.62980000  0.75000000  1.0
  C  C20  1  0.78904000  0.92818000  0.67005000  1.0
  C  C21  1  0.21096000  0.07182000  0.17005000  1.0
  C  C22  1  0.07183000  0.78903000  0.42005000  1.0
  C  C23  1  0.92817000  0.21098000  0.92005000  1.0
  C  C24  1  0.78904000  0.07182000  0.32995000  1.0
  C  C25  1  0.21096000  0.92819000  0.82995000  1.0
  C  C26  1  0.07183000  0.21097000  0.57995000  1.0
  C  C27  1  0.92817000  0.78903000  0.07995000  1.0
  C  C28  1  0.51407000  0.99999000  0.50000000  1.0
  C  C29  1  0.48593000  0.00000000  1.00000000  1.0
  C  C30  1  0.00000000  0.51406000  0.25000000  1.0
  C  C31  1  0.00000000  0.48594000  0.75000000  1.0
  C  C32  1  0.58084000  0.96084000  0.58187000  1.0
  C  C33  1  0.41916000  0.03916000  0.08187000  1.0
  C  C34  1  0.03917000  0.58084000  0.33187000  1.0
  C  C35  1  0.96083000  0.41916000  0.83187000  1.0
  C  C36  1  0.58084000  0.03915000  0.41813000  1.0
  C  C37  1  0.41916000  0.96085000  0.91813000  1.0
  C  C38  1  0.03917000  0.41916000  0.66814000  1.0
  C  C39  1  0.96083000  0.58084000  0.16813000  1.0
  C  C40  1  0.71549000  0.96275000  0.58234000  1.0
  C  C41  1  0.28451000  0.03725000  0.08234000  1.0
  C  C42  1  0.03726000  0.71548000  0.33234000  1.0
  C  C43  1  0.96274000  0.28452000  0.83234000  1.0
  C  C44  1  0.71549000  0.03725000  0.41766000  1.0
  C  C45  1  0.28451000  0.96275000  0.91766000  1.0
  C  C46  1  0.03726000  0.28452000  0.66766000  1.0
  C  C47  1  0.96274000  0.71548000  0.16766000  1.0
  C  C48  1  0.78192000  0.00000000  0.50000000  1.0
  C  C49  1  0.21808000  1.00000000  0.00000000  1.0
  C  C50  1  0.00000000  0.78193000  0.25000000  1.0
  C  C51  1  0.00000000  0.21807000  0.75000000  1.0
  O  O52  1  0.31402000  0.91475000  0.55016000  1.0
  O  O53  1  0.68598000  0.08524000  0.05016000  1.0
  O  O54  1  0.08525000  0.31401000  0.30016000  1.0
  O  O55  1  0.91476000  0.68599000  0.80016000  1.0
  O  O56  1  0.31402000  0.08523000  0.44984000  1.0
  O  O57  1  0.68598000  0.91476000  0.94984000  1.0
  O  O58  1  0.08525000  0.68599000  0.69984000  1.0
  O  O59  1  0.91476000  0.31401000  0.19984000  1.0
  O  O60  1  0.73073000  0.91831000  0.74963000  1.0
  O  O61  1  0.26927000  0.08168000  0.24963000  1.0
  O  O62  1  0.08172000  0.73069000  0.49963000  1.0
  O  O63  1  0.91828000  0.26931000  0.99963000  1.0
  O  O64  1  0.73073000  0.08169000  0.25037000  1.0
  O  O65  1  0.26927000  0.91832000  0.75037000  1.0
  O  O66  1  0.08172000  0.26931000  0.50038000  1.0
  O  O67  1  0.91828000  0.73069000  0.00037000  1.0
  O  O68  1  0.91109000  0.91193000  0.66392000  1.0
  O  O69  1  0.08891000  0.08807000  0.16391000  1.0
  O  O70  1  0.08806000  0.91107000  0.41394000  1.0
  O  O71  1  0.91194000  0.08893000  0.91394000  1.0
  O  O72  1  0.91109000  0.08807000  0.33609000  1.0
  O  O73  1  0.08891000  0.91193000  0.83608000  1.0
  O  O74  1  0.08806000  0.08893000  0.58606000  1.0
  O  O75  1  0.91193000  0.91107000  0.08606000  1.0
