# generated using pymatgen
data_CdH30C27(N4O3)2
_symmetry_space_group_name_H-M   'P 1'
_cell_length_a   9.22350000
_cell_length_b   11.56350000
_cell_length_c   14.34700000
_cell_angle_alpha   79.58100000
_cell_angle_beta   80.79200000
_cell_angle_gamma   78.03170000
_symmetry_Int_Tables_number   1
_chemical_formula_structural   CdH30C27(N4O3)2
_chemical_formula_sum   'Cd2 H60 C54 N16 O12'
_cell_volume   1460.26294806
_cell_formula_units_Z   2
loop_
 _symmetry_equiv_pos_site_id
 _symmetry_equiv_pos_as_xyz
  1  'x, y, z'
loop_
 _atom_site_type_symbol
 _atom_site_label
 _atom_site_symmetry_multiplicity
 _atom_site_fract_x
 _atom_site_fract_y
 _atom_site_fract_z
 _atom_site_occupancy
  Cd  Cd0  1  0.51893000  0.71257000  0.74749000  1.0
  Cd  Cd1  1  0.48107000  0.28743000  0.25251000  1.0
  H  H2  1  0.26944000  0.56909000  0.74230000  1.0
  H  H3  1  0.73056000  0.43092000  0.25770000  1.0
  H  H4  1  0.93656000  0.76794000  0.56563000  1.0
  H  H5  1  0.06344000  0.23206000  0.43436000  1.0
  H  H6  1  0.08410000  0.93522000  0.53046000  1.0
  H  H7  1  0.91589000  0.06478000  0.46954000  1.0
  H  H8  1  0.31527000  0.91106000  0.60603000  1.0
  H  H9  1  0.68473000  0.08894000  0.39397000  1.0
  H  H10  1  0.90831000  0.56204000  0.65612000  1.0
  H  H11  1  0.09169000  0.43796000  0.34388000  1.0
  H  H12  1  0.91293000  0.36688000  0.69585000  1.0
  H  H13  1  0.08707000  0.63312000  0.30416000  1.0
  H  H14  1  0.23528000  0.23239000  0.65801000  1.0
  H  H15  1  0.76472000  0.76761000  0.34199000  1.0
  H  H16  1  0.11642000  0.29690000  0.56994000  1.0
  H  H17  1  0.88357000  0.70310000  0.43006000  1.0
  H  H18  1  0.96630000  0.34383000  0.86276000  1.0
  H  H19  1  0.03371000  0.65617000  0.13724000  1.0
  H  H20  1  0.14810000  0.26237000  0.83179000  1.0
  H  H21  1  0.85191000  0.73763000  0.16821000  1.0
  H  H22  1  0.93568000  0.16127000  0.64374000  1.0
  H  H23  1  0.06432000  0.83873000  0.35626000  1.0
  H  H24  1  0.11618000  0.07876000  0.61335000  1.0
  H  H25  1  0.88381000  0.92124000  0.38665000  1.0
  H  H26  1  0.16365000  0.04554000  0.78270000  1.0
  H  H27  1  0.83634000  0.95446000  0.21730000  1.0
  H  H28  1  0.97213000  0.12310000  0.90802000  1.0
  H  H29  1  0.02788000  0.87691000  0.09198000  1.0
  H  H30  1  0.84733000  0.18915000  0.82460000  1.0
  H  H31  1  0.15267000  0.81085000  0.17540000  1.0
  H  H32  1  0.11102000  0.87068000  0.87078000  1.0
  H  H33  1  0.88898000  0.12932000  0.12922000  1.0
  H  H34  1  0.03916000  0.69149000  0.97641000  1.0
  H  H35  1  0.96084000  0.30851000  0.02359000  1.0
  H  H36  1  0.87018000  0.53804000  0.01804000  1.0
  H  H37  1  0.12981000  0.46196000  0.98196000  1.0
  H  H38  1  0.67044000  0.55044000  0.91838000  1.0
  H  H39  1  0.32956000  0.44956000  0.08162000  1.0
  H  H40  1  0.77771000  0.86245000  0.75009000  1.0
  H  H41  1  0.22229000  0.13755000  0.24991000  1.0
  H  H42  1  0.53272000  0.42020000  0.81790000  1.0
  H  H43  1  0.46728000  0.57980000  0.18210000  1.0
  H  H44  1  0.64402000  0.24116000  0.57040000  1.0
  H  H45  1  0.35598000  0.75884000  0.42960000  1.0
  H  H46  1  0.69301000  0.43777000  0.47245000  1.0
  H  H47  1  0.30699000  0.56223000  0.52755000  1.0
  H  H48  1  0.65451000  0.61633000  0.55419000  1.0
  H  H49  1  0.34548000  0.38367000  0.44581000  1.0
  H  H50  1  0.56783000  0.12656000  0.72132000  1.0
  H  H51  1  0.43217000  0.87344000  0.27867000  1.0
  H  H52  1  0.49555000  0.01507000  0.85706000  1.0
  H  H53  1  0.50446000  0.98493000  0.14293000  1.0
  H  H54  1  0.26722000  0.12539000  0.94365000  1.0
  H  H55  1  0.73279000  0.87461000  0.05634000  1.0
  H  H56  1  0.37834000  0.16053000  0.02055000  1.0
  H  H57  1  0.62166000  0.83947000  0.97945000  1.0
  H  H58  1  0.66395000  0.09271000  0.99577000  1.0
  H  H59  1  0.33606000  0.90729000  0.00423000  1.0
  H  H60  1  0.74358000  0.01276000  0.90007000  1.0
  H  H61  1  0.25642000  0.98724000  0.09993000  1.0
  C  C62  1  0.22559000  0.64926000  0.69494000  1.0
  C  C63  1  0.77441000  0.35074000  0.30506000  1.0
  C  C64  1  0.09557000  0.65410000  0.65452000  1.0
  C  C65  1  0.90444000  0.34590000  0.34547000  1.0
  C  C66  1  0.04003000  0.75971000  0.59615000  1.0
  C  C67  1  0.95997000  0.24029000  0.40385000  1.0
  C  C68  1  0.11977000  0.85290000  0.57766000  1.0
  C  C69  1  0.88023000  0.14710000  0.42234000  1.0
  C  C70  1  0.24988000  0.84011000  0.61906000  1.0
  C  C71  1  0.75012000  0.15989000  0.38093000  1.0
  C  C72  1  0.02550000  0.54806000  0.67056000  1.0
  C  C73  1  0.97450000  0.45194000  0.32944000  1.0
  C  C74  1  0.03055000  0.34151000  0.71148000  1.0
  C  C75  1  0.96945000  0.65849000  0.28852000  1.0
  C  C76  1  0.11743000  0.25382000  0.64485000  1.0
  C  C77  1  0.88257000  0.74618000  0.35515000  1.0
  C  C78  1  0.03177000  0.28120000  0.81578000  1.0
  C  C79  1  0.96824000  0.71880000  0.18422000  1.0
  C  C80  1  0.05125000  0.14021000  0.66135000  1.0
  C  C81  1  0.94875000  0.85979000  0.33865000  1.0
  C  C82  1  0.04759000  0.07824000  0.76554000  1.0
  C  C83  1  0.95240000  0.92176000  0.23447000  1.0
  C  C84  1  0.96669000  0.16705000  0.83359000  1.0
  C  C85  1  0.03331000  0.83295000  0.16641000  1.0
  C  C86  1  0.00895000  0.88490000  0.83576000  1.0
  C  C87  1  0.99105000  0.11510000  0.16424000  1.0
  C  C88  1  0.92107000  0.78840000  0.85912000  1.0
  C  C89  1  0.07893000  0.21160000  0.14088000  1.0
  C  C90  1  0.94833000  0.69513000  0.93498000  1.0
  C  C91  1  0.05166000  0.30487000  0.06502000  1.0
  C  C92  1  0.85668000  0.60959000  0.95766000  1.0
  C  C93  1  0.14332000  0.39041000  0.04235000  1.0
  C  C94  1  0.74325000  0.61648000  0.90266000  1.0
  C  C95  1  0.25675000  0.38352000  0.09734000  1.0
  C  C96  1  0.80304000  0.78969000  0.80821000  1.0
  C  C97  1  0.19696000  0.21031000  0.19179000  1.0
  C  C98  1  0.56805000  0.42144000  0.74150000  1.0
  C  C99  1  0.43195000  0.57856000  0.25850000  1.0
  C  C100  1  0.58503000  0.31618000  0.70161000  1.0
  C  C101  1  0.41497000  0.68382000  0.29839000  1.0
  C  C102  1  0.63045000  0.32155000  0.60321000  1.0
  C  C103  1  0.36955000  0.67846000  0.39679000  1.0
  C  C104  1  0.65767000  0.42955000  0.54904000  1.0
  C  C105  1  0.34233000  0.57046000  0.45096000  1.0
  C  C106  1  0.63699000  0.52960000  0.59407000  1.0
  C  C107  1  0.36301000  0.47041000  0.40593000  1.0
  C  C108  1  0.55694000  0.20283000  0.76034000  1.0
  C  C109  1  0.44306000  0.79717000  0.23966000  1.0
  C  C110  1  0.50655000  0.07752000  0.90476000  1.0
  C  C111  1  0.49345000  0.92248000  0.09524000  1.0
  C  C112  1  0.36818000  0.09161000  0.97938000  1.0
  C  C113  1  0.63183000  0.90839000  0.02062000  1.0
  C  C114  1  0.64661000  0.02597000  0.95487000  1.0
  C  C115  1  0.35339000  0.97402000  0.04513000  1.0
  N  N116  1  0.30087000  0.73996000  0.67762000  1.0
  N  N117  1  0.69913000  0.26004000  0.32238000  1.0
  N  N118  1  0.10101000  0.44491000  0.69746000  1.0
  N  N119  1  0.89899000  0.55509000  0.30254000  1.0
  N  N120  1  0.96489000  0.98090000  0.77983000  1.0
  N  N121  1  0.03511000  0.01910000  0.22017000  1.0
  N  N122  1  0.71779000  0.70533000  0.82853000  1.0
  N  N123  1  0.28221000  0.29467000  0.17147000  1.0
  N  N124  1  0.59231000  0.52571000  0.68886000  1.0
  N  N125  1  0.40769000  0.47430000  0.31114000  1.0
  N  N126  1  0.52429000  0.19396000  0.85099000  1.0
  N  N127  1  0.47571000  0.80604000  0.14901000  1.0
  N  N128  1  0.62800000  0.90511000  0.60940000  1.0
  N  N129  1  0.37200000  0.09489000  0.39060000  1.0
  N  N130  1  0.34157000  0.67764000  0.93385000  1.0
  N  N131  1  0.65843000  0.32235000  0.06615000  1.0
  O  O132  1  0.35929000  0.78085000  0.88750000  1.0
  O  O133  1  0.64070000  0.21916000  0.11250000  1.0
  O  O134  1  0.40232000  0.58520000  0.89444000  1.0
  O  O135  1  0.59768000  0.41480000  0.10556000  1.0
  O  O136  1  0.26591000  0.66838000  0.01408000  1.0
  O  O137  1  0.73410000  0.33162000  0.98592000  1.0
  O  O138  1  0.52685000  0.92673000  0.67990000  1.0
  O  O139  1  0.47317000  0.07326000  0.32011000  1.0
  O  O140  1  0.67315000  0.79554000  0.59661000  1.0
  O  O141  1  0.32685000  0.20446000  0.40338000  1.0
  O  O142  1  0.68224000  0.98722000  0.55611000  1.0
  O  O143  1  0.31776000  0.01278000  0.44390000  1.0
