# generated using pymatgen
data_CdH18C10(N2O3)2
_symmetry_space_group_name_H-M   'P 1'
_cell_length_a   5.02140000
_cell_length_b   9.89966000
_cell_length_c   13.61190000
_cell_angle_alpha   100.02600000
_cell_angle_beta   89.99960000
_cell_angle_gamma   89.99980000
_symmetry_Int_Tables_number   1
_chemical_formula_structural   CdH18C10(N2O3)2
_chemical_formula_sum   'Cd2 H36 C20 N8 O12'
_cell_volume   666.31641162
_cell_formula_units_Z   2
loop_
 _symmetry_equiv_pos_site_id
 _symmetry_equiv_pos_as_xyz
  1  'x, y, z'
loop_
 _atom_site_type_symbol
 _atom_site_label
 _atom_site_symmetry_multiplicity
 _atom_site_fract_x
 _atom_site_fract_y
 _atom_site_fract_z
 _atom_site_occupancy
  Cd  Cd0  1  0.89545000  0.24648000  0.00476000  1.0
  Cd  Cd1  1  0.39544000  0.75352000  0.99524000  1.0
  H  H2  1  0.07239000  0.76555000  0.16849000  1.0
  H  H3  1  0.57241000  0.23446000  0.83151000  1.0
  H  H4  1  0.01107000  0.62576000  0.08790000  1.0
  H  H5  1  0.51108000  0.37425000  0.91210000  1.0
  H  H6  1  0.28041000  0.11932000  0.09707000  1.0
  H  H7  1  0.78040000  0.88068000  0.90293000  1.0
  H  H8  1  0.20633000  0.25475000  0.18094000  1.0
  H  H9  1  0.70635000  0.74525000  0.81907000  1.0
  H  H10  1  0.93177000  0.24537000  0.31733000  1.0
  H  H11  1  0.43177000  0.75462000  0.68267000  1.0
  H  H12  1  0.66330000  0.24730000  0.23412000  1.0
  H  H13  1  0.16330000  0.75270000  0.76588000  1.0
  H  H14  1  0.11456000  0.13176000  0.48964000  1.0
  H  H15  1  0.61456000  0.86824000  0.51036000  1.0
  H  H16  1  0.27835000  0.98301000  0.42651000  1.0
  H  H17  1  0.77834000  0.01699000  0.57348000  1.0
  H  H18  1  0.53552000  0.00602000  0.27997000  1.0
  H  H19  1  0.03553000  0.99399000  0.72003000  1.0
  H  H20  1  0.76576000  0.04338000  0.37673000  1.0
  H  H21  1  0.26576000  0.95661000  0.62327000  1.0
  H  H22  1  0.32655000  0.44481000  0.26454000  1.0
  H  H23  1  0.82655000  0.55519000  0.73545000  1.0
  H  H24  1  0.02287000  0.46914000  0.20346000  1.0
  H  H25  1  0.52288000  0.53087000  0.79654000  1.0
  H  H26  1  0.95994000  0.69563000  0.32441000  1.0
  H  H27  1  0.45993000  0.30437000  0.67559000  1.0
  H  H28  1  0.96294000  0.54752000  0.38087000  1.0
  H  H29  1  0.46294000  0.45248000  0.61913000  1.0
  H  H30  1  0.61652000  0.62865000  0.49572000  1.0
  H  H31  1  0.11652000  0.37134000  0.50427000  1.0
  H  H32  1  0.44699000  0.48421000  0.42958000  1.0
  H  H33  1  0.94700000  0.51578000  0.57042000  1.0
  H  H34  1  0.47140000  0.68077000  0.22337000  1.0
  H  H35  1  0.97141000  0.31925000  0.77663000  1.0
  H  H36  1  0.07453000  0.01520000  0.21783000  1.0
  H  H37  1  0.57453000  0.98480000  0.78217000  1.0
  C  C38  1  0.41923000  0.16749000  0.39645000  1.0
  C  C39  1  0.91923000  0.83251000  0.60355000  1.0
  C  C40  1  0.95374000  0.08905000  0.18503000  1.0
  C  C41  1  0.45375000  0.91095000  0.81497000  1.0
  C  C42  1  0.75294000  0.00622000  0.11220000  1.0
  C  C43  1  0.25294000  0.99378000  0.88780000  1.0
  C  C44  1  0.79297000  0.17897000  0.26831000  1.0
  C  C45  1  0.29297000  0.82103000  0.73169000  1.0
  C  C46  1  0.63201000  0.09219000  0.32920000  1.0
  C  C47  1  0.13201000  0.90781000  0.67080000  1.0
  C  C48  1  0.34003000  0.60547000  0.17726000  1.0
  C  C49  1  0.84004000  0.39454000  0.82274000  1.0
  C  C50  1  0.19119000  0.52294000  0.24478000  1.0
  C  C51  1  0.69119000  0.47707000  0.75522000  1.0
  C  C52  1  0.08618000  0.61155000  0.34061000  1.0
  C  C53  1  0.58618000  0.38844000  0.65939000  1.0
  C  C54  1  0.53774000  0.51745000  0.10514000  1.0
  C  C55  1  0.03774000  0.48256000  0.89485000  1.0
  C  C56  1  0.30906000  0.67426000  0.40847000  1.0
  C  C57  1  0.80906000  0.32573000  0.59152000  1.0
  N  N58  1  0.16278000  0.68566000  0.12290000  1.0
  N  N59  1  0.66279000  0.31434000  0.87710000  1.0
  N  N60  1  0.12432000  0.17482000  0.13289000  1.0
  N  N61  1  0.62432000  0.82517000  0.86711000  1.0
  N  N62  1  0.25950000  0.08772000  0.44034000  1.0
  N  N63  1  0.75950000  0.91228000  0.55966000  1.0
  N  N64  1  0.46484000  0.58853000  0.44861000  1.0
  N  N65  1  0.96484000  0.41146000  0.55139000  1.0
  O  O66  1  0.69646000  0.88613000  0.12569000  1.0
  O  O67  1  0.19648000  0.11386000  0.87431000  1.0
  O  O68  1  0.64130000  0.57273000  0.03633000  1.0
  O  O69  1  0.14130000  0.42728000  0.96367000  1.0
  O  O70  1  0.39084000  0.29595000  0.41006000  1.0
  O  O71  1  0.89085000  0.70405000  0.58994000  1.0
  O  O72  1  0.64070000  0.06660000  0.04773000  1.0
  O  O73  1  0.14071000  0.93340000  0.95227000  1.0
  O  O74  1  0.60179000  0.40055000  0.12318000  1.0
  O  O75  1  0.10176000  0.59947000  0.87682000  1.0
  O  O76  1  0.34873000  0.80189000  0.42536000  1.0
  O  O77  1  0.84872000  0.19810000  0.57464000  1.0
