# generated using pymatgen
data_LiCuPH4C3O5
_symmetry_space_group_name_H-M   'P 1'
_cell_length_a   4.96499000
_cell_length_b   11.02214701
_cell_length_c   11.13203179
_cell_angle_alpha   80.90689882
_cell_angle_beta   77.11523458
_cell_angle_gamma   77.05186873
_symmetry_Int_Tables_number   1
_chemical_formula_structural   LiCuPH4C3O5
_chemical_formula_sum   'Li4 Cu4 P4 H16 C12 O20'
_cell_volume   575.00256263
_cell_formula_units_Z   4
loop_
 _symmetry_equiv_pos_site_id
 _symmetry_equiv_pos_as_xyz
  1  'x, y, z'
loop_
 _atom_site_type_symbol
 _atom_site_label
 _atom_site_symmetry_multiplicity
 _atom_site_fract_x
 _atom_site_fract_y
 _atom_site_fract_z
 _atom_site_occupancy
  Li  Li0  1  0.89292000  0.49422000  0.65605000  1.0
  Li  Li1  1  0.04424000  0.00607000  0.84460000  1.0
  Li  Li2  1  0.10708000  0.50578000  0.34394000  1.0
  Li  Li3  1  0.95575000  0.99393000  0.15541000  1.0
  Cu  Cu4  1  0.49999000  0.50000000  0.50000000  1.0
  Cu  Cu5  1  0.50000000  0.00000000  0.00000000  1.0
  Cu  Cu6  1  0.40874000  0.74970000  0.25012000  1.0
  Cu  Cu7  1  0.59127000  0.25030000  0.74988000  1.0
  P  P8  1  0.98562000  0.77301000  0.05591000  1.0
  P  P9  1  0.81425000  0.72699000  0.44423000  1.0
  P  P10  1  0.01437000  0.22699000  0.94409000  1.0
  P  P11  1  0.18575000  0.27302000  0.55577000  1.0
  H  H12  1  0.40026000  0.71668000  0.91003000  1.0
  H  H13  1  0.02849000  0.78348000  0.58963000  1.0
  H  H14  1  0.59974000  0.28332000  0.08997000  1.0
  H  H15  1  0.97150000  0.21652000  0.41038000  1.0
  H  H16  1  0.94049000  0.57209000  0.89850000  1.0
  H  H17  1  0.41271000  0.92785000  0.60158000  1.0
  H  H18  1  0.05951000  0.42791000  0.10150000  1.0
  H  H19  1  0.58728000  0.07215000  0.39843000  1.0
  H  H20  1  0.31629000  0.58662000  0.01381000  1.0
  H  H21  1  0.91818000  0.91341000  0.48569000  1.0
  H  H22  1  0.68371000  0.41338000  0.98619000  1.0
  H  H23  1  0.08182000  0.08659000  0.51432000  1.0
  H  H24  1  0.98910000  0.71225000  0.80525000  1.0
  H  H25  1  0.50815000  0.78769000  0.69466000  1.0
  H  H26  1  0.01088000  0.28775000  0.19476000  1.0
  H  H27  1  0.49185000  0.21231000  0.30534000  1.0
  C  C28  1  0.32414000  0.55714000  0.76332000  1.0
  C  C29  1  0.64631000  0.94275000  0.73677000  1.0
  C  C30  1  0.67585000  0.44286000  0.23668000  1.0
  C  C31  1  0.35367000  0.05725000  0.26323000  1.0
  C  C32  1  0.09936000  0.62967000  0.85679000  1.0
  C  C33  1  0.58745000  0.87036000  0.64312000  1.0
  C  C34  1  0.90066000  0.37033000  0.14320000  1.0
  C  C35  1  0.41255000  0.12964000  0.35688000  1.0
  C  C36  1  0.22641000  0.66812000  0.95426000  1.0
  C  C37  1  0.85028000  0.83202000  0.54557000  1.0
  C  C38  1  0.77359000  0.33188000  0.04574000  1.0
  C  C39  1  0.14970000  0.16798000  0.45444000  1.0
  O  O40  1  0.86566000  0.89281000  0.97456000  1.0
  O  O41  1  0.73074000  0.60783000  0.52649000  1.0
  O  O42  1  0.13434000  0.10719000  0.02544000  1.0
  O  O43  1  0.26925000  0.39217000  0.47351000  1.0
  O  O44  1  0.56987000  0.52334000  0.78222000  1.0
  O  O45  1  0.87744000  0.97641000  0.71812000  1.0
  O  O46  1  0.43015000  0.47665000  0.21778000  1.0
  O  O47  1  0.12259000  0.02360000  0.28188000  1.0
  O  O48  1  0.16260000  0.82009000  0.13108000  1.0
  O  O49  1  0.11268000  0.67943000  0.36876000  1.0
  O  O50  1  0.83741000  0.17991000  0.86891000  1.0
  O  O51  1  0.88734000  0.32057000  0.63124000  1.0
  O  O52  1  0.75658000  0.70395000  0.13100000  1.0
  O  O53  1  0.59121000  0.79602000  0.36927000  1.0
  O  O54  1  0.24342000  0.29605000  0.86900000  1.0
  O  O55  1  0.40879000  0.20398000  0.63073000  1.0
  O  O56  1  0.24255000  0.53749000  0.66562000  1.0
  O  O57  1  0.44711000  0.96232000  0.83439000  1.0
  O  O58  1  0.75745000  0.46251000  0.33438000  1.0
  O  O59  1  0.55290000  0.03768000  0.16561000  1.0
