# generated using pymatgen
data_CdH11C14(NO2)2
_symmetry_space_group_name_H-M   'P 1'
_cell_length_a   11.51410000
_cell_length_b   11.51400000
_cell_length_c   11.96970000
_cell_angle_alpha   104.16030000
_cell_angle_beta   104.16010000
_cell_angle_gamma   90.69240000
_symmetry_Int_Tables_number   1
_chemical_formula_structural   CdH11C14(NO2)2
_chemical_formula_sum   'Cd4 H44 C56 N8 O16'
_cell_volume   1487.52328528
_cell_formula_units_Z   4
loop_
 _symmetry_equiv_pos_site_id
 _symmetry_equiv_pos_as_xyz
  1  'x, y, z'
loop_
 _atom_site_type_symbol
 _atom_site_label
 _atom_site_symmetry_multiplicity
 _atom_site_fract_x
 _atom_site_fract_y
 _atom_site_fract_z
 _atom_site_occupancy
  Cd  Cd0  1  0.32981000  0.69375000  0.40684000  1.0
  Cd  Cd1  1  0.30625000  0.67018000  0.09316000  1.0
  Cd  Cd2  1  0.67018000  0.30624000  0.59316000  1.0
  Cd  Cd3  1  0.69375000  0.32982000  0.90684000  1.0
  H  H4  1  0.56674000  0.59614000  0.42247000  1.0
  H  H5  1  0.55059000  0.71729000  0.36471000  1.0
  H  H6  1  0.27782000  0.95210000  0.55668000  1.0
  H  H7  1  0.42364000  0.65681000  0.65993000  1.0
  H  H8  1  0.32145000  0.07444000  0.76811000  1.0
  H  H9  1  0.47564000  0.76607000  0.87473000  1.0
  H  H10  1  0.57262000  0.92166000  0.51243000  1.0
  H  H11  1  0.76466000  0.71540000  0.82080000  1.0
  H  H12  1  0.76996000  0.93927000  0.87175000  1.0
  H  H13  1  0.40656000  0.09178000  0.97576000  1.0
  H  H14  1  0.37942000  0.95775000  0.01588000  1.0
  H  H15  1  0.40386000  0.43325000  0.07754000  1.0
  H  H16  1  0.28271000  0.44940000  0.13530000  1.0
  H  H17  1  0.04790000  0.72217000  0.94332000  1.0
  H  H18  1  0.34319000  0.57638000  0.84006000  1.0
  H  H19  1  0.92556000  0.67854000  0.73189000  1.0
  H  H20  1  0.23393000  0.52437000  0.62527000  1.0
  H  H21  1  0.07834000  0.42738000  0.98758000  1.0
  H  H22  1  0.28460000  0.23533000  0.67921000  1.0
  H  H23  1  0.06072000  0.23003000  0.62826000  1.0
  H  H24  1  0.90822000  0.59345000  0.52424000  1.0
  H  H25  1  0.04226000  0.62059000  0.48413000  1.0
  H  H26  1  0.43324000  0.40386000  0.57754000  1.0
  H  H27  1  0.44940000  0.28271000  0.63530000  1.0
  H  H28  1  0.72218000  0.04790000  0.44330000  1.0
  H  H29  1  0.57637000  0.34318000  0.34006000  1.0
  H  H30  1  0.67855000  0.92556000  0.23187000  1.0
  H  H31  1  0.52437000  0.23393000  0.12526000  1.0
  H  H32  1  0.42739000  0.07833000  0.48757000  1.0
  H  H33  1  0.23532000  0.28460000  0.17921000  1.0
  H  H34  1  0.23004000  0.06072000  0.12825000  1.0
  H  H35  1  0.59344000  0.90822000  0.02422000  1.0
  H  H36  1  0.62058000  0.04225000  0.98411000  1.0
  H  H37  1  0.59613000  0.56676000  0.92247000  1.0
  H  H38  1  0.71728000  0.55060000  0.86471000  1.0
  H  H39  1  0.95210000  0.27782000  0.05669000  1.0
  H  H40  1  0.65682000  0.42364000  0.15993000  1.0
  H  H41  1  0.07444000  0.32145000  0.26812000  1.0
  H  H42  1  0.76608000  0.47565000  0.37473000  1.0
  H  H43  1  0.92165000  0.57263000  0.01241000  1.0
  H  H44  1  0.71540000  0.76466000  0.32080000  1.0
  H  H45  1  0.93928000  0.76996000  0.37174000  1.0
  H  H46  1  0.09179000  0.40656000  0.47576000  1.0
  H  H47  1  0.95775000  0.37942000  0.51588000  1.0
  C  C48  1  0.66924000  0.55776000  0.61181000  1.0
  C  C49  1  0.32043000  0.91435000  0.63043000  1.0
  C  C50  1  0.40341000  0.74986000  0.68833000  1.0
  C  C51  1  0.61414000  0.75043000  0.54919000  1.0
  C  C52  1  0.66935000  0.69144000  0.63745000  1.0
  C  C53  1  0.34600000  0.98197000  0.74822000  1.0
  C  C54  1  0.43235000  0.81175000  0.80757000  1.0
  C  C55  1  0.61850000  0.87646000  0.57902000  1.0
  C  C56  1  0.72459000  0.76142000  0.75296000  1.0
  C  C57  1  0.40320000  0.93080000  0.84011000  1.0
  C  C58  1  0.67379000  0.94397000  0.69420000  1.0
  C  C59  1  0.72767000  0.88576000  0.78198000  1.0
  C  C60  1  0.43275000  0.99933000  0.96887000  1.0
  C  C61  1  0.67147000  0.07890000  0.72603000  1.0
  C  C62  1  0.44223000  0.33074000  0.88820000  1.0
  C  C63  1  0.08566000  0.67957000  0.86957000  1.0
  C  C64  1  0.25014000  0.59660000  0.81167000  1.0
  C  C65  1  0.24957000  0.38585000  0.95083000  1.0
  C  C66  1  0.30855000  0.33064000  0.86256000  1.0
  C  C67  1  0.01803000  0.65400000  0.75179000  1.0
  C  C68  1  0.18826000  0.56765000  0.69243000  1.0
  C  C69  1  0.12354000  0.38149000  0.92099000  1.0
  C  C70  1  0.23857000  0.27541000  0.74705000  1.0
  C  C71  1  0.06920000  0.59680000  0.65989000  1.0
  C  C72  1  0.05603000  0.32621000  0.80581000  1.0
  C  C73  1  0.11423000  0.27233000  0.71803000  1.0
  C  C74  1  0.00068000  0.56726000  0.53113000  1.0
  C  C75  1  0.92110000  0.32854000  0.77397000  1.0
  C  C76  1  0.33074000  0.44223000  0.38821000  1.0
  C  C77  1  0.67958000  0.08565000  0.36956000  1.0
  C  C78  1  0.59660000  0.25014000  0.31166000  1.0
  C  C79  1  0.38585000  0.24956000  0.45082000  1.0
  C  C80  1  0.33064000  0.30855000  0.36256000  1.0
  C  C81  1  0.65401000  0.01803000  0.25177000  1.0
  C  C82  1  0.56766000  0.18825000  0.19242000  1.0
  C  C83  1  0.38150000  0.12354000  0.42098000  1.0
  C  C84  1  0.27540000  0.23857000  0.24705000  1.0
  C  C85  1  0.59681000  0.06920000  0.15988000  1.0
  C  C86  1  0.32621000  0.05602000  0.30580000  1.0
  C  C87  1  0.27233000  0.11423000  0.21802000  1.0
  C  C88  1  0.56725000  0.00067000  0.03112000  1.0
  C  C89  1  0.32854000  0.92110000  0.27395000  1.0
  C  C90  1  0.55777000  0.66925000  0.11181000  1.0
  C  C91  1  0.91435000  0.32043000  0.13043000  1.0
  C  C92  1  0.74987000  0.40341000  0.18833000  1.0
  C  C93  1  0.75042000  0.61415000  0.04918000  1.0
  C  C94  1  0.69145000  0.66936000  0.13745000  1.0
  C  C95  1  0.98197000  0.34600000  0.24822000  1.0
  C  C96  1  0.81175000  0.43236000  0.30757000  1.0
  C  C97  1  0.87645000  0.61851000  0.07901000  1.0
  C  C98  1  0.76143000  0.72459000  0.25296000  1.0
  C  C99  1  0.93080000  0.40321000  0.34011000  1.0
  C  C100  1  0.94397000  0.67379000  0.19418000  1.0
  C  C101  1  0.88576000  0.72767000  0.28197000  1.0
  C  C102  1  0.99933000  0.43275000  0.46887000  1.0
  C  C103  1  0.07889000  0.67148000  0.22602000  1.0
  N  N104  1  0.34818000  0.79952000  0.60055000  1.0
  N  N105  1  0.54650000  0.68452000  0.43643000  1.0
  N  N106  1  0.20048000  0.65182000  0.89945000  1.0
  N  N107  1  0.31548000  0.45349000  0.06358000  1.0
  N  N108  1  0.65183000  0.20047000  0.39944000  1.0
  N  N109  1  0.45349000  0.31547000  0.56358000  1.0
  N  N110  1  0.79953000  0.34818000  0.10055000  1.0
  N  N111  1  0.68451000  0.54651000  0.93642000  1.0
  O  O112  1  0.64739000  0.49399000  0.50453000  1.0
  O  O113  1  0.69232000  0.50948000  0.69996000  1.0
  O  O114  1  0.63308000  0.12837000  0.64152000  1.0
  O  O115  1  0.70720000  0.13183000  0.83678000  1.0
  O  O116  1  0.50600000  0.35258000  0.99547000  1.0
  O  O117  1  0.49052000  0.30768000  0.80005000  1.0
  O  O118  1  0.87162000  0.36693000  0.85848000  1.0
  O  O119  1  0.86817000  0.29282000  0.66322000  1.0
  O  O120  1  0.35256000  0.50600000  0.49548000  1.0
  O  O121  1  0.30768000  0.49052000  0.30005000  1.0
  O  O122  1  0.36693000  0.87161000  0.35846000  1.0
  O  O123  1  0.29282000  0.86817000  0.16321000  1.0
  O  O124  1  0.49400000  0.64743000  0.00454000  1.0
  O  O125  1  0.50948000  0.69230000  0.19996000  1.0
  O  O126  1  0.12837000  0.63309000  0.14150000  1.0
  O  O127  1  0.13183000  0.70720000  0.33677000  1.0
