# generated using pymatgen
data_HgH7C10N5O
_symmetry_space_group_name_H-M   'P 1'
_cell_length_a   6.32473000
_cell_length_b   8.25802000
_cell_length_c   22.16020000
_cell_angle_alpha   89.99940000
_cell_angle_beta   89.99940000
_cell_angle_gamma   75.91000000
_symmetry_Int_Tables_number   1
_chemical_formula_structural   HgH7C10N5O
_chemical_formula_sum   'Hg4 H28 C40 N20 O4'
_cell_volume   1122.60004948
_cell_formula_units_Z   4
loop_
 _symmetry_equiv_pos_site_id
 _symmetry_equiv_pos_as_xyz
  1  'x, y, z'
loop_
 _atom_site_type_symbol
 _atom_site_label
 _atom_site_symmetry_multiplicity
 _atom_site_fract_x
 _atom_site_fract_y
 _atom_site_fract_z
 _atom_site_occupancy
  Hg  Hg0  1  0.23612000  0.07436000  0.21206000  1.0
  Hg  Hg1  1  0.76390000  0.42562000  0.71206000  1.0
  Hg  Hg2  1  0.76390000  0.92563000  0.78794000  1.0
  Hg  Hg3  1  0.23612000  0.57436000  0.28794000  1.0
  H  H4  1  0.91048000  0.12481000  0.04953000  1.0
  H  H5  1  0.08953000  0.37519000  0.54953000  1.0
  H  H6  1  0.08954000  0.87517000  0.95047000  1.0
  H  H7  1  0.91045000  0.62482000  0.45047000  1.0
  H  H8  1  0.41481000  0.36172000  0.99493000  1.0
  H  H9  1  0.58517000  0.13830000  0.49494000  1.0
  H  H10  1  0.58517000  0.63828000  0.00506000  1.0
  H  H11  1  0.41478000  0.86173000  0.50507000  1.0
  H  H12  1  0.28320000  0.58840000  0.07059000  1.0
  H  H13  1  0.71680000  0.91161000  0.57060000  1.0
  H  H14  1  0.71679000  0.41161000  0.92940000  1.0
  H  H15  1  0.28317000  0.08840000  0.42941000  1.0
  H  H16  1  0.97654000  0.57958000  0.13809000  1.0
  H  H17  1  0.02347000  0.92043000  0.63809000  1.0
  H  H18  1  0.02346000  0.42042000  0.86190000  1.0
  H  H19  1  0.97652000  0.07959000  0.36192000  1.0
  H  H20  1  0.63831000  0.60244000  0.16861000  1.0
  H  H21  1  0.36171000  0.89756000  0.66861000  1.0
  H  H22  1  0.36171000  0.39755000  0.83139000  1.0
  H  H23  1  0.63829000  0.10245000  0.33139000  1.0
  H  H24  1  0.74506000  0.08206000  0.13803000  1.0
  H  H25  1  0.25496000  0.41793000  0.63803000  1.0
  H  H26  1  0.25494000  0.91793000  0.86196000  1.0
  H  H27  1  0.74505000  0.58207000  0.36197000  1.0
  H  H28  1  0.35309000  0.13006000  0.95192000  1.0
  H  H29  1  0.64690000  0.36995000  0.45193000  1.0
  H  H30  1  0.64691000  0.86993000  0.04807000  1.0
  H  H31  1  0.35309000  0.63006000  0.54808000  1.0
  C  C32  1  0.92703000  0.35085000  0.09876000  1.0
  C  C33  1  0.07298000  0.14915000  0.59876000  1.0
  C  C34  1  0.07298000  0.64914000  0.90123000  1.0
  C  C35  1  0.92701000  0.85086000  0.40124000  1.0
  C  C36  1  0.99367000  0.22478000  0.05590000  1.0
  C  C37  1  0.00633000  0.27523000  0.55590000  1.0
  C  C38  1  0.00634000  0.77521000  0.94410000  1.0
  C  C39  1  0.99366000  0.72478000  0.44410000  1.0
  C  C40  1  0.17137000  0.22947000  0.01865000  1.0
  C  C41  1  0.82862000  0.27054000  0.51866000  1.0
  C  C42  1  0.82863000  0.77053000  0.98134000  1.0
  C  C43  1  0.17136000  0.72947000  0.48135000  1.0
  C  C44  1  0.27784000  0.35965000  0.02447000  1.0
  C  C45  1  0.72214000  0.14036000  0.52448000  1.0
  C  C46  1  0.72215000  0.64035000  0.97552000  1.0
  C  C47  1  0.27783000  0.85965000  0.47553000  1.0
  C  C48  1  0.20429000  0.48523000  0.06672000  1.0
  C  C49  1  0.79571000  0.01478000  0.56673000  1.0
  C  C50  1  0.79570000  0.51477000  0.93327000  1.0
  C  C51  1  0.20427000  0.98524000  0.43328000  1.0
  C  C52  1  0.02953000  0.48190000  0.10471000  1.0
  C  C53  1  0.97047000  0.01811000  0.60471000  1.0
  C  C54  1  0.97048000  0.51811000  0.89528000  1.0
  C  C55  1  0.02951000  0.98190000  0.39529000  1.0
  C  C56  1  0.62388000  0.47454000  0.17075000  1.0
  C  C57  1  0.37614000  0.02545000  0.67075000  1.0
  C  C58  1  0.37614000  0.52545000  0.82924000  1.0
  C  C59  1  0.62386000  0.97455000  0.32925000  1.0
  C  C60  1  0.67609000  0.20815000  0.15386000  1.0
  C  C61  1  0.32393000  0.29185000  0.65386000  1.0
  C  C62  1  0.32392000  0.79185000  0.84613000  1.0
  C  C63  1  0.67608000  0.70816000  0.34614000  1.0
  C  C64  1  0.01995000  0.23808000  0.26601000  1.0
  C  C65  1  0.98007000  0.26192000  0.76601000  1.0
  C  C66  1  0.98009000  0.76192000  0.73399000  1.0
  C  C67  1  0.01993000  0.73807000  0.23399000  1.0
  C  C68  1  0.36719000  0.92073000  0.14125000  1.0
  C  C69  1  0.63283000  0.57926000  0.64124000  1.0
  C  C70  1  0.63281000  0.07926000  0.85876000  1.0
  C  C71  1  0.36718000  0.42074000  0.35876000  1.0
  N  N72  1  0.51580000  0.25131000  0.19326000  1.0
  N  N73  1  0.48423000  0.24869000  0.69325000  1.0
  N  N74  1  0.48421000  0.74869000  0.80674000  1.0
  N  N75  1  0.51578000  0.75131000  0.30675000  1.0
  N  N76  1  0.48228000  0.41958000  0.20368000  1.0
  N  N77  1  0.51774000  0.08041000  0.70368000  1.0
  N  N78  1  0.51774000  0.58041000  0.79632000  1.0
  N  N79  1  0.48226000  0.91959000  0.29632000  1.0
  N  N80  1  0.74944000  0.34540000  0.13819000  1.0
  N  N81  1  0.25057000  0.15460000  0.63819000  1.0
  N  N82  1  0.25057000  0.65460000  0.86181000  1.0
  N  N83  1  0.74943000  0.84540000  0.36182000  1.0
  N  N84  1  0.89912000  0.33243000  0.29683000  1.0
  N  N85  1  0.10088000  0.16757000  0.79683000  1.0
  N  N86  1  0.10090000  0.66758000  0.70318000  1.0
  N  N87  1  0.89912000  0.83241000  0.20318000  1.0
  N  N88  1  0.44952000  0.84090000  0.10027000  1.0
  N  N89  1  0.55050000  0.65910000  0.60028000  1.0
  N  N90  1  0.55048000  0.15910000  0.89972000  1.0
  N  N91  1  0.44951000  0.34090000  0.39973000  1.0
  O  O92  1  0.23314000  0.10666000  0.97704000  1.0
  O  O93  1  0.76685000  0.39335000  0.47705000  1.0
  O  O94  1  0.76687000  0.89333000  0.02295000  1.0
  O  O95  1  0.23313000  0.60666000  0.52296000  1.0
