# generated using pymatgen
data_ZnH9C10N3O2
_symmetry_space_group_name_H-M   'P 1'
_cell_length_a   4.81520000
_cell_length_b   9.78121000
_cell_length_c   22.51150000
_cell_angle_alpha   90.00000000
_cell_angle_beta   90.00010000
_cell_angle_gamma   99.78040000
_symmetry_Int_Tables_number   1
_chemical_formula_structural   ZnH9C10N3O2
_chemical_formula_sum   'Zn4 H36 C40 N12 O8'
_cell_volume   1044.84777495
_cell_formula_units_Z   4
loop_
 _symmetry_equiv_pos_site_id
 _symmetry_equiv_pos_as_xyz
  1  'x, y, z'
loop_
 _atom_site_type_symbol
 _atom_site_label
 _atom_site_symmetry_multiplicity
 _atom_site_fract_x
 _atom_site_fract_y
 _atom_site_fract_z
 _atom_site_occupancy
  Zn  Zn0  1  0.92652000  0.66601000  0.31508000  1.0
  Zn  Zn1  1  0.07348000  0.83399000  0.81508000  1.0
  Zn  Zn2  1  0.07348000  0.33399000  0.68492000  1.0
  Zn  Zn3  1  0.92652000  0.16601000  0.18492000  1.0
  H  H4  1  0.41509000  0.37042000  0.09677000  1.0
  H  H5  1  0.58491000  0.12958000  0.59677000  1.0
  H  H6  1  0.58491000  0.62958000  0.90323000  1.0
  H  H7  1  0.41509000  0.87042000  0.40323000  1.0
  H  H8  1  0.75739000  0.58632000  0.07536000  1.0
  H  H9  1  0.24261000  0.91368000  0.57536000  1.0
  H  H10  1  0.24261000  0.41368000  0.92464000  1.0
  H  H11  1  0.75739000  0.08632000  0.42464000  1.0
  H  H12  1  0.76264000  0.79868000  0.13540000  1.0
  H  H13  1  0.23736000  0.70132000  0.63540000  1.0
  H  H14  1  0.23736000  0.20132000  0.86460000  1.0
  H  H15  1  0.76264000  0.29868000  0.36460000  1.0
  H  H16  1  0.42023000  0.80749000  0.21682000  1.0
  H  H17  1  0.57977000  0.69251000  0.71682000  1.0
  H  H18  1  0.57977000  0.19251000  0.78318000  1.0
  H  H19  1  0.42023000  0.30749000  0.28318000  1.0
  H  H20  1  0.69777000  0.49480000  0.42168000  1.0
  H  H21  1  0.30223000  0.00520000  0.92168000  1.0
  H  H22  1  0.30223000  0.50520000  0.57832000  1.0
  H  H23  1  0.69778000  0.99480000  0.07832000  1.0
  H  H24  1  0.73146000  0.73053000  0.46149000  1.0
  H  H25  1  0.26854000  0.76947000  0.96149000  1.0
  H  H26  1  0.26854000  0.26947000  0.53851000  1.0
  H  H27  1  0.73146000  0.23053000  0.03851000  1.0
  H  H28  1  0.38675000  0.69013000  0.49170000  1.0
  H  H29  1  0.61325000  0.80987000  0.99170000  1.0
  H  H30  1  0.61325000  0.30987000  0.50830000  1.0
  H  H31  1  0.38675000  0.19013000  0.00830000  1.0
  H  H32  1  0.09783000  0.43827000  0.47239000  1.0
  H  H33  1  0.90217000  0.06173000  0.97239000  1.0
  H  H34  1  0.90217000  0.56173000  0.52761000  1.0
  H  H35  1  0.09783000  0.93827000  0.02761000  1.0
  H  H36  1  0.25766000  0.32121000  0.42972000  1.0
  H  H37  1  0.74234000  0.17879000  0.92972000  1.0
  H  H38  1  0.74234000  0.67879000  0.57028000  1.0
  H  H39  1  0.25766000  0.82121000  0.07028000  1.0
  C  C40  1  0.22166000  0.59213000  0.20223000  1.0
  C  C41  1  0.77834000  0.90787000  0.70223000  1.0
  C  C42  1  0.77835000  0.40787000  0.79777000  1.0
  C  C43  1  0.22166000  0.09213000  0.29777000  1.0
  C  C44  1  0.22417000  0.46901000  0.16944000  1.0
  C  C45  1  0.77583000  0.03099000  0.66944000  1.0
  C  C46  1  0.77583000  0.53099000  0.83056000  1.0
  C  C47  1  0.22417000  0.96901000  0.33056000  1.0
  C  C48  1  0.41360000  0.46477000  0.12228000  1.0
  C  C49  1  0.58640000  0.03523000  0.62228000  1.0
  C  C50  1  0.58640000  0.53523000  0.87772000  1.0
  C  C51  1  0.41360000  0.96477000  0.37772000  1.0
  C  C52  1  0.60235000  0.58563000  0.11074000  1.0
  C  C53  1  0.39766000  0.91437000  0.61074000  1.0
  C  C54  1  0.39765000  0.41437000  0.88926000  1.0
  C  C55  1  0.60234000  0.08563000  0.38926000  1.0
  C  C56  1  0.60387000  0.70776000  0.14470000  1.0
  C  C57  1  0.39613000  0.79224000  0.64470000  1.0
  C  C58  1  0.39614000  0.29224000  0.85530000  1.0
  C  C59  1  0.60387000  0.20776000  0.35530000  1.0
  C  C60  1  0.41304000  0.71397000  0.19034000  1.0
  C  C61  1  0.58696000  0.78603000  0.69034000  1.0
  C  C62  1  0.58696000  0.28603000  0.80966000  1.0
  C  C63  1  0.41304000  0.21397000  0.30966000  1.0
  C  C64  1  0.37452000  0.58668000  0.38142000  1.0
  C  C65  1  0.62548000  0.91332000  0.88142000  1.0
  C  C66  1  0.62548000  0.41332000  0.61858000  1.0
  C  C67  1  0.37452000  0.08668000  0.11858000  1.0
  C  C68  1  0.50108000  0.52840000  0.43534000  1.0
  C  C69  1  0.49892000  0.97161000  0.93534000  1.0
  C  C70  1  0.49892000  0.47160000  0.56466000  1.0
  C  C71  1  0.50108000  0.02840000  0.06466000  1.0
  C  C72  1  0.57753000  0.64652000  0.48109000  1.0
  C  C73  1  0.42246000  0.85348000  0.98109000  1.0
  C  C74  1  0.42247000  0.35348000  0.51891000  1.0
  C  C75  1  0.57753000  0.14652000  0.01891000  1.0
  C  C76  1  0.30019000  0.40574000  0.46241000  1.0
  C  C77  1  0.69981000  0.09426000  0.96241000  1.0
  C  C78  1  0.69981000  0.59426000  0.53759000  1.0
  C  C79  1  0.30019000  0.90574000  0.03759000  1.0
  N  N80  1  0.01592000  0.55984000  0.24465000  1.0
  N  N81  1  0.98408000  0.94016000  0.74465000  1.0
  N  N82  1  0.98408000  0.44016000  0.75535000  1.0
  N  N83  1  0.01592000  0.05984000  0.25535000  1.0
  N  N84  1  0.90105000  0.42693000  0.23952000  1.0
  N  N85  1  0.09895000  0.07307000  0.73952000  1.0
  N  N86  1  0.09895000  0.57307000  0.76048000  1.0
  N  N87  1  0.90105000  0.92693000  0.26048000  1.0
  N  N88  1  0.02195000  0.36995000  0.19462000  1.0
  N  N89  1  0.97805000  0.13005000  0.69462000  1.0
  N  N90  1  0.97805000  0.63005000  0.80538000  1.0
  N  N91  1  0.02195000  0.86995000  0.30538000  1.0
  O  O92  1  0.11448000  0.59877000  0.38532000  1.0
  O  O93  1  0.88552000  0.90123000  0.88532000  1.0
  O  O94  1  0.88552000  0.40123000  0.61468000  1.0
  O  O95  1  0.11448000  0.09877000  0.11468000  1.0
  O  O96  1  0.51910000  0.62688000  0.33535000  1.0
  O  O97  1  0.48091000  0.87312000  0.83535000  1.0
  O  O98  1  0.48090000  0.37312000  0.66465000  1.0
  O  O99  1  0.51909000  0.12688000  0.16465000  1.0
