# generated using pymatgen
data_ZnH10C19NO8
_symmetry_space_group_name_H-M   'P 1'
_cell_length_a   11.79170000
_cell_length_b   13.20360000
_cell_length_c   15.13130000
_cell_angle_alpha   93.25380000
_cell_angle_beta   97.67020000
_cell_angle_gamma   92.58230000
_symmetry_Int_Tables_number   1
_chemical_formula_structural   ZnH10C19NO8
_chemical_formula_sum   'Zn2 H20 C38 N2 O16'
_cell_volume   2327.69389168
_cell_formula_units_Z   2
loop_
 _symmetry_equiv_pos_site_id
 _symmetry_equiv_pos_as_xyz
  1  'x, y, z'
loop_
 _atom_site_type_symbol
 _atom_site_label
 _atom_site_symmetry_multiplicity
 _atom_site_fract_x
 _atom_site_fract_y
 _atom_site_fract_z
 _atom_site_occupancy
  Zn  Zn0  1  0.62065000  0.49682000  0.51825000  1.0
  Zn  Zn1  1  0.37937000  0.50320000  0.48176000  1.0
  H  H2  1  0.37281000  0.57347000  0.22672000  1.0
  H  H3  1  0.62718000  0.42650000  0.77328000  1.0
  H  H4  1  0.72310000  0.32951000  0.07100000  1.0
  H  H5  1  0.27686000  0.67042000  0.92900000  1.0
  H  H6  1  0.71200000  0.34838000  0.91124000  1.0
  H  H7  1  0.28799000  0.65154000  0.08876000  1.0
  H  H8  1  0.72533000  0.82428000  0.52977000  1.0
  H  H9  1  0.27467000  0.17575000  0.47023000  1.0
  H  H10  1  0.89736000  0.66215000  0.36011000  1.0
  H  H11  1  0.10266000  0.33790000  0.63991000  1.0
  H  H12  1  0.70395000  0.32523000  0.18840000  1.0
  H  H13  1  0.29606000  0.67474000  0.81162000  1.0
  H  H14  1  0.35353000  0.74220000  0.45443000  1.0
  H  H15  1  0.64647000  0.25783000  0.54555000  1.0
  H  H16  1  0.26257000  0.98597000  0.45371000  1.0
  H  H17  1  0.73742000  0.01405000  0.54628000  1.0
  H  H18  1  0.79423000  0.58694000  0.43598000  1.0
  H  H19  1  0.20579000  0.41312000  0.56405000  1.0
  H  H20  1  0.84481000  0.32217000  0.67144000  1.0
  H  H21  1  0.15520000  0.67782000  0.32854000  1.0
  C  C22  1  0.46208000  0.30026000  0.51207000  1.0
  C  C23  1  0.53791000  0.69976000  0.48793000  1.0
  C  C24  1  0.65435000  0.38894000  0.94979000  1.0
  C  C25  1  0.34562000  0.61099000  0.05021000  1.0
  C  C26  1  0.54222000  0.81206000  0.49344000  1.0
  C  C27  1  0.45779000  0.18796000  0.50655000  1.0
  C  C28  1  0.34441000  0.02821000  0.47280000  1.0
  C  C29  1  0.65558000  0.97180000  0.52717000  1.0
  C  C30  1  0.35116000  0.13248000  0.48226000  1.0
  C  C31  1  0.64885000  0.86753000  0.51773000  1.0
  C  C32  1  0.55875000  0.13497000  0.52219000  1.0
  C  C33  1  0.44125000  0.86506000  0.47778000  1.0
  C  C34  1  0.55431000  0.02637000  0.51254000  1.0
  C  C35  1  0.44569000  0.97365000  0.48742000  1.0
  C  C36  1  0.02655000  0.58936000  0.41331000  1.0
  C  C37  1  0.97347000  0.41068000  0.58671000  1.0
  C  C38  1  0.14343000  0.57762000  0.41285000  1.0
  C  C39  1  0.85659000  0.42241000  0.58716000  1.0
  C  C40  1  0.15014000  0.46090000  0.52285000  1.0
  C  C41  1  0.84987000  0.53914000  0.47716000  1.0
  C  C42  1  0.03237000  0.46648000  0.52828000  1.0
  C  C43  1  0.96765000  0.53356000  0.47172000  1.0
  C  C44  1  0.48785000  0.52869000  0.66849000  1.0
  C  C45  1  0.51215000  0.47132000  0.33152000  1.0
  C  C46  1  0.43184000  0.53541000  0.18788000  1.0
  C  C47  1  0.56815000  0.46456000  0.81212000  1.0
  C  C48  1  0.51211000  0.47510000  0.23274000  1.0
  C  C49  1  0.48788000  0.52487000  0.76726000  1.0
  C  C50  1  0.58837000  0.42297000  0.18481000  1.0
  C  C51  1  0.41162000  0.57699000  0.81519000  1.0
  C  C52  1  0.58452000  0.43140000  0.09143000  1.0
  C  C53  1  0.41545000  0.56853000  0.90857000  1.0
  C  C54  1  0.50278000  0.49479000  0.04689000  1.0
  C  C55  1  0.49719000  0.50514000  0.95311000  1.0
  C  C56  1  0.42607000  0.54770000  0.09619000  1.0
  C  C57  1  0.57392000  0.45225000  0.90381000  1.0
  C  C58  1  0.65947000  0.37880000  0.03962000  1.0
  C  C59  1  0.34050000  0.62112000  0.96039000  1.0
  N  N60  1  0.79758000  0.48494000  0.53287000  1.0
  N  N61  1  0.20243000  0.51509000  0.46713000  1.0
  O  O62  1  0.56309000  0.34618000  0.52799000  1.0
  O  O63  1  0.43691000  0.65385000  0.47202000  1.0
  O  O64  1  0.36980000  0.34664000  0.50056000  1.0
  O  O65  1  0.63020000  0.65337000  0.49944000  1.0
  O  O66  1  0.58650000  0.53015000  0.64283000  1.0
  O  O67  1  0.41352000  0.46985000  0.35718000  1.0
  O  O68  1  0.39222000  0.52554000  0.61811000  1.0
  O  O69  1  0.60781000  0.47448000  0.38191000  1.0
  O  O70  1  0.97837000  0.65585000  0.35538000  1.0
  O  O71  1  0.02165000  0.34419000  0.64463000  1.0
  O  O72  1  0.66339000  0.36255000  0.23070000  1.0
  O  O73  1  0.33661000  0.63742000  0.76931000  1.0
  O  O74  1  0.33756000  0.81711000  0.45371000  1.0
  O  O75  1  0.66244000  0.18291000  0.54626000  1.0
  O  O76  1  0.79587000  0.37144000  0.64170000  1.0
  O  O77  1  0.20414000  0.62857000  0.35829000  1.0
