# generated using pymatgen
data_AlHC8O5F4
_symmetry_space_group_name_H-M   'P 1'
_cell_length_a   6.66457000
_cell_length_b   8.86436000
_cell_length_c   11.17935258
_cell_angle_alpha   89.85534457
_cell_angle_beta   73.22835408
_cell_angle_gamma   75.66630000
_symmetry_Int_Tables_number   1
_chemical_formula_structural   AlHC8O5F4
_chemical_formula_sum   'Al2 H2 C16 O10 F8'
_cell_volume   610.97279068
_cell_formula_units_Z   2
loop_
 _symmetry_equiv_pos_site_id
 _symmetry_equiv_pos_as_xyz
  1  'x, y, z'
loop_
 _atom_site_type_symbol
 _atom_site_label
 _atom_site_symmetry_multiplicity
 _atom_site_fract_x
 _atom_site_fract_y
 _atom_site_fract_z
 _atom_site_occupancy
  Al  Al0  1  0.02536000  0.47592000  0.49427000  1.0
  Al  Al1  1  0.52405000  0.47767000  0.49606000  1.0
  H  H2  1  0.87403000  0.29601000  0.41089000  1.0
  H  H3  1  0.16961000  0.65498000  0.58441000  1.0
  C  C4  1  0.37515000  0.48995000  0.27011000  1.0
  C  C5  1  0.37030000  0.19851000  0.49972000  1.0
  C  C6  1  0.67037000  0.48377000  0.72152000  1.0
  C  C7  1  0.67981000  0.75596000  0.49317000  1.0
  C  C8  1  0.62348000  0.92961000  0.49401000  1.0
  C  C9  1  0.42538000  0.02514000  0.50177000  1.0
  C  C10  1  0.44047000  0.50577000  0.13041000  1.0
  C  C11  1  0.53018000  0.62783000  0.07241000  1.0
  C  C12  1  0.42253000  0.39070000  0.05460000  1.0
  C  C13  1  0.53670000  0.75743000  0.14373000  1.0
  C  C14  1  0.63553000  0.87072000  0.08986000  1.0
  C  C15  1  0.59312000  0.49959000  0.86296000  1.0
  C  C16  1  0.49641000  0.38836000  0.92289000  1.0
  C  C17  1  0.61143000  0.62364000  0.93742000  1.0
  C  C18  1  0.70001000  0.74768000  0.88547000  1.0
  C  C19  1  0.71958000  0.86512000  0.95878000  1.0
  O  O20  1  0.17765000  0.49378000  0.32125000  1.0
  O  O21  1  0.51228000  0.26595000  0.50960000  1.0
  O  O22  1  0.52180000  0.49496000  0.66963000  1.0
  O  O23  1  0.86867000  0.69076000  0.49869000  1.0
  O  O24  1  0.87203000  0.46044000  0.66878000  1.0
  O  O25  1  0.53447000  0.68971000  0.48778000  1.0
  O  O26  1  0.52577000  0.46725000  0.32142000  1.0
  O  O27  1  0.18582000  0.26207000  0.48680000  1.0
  O  O28  1  0.82403000  0.40545000  0.44085000  1.0
  O  O29  1  0.22417000  0.54748000  0.54939000  1.0
  F  F30  1  0.79206000  0.99082000  0.48612000  1.0
  F  F31  1  0.25647000  0.96437000  0.51003000  1.0
  F  F32  1  0.47608000  0.26875000  0.85675000  1.0
  F  F33  1  0.34073000  0.27160000  0.10420000  1.0
  F  F34  1  0.76488000  0.75843000  0.76000000  1.0
  F  F35  1  0.81064000  0.97817000  0.90594000  1.0
  F  F36  1  0.64539000  0.98977000  0.16078000  1.0
  F  F37  1  0.43803000  0.77649000  0.26836000  1.0
