# generated using pymatgen
data_Zn2H12C21N6O5
_symmetry_space_group_name_H-M   'P 1'
_cell_length_a   7.53220000
_cell_length_b   10.49010000
_cell_length_c   14.76490000
_cell_angle_alpha   90.12350000
_cell_angle_beta   93.98200000
_cell_angle_gamma   108.95300000
_symmetry_Int_Tables_number   1
_chemical_formula_structural   Zn2H12C21N6O5
_chemical_formula_sum   'Zn4 H24 C42 N12 O10'
_cell_volume   1100.33738176
_cell_formula_units_Z   2
loop_
 _symmetry_equiv_pos_site_id
 _symmetry_equiv_pos_as_xyz
  1  'x, y, z'
loop_
 _atom_site_type_symbol
 _atom_site_label
 _atom_site_symmetry_multiplicity
 _atom_site_fract_x
 _atom_site_fract_y
 _atom_site_fract_z
 _atom_site_occupancy
  Zn  Zn0  1  0.31525000  0.31808000  0.61879000  1.0
  Zn  Zn1  1  0.68475000  0.68192000  0.38121000  1.0
  Zn  Zn2  1  0.56123000  0.23085000  0.77688000  1.0
  Zn  Zn3  1  0.43877000  0.76915000  0.22312000  1.0
  H  H4  1  0.53032000  0.45978000  0.72738000  1.0
  H  H5  1  0.46969000  0.54022000  0.27262000  1.0
  H  H6  1  0.17475000  0.57810000  0.42306000  1.0
  H  H7  1  0.82525000  0.42190000  0.57695000  1.0
  H  H8  1  0.18592000  0.99308000  0.42427000  1.0
  H  H9  1  0.81408000  0.00691000  0.57573000  1.0
  H  H10  1  0.38810000  0.83062000  0.66156000  1.0
  H  H11  1  0.61190000  0.16938000  0.33844000  1.0
  H  H12  1  0.83267000  0.52261000  0.87004000  1.0
  H  H13  1  0.16734000  0.47738000  0.12996000  1.0
  H  H14  1  0.88949000  0.63014000  0.02759000  1.0
  H  H15  1  0.11050000  0.36986000  0.97241000  1.0
  H  H16  1  0.71149000  0.50277000  0.15284000  1.0
  H  H17  1  0.28850000  0.49723000  0.84716000  1.0
  H  H18  1  0.47533000  0.28871000  0.20380000  1.0
  H  H19  1  0.52466000  0.71129000  0.79620000  1.0
  H  H20  1  0.24615000  0.06031000  0.16400000  1.0
  H  H21  1  0.75385000  0.93969000  0.83600000  1.0
  H  H22  1  0.09606000  0.87460000  0.04741000  1.0
  H  H23  1  0.90394000  0.12539000  0.95259000  1.0
  H  H24  1  0.06665000  0.79355000  0.88456000  1.0
  H  H25  1  0.93335000  0.20645000  0.11544000  1.0
  H  H26  1  0.26811000  0.94434000  0.77264000  1.0
  H  H27  1  0.73189000  0.05566000  0.22736000  1.0
  C  C28  1  0.31200000  0.57531000  0.59766000  1.0
  C  C29  1  0.68800000  0.42469000  0.40234000  1.0
  C  C30  1  0.27996000  0.69191000  0.54805000  1.0
  C  C31  1  0.72004000  0.30810000  0.45195000  1.0
  C  C32  1  0.20536000  0.67537000  0.45763000  1.0
  C  C33  1  0.79465000  0.32463000  0.54238000  1.0
  C  C34  1  0.17217000  0.78376000  0.41281000  1.0
  C  C35  1  0.82783000  0.21624000  0.58719000  1.0
  C  C36  1  0.21258000  0.90821000  0.45804000  1.0
  C  C37  1  0.78742000  0.09179000  0.54196000  1.0
  C  C38  1  0.29227000  0.92615000  0.54754000  1.0
  C  C39  1  0.70773000  0.07386000  0.45246000  1.0
  C  C40  1  0.32515000  0.81760000  0.59212000  1.0
  C  C41  1  0.67485000  0.18240000  0.40788000  1.0
  C  C42  1  0.34280000  0.06146000  0.59419000  1.0
  C  C43  1  0.65721000  0.93854000  0.40581000  1.0
  C  C44  1  0.08777000  0.76772000  0.31874000  1.0
  C  C45  1  0.91223000  0.23228000  0.68126000  1.0
  C  C46  1  0.75670000  0.47022000  0.92669000  1.0
  C  C47  1  0.24330000  0.52978000  0.07331000  1.0
  C  C48  1  0.78780000  0.52987000  0.01429000  1.0
  C  C49  1  0.21220000  0.47012000  0.98571000  1.0
  C  C50  1  0.68959000  0.45906000  0.08420000  1.0
  C  C51  1  0.31040000  0.54094000  0.91580000  1.0
  C  C52  1  0.55922000  0.32870000  0.06598000  1.0
  C  C53  1  0.44078000  0.67130000  0.93402000  1.0
  C  C54  1  0.45132000  0.24809000  0.13409000  1.0
  C  C55  1  0.54867000  0.75191000  0.86590000  1.0
  C  C56  1  0.32697000  0.12252000  0.11220000  1.0
  C  C57  1  0.67302000  0.87747000  0.88780000  1.0
  C  C58  1  0.17630000  0.93801000  0.99583000  1.0
  C  C59  1  0.82370000  0.06199000  0.00417000  1.0
  C  C60  1  0.16194000  0.89283000  0.90672000  1.0
  C  C61  1  0.83806000  0.10716000  0.09328000  1.0
  C  C62  1  0.27334000  0.97557000  0.84344000  1.0
  C  C63  1  0.72666000  0.02443000  0.15656000  1.0
  C  C64  1  0.30176000  0.06759000  0.02137000  1.0
  C  C65  1  0.69824000  0.93240000  0.97863000  1.0
  C  C66  1  0.40793000  0.14473000  0.95293000  1.0
  C  C67  1  0.59207000  0.85526000  0.04707000  1.0
  C  C68  1  0.53769000  0.27735000  0.97542000  1.0
  C  C69  1  0.46231000  0.72265000  0.02458000  1.0
  N  N70  1  0.90360000  0.74425000  0.29718000  1.0
  N  N71  1  0.09641000  0.25575000  0.70282000  1.0
  N  N72  1  0.87844000  0.73870000  0.20558000  1.0
  N  N73  1  0.12157000  0.26130000  0.79442000  1.0
  N  N74  1  0.04099000  0.75792000  0.17228000  1.0
  N  N75  1  0.95901000  0.24208000  0.82773000  1.0
  N  N76  1  0.17576000  0.77678000  0.24159000  1.0
  N  N77  1  0.82424000  0.22322000  0.75841000  1.0
  N  N78  1  0.39330000  0.09784000  0.86607000  1.0
  N  N79  1  0.60670000  0.90216000  0.13393000  1.0
  N  N80  1  0.63561000  0.34739000  0.90786000  1.0
  N  N81  1  0.36439000  0.65260000  0.09214000  1.0
  O  O82  1  0.27355000  0.46512000  0.54929000  1.0
  O  O83  1  0.72644000  0.53488000  0.45071000  1.0
  O  O84  1  0.36981000  0.58896000  0.68029000  1.0
  O  O85  1  0.63019000  0.41105000  0.31971000  1.0
  O  O86  1  0.42597000  0.07668000  0.67319000  1.0
  O  O87  1  0.57403000  0.92333000  0.32681000  1.0
  O  O88  1  0.29595000  0.15254000  0.55037000  1.0
  O  O89  1  0.70405000  0.84746000  0.44964000  1.0
  O  O90  1  0.54390000  0.37840000  0.70089000  1.0
  O  O91  1  0.45611000  0.62160000  0.29911000  1.0
