# generated using pymatgen
data_CuH8(C2O)5
_symmetry_space_group_name_H-M   'P 1'
_cell_length_a   8.68081000
_cell_length_b   21.90790000
_cell_length_c   21.90790000
_cell_angle_alpha   60.00000000
_cell_angle_beta   89.99990000
_cell_angle_gamma   89.99990000
_symmetry_Int_Tables_number   1
_chemical_formula_structural   CuH8(C2O)5
_chemical_formula_sum   'Cu12 H96 C120 O60'
_cell_volume   3608.21478925
_cell_formula_units_Z   12
loop_
 _symmetry_equiv_pos_site_id
 _symmetry_equiv_pos_as_xyz
  1  'x, y, z'
loop_
 _atom_site_type_symbol
 _atom_site_label
 _atom_site_symmetry_multiplicity
 _atom_site_fract_x
 _atom_site_fract_y
 _atom_site_fract_z
 _atom_site_occupancy
  Cu  Cu0  1  0.39445000  0.58382000  0.46951000  1.0
  Cu  Cu1  1  0.39445000  0.94667000  0.58383000  1.0
  Cu  Cu2  1  0.39446000  0.46951000  0.94666000  1.0
  Cu  Cu3  1  0.10554000  0.53049000  0.41618000  1.0
  Cu  Cu4  1  0.10555000  0.05333000  0.53050000  1.0
  Cu  Cu5  1  0.10555000  0.41618000  0.05332000  1.0
  Cu  Cu6  1  0.60554000  0.41617000  0.53050000  1.0
  Cu  Cu7  1  0.60555000  0.05333000  0.41617000  1.0
  Cu  Cu8  1  0.60555000  0.53050000  0.05332000  1.0
  Cu  Cu9  1  0.89445000  0.46950000  0.58383000  1.0
  Cu  Cu10  1  0.89445000  0.94666000  0.46951000  1.0
  Cu  Cu11  1  0.89446000  0.58383000  0.94667000  1.0
  H  H12  1  0.88821000  0.92294000  0.32817000  1.0
  H  H13  1  0.88821000  0.74889000  0.92294000  1.0
  H  H14  1  0.88820000  0.32817000  0.74889000  1.0
  H  H15  1  0.61179000  0.67183000  0.07706000  1.0
  H  H16  1  0.61179000  0.25111000  0.67183000  1.0
  H  H17  1  0.61180000  0.07706000  0.25111000  1.0
  H  H18  1  0.11180000  0.07706000  0.67183000  1.0
  H  H19  1  0.11180000  0.25112000  0.07706000  1.0
  H  H20  1  0.11179000  0.67183000  0.25111000  1.0
  H  H21  1  0.38821000  0.32817000  0.92294000  1.0
  H  H22  1  0.38820000  0.74889000  0.32817000  1.0
  H  H23  1  0.38821000  0.92294000  0.74889000  1.0
  H  H24  1  0.27993000  0.83546000  0.46643000  1.0
  H  H25  1  0.27993000  0.69811000  0.83546000  1.0
  H  H26  1  0.27993000  0.46643000  0.69811000  1.0
  H  H27  1  0.22007000  0.53357000  0.16454000  1.0
  H  H28  1  0.22006000  0.30189000  0.53357000  1.0
  H  H29  1  0.22007000  0.16454000  0.30189000  1.0
  H  H30  1  0.72007000  0.16454000  0.53357000  1.0
  H  H31  1  0.72007000  0.30189000  0.16454000  1.0
  H  H32  1  0.72006000  0.53357000  0.30189000  1.0
  H  H33  1  0.77994000  0.46643000  0.83546000  1.0
  H  H34  1  0.77993000  0.69811000  0.46643000  1.0
  H  H35  1  0.77993000  0.83546000  0.69811000  1.0
  H  H36  1  0.14292000  0.79415000  0.53670000  1.0
  H  H37  1  0.14292000  0.66915000  0.79415000  1.0
  H  H38  1  0.14292000  0.53670000  0.66915000  1.0
  H  H39  1  0.35708000  0.46330000  0.20585000  1.0
  H  H40  1  0.35707000  0.33085000  0.46330000  1.0
  H  H41  1  0.35708000  0.20585000  0.33085000  1.0
  H  H42  1  0.85708000  0.20585000  0.46330000  1.0
  H  H43  1  0.85708000  0.33085000  0.20585000  1.0
  H  H44  1  0.85707000  0.46330000  0.33085000  1.0
  H  H45  1  0.64293000  0.53670000  0.79415000  1.0
  H  H46  1  0.64292000  0.66915000  0.53670000  1.0
  H  H47  1  0.64292000  0.79415000  0.66915000  1.0
  H  H48  1  0.90609000  0.74240000  0.29773000  1.0
  H  H49  1  0.90609000  0.95987000  0.74240000  1.0
  H  H50  1  0.90610000  0.29773000  0.95986000  1.0
  H  H51  1  0.59390000  0.70227000  0.25760000  1.0
  H  H52  1  0.59390000  0.04013000  0.70227000  1.0
  H  H53  1  0.59391000  0.25760000  0.04013000  1.0
  H  H54  1  0.09391000  0.25760000  0.70227000  1.0
  H  H55  1  0.09390000  0.04013000  0.25760000  1.0
  H  H56  1  0.09391000  0.70227000  0.04013000  1.0
  H  H57  1  0.40609000  0.29773000  0.74240000  1.0
  H  H58  1  0.40610000  0.95987000  0.29772000  1.0
  H  H59  1  0.40609000  0.74240000  0.95987000  1.0
  H  H60  1  0.78066000  0.93277000  0.22200000  1.0
  H  H61  1  0.78066000  0.84523000  0.93278000  1.0
  H  H62  1  0.78066000  0.22199000  0.84524000  1.0
  H  H63  1  0.71934000  0.77800000  0.06724000  1.0
  H  H64  1  0.71934000  0.15477000  0.77800000  1.0
  H  H65  1  0.71934000  0.06723000  0.15477000  1.0
  H  H66  1  0.21935000  0.06723000  0.77801000  1.0
  H  H67  1  0.21934000  0.15477000  0.06723000  1.0
  H  H68  1  0.21934000  0.77800000  0.15477000  1.0
  H  H69  1  0.28066000  0.22200000  0.93277000  1.0
  H  H70  1  0.28066000  0.84523000  0.22200000  1.0
  H  H71  1  0.28066000  0.93277000  0.84524000  1.0
  H  H72  1  0.66590000  0.85619000  0.25144000  1.0
  H  H73  1  0.66590000  0.89238000  0.85619000  1.0
  H  H74  1  0.66590000  0.25143000  0.89238000  1.0
  H  H75  1  0.83410000  0.74857000  0.14380000  1.0
  H  H76  1  0.83410000  0.10763000  0.74856000  1.0
  H  H77  1  0.83410000  0.14381000  0.10762000  1.0
  H  H78  1  0.33410000  0.14381000  0.74857000  1.0
  H  H79  1  0.33410000  0.10763000  0.14380000  1.0
  H  H80  1  0.33410000  0.74857000  0.10762000  1.0
  H  H81  1  0.16590000  0.25143000  0.85620000  1.0
  H  H82  1  0.16590000  0.89237000  0.25144000  1.0
  H  H83  1  0.16590000  0.85619000  0.89238000  1.0
  H  H84  1  0.82825000  0.86910000  0.19703000  1.0
  H  H85  1  0.82825000  0.93387000  0.86911000  1.0
  H  H86  1  0.82826000  0.19702000  0.93388000  1.0
  H  H87  1  0.67175000  0.80298000  0.13089000  1.0
  H  H88  1  0.67175000  0.06613000  0.80297000  1.0
  H  H89  1  0.67175000  0.13090000  0.06612000  1.0
  H  H90  1  0.17175000  0.13090000  0.80297000  1.0
  H  H91  1  0.17175000  0.06613000  0.13090000  1.0
  H  H92  1  0.17175000  0.80297000  0.06613000  1.0
  H  H93  1  0.32825000  0.19703000  0.86910000  1.0
  H  H94  1  0.32826000  0.93387000  0.19703000  1.0
  H  H95  1  0.32825000  0.86910000  0.93388000  1.0
  H  H96  1  0.15264000  0.73913000  0.46902000  1.0
  H  H97  1  0.15265000  0.79184000  0.73914000  1.0
  H  H98  1  0.15264000  0.46902000  0.79184000  1.0
  H  H99  1  0.34736000  0.53098000  0.26086000  1.0
  H  H100  1  0.34736000  0.20816000  0.53098000  1.0
  H  H101  1  0.34736000  0.26087000  0.20815000  1.0
  H  H102  1  0.84735000  0.26087000  0.53098000  1.0
  H  H103  1  0.84736000  0.20816000  0.26086000  1.0
  H  H104  1  0.84735000  0.53098000  0.20815000  1.0
  H  H105  1  0.65265000  0.46902000  0.73913000  1.0
  H  H106  1  0.65264000  0.79184000  0.46902000  1.0
  H  H107  1  0.65264000  0.73913000  0.79185000  1.0
  C  C108  1  0.92591000  0.86964000  0.34385000  1.0
  C  C109  1  0.92590000  0.78651000  0.86964000  1.0
  C  C110  1  0.92590000  0.34385000  0.78651000  1.0
  C  C111  1  0.57410000  0.65615000  0.13036000  1.0
  C  C112  1  0.57409000  0.21350000  0.65614000  1.0
  C  C113  1  0.57410000  0.13036000  0.21349000  1.0
  C  C114  1  0.07410000  0.13036000  0.65615000  1.0
  C  C115  1  0.07410000  0.21350000  0.13036000  1.0
  C  C116  1  0.07409000  0.65614000  0.21350000  1.0
  C  C117  1  0.42591000  0.34386000  0.86963000  1.0
  C  C118  1  0.42590000  0.78650000  0.34386000  1.0
  C  C119  1  0.42590000  0.86964000  0.78651000  1.0
  C  C120  1  0.10352000  0.66474000  0.40652000  1.0
  C  C121  1  0.10351000  0.92874000  0.66475000  1.0
  C  C122  1  0.10351000  0.40651000  0.92874000  1.0
  C  C123  1  0.39649000  0.59349000  0.33526000  1.0
  C  C124  1  0.39649000  0.07126000  0.59349000  1.0
  C  C125  1  0.39649000  0.33526000  0.07125000  1.0
  C  C126  1  0.89648000  0.33525000  0.59349000  1.0
  C  C127  1  0.89649000  0.07126000  0.33525000  1.0
  C  C128  1  0.89650000  0.59349000  0.07125000  1.0
  C  C129  1  0.60351000  0.40651000  0.66474000  1.0
  C  C130  1  0.60351000  0.92874000  0.40651000  1.0
  C  C131  1  0.60352000  0.66475000  0.92874000  1.0
  C  C132  1  0.17481000  0.84413000  0.48909000  1.0
  C  C133  1  0.17480000  0.66678000  0.84414000  1.0
  C  C134  1  0.17480000  0.48908000  0.66678000  1.0
  C  C135  1  0.32520000  0.51092000  0.15586000  1.0
  C  C136  1  0.32519000  0.33322000  0.51092000  1.0
  C  C137  1  0.32520000  0.15587000  0.33321000  1.0
  C  C138  1  0.82520000  0.15587000  0.51091000  1.0
  C  C139  1  0.82520000  0.33322000  0.15586000  1.0
  C  C140  1  0.82519000  0.51092000  0.33321000  1.0
  C  C141  1  0.67481000  0.48908000  0.84414000  1.0
  C  C142  1  0.67480000  0.66678000  0.48908000  1.0
  C  C143  1  0.67480000  0.84414000  0.66678000  1.0
  C  C144  1  0.93685000  0.76894000  0.32691000  1.0
  C  C145  1  0.93685000  0.90415000  0.76894000  1.0
  C  C146  1  0.93685000  0.32691000  0.90415000  1.0
  C  C147  1  0.56315000  0.67309000  0.23106000  1.0
  C  C148  1  0.56315000  0.09585000  0.67309000  1.0
  C  C149  1  0.56315000  0.23106000  0.09585000  1.0
  C  C150  1  0.06315000  0.23106000  0.67309000  1.0
  C  C151  1  0.06315000  0.09585000  0.23106000  1.0
  C  C152  1  0.06315000  0.67309000  0.09585000  1.0
  C  C153  1  0.43685000  0.32691000  0.76894000  1.0
  C  C154  1  0.43685000  0.90415000  0.32691000  1.0
  C  C155  1  0.43685000  0.76894000  0.90415000  1.0
  C  C156  1  0.01946000  0.83420000  0.40390000  1.0
  C  C157  1  0.01946000  0.76190000  0.83421000  1.0
  C  C158  1  0.01946000  0.40389000  0.76190000  1.0
  C  C159  1  0.48054000  0.59611000  0.16579000  1.0
  C  C160  1  0.48053000  0.23810000  0.59610000  1.0
  C  C161  1  0.48054000  0.16580000  0.23810000  1.0
  C  C162  1  0.98054000  0.16580000  0.59610000  1.0
  C  C163  1  0.98054000  0.23810000  0.16580000  1.0
  C  C164  1  0.98053000  0.59610000  0.23810000  1.0
  C  C165  1  0.51947000  0.40390000  0.83420000  1.0
  C  C166  1  0.51946000  0.76190000  0.40390000  1.0
  C  C167  1  0.51946000  0.83420000  0.76191000  1.0
  C  C168  1  0.78486000  0.87610000  0.24028000  1.0
  C  C169  1  0.78485000  0.88362000  0.87610000  1.0
  C  C170  1  0.78485000  0.24028000  0.88362000  1.0
  C  C171  1  0.71514000  0.75972000  0.12390000  1.0
  C  C172  1  0.71514000  0.11638000  0.75972000  1.0
  C  C173  1  0.71515000  0.12390000  0.11638000  1.0
  C  C174  1  0.21515000  0.12390000  0.75972000  1.0
  C  C175  1  0.21515000  0.11638000  0.12391000  1.0
  C  C176  1  0.21515000  0.75971000  0.11639000  1.0
  C  C177  1  0.28485000  0.24029000  0.87609000  1.0
  C  C178  1  0.28486000  0.88362000  0.24028000  1.0
  C  C179  1  0.28485000  0.87610000  0.88362000  1.0
  C  C180  1  0.07513000  0.76709000  0.42457000  1.0
  C  C181  1  0.07513000  0.80834000  0.76710000  1.0
  C  C182  1  0.07513000  0.42456000  0.80834000  1.0
  C  C183  1  0.42487000  0.57544000  0.23290000  1.0
  C  C184  1  0.42487000  0.19166000  0.57544000  1.0
  C  C185  1  0.42487000  0.23291000  0.19166000  1.0
  C  C186  1  0.92487000  0.23291000  0.57543000  1.0
  C  C187  1  0.92487000  0.19166000  0.23291000  1.0
  C  C188  1  0.92487000  0.57543000  0.19166000  1.0
  C  C189  1  0.57513000  0.42457000  0.76709000  1.0
  C  C190  1  0.57512000  0.80834000  0.42456000  1.0
  C  C191  1  0.57513000  0.76710000  0.80834000  1.0
  C  C192  1  0.03357000  0.73487000  0.38550000  1.0
  C  C193  1  0.03357000  0.87962000  0.73488000  1.0
  C  C194  1  0.03357000  0.38550000  0.87962000  1.0
  C  C195  1  0.46642000  0.61450000  0.26512000  1.0
  C  C196  1  0.46643000  0.12038000  0.61449000  1.0
  C  C197  1  0.46643000  0.26513000  0.12037000  1.0
  C  C198  1  0.96643000  0.26513000  0.61450000  1.0
  C  C199  1  0.96643000  0.12038000  0.26512000  1.0
  C  C200  1  0.96643000  0.61450000  0.12037000  1.0
  C  C201  1  0.53358000  0.38550000  0.73488000  1.0
  C  C202  1  0.53357000  0.87962000  0.38550000  1.0
  C  C203  1  0.53357000  0.73487000  0.87963000  1.0
  C  C204  1  0.88388000  0.83746000  0.30506000  1.0
  C  C205  1  0.88388000  0.85748000  0.83746000  1.0
  C  C206  1  0.88387000  0.30506000  0.85748000  1.0
  C  C207  1  0.61612000  0.69494000  0.16254000  1.0
  C  C208  1  0.61612000  0.14252000  0.69494000  1.0
  C  C209  1  0.61613000  0.16254000  0.14252000  1.0
  C  C210  1  0.11613000  0.16254000  0.69494000  1.0
  C  C211  1  0.11612000  0.14252000  0.16254000  1.0
  C  C212  1  0.11612000  0.69494000  0.14252000  1.0
  C  C213  1  0.38388000  0.30506000  0.83746000  1.0
  C  C214  1  0.38388000  0.85748000  0.30505000  1.0
  C  C215  1  0.38387000  0.83746000  0.85748000  1.0
  C  C216  1  0.20885000  0.89815000  0.51179000  1.0
  C  C217  1  0.20885000  0.59006000  0.89816000  1.0
  C  C218  1  0.20886000  0.51179000  0.59006000  1.0
  C  C219  1  0.29115000  0.48821000  0.10185000  1.0
  C  C220  1  0.29115000  0.40994000  0.48822000  1.0
  C  C221  1  0.29115000  0.10185000  0.40994000  1.0
  C  C222  1  0.79115000  0.10185000  0.48821000  1.0
  C  C223  1  0.79115000  0.40994000  0.10185000  1.0
  C  C224  1  0.79114000  0.48821000  0.40994000  1.0
  C  C225  1  0.70886000  0.51179000  0.89815000  1.0
  C  C226  1  0.70885000  0.59006000  0.51178000  1.0
  C  C227  1  0.70885000  0.89815000  0.59006000  1.0
  O  O228  1  0.22115000  0.64839000  0.44634000  1.0
  O  O229  1  0.22116000  0.90527000  0.64839000  1.0
  O  O230  1  0.22116000  0.44634000  0.90526000  1.0
  O  O231  1  0.27883000  0.55366000  0.35161000  1.0
  O  O232  1  0.27884000  0.09473000  0.55366000  1.0
  O  O233  1  0.27885000  0.35161000  0.09473000  1.0
  O  O234  1  0.77884000  0.35161000  0.55366000  1.0
  O  O235  1  0.77885000  0.09473000  0.35161000  1.0
  O  O236  1  0.77884000  0.55366000  0.09473000  1.0
  O  O237  1  0.72117000  0.44634000  0.64839000  1.0
  O  O238  1  0.72116000  0.90526000  0.44635000  1.0
  O  O239  1  0.72116000  0.64839000  0.90527000  1.0
  O  O240  1  0.05309000  0.86972000  0.43895000  1.0
  O  O241  1  0.05309000  0.69133000  0.86973000  1.0
  O  O242  1  0.05309000  0.43894000  0.69133000  1.0
  O  O243  1  0.44691000  0.56106000  0.13027000  1.0
  O  O244  1  0.44690000  0.30867000  0.56106000  1.0
  O  O245  1  0.44691000  0.13028000  0.30867000  1.0
  O  O246  1  0.94691000  0.13028000  0.56105000  1.0
  O  O247  1  0.94691000  0.30867000  0.13028000  1.0
  O  O248  1  0.94691000  0.56105000  0.30867000  1.0
  O  O249  1  0.55309000  0.43894000  0.86973000  1.0
  O  O250  1  0.55309000  0.69133000  0.43894000  1.0
  O  O251  1  0.55309000  0.86972000  0.69134000  1.0
  O  O252  1  0.33941000  0.88911000  0.54163000  1.0
  O  O253  1  0.33942000  0.56926000  0.88911000  1.0
  O  O254  1  0.33940000  0.54163000  0.56926000  1.0
  O  O255  1  0.16060000  0.45837000  0.11089000  1.0
  O  O256  1  0.16058000  0.43074000  0.45837000  1.0
  O  O257  1  0.16059000  0.11089000  0.43075000  1.0
  O  O258  1  0.66060000  0.11089000  0.45837000  1.0
  O  O259  1  0.66059000  0.43075000  0.11088000  1.0
  O  O260  1  0.66059000  0.45836000  0.43075000  1.0
  O  O261  1  0.83941000  0.54163000  0.88911000  1.0
  O  O262  1  0.83942000  0.56925000  0.54164000  1.0
  O  O263  1  0.83941000  0.88911000  0.56926000  1.0
  O  O264  1  0.04325000  0.62798000  0.38258000  1.0
  O  O265  1  0.04325000  0.98944000  0.62798000  1.0
  O  O266  1  0.04325000  0.38258000  0.98944000  1.0
  O  O267  1  0.45675000  0.61741000  0.37202000  1.0
  O  O268  1  0.45675000  0.01056000  0.61742000  1.0
  O  O269  1  0.45676000  0.37202000  0.01056000  1.0
  O  O270  1  0.95675000  0.37202000  0.61742000  1.0
  O  O271  1  0.95675000  0.01056000  0.37202000  1.0
  O  O272  1  0.95676000  0.61742000  0.01056000  1.0
  O  O273  1  0.54325000  0.38258000  0.62798000  1.0
  O  O274  1  0.54325000  0.98944000  0.38258000  1.0
  O  O275  1  0.54325000  0.62798000  0.98944000  1.0
  O  O276  1  0.11297000  0.94580000  0.50213000  1.0
  O  O277  1  0.11298000  0.55207000  0.94580000  1.0
  O  O278  1  0.11297000  0.50213000  0.55206000  1.0
  O  O279  1  0.38703000  0.49787000  0.05420000  1.0
  O  O280  1  0.38702000  0.44793000  0.49787000  1.0
  O  O281  1  0.38703000  0.05420000  0.44793000  1.0
  O  O282  1  0.88703000  0.05420000  0.49787000  1.0
  O  O283  1  0.88703000  0.44793000  0.05420000  1.0
  O  O284  1  0.88703000  0.49786000  0.44794000  1.0
  O  O285  1  0.61297000  0.50213000  0.94581000  1.0
  O  O286  1  0.61298000  0.55206000  0.50214000  1.0
  O  O287  1  0.61297000  0.94580000  0.55207000  1.0
