# generated using pymatgen
data_Zn8H37C70Br5O33
_symmetry_space_group_name_H-M   'P 1'
_cell_length_a   18.33447873
_cell_length_b   18.36012014
_cell_length_c   18.44960000
_cell_angle_alpha   60.22975275
_cell_angle_beta   89.48040048
_cell_angle_gamma   119.38257070
_symmetry_Int_Tables_number   1
_chemical_formula_structural   Zn8H37C70Br5O33
_chemical_formula_sum   'Zn8 H37 C70 Br5 O33'
_cell_volume   4427.55974459
_cell_formula_units_Z   1
loop_
 _symmetry_equiv_pos_site_id
 _symmetry_equiv_pos_as_xyz
  1  'x, y, z'
loop_
 _atom_site_type_symbol
 _atom_site_label
 _atom_site_symmetry_multiplicity
 _atom_site_fract_x
 _atom_site_fract_y
 _atom_site_fract_z
 _atom_site_occupancy
  Zn  Zn0  1  0.46047000  0.91351000  0.12839000  1.0
  Zn  Zn1  1  0.45622000  0.90955000  0.95778000  1.0
  Zn  Zn2  1  0.63074000  0.08860000  0.95627000  1.0
  Zn  Zn3  1  0.45842000  0.08809000  0.95482000  1.0
  Zn  Zn4  1  0.04592000  0.09097000  0.36753000  1.0
  Zn  Zn5  1  0.87334000  0.91421000  0.54028000  1.0
  Zn  Zn6  1  0.04877000  0.08697000  0.54248000  1.0
  Zn  Zn7  1  0.04624000  0.91344000  0.54114000  1.0
  H  H8  1  0.54307000  0.90364000  0.42784000  1.0
  H  H9  1  0.81767000  0.40341000  0.79439000  1.0
  H  H10  1  0.38013000  0.77415000  0.50798000  1.0
  H  H11  1  0.91467000  0.59332000  0.69744000  1.0
  H  H12  1  0.63205000  0.59551000  0.75881000  1.0
  H  H13  1  0.53049000  0.40398000  0.84538000  1.0
  H  H14  1  0.53445000  0.41360000  0.74409000  1.0
  H  H15  1  0.29803000  0.88108000  0.80040000  1.0
  H  H16  1  0.19960000  0.87686000  0.70855000  1.0
  H  H17  1  0.15614000  0.11873000  0.75624000  1.0
  H  H18  1  0.35576000  0.22795000  0.73041000  1.0
  H  H19  1  0.17553000  0.27529000  0.97435000  1.0
  H  H20  1  0.27322000  0.80583000  0.44049000  1.0
  H  H21  1  0.26862000  0.14056000  0.83448000  1.0
  H  H22  1  0.80845000  0.15224000  0.75485000  1.0
  H  H23  1  0.58236000  0.75335000  0.90846000  1.0
  H  H24  1  0.49091000  0.09452000  0.21198000  1.0
  H  H25  1  0.09306000  0.38959000  0.18014000  1.0
  H  H26  1  0.18100000  0.58179000  0.08633000  1.0
  H  H27  1  0.59797000  0.06301000  0.27916000  1.0
  H  H28  1  0.25245000  0.95291000  0.39927000  1.0
  H  H29  1  0.25558000  0.05303000  0.09614000  1.0
  H  H30  1  0.25827000  0.21301000  0.06297000  1.0
  H  H31  1  0.92876000  0.99044000  0.17123000  1.0
  H  H32  1  0.63778000  0.60551000  0.60095000  1.0
  H  H33  1  0.30318000  0.26570000  0.59715000  1.0
  H  H34  1  0.95518000  0.16709000  0.61506000  1.0
  H  H35  1  0.56376000  0.75201000  0.73297000  1.0
  H  H36  1  0.39797000  0.67829000  0.27100000  1.0
  H  H37  1  0.22743000  0.32881000  0.45289000  1.0
  H  H38  1  0.30736000  0.57251000  0.00970000  1.0
  H  H39  1  0.81179000  0.15315000  0.09438000  1.0
  H  H40  1  0.90684000  0.15301000  0.18917000  1.0
  H  H41  1  0.66989000  0.75416000  0.42783000  1.0
  H  H42  1  0.62585000  0.79676000  0.47193000  1.0
  H  H43  1  0.57357000  0.75339000  0.33207000  1.0
  H  H44  1  0.52939000  0.79772000  0.37402000  1.0
  C  C45  1  0.36585000  0.00229000  0.85897000  1.0
  C  C46  1  0.31147000  0.97375000  0.28335000  1.0
  C  C47  1  0.04902000  0.00655000  0.19616000  1.0
  C  C48  1  0.64139000  0.00179000  0.13632000  1.0
  C  C49  1  0.00097000  0.03959000  0.14745000  1.0
  C  C50  1  0.04746000  0.13621000  0.06746000  1.0
  C  C51  1  0.13999000  0.19967000  0.03653000  1.0
  C  C52  1  0.18589000  0.16415000  0.08652000  1.0
  C  C53  1  0.14230000  0.06717000  0.16729000  1.0
  C  C54  1  0.66744000  0.91661000  0.28016000  1.0
  C  C55  1  0.69781000  0.00096000  0.19342000  1.0
  C  C56  1  0.46670000  0.02374000  0.27656000  1.0
  C  C57  1  0.78565000  0.08627000  0.16209000  1.0
  C  C58  1  0.83898000  0.08627000  0.21542000  1.0
  C  C59  1  0.80744000  0.00108000  0.30347000  1.0
  C  C60  1  0.36906000  0.72171000  0.13787000  1.0
  C  C61  1  0.72073000  0.91678000  0.33379000  1.0
  C  C62  1  0.65082000  0.80740000  0.41077000  1.0
  C  C63  1  0.59049000  0.80726000  0.34994000  1.0
  C  C64  1  0.65990000  0.45010000  0.77311000  1.0
  C  C65  1  0.69484000  0.39195000  0.80232000  1.0
  C  C66  1  0.78830000  0.44660000  0.77328000  1.0
  C  C67  1  0.52678000  0.00641000  0.31455000  1.0
  C  C68  1  0.84269000  0.55303000  0.71886000  1.0
  C  C69  1  0.80693000  0.61133000  0.69063000  1.0
  C  C70  1  0.71438000  0.55683000  0.71937000  1.0
  C  C71  1  0.63526000  0.56503000  0.72140000  1.0
  C  C72  1  0.63807000  0.27842000  0.85994000  1.0
  C  C73  1  0.57429000  0.44365000  0.77870000  1.0
  C  C74  1  0.28153000  0.06817000  0.77164000  1.0
  C  C75  1  0.30822000  0.00180000  0.80276000  1.0
  C  C76  1  0.27757000  0.93314000  0.77807000  1.0
  C  C77  1  0.22229000  0.93067000  0.72663000  1.0
  C  C78  1  0.49595000  0.91685000  0.39801000  1.0
  C  C79  1  0.19363000  0.99603000  0.69751000  1.0
  C  C80  1  0.22500000  0.06444000  0.72140000  1.0
  C  C81  1  0.22135000  0.14791000  0.71725000  1.0
  C  C82  1  0.28976000  0.15525000  0.77007000  1.0
  C  C83  1  0.66865000  0.91839000  0.79775000  1.0
  C  C84  1  0.63931000  0.99776000  0.86466000  1.0
  C  C85  1  0.69687000  0.00047000  0.80433000  1.0
  C  C86  1  0.78340000  0.08679000  0.75171000  1.0
  C  C87  1  0.84089000  0.09222000  0.69478000  1.0
  C  C88  1  0.81194000  0.00898000  0.68799000  1.0
  C  C89  1  0.25275000  0.97333000  0.33278000  1.0
  C  C90  1  0.72488000  0.92405000  0.74115000  1.0
  C  C91  1  0.65786000  0.81590000  0.76997000  1.0
  C  C92  1  0.59646000  0.80822000  0.83849000  1.0
  C  C93  1  0.26392000  0.54945000  0.16612000  1.0
  C  C94  1  0.31821000  0.60944000  0.19451000  1.0
  C  C95  1  0.32019000  0.55631000  0.28160000  1.0
  C  C96  1  0.36516000  0.99886000  0.13940000  1.0
  C  C97  1  0.26630000  0.44640000  0.33865000  1.0
  C  C98  1  0.20967000  0.38866000  0.30924000  1.0
  C  C99  1  0.21208000  0.44402000  0.22131000  1.0
  C  C100  1  0.19703000  0.00312000  0.29869000  1.0
  C  C101  1  0.16553000  0.43120000  0.15813000  1.0
  C  C102  1  0.22293000  0.55328000  0.09337000  1.0
  C  C103  1  0.86561000  0.72489000  0.63424000  1.0
  C  C104  1  0.14946000  0.27675000  0.36750000  1.0
  C  C105  1  0.86493000  0.00266000  0.35958000  1.0
  C  C106  1  0.13360000  0.99181000  0.64382000  1.0
  C  C107  1  0.86932000  0.01154000  0.62920000  1.0
  C  C108  1  0.40468000  0.84465000  0.44311000  1.0
  C  C109  1  0.14252000  0.00639000  0.35638000  1.0
  C  C110  1  0.34450000  0.86237000  0.40537000  1.0
  C  C111  1  0.19750000  0.03342000  0.21173000  1.0
  C  C112  1  0.37483000  0.95195000  0.32154000  1.0
  C  C113  1  0.25499000  0.03207000  0.16283000  1.0
  C  C114  1  0.31081000  0.00240000  0.19697000  1.0
  Br  Br115  1  0.98356000  0.18131000  0.99826000  1.0
  Br  Br116  1  0.69842000  0.72284000  0.83855000  1.0
  Br  Br117  1  0.47855000  0.76968000  0.82620000  1.0
  Br  Br118  1  0.18890000  0.36665000  0.10967000  1.0
  Br  Br119  1  0.98209000  0.87212000  0.30355000  1.0
  O  O120  1  0.50060000  0.99915000  0.99888000  1.0
  O  O121  1  0.09869000  0.04016000  0.63452000  1.0
  O  O122  1  0.83386000  0.93881000  0.62044000  1.0
  O  O123  1  0.38087000  0.05797000  0.88691000  1.0
  O  O124  1  0.11854000  0.94179000  0.43956000  1.0
  O  O125  1  0.95232000  0.08856000  0.59067000  1.0
  O  O126  1  0.12703000  0.07477000  0.31786000  1.0
  O  O127  1  0.94859000  0.06729000  0.31960000  1.0
  O  O128  1  0.12221000  0.94116000  0.61146000  1.0
  O  O129  1  0.82613000  0.76962000  0.61156000  1.0
  O  O130  1  0.14681000  0.23128000  0.44942000  1.0
  O  O131  1  0.40919000  0.76887000  0.17383000  1.0
  O  O132  1  0.55770000  0.93726000  0.17657000  1.0
  O  O133  1  0.37042000  0.76568000  0.05823000  1.0
  O  O134  1  0.67777000  0.23394000  0.88611000  1.0
  O  O135  1  0.55768000  0.92261000  0.90109000  1.0
  O  O136  1  0.39380000  0.06747000  0.05637000  1.0
  O  O137  1  0.67685000  0.07039000  0.87434000  1.0
  O  O138  1  0.37627000  0.92680000  0.17726000  1.0
  O  O139  1  0.62228000  0.61909000  0.64134000  1.0
  O  O140  1  0.24534000  0.23684000  0.63427000  1.0
  O  O141  1  0.92310000  0.17877000  0.64774000  1.0
  O  O142  1  0.55413000  0.23475000  0.87837000  1.0
  O  O143  1  0.62850000  0.80251000  0.70725000  1.0
  O  O144  1  0.37031000  0.60372000  0.31656000  1.0
  O  O145  1  0.27245000  0.40409000  0.42010000  1.0
  O  O146  1  0.27569000  0.60333000  0.00707000  1.0
  O  O147  1  0.39500000  0.94731000  0.87470000  1.0
  O  O148  1  0.68055000  0.06629000  0.05257000  1.0
  O  O149  1  0.00403000  0.00232000  0.49786000  1.0
  O  O150  1  0.94949000  0.76757000  0.61356000  1.0
  O  O151  1  0.10259000  0.23142000  0.33457000  1.0
  O  O152  1  0.82515000  0.93893000  0.44328000  1.0
