# generated using pymatgen
data_CdH8C14(SeN3)2
_symmetry_space_group_name_H-M   'P 1'
_cell_length_a   5.79331000
_cell_length_b   8.62530230
_cell_length_c   17.71540000
_cell_angle_alpha   90.00033503
_cell_angle_beta   90.00120000
_cell_angle_gamma   106.21606922
_symmetry_Int_Tables_number   1
_chemical_formula_structural   CdH8C14(SeN3)2
_chemical_formula_sum   'Cd2 H16 C28 Se4 N12'
_cell_volume   850.00351957
_cell_formula_units_Z   2
loop_
 _symmetry_equiv_pos_site_id
 _symmetry_equiv_pos_as_xyz
  1  'x, y, z'
loop_
 _atom_site_type_symbol
 _atom_site_label
 _atom_site_symmetry_multiplicity
 _atom_site_fract_x
 _atom_site_fract_y
 _atom_site_fract_z
 _atom_site_occupancy
  Cd  Cd0  1  0.99998000  0.00000000  0.00001000  1.0
  Cd  Cd1  1  0.00000000  0.50001000  0.49999000  1.0
  H  H2  1  0.08510000  0.78670000  0.13576000  1.0
  H  H3  1  0.08508000  0.28672000  0.36425000  1.0
  H  H4  1  0.91489000  0.21328000  0.86424000  1.0
  H  H5  1  0.91494000  0.71329000  0.63576000  1.0
  H  H6  1  0.88406000  0.56071000  0.22172000  1.0
  H  H7  1  0.88405000  0.06072000  0.27828000  1.0
  H  H8  1  0.11596000  0.43926000  0.77826000  1.0
  H  H9  1  0.11597000  0.93927000  0.72173000  1.0
  H  H10  1  0.23839000  0.49526000  0.08720000  1.0
  H  H11  1  0.23838000  0.99526000  0.41281000  1.0
  H  H12  1  0.76161000  0.50473000  0.91280000  1.0
  H  H13  1  0.76163000  0.00475000  0.58719000  1.0
  H  H14  1  0.46904000  0.72315000  0.00599000  1.0
  H  H15  1  0.46902000  0.22315000  0.49402000  1.0
  H  H16  1  0.53095000  0.27685000  0.99402000  1.0
  H  H17  1  0.53096000  0.77686000  0.50598000  1.0
  C  C18  1  0.53429000  0.08099000  0.09330000  1.0
  C  C19  1  0.53432000  0.58101000  0.40670000  1.0
  C  C20  1  0.46567000  0.91900000  0.90671000  1.0
  C  C21  1  0.46571000  0.41902000  0.59328000  1.0
  C  C22  1  0.89881000  0.71770000  0.12636000  1.0
  C  C23  1  0.89879000  0.21771000  0.37365000  1.0
  C  C24  1  0.10120000  0.28229000  0.87364000  1.0
  C  C25  1  0.10123000  0.78230000  0.62636000  1.0
  C  C26  1  0.78649000  0.59183000  0.17430000  1.0
  C  C27  1  0.78648000  0.09184000  0.32571000  1.0
  C  C28  1  0.21352000  0.40816000  0.82570000  1.0
  C  C29  1  0.21354000  0.90816000  0.67429000  1.0
  C  C30  1  0.54482000  0.50980000  0.16058000  1.0
  C  C31  1  0.54479000  0.00979000  0.33942000  1.0
  C  C32  1  0.45517000  0.49018000  0.83942000  1.0
  C  C33  1  0.45519000  0.99019000  0.66058000  1.0
  C  C34  1  0.42623000  0.55633000  0.09932000  1.0
  C  C35  1  0.42623000  0.05634000  0.40069000  1.0
  C  C36  1  0.57376000  0.44367000  0.90068000  1.0
  C  C37  1  0.57377000  0.94368000  0.59931000  1.0
  C  C38  1  0.55446000  0.68295000  0.05409000  1.0
  C  C39  1  0.55445000  0.18295000  0.44592000  1.0
  C  C40  1  0.44554000  0.31705000  0.94591000  1.0
  C  C41  1  0.44554000  0.81706000  0.55408000  1.0
  C  C42  1  0.42074000  0.38069000  0.20858000  1.0
  C  C43  1  0.42072000  0.88068000  0.29143000  1.0
  C  C44  1  0.57927000  0.61932000  0.79142000  1.0
  C  C45  1  0.57928000  0.11933000  0.70857000  1.0
  Se  Se46  1  0.84254000  0.17329000  0.11822000  1.0
  Se  Se47  1  0.84254000  0.67330000  0.38176000  1.0
  Se  Se48  1  0.15742000  0.82668000  0.88180000  1.0
  Se  Se49  1  0.15747000  0.32663000  0.61816000  1.0
  N  N50  1  0.33220000  0.01826000  0.07682000  1.0
  N  N51  1  0.33221000  0.51828000  0.42318000  1.0
  N  N52  1  0.66777000  0.98174000  0.92320000  1.0
  N  N53  1  0.66782000  0.48178000  0.57681000  1.0
  N  N54  1  0.78594000  0.76218000  0.06722000  1.0
  N  N55  1  0.78592000  0.26219000  0.43279000  1.0
  N  N56  1  0.21405000  0.23782000  0.93278000  1.0
  N  N57  1  0.21408000  0.73782000  0.56722000  1.0
  N  N58  1  0.31791000  0.27417000  0.24719000  1.0
  N  N59  1  0.31791000  0.77417000  0.25281000  1.0
  N  N60  1  0.68209000  0.72583000  0.75281000  1.0
  N  N61  1  0.68209000  0.22585000  0.74719000  1.0
