# generated using pymatgen
data_AlH8(C2O)5
_symmetry_space_group_name_H-M   'P 1'
_cell_length_a   6.67982000
_cell_length_b   16.25240000
_cell_length_c   17.30730000
_cell_angle_alpha   80.23020000
_cell_angle_beta   89.99970000
_cell_angle_gamma   89.99950000
_symmetry_Int_Tables_number   1
_chemical_formula_structural   AlH8(C2O)5
_chemical_formula_sum   'Al4 H32 C40 O20'
_cell_volume   1851.68496740
_cell_formula_units_Z   4
loop_
 _symmetry_equiv_pos_site_id
 _symmetry_equiv_pos_as_xyz
  1  'x, y, z'
loop_
 _atom_site_type_symbol
 _atom_site_label
 _atom_site_symmetry_multiplicity
 _atom_site_fract_x
 _atom_site_fract_y
 _atom_site_fract_z
 _atom_site_occupancy
  Al  Al0  1  0.12699000  0.50268000  0.50162000  1.0
  Al  Al1  1  0.62699000  0.49732000  0.49837000  1.0
  Al  Al2  1  0.61483000  0.99776000  0.99771000  1.0
  Al  Al3  1  0.11483000  0.00225000  0.00228000  1.0
  H  H4  1  0.02633000  0.19190000  0.79504000  1.0
  H  H5  1  0.52630000  0.80811000  0.20496000  1.0
  H  H6  1  0.57298000  0.30260000  0.68667000  1.0
  H  H7  1  0.07297000  0.69741000  0.31332000  1.0
  H  H8  1  0.03071000  0.30792000  0.70765000  1.0
  H  H9  1  0.53071000  0.69208000  0.29234000  1.0
  H  H10  1  0.62361000  0.29657000  0.36595000  1.0
  H  H11  1  0.12360000  0.70343000  0.63404000  1.0
  H  H12  1  0.18697000  0.41380000  0.29865000  1.0
  H  H13  1  0.68698000  0.58621000  0.70134000  1.0
  H  H14  1  0.22878000  0.32536000  0.19508000  1.0
  H  H15  1  0.72881000  0.67467000  0.80489000  1.0
  H  H16  1  0.11481000  0.21012000  0.13082000  1.0
  H  H17  1  0.61482000  0.78991000  0.86914000  1.0
  H  H18  1  0.56580000  0.19375000  0.80463000  1.0
  H  H19  1  0.06579000  0.80626000  0.19536000  1.0
  H  H20  1  0.25730000  0.10207000  0.25359000  1.0
  H  H21  1  0.40479000  0.03476000  0.32277000  1.0
  H  H22  1  0.19997000  0.09038000  0.35452000  1.0
  H  H23  1  0.51980000  0.15779000  0.38225000  1.0
  H  H24  1  0.37129000  0.22497000  0.31612000  1.0
  H  H25  1  0.75731000  0.89795000  0.74638000  1.0
  H  H26  1  0.90482000  0.96525000  0.67720000  1.0
  H  H27  1  0.69999000  0.90964000  0.64545000  1.0
  H  H28  1  0.01980000  0.84221000  0.61772000  1.0
  H  H29  1  0.87128000  0.77504000  0.68385000  1.0
  H  H30  1  0.56021000  0.08593000  0.19986000  1.0
  H  H31  1  0.06017000  0.91408000  0.80012000  1.0
  H  H32  1  0.36748000  0.39278000  0.49518000  1.0
  H  H33  1  0.86748000  0.60723000  0.50479000  1.0
  H  H34  1  0.37408000  0.10681000  0.00550000  1.0
  H  H35  1  0.87407000  0.89319000  0.99452000  1.0
  C  C36  1  0.38265000  0.58862000  0.59953000  1.0
  C  C37  1  0.88264000  0.41137000  0.40046000  1.0
  C  C38  1  0.37758000  0.61128000  0.38696000  1.0
  C  C39  1  0.87756000  0.38873000  0.61303000  1.0
  C  C40  1  0.71218000  0.21489000  0.78085000  1.0
  C  C41  1  0.21217000  0.78511000  0.21914000  1.0
  C  C42  1  0.87488000  0.17564000  0.81574000  1.0
  C  C43  1  0.37488000  0.82437000  0.18425000  1.0
  C  C44  1  0.71624000  0.28227000  0.71401000  1.0
  C  C45  1  0.21624000  0.71773000  0.28598000  1.0
  C  C46  1  0.88211000  0.32261000  0.68303000  1.0
  C  C47  1  0.38210000  0.67739000  0.31696000  1.0
  C  C48  1  0.90115000  0.35916000  0.33781000  1.0
  C  C49  1  0.40116000  0.64084000  0.66219000  1.0
  C  C50  1  0.83901000  0.14418000  0.15935000  1.0
  C  C51  1  0.33900000  0.85584000  0.84063000  1.0
  C  C52  1  0.63686000  0.18192000  0.26615000  1.0
  C  C53  1  0.13686000  0.81809000  0.73383000  1.0
  C  C54  1  0.66723000  0.13409000  0.20848000  1.0
  C  C55  1  0.16721000  0.86592000  0.79150000  1.0
  C  C56  1  0.98167000  0.20338000  0.16786000  1.0
  C  C57  1  0.48166000  0.79665000  0.83212000  1.0
  C  C58  1  0.95407000  0.25630000  0.22403000  1.0
  C  C59  1  0.45406000  0.74372000  0.77595000  1.0
  C  C60  1  0.77960000  0.24632000  0.27350000  1.0
  C  C61  1  0.27959000  0.75368000  0.72648000  1.0
  C  C62  1  0.75597000  0.30071000  0.32874000  1.0
  C  C63  1  0.25597000  0.69929000  0.67126000  1.0
  C  C64  1  0.07472000  0.36762000  0.28987000  1.0
  C  C65  1  0.57474000  0.63239000  0.71011000  1.0
  C  C66  1  0.09769000  0.31836000  0.23326000  1.0
  C  C67  1  0.59770000  0.68166000  0.76672000  1.0
  C  C68  1  0.36484000  0.89046000  0.11436000  1.0
  C  C69  1  0.86484000  0.10954000  0.88562000  1.0
  C  C70  1  0.35852000  0.90889000  0.90255000  1.0
  C  C71  1  0.85855000  0.09112000  0.09743000  1.0
  C  C72  1  0.46110000  0.16732000  0.32177000  1.0
  C  C73  1  0.32398000  0.09454000  0.31234000  1.0
  C  C74  1  0.96110000  0.83269000  0.67820000  1.0
  C  C75  1  0.82399000  0.90548000  0.68762000  1.0
  O  O76  1  0.54832000  0.58285000  0.41215000  1.0
  O  O77  1  0.04830000  0.41716000  0.58784000  1.0
  O  O78  1  0.20847000  0.57254000  0.57581000  1.0
  O  O79  1  0.70846000  0.42746000  0.42418000  1.0
  O  O80  1  0.20796000  0.58875000  0.41720000  1.0
  O  O81  1  0.70793000  0.41125000  0.58280000  1.0
  O  O82  1  0.04763000  0.43495000  0.42640000  1.0
  O  O83  1  0.54765000  0.56504000  0.57360000  1.0
  O  O84  1  0.37461000  0.45019000  0.50317000  1.0
  O  O85  1  0.87460000  0.54982000  0.49682000  1.0
  O  O86  1  0.19409000  0.93250000  0.92883000  1.0
  O  O87  1  0.69411000  0.06751000  0.07114000  1.0
  O  O88  1  0.53441000  0.91349000  0.08390000  1.0
  O  O89  1  0.03440000  0.08652000  0.91609000  1.0
  O  O90  1  0.53320000  0.92597000  0.92516000  1.0
  O  O91  1  0.03323000  0.07403000  0.07484000  1.0
  O  O92  1  0.69379000  0.08191000  0.91055000  1.0
  O  O93  1  0.19379000  0.91808000  0.08942000  1.0
  O  O94  1  0.36683000  0.04996000  0.99586000  1.0
  O  O95  1  0.86681000  0.95005000  0.00413000  1.0
