# generated using pymatgen
data_AgH8C5BrN2
_symmetry_space_group_name_H-M   'P 1'
_cell_length_a   6.19642000
_cell_length_b   8.23114000
_cell_length_c   8.41304905
_cell_angle_alpha   108.80887503
_cell_angle_beta   111.58859597
_cell_angle_gamma   90.05240000
_symmetry_Int_Tables_number   1
_chemical_formula_structural   AgH8C5BrN2
_chemical_formula_sum   'Ag2 H16 C10 Br2 N4'
_cell_volume   374.18850977
_cell_formula_units_Z   2
loop_
 _symmetry_equiv_pos_site_id
 _symmetry_equiv_pos_as_xyz
  1  'x, y, z'
loop_
 _atom_site_type_symbol
 _atom_site_label
 _atom_site_symmetry_multiplicity
 _atom_site_fract_x
 _atom_site_fract_y
 _atom_site_fract_z
 _atom_site_occupancy
  Ag  Ag0  1  0.00000000  0.00000000  0.00000000  1.0
  Ag  Ag1  1  0.50001000  0.99999000  0.00000000  1.0
  H  H2  1  0.70812000  0.17457000  0.41625000  1.0
  H  H3  1  0.29188000  0.82542000  0.58375000  1.0
  H  H4  1  0.64459000  0.81491000  0.28942000  1.0
  H  H5  1  0.35540000  0.18509000  0.71058000  1.0
  H  H6  1  0.71806000  0.59229000  0.43641000  1.0
  H  H7  1  0.28195000  0.40771000  0.56360000  1.0
  H  H8  1  0.86129000  0.40283000  0.72227000  1.0
  H  H9  1  0.13871000  0.59718000  0.27773000  1.0
  H  H10  1  0.96850000  0.66004000  0.64870000  1.0
  H  H11  1  0.67987000  0.65989000  0.64868000  1.0
  H  H12  1  0.03151000  0.33996000  0.35131000  1.0
  H  H13  1  0.32013000  0.34012000  0.35133000  1.0
  H  H14  1  0.08900000  0.34176000  0.88841000  1.0
  H  H15  1  0.79980000  0.34169000  0.88850000  1.0
  H  H16  1  0.91100000  0.65824000  0.11159000  1.0
  H  H17  1  0.20020000  0.65831000  0.11150000  1.0
  C  C18  1  0.90114000  0.31692000  0.80199000  1.0
  C  C19  1  0.09886000  0.68308000  0.19801000  1.0
  C  C20  1  0.86792000  0.99976000  0.73593000  1.0
  C  C21  1  0.13208000  0.00024000  0.26407000  1.0
  C  C22  1  0.78876000  0.68174000  0.57779000  1.0
  C  C23  1  0.21125000  0.31826000  0.42222000  1.0
  C  C24  1  0.71361000  0.90779000  0.42738000  1.0
  C  C25  1  0.28638000  0.09220000  0.57260000  1.0
  C  C26  1  0.74492000  0.08476000  0.49002000  1.0
  C  C27  1  0.25508000  0.91525000  0.50998000  1.0
  Br  Br28  1  0.56000000  0.32283000  0.11820000  1.0
  Br  Br29  1  0.43999000  0.67716000  0.88180000  1.0
  N  N30  1  0.83908000  0.13771000  0.67819000  1.0
  N  N31  1  0.16092000  0.86229000  0.32181000  1.0
  N  N32  1  0.78979000  0.85926000  0.57976000  1.0
  N  N33  1  0.21021000  0.14074000  0.42024000  1.0
