# generated using pymatgen
data_CuH10C12N6O
_symmetry_space_group_name_H-M   'P 1'
_cell_length_a   6.82127000
_cell_length_b   13.36200000
_cell_length_c   14.63980000
_cell_angle_alpha   73.79360000
_cell_angle_beta   76.74610000
_cell_angle_gamma   75.26280000
_symmetry_Int_Tables_number   1
_chemical_formula_structural   CuH10C12N6O
_chemical_formula_sum   'Cu4 H40 C48 N24 O4'
_cell_volume   1221.05204585
_cell_formula_units_Z   4
loop_
 _symmetry_equiv_pos_site_id
 _symmetry_equiv_pos_as_xyz
  1  'x, y, z'
loop_
 _atom_site_type_symbol
 _atom_site_label
 _atom_site_symmetry_multiplicity
 _atom_site_fract_x
 _atom_site_fract_y
 _atom_site_fract_z
 _atom_site_occupancy
  Cu  Cu0  1  0.02551000  0.75224000  0.75933000  1.0
  Cu  Cu1  1  0.53702000  0.74749000  0.74069000  1.0
  Cu  Cu2  1  0.97450000  0.24776000  0.24067000  1.0
  Cu  Cu3  1  0.46300000  0.25251000  0.25931000  1.0
  H  H4  1  0.24246000  0.95435000  0.67650000  1.0
  H  H5  1  0.87310000  0.54542000  0.82349000  1.0
  H  H6  1  0.75754000  0.04565000  0.32350000  1.0
  H  H7  1  0.12690000  0.45458000  0.17651000  1.0
  H  H8  1  0.21285000  0.88800000  0.60802000  1.0
  H  H9  1  0.71023000  0.61161000  0.89206000  1.0
  H  H10  1  0.78715000  0.11200000  0.39197000  1.0
  H  H11  1  0.28977000  0.38839000  0.10794000  1.0
  H  H12  1  0.44188000  0.78711000  0.51228000  1.0
  H  H13  1  0.74315000  0.71301000  0.98736000  1.0
  H  H14  1  0.55813000  0.21288000  0.48772000  1.0
  H  H15  1  0.25685000  0.28699000  0.01264000  1.0
  H  H16  1  0.52620000  0.83613000  0.33224000  1.0
  H  H17  1  0.69831000  0.66392000  0.16738000  1.0
  H  H18  1  0.47378000  0.16387000  0.66777000  1.0
  H  H19  1  0.30167000  0.33608000  0.83262000  1.0
  H  H20  1  0.86063000  0.88175000  0.24878000  1.0
  H  H21  1  0.99556000  0.61811000  0.25121000  1.0
  H  H22  1  0.13934000  0.11825000  0.75123000  1.0
  H  H23  1  0.00441000  0.38189000  0.74879000  1.0
  H  H24  1  0.12220000  0.88779000  0.33911000  1.0
  H  H25  1  0.35239000  0.61184000  0.16122000  1.0
  H  H26  1  0.87779000  0.11221000  0.66088000  1.0
  H  H27  1  0.64759000  0.38817000  0.83879000  1.0
  H  H28  1  0.07124000  0.94187000  0.86931000  1.0
  H  H29  1  0.88119000  0.55879000  0.63067000  1.0
  H  H30  1  0.92877000  0.05814000  0.13069000  1.0
  H  H31  1  0.11882000  0.44121000  0.36932000  1.0
  H  H32  1  0.93430000  0.10271000  0.93707000  1.0
  H  H33  1  0.97272000  0.39804000  0.56279000  1.0
  H  H34  1  0.06571000  0.89730000  0.06293000  1.0
  H  H35  1  0.02728000  0.60196000  0.43720000  1.0
  H  H36  1  0.56910000  0.19109000  0.94856000  1.0
  H  H37  1  0.70810000  0.30890000  0.55134000  1.0
  H  H38  1  0.43091000  0.80892000  0.05143000  1.0
  H  H39  1  0.29189000  0.69110000  0.44865000  1.0
  H  H40  1  0.31863000  0.12370000  0.89332000  1.0
  H  H41  1  0.33569000  0.37552000  0.60672000  1.0
  H  H42  1  0.68138000  0.87630000  0.10668000  1.0
  H  H43  1  0.66430000  0.62448000  0.39328000  1.0
  C  C44  1  0.73950000  0.80843000  0.52649000  1.0
  C  C45  1  0.07613000  0.69150000  0.97346000  1.0
  C  C46  1  0.26050000  0.19157000  0.47351000  1.0
  C  C47  1  0.92386000  0.30850000  0.02654000  1.0
  C  C48  1  0.58877000  0.80812000  0.47530000  1.0
  C  C49  1  0.87443000  0.69196000  0.02444000  1.0
  C  C50  1  0.41123000  0.19188000  0.52470000  1.0
  C  C51  1  0.12556000  0.30804000  0.97556000  1.0
  C  C52  1  0.63700000  0.83579000  0.37555000  1.0
  C  C53  1  0.85154000  0.66422000  0.12420000  1.0
  C  C54  1  0.36299000  0.16421000  0.62445000  1.0
  C  C55  1  0.14845000  0.33578000  0.87581000  1.0
  C  C56  1  0.82873000  0.86298000  0.32729000  1.0
  C  C57  1  0.02256000  0.63689000  0.17267000  1.0
  C  C58  1  0.17125000  0.13702000  0.67270000  1.0
  C  C59  1  0.97741000  0.36311000  0.82733000  1.0
  C  C60  1  0.97610000  0.86637000  0.37726000  1.0
  C  C61  1  0.22268000  0.63332000  0.12292000  1.0
  C  C62  1  0.02389000  0.13363000  0.62273000  1.0
  C  C63  1  0.77730000  0.36668000  0.87709000  1.0
  C  C64  1  0.92922000  0.83898000  0.47885000  1.0
  C  C65  1  0.24905000  0.66076000  0.02132000  1.0
  C  C66  1  0.07079000  0.16102000  0.52115000  1.0
  C  C67  1  0.75095000  0.33924000  0.97868000  1.0
  C  C68  1  0.76654000  0.94198000  0.84405000  1.0
  C  C69  1  0.55202000  0.55800000  0.65588000  1.0
  C  C70  1  0.23347000  0.05803000  0.15595000  1.0
  C  C71  1  0.44799000  0.44200000  0.34412000  1.0
  C  C72  1  0.90856000  0.97997000  0.87503000  1.0
  C  C73  1  0.76255000  0.52045000  0.62488000  1.0
  C  C74  1  0.09145000  0.02003000  0.12497000  1.0
  C  C75  1  0.23745000  0.47955000  0.37512000  1.0
  C  C76  1  0.83113000  0.07032000  0.91138000  1.0
  C  C77  1  0.81184000  0.43012000  0.58844000  1.0
  C  C78  1  0.16889000  0.92968000  0.08862000  1.0
  C  C79  1  0.18816000  0.56988000  0.41155000  1.0
  C  C80  1  0.62084000  0.12197000  0.91720000  1.0
  C  C81  1  0.65934000  0.37805000  0.58268000  1.0
  C  C82  1  0.37917000  0.87804000  0.08279000  1.0
  C  C83  1  0.34065000  0.62195000  0.41732000  1.0
  C  C84  1  0.48064000  0.08510000  0.88673000  1.0
  C  C85  1  0.45222000  0.41446000  0.61326000  1.0
  C  C86  1  0.51938000  0.91491000  0.11327000  1.0
  C  C87  1  0.54777000  0.58554000  0.38674000  1.0
  C  C88  1  0.55572000  0.99351000  0.84983000  1.0
  C  C89  1  0.39882000  0.50609000  0.65013000  1.0
  C  C90  1  0.44430000  0.00649000  0.15017000  1.0
  C  C91  1  0.60118000  0.49391000  0.34987000  1.0
  N  N92  1  0.92694000  0.79519000  0.63186000  1.0
  N  N93  1  0.35473000  0.70445000  0.86837000  1.0
  N  N94  1  0.07307000  0.20481000  0.36813000  1.0
  N  N95  1  0.64528000  0.29555000  0.13164000  1.0
  N  N96  1  0.74690000  0.78137000  0.62295000  1.0
  N  N97  1  0.15214000  0.71845000  0.87706000  1.0
  N  N98  1  0.25311000  0.21863000  0.37704000  1.0
  N  N99  1  0.84787000  0.28155000  0.12294000  1.0
  N  N100  1  0.04199000  0.83004000  0.54837000  1.0
  N  N101  1  0.42173000  0.66954000  0.95200000  1.0
  N  N102  1  0.95802000  0.16996000  0.45163000  1.0
  N  N103  1  0.57826000  0.33046000  0.04801000  1.0
  N  N104  1  0.59902000  0.85787000  0.79139000  1.0
  N  N105  1  0.24828000  0.64162000  0.70863000  1.0
  N  N106  1  0.40099000  0.14213000  0.20861000  1.0
  N  N107  1  0.75172000  0.35837000  0.29137000  1.0
  N  N108  1  0.78580000  0.85644000  0.80644000  1.0
  N  N109  1  0.44832000  0.64341000  0.69351000  1.0
  N  N110  1  0.21421000  0.14357000  0.19356000  1.0
  N  N111  1  0.55169000  0.35658000  0.30649000  1.0
  N  N112  1  0.45629000  0.93739000  0.81641000  1.0
  N  N113  1  0.21021000  0.56190000  0.68359000  1.0
  N  N114  1  0.54372000  0.06261000  0.18359000  1.0
  N  N115  1  0.78980000  0.43810000  0.31641000  1.0
  O  O116  1  0.26259000  0.88228000  0.66779000  1.0
  O  O117  1  0.81293000  0.61747000  0.83227000  1.0
  O  O118  1  0.73741000  0.11772000  0.33221000  1.0
  O  O119  1  0.18707000  0.38253000  0.16773000  1.0
