# generated using pymatgen
data_SmH6C3(NO)6
_symmetry_space_group_name_H-M   'P 1'
_cell_length_a   8.99871000
_cell_length_b   10.20420000
_cell_length_c   12.79880000
_cell_angle_alpha   90.00020000
_cell_angle_beta   90.00050000
_cell_angle_gamma   106.65500000
_symmetry_Int_Tables_number   1
_chemical_formula_structural   SmH6C3(NO)6
_chemical_formula_sum   'Sm4 H24 C12 N24 O24'
_cell_volume   1125.94114660
_cell_formula_units_Z   4
loop_
 _symmetry_equiv_pos_site_id
 _symmetry_equiv_pos_as_xyz
  1  'x, y, z'
loop_
 _atom_site_type_symbol
 _atom_site_label
 _atom_site_symmetry_multiplicity
 _atom_site_fract_x
 _atom_site_fract_y
 _atom_site_fract_z
 _atom_site_occupancy
  Sm  Sm0  1  0.22073000  0.13126000  0.32203000  1.0
  Sm  Sm1  1  0.72073000  0.13126000  0.67797000  1.0
  Sm  Sm2  1  0.85520000  0.57357000  0.17415000  1.0
  Sm  Sm3  1  0.35519000  0.57356000  0.82585000  1.0
  H  H4  1  0.85815000  0.51706000  0.42295000  1.0
  H  H5  1  0.35815000  0.51706000  0.57705000  1.0
  H  H6  1  0.82138000  0.65784000  0.39411000  1.0
  H  H7  1  0.32137000  0.65784000  0.60590000  1.0
  H  H8  1  0.91934000  0.85147000  0.26949000  1.0
  H  H9  1  0.41934000  0.85146000  0.73052000  1.0
  H  H10  1  0.74252000  0.83719000  0.24224000  1.0
  H  H11  1  0.24252000  0.83719000  0.75777000  1.0
  H  H12  1  0.89652000  0.35168000  0.00526000  1.0
  H  H13  1  0.39653000  0.35169000  0.99474000  1.0
  H  H14  1  0.94180000  0.49718000  0.95445000  1.0
  H  H15  1  0.44180000  0.49718000  0.04556000  1.0
  H  H16  1  0.08239000  0.48031000  0.30746000  1.0
  H  H17  1  0.58238000  0.48030000  0.69254000  1.0
  H  H18  1  0.15827000  0.47253000  0.19806000  1.0
  H  H19  1  0.65826000  0.47252000  0.80194000  1.0
  H  H20  1  0.70115000  0.67341000  0.98141000  1.0
  H  H21  1  0.20115000  0.67342000  0.01859000  1.0
  H  H22  1  0.83352000  0.79231000  0.02453000  1.0
  H  H23  1  0.33353000  0.79231000  0.97547000  1.0
  H  H24  1  0.99656000  0.12431000  0.13924000  1.0
  H  H25  1  0.49657000  0.12431000  0.86076000  1.0
  H  H26  1  0.92157000  0.17567000  0.23814000  1.0
  H  H27  1  0.42157000  0.17567000  0.76186000  1.0
  C  C28  1  0.45983000  0.19607000  0.52105000  1.0
  C  C29  1  0.95982000  0.19608000  0.47895000  1.0
  C  C30  1  0.43068000  0.04625000  0.50710000  1.0
  C  C31  1  0.93068000  0.04624000  0.49288000  1.0
  C  C32  1  0.26507000  0.97022000  0.09566000  1.0
  C  C33  1  0.76507000  0.97021000  0.90434000  1.0
  C  C34  1  0.15362000  0.86346000  0.15789000  1.0
  C  C35  1  0.65362000  0.86346000  0.84211000  1.0
  C  C36  1  0.57462000  0.30580000  0.24555000  1.0
  C  C37  1  0.07462000  0.30578000  0.75446000  1.0
  C  C38  1  0.48679000  0.40390000  0.21988000  1.0
  C  C39  1  0.98680000  0.40389000  0.78012000  1.0
  N  N40  1  0.37881000  0.27162000  0.47535000  1.0
  N  N41  1  0.87881000  0.27162000  0.52465000  1.0
  N  N42  1  0.43719000  0.39802000  0.51398000  1.0
  N  N43  1  0.93719000  0.39802000  0.48602000  1.0
  N  N44  1  0.55116000  0.39777000  0.57956000  1.0
  N  N45  1  0.05116000  0.39778000  0.42044000  1.0
  N  N46  1  0.56699000  0.27203000  0.58552000  1.0
  N  N47  1  0.06699000  0.27203000  0.41448000  1.0
  N  N48  1  0.29013000  0.10280000  0.12038000  1.0
  N  N49  1  0.79013000  0.10279000  0.87961000  1.0
  N  N50  1  0.38485000  0.17267000  0.04627000  1.0
  N  N51  1  0.88485000  0.17267000  0.95373000  1.0
  N  N52  1  0.41831000  0.08439000  0.98071000  1.0
  N  N53  1  0.91831000  0.08439000  0.01929000  1.0
  N  N54  1  0.34371000  0.95668000  0.00911000  1.0
  N  N55  1  0.84370000  0.95668000  0.99090000  1.0
  N  N56  1  0.72643000  0.32885000  0.22778000  1.0
  N  N57  1  0.22642000  0.32884000  0.77222000  1.0
  N  N58  1  0.75750000  0.21383000  0.25838000  1.0
  N  N59  1  0.25751000  0.21383000  0.74161000  1.0
  N  N60  1  0.62966000  0.12379000  0.29186000  1.0
  N  N61  1  0.12966000  0.12378000  0.70813000  1.0
  N  N62  1  0.51282000  0.18046000  0.28458000  1.0
  N  N63  1  0.01282000  0.18044000  0.71542000  1.0
  O  O64  1  0.83238000  0.57283000  0.36507000  1.0
  O  O65  1  0.33237000  0.57282000  0.63493000  1.0
  O  O66  1  0.81708000  0.78587000  0.25274000  1.0
  O  O67  1  0.31708000  0.78586000  0.74727000  1.0
  O  O68  1  0.90140000  0.44876000  0.01985000  1.0
  O  O69  1  0.40140000  0.44876000  0.98015000  1.0
  O  O70  1  0.07902000  0.50668000  0.23145000  1.0
  O  O71  1  0.57902000  0.50668000  0.76855000  1.0
  O  O72  1  0.79460000  0.68916000  0.02502000  1.0
  O  O73  1  0.29459000  0.68916000  0.97498000  1.0
  O  O74  1  0.01443000  0.14634000  0.21537000  1.0
  O  O75  1  0.51444000  0.14635000  0.78463000  1.0
  O  O76  1  0.33141000  0.98933000  0.43912000  1.0
  O  O77  1  0.83140000  0.98933000  0.56087000  1.0
  O  O78  1  0.50828000  0.99152000  0.56740000  1.0
  O  O79  1  0.00827000  0.99152000  0.43260000  1.0
  O  O80  1  0.12356000  0.90041000  0.24840000  1.0
  O  O81  1  0.62355000  0.90040000  0.75160000  1.0
  O  O82  1  0.08861000  0.74756000  0.11712000  1.0
  O  O83  1  0.58860000  0.74756000  0.88288000  1.0
  O  O84  1  0.56510000  0.51373000  0.17345000  1.0
  O  O85  1  0.06509000  0.51372000  0.82655000  1.0
  O  O86  1  0.34380000  0.36945000  0.24137000  1.0
  O  O87  1  0.84381000  0.36943000  0.75862000  1.0
