# generated using pymatgen
data_CuH5C6INO2
_symmetry_space_group_name_H-M   'P 1'
_cell_length_a   4.01962000
_cell_length_b   13.99540000
_cell_length_c   14.41870000
_cell_angle_alpha   105.42500000
_cell_angle_beta   90.00000000
_cell_angle_gamma   90.00000000
_symmetry_Int_Tables_number   1
_chemical_formula_structural   CuH5C6INO2
_chemical_formula_sum   'Cu4 H20 C24 I4 N4 O8'
_cell_volume   781.92336704
_cell_formula_units_Z   4
loop_
 _symmetry_equiv_pos_site_id
 _symmetry_equiv_pos_as_xyz
  1  'x, y, z'
loop_
 _atom_site_type_symbol
 _atom_site_label
 _atom_site_symmetry_multiplicity
 _atom_site_fract_x
 _atom_site_fract_y
 _atom_site_fract_z
 _atom_site_occupancy
  Cu  Cu0  1  0.33811000  0.73195000  0.43470000  1.0
  Cu  Cu1  1  0.83810000  0.76804000  0.56529000  1.0
  Cu  Cu2  1  0.66188000  0.26806000  0.56530000  1.0
  Cu  Cu3  1  0.16187000  0.23195000  0.43471000  1.0
  H  H4  1  0.66039000  0.74223000  0.09413000  1.0
  H  H5  1  0.16039000  0.75777000  0.90585000  1.0
  H  H6  1  0.33960000  0.25778000  0.90587000  1.0
  H  H7  1  0.83964000  0.24222000  0.09414000  1.0
  H  H8  1  0.60636000  0.66802000  0.23342000  1.0
  H  H9  1  0.10636000  0.83198000  0.76656000  1.0
  H  H10  1  0.39363000  0.33199000  0.76658000  1.0
  H  H11  1  0.89363000  0.16801000  0.23343000  1.0
  H  H12  1  0.06291000  0.90866000  0.39109000  1.0
  H  H13  1  0.56295000  0.59132000  0.60891000  1.0
  H  H14  1  0.93709000  0.09135000  0.60892000  1.0
  H  H15  1  0.43705000  0.40866000  0.39110000  1.0
  H  H16  1  0.09528000  0.99309000  0.25929000  1.0
  H  H17  1  0.59531000  0.50690000  0.74071000  1.0
  H  H18  1  0.90471000  0.00692000  0.74072000  1.0
  H  H19  1  0.40472000  0.49308000  0.25929000  1.0
  H  H20  1  0.63007000  0.92516000  0.96847000  1.0
  H  H21  1  0.13012000  0.57485000  0.03152000  1.0
  H  H22  1  0.36992000  0.07486000  0.03153000  1.0
  H  H23  1  0.86992000  0.42514000  0.96848000  1.0
  C  C24  1  0.42383000  0.92807000  0.09112000  1.0
  C  C25  1  0.92386000  0.57194000  0.90887000  1.0
  C  C26  1  0.57614000  0.07194000  0.90888000  1.0
  C  C27  1  0.07616000  0.42804000  0.09113000  1.0
  C  C28  1  0.38281000  0.87449000  0.16626000  1.0
  C  C29  1  0.88281000  0.62550000  0.83373000  1.0
  C  C30  1  0.61717000  0.12552000  0.83374000  1.0
  C  C31  1  0.11719000  0.37448000  0.16627000  1.0
  C  C32  1  0.52387000  0.78099000  0.15830000  1.0
  C  C33  1  0.02387000  0.71902000  0.84168000  1.0
  C  C34  1  0.47612000  0.21903000  0.84170000  1.0
  C  C35  1  0.97617000  0.28098000  0.15832000  1.0
  C  C36  1  0.49454000  0.73955000  0.23539000  1.0
  C  C37  1  0.99455000  0.76044000  0.76460000  1.0
  C  C38  1  0.50546000  0.26047000  0.76461000  1.0
  C  C39  1  0.00545000  0.23954000  0.23540000  1.0
  C  C40  1  0.19097000  0.87392000  0.32382000  1.0
  C  C41  1  0.69097000  0.62606000  0.67617000  1.0
  C  C42  1  0.80904000  0.12609000  0.67618000  1.0
  C  C43  1  0.30902000  0.37392000  0.32382000  1.0
  C  C44  1  0.20980000  0.92072000  0.25033000  1.0
  C  C45  1  0.70984000  0.57928000  0.74966000  1.0
  C  C46  1  0.79018000  0.07929000  0.74968000  1.0
  C  C47  1  0.29021000  0.42071000  0.25034000  1.0
  I  I48  1  0.83869000  0.60748000  0.42005000  1.0
  I  I49  1  0.33869000  0.89251000  0.57994000  1.0
  I  I50  1  0.16131000  0.39252000  0.57994000  1.0
  I  I51  1  0.66129000  0.10749000  0.42007000  1.0
  N  N52  1  0.33579000  0.78557000  0.31790000  1.0
  N  N53  1  0.83579000  0.71442000  0.68209000  1.0
  N  N54  1  0.66421000  0.21445000  0.68210000  1.0
  N  N55  1  0.16420000  0.28557000  0.31791000  1.0
  O  O56  1  0.59642000  0.88038000  0.01482000  1.0
  O  O57  1  0.09646000  0.61961000  0.98517000  1.0
  O  O58  1  0.40357000  0.11963000  0.98518000  1.0
  O  O59  1  0.90357000  0.38038000  0.01483000  1.0
  O  O60  1  0.30554000  0.01294000  0.10206000  1.0
  O  O61  1  0.80554000  0.48705000  0.89795000  1.0
  O  O62  1  0.69441000  0.98706000  0.89794000  1.0
  O  O63  1  0.19450000  0.51295000  0.10206000  1.0
