# generated using pymatgen
data_Co3H64C72(N2O7)2
_symmetry_space_group_name_H-M   'P 1'
_cell_length_a   10.47780000
_cell_length_b   14.39390000
_cell_length_c   26.77840000
_cell_angle_alpha   86.01950000
_cell_angle_beta   78.75220000
_cell_angle_gamma   68.64430000
_symmetry_Int_Tables_number   1
_chemical_formula_structural   Co3H64C72(N2O7)2
_chemical_formula_sum   'Co6 H128 C144 N8 O28'
_cell_volume   3689.07046390
_cell_formula_units_Z   2
loop_
 _symmetry_equiv_pos_site_id
 _symmetry_equiv_pos_as_xyz
  1  'x, y, z'
loop_
 _atom_site_type_symbol
 _atom_site_label
 _atom_site_symmetry_multiplicity
 _atom_site_fract_x
 _atom_site_fract_y
 _atom_site_fract_z
 _atom_site_occupancy
  Co  Co0  1  0.26441000  0.08452000  0.94442000  1.0
  Co  Co1  1  0.29312000  0.41542000  0.55561000  1.0
  Co  Co2  1  0.73559000  0.91548000  0.05559000  1.0
  Co  Co3  1  0.70688000  0.58458000  0.44439000  1.0
  Co  Co4  1  0.00000000  0.00000000  0.00000000  1.0
  Co  Co5  1  0.00000000  0.50000000  0.50000000  1.0
  H  H6  1  0.74885000  0.13903000  0.90037000  1.0
  H  H7  1  0.78806000  0.36077000  0.59963000  1.0
  H  H8  1  0.25115000  0.86097000  0.09963000  1.0
  H  H9  1  0.21194000  0.63922000  0.40037000  1.0
  H  H10  1  0.04028000  0.28209000  0.83936000  1.0
  H  H11  1  0.16230000  0.21764000  0.66032000  1.0
  H  H12  1  0.95973000  0.71791000  0.16064000  1.0
  H  H13  1  0.83770000  0.78235000  0.33968000  1.0
  H  H14  1  0.87870000  0.38538000  0.78254000  1.0
  H  H15  1  0.04765000  0.11433000  0.71729000  1.0
  H  H16  1  0.12130000  0.61462000  0.21746000  1.0
  H  H17  1  0.95234000  0.88567000  0.28271000  1.0
  H  H18  1  0.58789000  0.24052000  0.84349000  1.0
  H  H19  1  0.67225000  0.25918000  0.65661000  1.0
  H  H20  1  0.41211000  0.75948000  0.15651000  1.0
  H  H21  1  0.32775000  0.74081000  0.34339000  1.0
  H  H22  1  0.67115000  0.38461000  0.73799000  1.0
  H  H23  1  0.79484000  0.11513000  0.76200000  1.0
  H  H24  1  0.32885000  0.61539000  0.26201000  1.0
  H  H25  1  0.20516000  0.88487000  0.23800000  1.0
  H  H26  1  0.53477000  0.35686000  0.77930000  1.0
  H  H27  1  0.67185000  0.14289000  0.72071000  1.0
  H  H28  1  0.46524000  0.64314000  0.22070000  1.0
  H  H29  1  0.32814000  0.85711000  0.27929000  1.0
  H  H30  1  0.41852000  0.62823000  0.77829000  1.0
  H  H31  1  0.82609000  0.87153000  0.72156000  1.0
  H  H32  1  0.58149000  0.37177000  0.22171000  1.0
  H  H33  1  0.17390000  0.12846000  0.27844000  1.0
  H  H34  1  0.37655000  0.52518000  0.76440000  1.0
  H  H35  1  0.66715000  0.97455000  0.73544000  1.0
  H  H36  1  0.62346000  0.47483000  0.23560000  1.0
  H  H37  1  0.33284000  0.02544000  0.26456000  1.0
  H  H38  1  0.36244000  0.53737000  0.67865000  1.0
  H  H39  1  0.57932000  0.96266000  0.82112000  1.0
  H  H40  1  0.63756000  0.46264000  0.32135000  1.0
  H  H41  1  0.42067000  0.03734000  0.17888000  1.0
  H  H42  1  0.71350000  0.57449000  0.72405000  1.0
  H  H43  1  0.01316000  0.92456000  0.77604000  1.0
  H  H44  1  0.28650000  0.42551000  0.27594000  1.0
  H  H45  1  0.98683000  0.07544000  0.22396000  1.0
  H  H46  1  0.81608000  0.58737000  0.63221000  1.0
  H  H47  1  0.03662000  0.91166000  0.86791000  1.0
  H  H48  1  0.18391000  0.41263000  0.36779000  1.0
  H  H49  1  0.96338000  0.08833000  0.13208000  1.0
  H  H50  1  0.46147000  0.55358000  0.58863000  1.0
  H  H51  1  0.60428000  0.94651000  0.91119000  1.0
  H  H52  1  0.53852000  0.44642000  0.41137000  1.0
  H  H53  1  0.39572000  0.05349000  0.08881000  1.0
  H  H54  1  0.56613000  0.45058000  0.87070000  1.0
  H  H55  1  0.88817000  0.04934000  0.62927000  1.0
  H  H56  1  0.43387000  0.54942000  0.12930000  1.0
  H  H57  1  0.11182000  0.95066000  0.37073000  1.0
  H  H58  1  0.40097000  0.47772000  0.85389000  1.0
  H  H59  1  0.73327000  0.02235000  0.64606000  1.0
  H  H60  1  0.59904000  0.52228000  0.14611000  1.0
  H  H61  1  0.26672000  0.97765000  0.35394000  1.0
  H  H62  1  0.24010000  0.61194000  0.90283000  1.0
  H  H63  1  0.75505000  0.88800000  0.59724000  1.0
  H  H64  1  0.75991000  0.38806000  0.09717000  1.0
  H  H65  1  0.24495000  0.11200000  0.40276000  1.0
  H  H66  1  0.16349000  0.78505000  0.93609000  1.0
  H  H67  1  0.88454000  0.71475000  0.56410000  1.0
  H  H68  1  0.83651000  0.21495000  0.06391000  1.0
  H  H69  1  0.11547000  0.28524000  0.43590000  1.0
  H  H70  1  0.64206000  0.62401000  0.83655000  1.0
  H  H71  1  0.10349000  0.87603000  0.66319000  1.0
  H  H72  1  0.35795000  0.37599000  0.16345000  1.0
  H  H73  1  0.89651000  0.12398000  0.33681000  1.0
  H  H74  1  0.56480000  0.79832000  0.86905000  1.0
  H  H75  1  0.23282000  0.70163000  0.63077000  1.0
  H  H76  1  0.43520000  0.20168000  0.13095000  1.0
  H  H77  1  0.76718000  0.29837000  0.36923000  1.0
  H  H78  1  0.19927000  0.29057000  0.90640000  1.0
  H  H79  1  0.39630000  0.20924000  0.59367000  1.0
  H  H80  1  0.80073000  0.70943000  0.09360000  1.0
  H  H81  1  0.60370000  0.79076000  0.40633000  1.0
  H  H82  1  0.25350000  0.43579000  0.92854000  1.0
  H  H83  1  0.61791000  0.06405000  0.57147000  1.0
  H  H84  1  0.74650000  0.56421000  0.07146000  1.0
  H  H85  1  0.38209000  0.93595000  0.42853000  1.0
  H  H86  1  0.52593000  0.09081000  0.96926000  1.0
  H  H87  1  0.58558000  0.40909000  0.53076000  1.0
  H  H88  1  0.47407000  0.90919000  0.03074000  1.0
  H  H89  1  0.41442000  0.59091000  0.46924000  1.0
  H  H90  1  0.59488000  0.22620000  0.99296000  1.0
  H  H91  1  0.81362000  0.27376000  0.50703000  1.0
  H  H92  1  0.40512000  0.77380000  0.00704000  1.0
  H  H93  1  0.18638000  0.72624000  0.49297000  1.0
  H  H94  1  0.68272000  0.34373000  0.96323000  1.0
  H  H95  1  0.98955000  0.15630000  0.53680000  1.0
  H  H96  1  0.31727000  0.65627000  0.03677000  1.0
  H  H97  1  0.01045000  0.84370000  0.46321000  1.0
  H  H98  1  0.01824000  0.60102000  0.02753000  1.0
  H  H99  1  0.64671000  0.89891000  0.47257000  1.0
  H  H100  1  0.98175000  0.39898000  0.97247000  1.0
  H  H101  1  0.35328000  0.10110000  0.52742000  1.0
  H  H102  1  0.12675000  0.64605000  0.05426000  1.0
  H  H103  1  0.82692000  0.85370000  0.44583000  1.0
  H  H104  1  0.87325000  0.35395000  0.94573000  1.0
  H  H105  1  0.17308000  0.14630000  0.55417000  1.0
  H  H106  1  0.20466000  0.48905000  0.10449000  1.0
  H  H107  1  0.79805000  0.01063000  0.39555000  1.0
  H  H108  1  0.79534000  0.51095000  0.89551000  1.0
  H  H109  1  0.20195000  0.98937000  0.60445000  1.0
  H  H110  1  0.02262000  0.55003000  0.11782000  1.0
  H  H111  1  0.69007000  0.94981000  0.38225000  1.0
  H  H112  1  0.97739000  0.44997000  0.88218000  1.0
  H  H113  1  0.30993000  0.05020000  0.61775000  1.0
  H  H114  1  0.18408000  0.36589000  0.04945000  1.0
  H  H115  1  0.59944000  0.13386000  0.45067000  1.0
  H  H116  1  0.81592000  0.63411000  0.95055000  1.0
  H  H117  1  0.40056000  0.86614000  0.54933000  1.0
  H  H118  1  0.00465000  0.43292000  0.05310000  1.0
  H  H119  1  0.49054000  0.06704000  0.44688000  1.0
  H  H120  1  0.99535000  0.56708000  0.94690000  1.0
  H  H121  1  0.50946000  0.93297000  0.55312000  1.0
  H  H122  1  0.04539000  0.28472000  0.11159000  1.0
  H  H123  1  0.44189000  0.21532000  0.38842000  1.0
  H  H124  1  0.95461000  0.71528000  0.88841000  1.0
  H  H125  1  0.55811000  0.78468000  0.61158000  1.0
  H  H126  1  0.96105000  0.39709000  0.14723000  1.0
  H  H127  1  0.50541000  0.10297000  0.35276000  1.0
  H  H128  1  0.03896000  0.60291000  0.85277000  1.0
  H  H129  1  0.49458000  0.89703000  0.64724000  1.0
  H  H130  1  0.14203000  0.33026000  0.14430000  1.0
  H  H131  1  0.61679000  0.16960000  0.35581000  1.0
  H  H132  1  0.85798000  0.66974000  0.85570000  1.0
  H  H133  1  0.38320000  0.83040000  0.64419000  1.0
  C  C134  1  0.98942000  0.14927000  0.91251000  1.0
  C  C135  1  0.05119000  0.35045000  0.58731000  1.0
  C  C136  1  0.01058000  0.85072000  0.08749000  1.0
  C  C137  1  0.94881000  0.64955000  0.41269000  1.0
  C  C138  1  0.90244000  0.20614000  0.87448000  1.0
  C  C139  1  0.98323000  0.29360000  0.62537000  1.0
  C  C140  1  0.09756000  0.79386000  0.12552000  1.0
  C  C141  1  0.01677000  0.70640000  0.37463000  1.0
  C  C142  1  0.77616000  0.19324000  0.87450000  1.0
  C  C143  1  0.84403000  0.30651000  0.62544000  1.0
  C  C144  1  0.22384000  0.80675000  0.12550000  1.0
  C  C145  1  0.15597000  0.69348000  0.37455000  1.0
  C  C146  1  0.94032000  0.27410000  0.84027000  1.0
  C  C147  1  0.05522000  0.22561000  0.65951000  1.0
  C  C148  1  0.05969000  0.72590000  0.15973000  1.0
  C  C149  1  0.94478000  0.77438000  0.34049000  1.0
  C  C150  1  0.85029000  0.33128000  0.80849000  1.0
  C  C151  1  0.99082000  0.16845000  0.69137000  1.0
  C  C152  1  0.14971000  0.66872000  0.19151000  1.0
  C  C153  1  0.00918000  0.83155000  0.30863000  1.0
  C  C154  1  0.68709000  0.25003000  0.84253000  1.0
  C  C155  1  0.78002000  0.24973000  0.65748000  1.0
  C  C156  1  0.31291000  0.74997000  0.15747000  1.0
  C  C157  1  0.21998000  0.75027000  0.34252000  1.0
  C  C158  1  0.72148000  0.32105000  0.80984000  1.0
  C  C159  1  0.85306000  0.17872000  0.69013000  1.0
  C  C160  1  0.27853000  0.67895000  0.19016000  1.0
  C  C161  1  0.14694000  0.82128000  0.30987000  1.0
  C  C162  1  0.61970000  0.38663000  0.77805000  1.0
  C  C163  1  0.78529000  0.11311000  0.72196000  1.0
  C  C164  1  0.38030000  0.61337000  0.22195000  1.0
  C  C165  1  0.21470000  0.88689000  0.27804000  1.0
  C  C166  1  0.46459000  0.55204000  0.76243000  1.0
  C  C167  1  0.78007000  0.94768000  0.73746000  1.0
  C  C168  1  0.53542000  0.44796000  0.23757000  1.0
  C  C169  1  0.21992000  0.05232000  0.26254000  1.0
  C  C170  1  0.53073000  0.55620000  0.70754000  1.0
  C  C171  1  0.79542000  0.94344000  0.79239000  1.0
  C  C172  1  0.46928000  0.44380000  0.29246000  1.0
  C  C173  1  0.20458000  0.05655000  0.20761000  1.0
  C  C174  1  0.46159000  0.54913000  0.66900000  1.0
  C  C175  1  0.68056000  0.95074000  0.83086000  1.0
  C  C176  1  0.53841000  0.45087000  0.33100000  1.0
  C  C177  1  0.31944000  0.04926000  0.16915000  1.0
  C  C178  1  0.65893000  0.57016000  0.69401000  1.0
  C  C179  1  0.92409000  0.92916000  0.80602000  1.0
  C  C180  1  0.34107000  0.42984000  0.30599000  1.0
  C  C181  1  0.07590000  0.07084000  0.19398000  1.0
  C  C182  1  0.71622000  0.57725000  0.64309000  1.0
  C  C183  1  0.93743000  0.92209000  0.85697000  1.0
  C  C184  1  0.28378000  0.42276000  0.35691000  1.0
  C  C185  1  0.06257000  0.07791000  0.14303000  1.0
  C  C186  1  0.51758000  0.55746000  0.61808000  1.0
  C  C187  1  0.69380000  0.94245000  0.88180000  1.0
  C  C188  1  0.48241000  0.44254000  0.38192000  1.0
  C  C189  1  0.30619000  0.05755000  0.11821000  1.0
  C  C190  1  0.64532000  0.57136000  0.60469000  1.0
  C  C191  1  0.82208000  0.92827000  0.89529000  1.0
  C  C192  1  0.35468000  0.42864000  0.39531000  1.0
  C  C193  1  0.17791000  0.07173000  0.10471000  1.0
  C  C194  1  0.70545000  0.57887000  0.55023000  1.0
  C  C195  1  0.83498000  0.92077000  0.94980000  1.0
  C  C196  1  0.29455000  0.42113000  0.44977000  1.0
  C  C197  1  0.16502000  0.07923000  0.05020000  1.0
  C  C198  1  0.49251000  0.50172000  0.84805000  1.0
  C  C199  1  0.84300000  0.99824000  0.65188000  1.0
  C  C200  1  0.50750000  0.49828000  0.15195000  1.0
  C  C201  1  0.15700000  0.00176000  0.34812000  1.0
  C  C202  1  0.44646000  0.60644000  0.86785000  1.0
  C  C203  1  0.92132000  0.89353000  0.63205000  1.0
  C  C204  1  0.55355000  0.39356000  0.13215000  1.0
  C  C205  1  0.07868000  0.10647000  0.36795000  1.0
  C  C206  1  0.31205000  0.65231000  0.89578000  1.0
  C  C207  1  0.86040000  0.84763000  0.60424000  1.0
  C  C208  1  0.68795000  0.34769000  0.10422000  1.0
  C  C209  1  0.13960000  0.15237000  0.39576000  1.0
  C  C210  1  0.26858000  0.74879000  0.91467000  1.0
  C  C211  1  0.93214000  0.75111000  0.58541000  1.0
  C  C212  1  0.73143000  0.25121000  0.08533000  1.0
  C  C213  1  0.06786000  0.24889000  0.41459000  1.0
  C  C214  1  0.53780000  0.65945000  0.85877000  1.0
  C  C215  1  0.05671000  0.84056000  0.64104000  1.0
  C  C216  1  0.46220000  0.34056000  0.14123000  1.0
  C  C217  1  0.94329000  0.15945000  0.35896000  1.0
  C  C218  1  0.49475000  0.75654000  0.87654000  1.0
  C  C219  1  0.12841000  0.74341000  0.62332000  1.0
  C  C220  1  0.50526000  0.24345000  0.12346000  1.0
  C  C221  1  0.87159000  0.25660000  0.37668000  1.0
  C  C222  1  0.35954000  0.80183000  0.90461000  1.0
  C  C223  1  0.06621000  0.69808000  0.59541000  1.0
  C  C224  1  0.64046000  0.19817000  0.09539000  1.0
  C  C225  1  0.93380000  0.30192000  0.40459000  1.0
  C  C226  1  0.31187000  0.90579000  0.92281000  1.0
  C  C227  1  0.14047000  0.59402000  0.57732000  1.0
  C  C228  1  0.68813000  0.09420000  0.07719000  1.0
  C  C229  1  0.85953000  0.40598000  0.42268000  1.0
  C  C230  1  0.28624000  0.28052000  0.92552000  1.0
  C  C231  1  0.49225000  0.21932000  0.57452000  1.0
  C  C232  1  0.71376000  0.71948000  0.07448000  1.0
  C  C233  1  0.50775000  0.78068000  0.42548000  1.0
  C  C234  1  0.31701000  0.36080000  0.93810000  1.0
  C  C235  1  0.61589000  0.13908000  0.56191000  1.0
  C  C236  1  0.68299000  0.63920000  0.06190000  1.0
  C  C237  1  0.38411000  0.86092000  0.43809000  1.0
  C  C238  1  0.46863000  0.16822000  0.96034000  1.0
  C  C239  1  0.59689000  0.33167000  0.53968000  1.0
  C  C240  1  0.53137000  0.83178000  0.03966000  1.0
  C  C241  1  0.40311000  0.66833000  0.46032000  1.0
  C  C242  1  0.50661000  0.24465000  0.97353000  1.0
  C  C243  1  0.72447000  0.25528000  0.52647000  1.0
  C  C244  1  0.49340000  0.75535000  0.02647000  1.0
  C  C245  1  0.27553000  0.74472000  0.47353000  1.0
  C  C246  1  0.42826000  0.34447000  0.96382000  1.0
  C  C247  1  0.73642000  0.15543000  0.53617000  1.0
  C  C248  1  0.57174000  0.65554000  0.03618000  1.0
  C  C249  1  0.26358000  0.84457000  0.46383000  1.0
  C  C250  1  0.46271000  0.42592000  0.98094000  1.0
  C  C251  1  0.86955000  0.07403000  0.51904000  1.0
  C  C252  1  0.53728000  0.57408000  0.01906000  1.0
  C  C253  1  0.13045000  0.92596000  0.48096000  1.0
  C  C254  1  0.35833000  0.51562000  0.00177000  1.0
  C  C255  1  0.87581000  0.98430000  0.49821000  1.0
  C  C256  1  0.64166000  0.48438000  0.99822000  1.0
  C  C257  1  0.12418000  0.01570000  0.50179000  1.0
  C  C258  1  0.60292000  0.41273000  0.97939000  1.0
  C  C259  1  0.99492000  0.08731000  0.52062000  1.0
  C  C260  1  0.39708000  0.58728000  0.02060000  1.0
  C  C261  1  0.00508000  0.91269000  0.47938000  1.0
  C  C262  1  0.11466000  0.57812000  0.04314000  1.0
  C  C263  1  0.73584000  0.92170000  0.45694000  1.0
  C  C264  1  0.88534000  0.42188000  0.95686000  1.0
  C  C265  1  0.26416000  0.07830000  0.54306000  1.0
  C  C266  1  0.10975000  0.50789000  0.08802000  1.0
  C  C267  1  0.70547000  0.99190000  0.41204000  1.0
  C  C268  1  0.89026000  0.49211000  0.91198000  1.0
  C  C269  1  0.29453000  0.00810000  0.58796000  1.0
  C  C270  1  0.08996000  0.41273000  0.07496000  1.0
  C  C271  1  0.57760000  0.08714000  0.42509000  1.0
  C  C272  1  0.91005000  0.58728000  0.92504000  1.0
  C  C273  1  0.42239000  0.91286000  0.57491000  1.0
  C  C274  1  0.05787000  0.35296000  0.12197000  1.0
  C  C275  1  0.53291000  0.14701000  0.37807000  1.0
  C  C276  1  0.94213000  0.64704000  0.87803000  1.0
  C  C277  1  0.46709000  0.85299000  0.62193000  1.0
  N  N278  1  0.35789000  0.18535000  0.93743000  1.0
  N  N279  1  0.48049000  0.31450000  0.56261000  1.0
  N  N280  1  0.64210000  0.81465000  0.06257000  1.0
  N  N281  1  0.51952000  0.68550000  0.43739000  1.0
  N  N282  1  0.56212000  0.49140000  0.79467000  1.0
  N  N283  1  0.84913000  0.00837000  0.70529000  1.0
  N  N284  1  0.43789000  0.50860000  0.20533000  1.0
  N  N285  1  0.15086000  0.99162000  0.29471000  1.0
  O  O286  1  0.22236000  0.52921000  0.00071000  1.0
  O  O287  1  0.75243000  0.97064000  0.49932000  1.0
  O  O288  1  0.77763000  0.47079000  0.99928000  1.0
  O  O289  1  0.24757000  0.02937000  0.50068000  1.0
  O  O290  1  0.10916000  0.15749000  0.91002000  1.0
  O  O291  1  0.17651000  0.34240000  0.58989000  1.0
  O  O292  1  0.89084000  0.84251000  0.08998000  1.0
  O  O293  1  0.82349000  0.65759000  0.41011000  1.0
  O  O294  1  0.93615000  0.09979000  0.94514000  1.0
  O  O295  1  0.98114000  0.39965000  0.55457000  1.0
  O  O296  1  0.06385000  0.90020000  0.05486000  1.0
  O  O297  1  0.01886000  0.60035000  0.44543000  1.0
  O  O298  1  0.81619000  0.59894000  0.53857000  1.0
  O  O299  1  0.95399000  0.90065000  0.96163000  1.0
  O  O300  1  0.18380000  0.40106000  0.46143000  1.0
  O  O301  1  0.04601000  0.09935000  0.03837000  1.0
  O  O302  1  0.64046000  0.56566000  0.51677000  1.0
  O  O303  1  0.72321000  0.93400000  0.98314000  1.0
  O  O304  1  0.35953000  0.43433000  0.48323000  1.0
  O  O305  1  0.27679000  0.06600000  0.01687000  1.0
  O  O306  1  0.38402000  0.96084000  0.90516000  1.0
  O  O307  1  0.25004000  0.53897000  0.59499000  1.0
  O  O308  1  0.61598000  0.03916000  0.09484000  1.0
  O  O309  1  0.74996000  0.46103000  0.40501000  1.0
  O  O310  1  0.20158000  0.94284000  0.95579000  1.0
  O  O311  1  0.10000000  0.55688000  0.54441000  1.0
  O  O312  1  0.79842000  0.05715000  0.04421000  1.0
  O  O313  1  0.90000000  0.44312000  0.45559000  1.0
