# generated using pymatgen
data_AlH13C16N2O5
_symmetry_space_group_name_H-M   'P 1'
_cell_length_a   6.65674000
_cell_length_b   17.00320000
_cell_length_c   17.00370000
_cell_angle_alpha   87.25060000
_cell_angle_beta   81.91840000
_cell_angle_gamma   81.92320000
_symmetry_Int_Tables_number   1
_chemical_formula_structural   AlH13C16N2O5
_chemical_formula_sum   'Al2 H26 C32 N4 O10'
_cell_volume   1885.78278670
_cell_formula_units_Z   2
loop_
 _symmetry_equiv_pos_site_id
 _symmetry_equiv_pos_as_xyz
  1  'x, y, z'
loop_
 _atom_site_type_symbol
 _atom_site_label
 _atom_site_symmetry_multiplicity
 _atom_site_fract_x
 _atom_site_fract_y
 _atom_site_fract_z
 _atom_site_occupancy
  Al  Al0  1  0.50015000  0.49998000  0.49988000  1.0
  Al  Al1  1  0.99994000  0.50010000  0.50000000  1.0
  H  H2  1  0.74997000  0.42448000  0.57569000  1.0
  H  H3  1  0.24992000  0.57594000  0.42437000  1.0
  H  H4  1  0.39200000  0.73941000  0.45825000  1.0
  H  H5  1  0.32485000  0.88844000  0.45660000  1.0
  H  H6  1  0.85048000  0.89179000  0.57595000  1.0
  H  H7  1  0.14713000  0.10932000  0.42324000  1.0
  H  H8  1  0.67120000  0.11092000  0.54396000  1.0
  H  H9  1  0.60601000  0.25994000  0.54303000  1.0
  H  H10  1  0.89408000  0.45686000  0.74006000  1.0
  H  H11  1  0.82874000  0.45600000  0.88906000  1.0
  H  H12  1  0.35275000  0.57676000  0.89065000  1.0
  H  H13  1  0.64947000  0.42406000  0.10824000  1.0
  H  H14  1  0.17516000  0.54340000  0.11153000  1.0
  H  H15  1  0.10806000  0.54178000  0.26055000  1.0
  H  H16  1  0.09050000  0.70083000  0.54948000  1.0
  H  H17  1  0.91998000  0.69059000  0.63678000  1.0
  H  H18  1  0.03921000  0.77852000  0.61925000  1.0
  H  H19  1  0.97123000  0.22440000  0.37488000  1.0
  H  H20  1  0.07155000  0.31678000  0.37045000  1.0
  H  H21  1  0.89917000  0.29298000  0.45305000  1.0
  H  H22  1  0.52874000  0.62507000  0.77560000  1.0
  H  H23  1  0.42847000  0.62950000  0.68322000  1.0
  H  H24  1  0.60087000  0.54692000  0.70702000  1.0
  H  H25  1  0.40932000  0.45063000  0.29907000  1.0
  H  H26  1  0.57984000  0.36338000  0.30956000  1.0
  H  H27  1  0.46094000  0.38070000  0.22153000  1.0
  C  C28  1  0.19524000  0.50779000  0.64389000  1.0
  C  C29  1  0.30482000  0.35611000  0.49210000  1.0
  C  C30  1  0.80513000  0.49182000  0.35594000  1.0
  C  C31  1  0.69496000  0.64405000  0.50822000  1.0
  C  C32  1  0.66223000  0.73221000  0.51514000  1.0
  C  C33  1  0.49267000  0.77394000  0.48308000  1.0
  C  C34  1  0.45450000  0.85604000  0.48207000  1.0
  C  C35  1  0.58830000  0.89816000  0.51498000  1.0
  C  C36  1  0.75323000  0.85684000  0.54942000  1.0
  C  C37  1  0.79500000  0.77386000  0.55032000  1.0
  C  C38  1  0.24440000  0.14383000  0.45031000  1.0
  C  C39  1  0.40851000  0.10208000  0.48487000  1.0
  C  C40  1  0.54227000  0.14374000  0.51839000  1.0
  C  C41  1  0.50525000  0.22584000  0.51772000  1.0
  C  C42  1  0.33658000  0.26798000  0.48543000  1.0
  C  C43  1  0.20354000  0.22684000  0.44989000  1.0
  C  C44  1  0.16348000  0.51446000  0.73201000  1.0
  C  C45  1  0.99480000  0.48219000  0.77416000  1.0
  C  C46  1  0.95770000  0.48155000  0.85626000  1.0
  C  C47  1  0.09140000  0.51511000  0.89792000  1.0
  C  C48  1  0.25554000  0.54966000  0.85615000  1.0
  C  C49  1  0.29648000  0.55003000  0.77315000  1.0
  C  C50  1  0.74674000  0.45062000  0.14317000  1.0
  C  C51  1  0.91167000  0.48505000  0.10183000  1.0
  C  C52  1  0.04550000  0.51795000  0.14393000  1.0
  C  C53  1  0.00738000  0.51696000  0.22604000  1.0
  C  C54  1  0.83781000  0.48490000  0.26778000  1.0
  C  C55  1  0.70499000  0.44971000  0.22615000  1.0
  C  C56  1  0.97094000  0.73401000  0.59094000  1.0
  C  C57  1  0.02717000  0.26728000  0.40989000  1.0
  C  C58  1  0.47284000  0.59005000  0.73272000  1.0
  C  C59  1  0.52901000  0.40912000  0.26602000  1.0
  N  N60  1  0.56929000  0.98180000  0.51755000  1.0
  N  N61  1  0.42701000  0.01844000  0.48206000  1.0
  N  N62  1  0.07285000  0.51797000  0.98154000  1.0
  N  N63  1  0.93067000  0.48244000  0.01820000  1.0
  O  O64  1  0.37863000  0.50213000  0.60882000  1.0
  O  O65  1  0.12145000  0.39118000  0.49778000  1.0
  O  O66  1  0.96310000  0.49425000  0.38999000  1.0
  O  O67  1  0.53697000  0.61000000  0.50579000  1.0
  O  O68  1  0.62164000  0.49748000  0.39089000  1.0
  O  O69  1  0.87843000  0.60909000  0.50257000  1.0
  O  O70  1  0.03686000  0.50577000  0.61000000  1.0
  O  O71  1  0.46324000  0.38999000  0.49413000  1.0
  O  O72  1  0.75007000  0.46558000  0.53439000  1.0
  O  O73  1  0.25000000  0.53458000  0.46542000  1.0
