# generated using pymatgen
data_CdH18C26(NO4)2
_symmetry_space_group_name_H-M   'P 1'
_cell_length_a   8.29387000
_cell_length_b   8.29509000
_cell_length_c   17.86669759
_cell_angle_alpha   76.58104588
_cell_angle_beta   76.57903244
_cell_angle_gamma   90.00010000
_symmetry_Int_Tables_number   1
_chemical_formula_structural   CdH18C26(NO4)2
_chemical_formula_sum   'Cd2 H36 C52 N4 O16'
_cell_volume   1161.10384845
_cell_formula_units_Z   2
loop_
 _symmetry_equiv_pos_site_id
 _symmetry_equiv_pos_as_xyz
  1  'x, y, z'
loop_
 _atom_site_type_symbol
 _atom_site_label
 _atom_site_symmetry_multiplicity
 _atom_site_fract_x
 _atom_site_fract_y
 _atom_site_fract_z
 _atom_site_occupancy
  Cd  Cd0  1  0.49993000  0.49993000  1.00000000  1.0
  Cd  Cd1  1  0.75006000  0.25006000  0.50000000  1.0
  H  H2  1  0.10768000  0.52002000  0.04423000  1.0
  H  H3  1  0.77023000  0.59770000  0.54406000  1.0
  H  H4  1  0.84726000  0.43566000  0.04393000  1.0
  H  H5  1  0.68598000  0.85832000  0.54392000  1.0
  H  H6  1  0.14177000  0.31433000  0.45595000  1.0
  H  H7  1  0.47963000  0.89116000  0.95607000  1.0
  H  H8  1  0.40221000  0.22984000  0.45608000  1.0
  H  H9  1  0.56420000  0.15193000  0.95577000  1.0
  H  H10  1  0.88421000  0.72524000  0.04292000  1.0
  H  H11  1  0.97528000  0.82261000  0.54288000  1.0
  H  H12  1  0.07223000  0.23190000  0.04292000  1.0
  H  H13  1  0.48217000  0.63463000  0.54273000  1.0
  H  H14  1  0.36552000  0.51820000  0.45712000  1.0
  H  H15  1  0.27484000  0.11510000  0.95709000  1.0
  H  H16  1  0.17731000  0.02486000  0.45727000  1.0
  H  H17  1  0.76812000  0.92716000  0.95708000  1.0
  H  H18  1  0.13285000  0.41098000  0.88644000  1.0
  H  H19  1  0.66129000  0.73080000  0.38639000  1.0
  H  H20  1  0.98087000  0.70280000  0.88643000  1.0
  H  H21  1  0.95303000  0.88237000  0.38641000  1.0
  H  H22  1  0.11721000  0.04768000  0.61361000  1.0
  H  H23  1  0.58923000  0.86728000  0.11357000  1.0
  H  H24  1  0.26875000  0.33944000  0.61358000  1.0
  H  H25  1  0.29743000  0.01929000  0.11356000  1.0
  H  H26  1  0.90411000  0.39502000  0.81936000  1.0
  H  H27  1  0.64504000  0.02647000  0.31926000  1.0
  H  H28  1  0.27653000  0.78586000  0.81925000  1.0
  H  H29  1  0.03611000  0.65404000  0.31917000  1.0
  H  H30  1  0.34578000  0.96429000  0.68075000  1.0
  H  H31  1  0.60512000  0.09573000  0.18075000  1.0
  H  H32  1  0.97314000  0.35528000  0.68083000  1.0
  H  H33  1  0.21439000  0.72352000  0.18064000  1.0
  H  H34  1  0.64013000  0.37510000  0.74995000  1.0
  H  H35  1  0.62470000  0.35968000  0.25014000  1.0
  H  H36  1  0.60979000  0.87484000  0.74985000  1.0
  H  H37  1  0.12505000  0.39005000  0.25006000  1.0
  C  C38  1  0.13784000  0.65312000  0.02409000  1.0
  C  C39  1  0.90338000  0.58782000  0.52398000  1.0
  C  C40  1  0.83742000  0.32256000  0.02388000  1.0
  C  C41  1  0.57289000  0.88837000  0.52387000  1.0
  C  C42  1  0.11180000  0.42738000  0.47603000  1.0
  C  C43  1  0.34646000  0.86129000  0.97612000  1.0
  C  C44  1  0.41224000  0.09672000  0.47612000  1.0
  C  C45  1  0.67718000  0.16194000  0.97591000  1.0
  C  C46  1  0.01518000  0.76718000  0.02398000  1.0
  C  C47  1  0.01732000  0.71063000  0.52395000  1.0
  C  C48  1  0.96032000  0.20870000  0.02392000  1.0
  C  C49  1  0.45900000  0.76557000  0.52382000  1.0
  C  C50  1  0.23459000  0.54130000  0.47605000  1.0
  C  C51  1  0.23264000  0.98421000  0.97609000  1.0
  C  C52  1  0.28937000  0.98279000  0.47617000  1.0
  C  C53  1  0.79113000  0.03918000  0.97602000  1.0
  C  C54  1  0.06265000  0.93707000  0.00002000  1.0
  C  C55  1  0.18728000  0.68729000  0.50000000  1.0
  C  C56  1  0.93708000  0.06267000  0.99999000  1.0
  C  C57  1  0.31286000  0.81286000  0.50000000  1.0
  C  C58  1  0.44564000  0.39348000  0.84198000  1.0
  C  C59  1  0.64386000  0.46240000  0.34196000  1.0
  C  C60  1  0.71230000  0.76444000  0.84194000  1.0
  C  C61  1  0.01485000  0.19536000  0.34211000  1.0
  C  C62  1  0.80434000  0.98583000  0.65804000  1.0
  C  C63  1  0.60639000  0.55427000  0.15805000  1.0
  C  C64  1  0.53746000  0.35695000  0.65790000  1.0
  C  C65  1  0.23547000  0.28760000  0.15802000  1.0
  C  C66  1  0.32809000  0.38428000  0.78967000  1.0
  C  C67  1  0.63425000  0.63215000  0.28969000  1.0
  C  C68  1  0.88213000  0.82635000  0.78975000  1.0
  C  C69  1  0.07659000  0.07786000  0.28982000  1.0
  C  C70  1  0.92184000  0.92394000  0.71031000  1.0
  C  C71  1  0.61611000  0.67188000  0.21025000  1.0
  C  C72  1  0.36767000  0.36640000  0.71018000  1.0
  C  C73  1  0.17397000  0.11776000  0.21033000  1.0
  C  C74  1  0.16028000  0.39457000  0.82626000  1.0
  C  C75  1  0.64470000  0.76342000  0.32624000  1.0
  C  C76  1  0.01345000  0.77951000  0.82628000  1.0
  C  C77  1  0.02974000  0.91002000  0.32627000  1.0
  C  C78  1  0.08967000  0.97094000  0.67377000  1.0
  C  C79  1  0.60581000  0.83972000  0.17371000  1.0
  C  C80  1  0.23624000  0.35601000  0.67373000  1.0
  C  C81  1  0.22085000  0.98655000  0.17374000  1.0
  C  C82  1  0.03241000  0.38550000  0.78869000  1.0
  C  C83  1  0.63549000  0.92877000  0.28862000  1.0
  C  C84  1  0.17884000  0.82619000  0.78864000  1.0
  C  C85  1  0.07639000  0.78235000  0.28859000  1.0
  C  C86  1  0.21743000  0.92409000  0.71139000  1.0
  C  C87  1  0.61484000  0.96744000  0.21136000  1.0
  C  C88  1  0.07090000  0.36497000  0.71140000  1.0
  C  C89  1  0.17422000  0.82115000  0.21131000  1.0
  N  N90  1  0.30051000  0.69874000  0.00014000  1.0
  N  N91  1  0.94920000  0.44921000  0.50000000  1.0
  N  N92  1  0.69887000  0.30064000  0.99986000  1.0
  N  N93  1  0.55099000  0.05098000  0.50000000  1.0
  O  O94  1  0.38156000  0.39851000  0.91265000  1.0
  O  O95  1  0.64936000  0.45597000  0.41256000  1.0
  O  O96  1  0.70572000  0.68883000  0.91264000  1.0
  O  O97  1  0.93918000  0.13116000  0.41277000  1.0
  O  O98  1  0.86851000  0.06193000  0.58744000  1.0
  O  O99  1  0.60149000  0.61838000  0.08736000  1.0
  O  O100  1  0.54393000  0.35195000  0.58723000  1.0
  O  O101  1  0.31117000  0.29420000  0.08735000  1.0
  O  O102  1  0.60437000  0.39284000  0.81611000  1.0
  O  O103  1  0.64300000  0.32948000  0.31617000  1.0
  O  O104  1  0.57957000  0.79055000  0.81593000  1.0
  O  O105  1  0.04118000  0.35410000  0.31620000  1.0
  O  O106  1  0.64561000  0.95917000  0.68382000  1.0
  O  O107  1  0.60650000  0.39555000  0.18405000  1.0
  O  O108  1  0.67032000  0.35736000  0.68381000  1.0
  O  O109  1  0.20894000  0.42045000  0.18389000  1.0
