# generated using pymatgen
data_AgH16C16(NO2)3
_symmetry_space_group_name_H-M   'P 1'
_cell_length_a   9.56448000
_cell_length_b   9.73836000
_cell_length_c   9.91873000
_cell_angle_alpha   90.07390000
_cell_angle_beta   118.77100000
_cell_angle_gamma   92.92230000
_symmetry_Int_Tables_number   1
_chemical_formula_structural   AgH16C16(NO2)3
_chemical_formula_sum   'Ag2 H32 C32 N6 O12'
_cell_volume   808.39928820
_cell_formula_units_Z   2
loop_
 _symmetry_equiv_pos_site_id
 _symmetry_equiv_pos_as_xyz
  1  'x, y, z'
loop_
 _atom_site_type_symbol
 _atom_site_label
 _atom_site_symmetry_multiplicity
 _atom_site_fract_x
 _atom_site_fract_y
 _atom_site_fract_z
 _atom_site_occupancy
  Ag  Ag0  1  0.64352000  0.35477000  0.50370000  1.0
  Ag  Ag1  1  0.35648000  0.64523000  0.49630000  1.0
  H  H2  1  0.42978000  0.30747000  0.06607000  1.0
  H  H3  1  0.57022000  0.69253000  0.93393000  1.0
  H  H4  1  0.43063000  0.06542000  0.00545000  1.0
  H  H5  1  0.56937000  0.93458000  0.99455000  1.0
  H  H6  1  0.10483000  0.96182000  0.18025000  1.0
  H  H7  1  0.89517000  0.03818000  0.81975000  1.0
  H  H8  1  0.21116000  0.65706000  0.09844000  1.0
  H  H9  1  0.78884000  0.34294000  0.90156000  1.0
  H  H10  1  0.69321000  0.43995000  0.14485000  1.0
  H  H11  1  0.30679000  0.56005000  0.85514000  1.0
  H  H12  1  0.67229000  0.61345000  0.18202000  1.0
  H  H13  1  0.32771000  0.38656000  0.81798000  1.0
  H  H14  1  0.59933000  0.47933000  0.25776000  1.0
  H  H15  1  0.40067000  0.52067000  0.74224000  1.0
  H  H16  1  0.90169000  0.28635000  0.71548000  1.0
  H  H17  1  0.09831000  0.71365000  0.28452000  1.0
  H  H18  1  0.05873000  0.40008000  0.85126000  1.0
  H  H19  1  0.94127000  0.59992000  0.14874000  1.0
  H  H20  1  0.10491000  0.25666000  0.77323000  1.0
  H  H21  1  0.89509000  0.74335000  0.22677000  1.0
  H  H22  1  0.43994000  0.22711000  0.72439000  1.0
  H  H23  1  0.56006000  0.77289000  0.27562000  1.0
  H  H24  1  0.25192000  0.20302000  0.55782000  1.0
  H  H25  1  0.74808000  0.79698000  0.44218000  1.0
  H  H26  1  0.40257000  0.31820000  0.55588000  1.0
  H  H27  1  0.59743000  0.68180000  0.44412000  1.0
  H  H28  1  0.74122000  0.17918000  0.38817000  1.0
  H  H29  1  0.25879000  0.82082000  0.61183000  1.0
  H  H30  1  0.68268000  0.02287000  0.27737000  1.0
  H  H31  1  0.31733000  0.97713000  0.72263000  1.0
  H  H32  1  0.83999000  0.02622000  0.46938000  1.0
  H  H33  1  0.16001000  0.97378000  0.53062000  1.0
  C  C34  1  0.28035000  0.42934000  0.19720000  1.0
  C  C35  1  0.71965000  0.57066000  0.80279000  1.0
  C  C36  1  0.26541000  0.27740000  0.15596000  1.0
  C  C37  1  0.73458000  0.72260000  0.84404000  1.0
  C  C38  1  0.35652000  0.23273000  0.08992000  1.0
  C  C39  1  0.64348000  0.76727000  0.91008000  1.0
  C  C40  1  0.35733000  0.09451000  0.05598000  1.0
  C  C41  1  0.64267000  0.90549000  0.94403000  1.0
  C  C42  1  0.26956000  0.99428000  0.09026000  1.0
  C  C43  1  0.73044000  0.00571000  0.90974000  1.0
  C  C44  1  0.17595000  0.03634000  0.15380000  1.0
  C  C45  1  0.82405000  0.96366000  0.84620000  1.0
  C  C46  1  0.17332000  0.17593000  0.18363000  1.0
  C  C47  1  0.82668000  0.82407000  0.81637000  1.0
  C  C48  1  0.28190000  0.84486000  0.06373000  1.0
  C  C49  1  0.71810000  0.15514000  0.93627000  1.0
  C  C50  1  0.85394000  0.51006000  0.37465000  1.0
  C  C51  1  0.14606000  0.48994000  0.62535000  1.0
  C  C52  1  0.69566000  0.51150000  0.23237000  1.0
  C  C53  1  0.30434000  0.48850000  0.76763000  1.0
  C  C54  1  0.00886000  0.42167000  0.61717000  1.0
  C  C55  1  0.99114000  0.57833000  0.38283000  1.0
  C  C56  1  0.01870000  0.33665000  0.74573000  1.0
  C  C57  1  0.98130000  0.66335000  0.25427000  1.0
  C  C58  1  0.44250000  0.10488000  0.54601000  1.0
  C  C59  1  0.55750000  0.89512000  0.45400000  1.0
  C  C60  1  0.38045000  0.21980000  0.59794000  1.0
  C  C61  1  0.61955000  0.78020000  0.40206000  1.0
  C  C62  1  0.60682000  0.03308000  0.44925000  1.0
  C  C63  1  0.39319000  0.96692000  0.55075000  1.0
  C  C64  1  0.72353000  0.06754000  0.39301000  1.0
  C  C65  1  0.27647000  0.93246000  0.60699000  1.0
  N  N66  1  0.06954000  0.21406000  0.24639000  1.0
  N  N67  1  0.93046000  0.78594000  0.75361000  1.0
  N  N68  1  0.86493000  0.43463000  0.49265000  1.0
  N  N69  1  0.13507000  0.56537000  0.50735000  1.0
  N  N70  1  0.54845000  0.13535000  0.49580000  1.0
  N  N71  1  0.45155000  0.86465000  0.50420000  1.0
  O  O72  1  0.37492000  0.46442000  0.33689000  1.0
  O  O73  1  0.62508000  0.53558000  0.66310000  1.0
  O  O74  1  0.20781000  0.50728000  0.08580000  1.0
  O  O75  1  0.79219000  0.49272000  0.91419000  1.0
  O  O76  1  0.36736000  0.80528000  0.01127000  1.0
  O  O77  1  0.63264000  0.19471000  0.98873000  1.0
  O  O78  1  0.19640000  0.76320000  0.10662000  1.0
  O  O79  1  0.80360000  0.23680000  0.89338000  1.0
  O  O80  1  0.04924000  0.33780000  0.25420000  1.0
  O  O81  1  0.95076000  0.66220000  0.74580000  1.0
  O  O82  1  0.00676000  0.12040000  0.28860000  1.0
  O  O83  1  0.99324000  0.87960000  0.71140000  1.0
