# generated using pymatgen
data_CuP2H24C26(ClO)2
_symmetry_space_group_name_H-M   'P 1'
_cell_length_a   10.38930000
_cell_length_b   11.71450000
_cell_length_c   11.71450000
_cell_angle_alpha   117.04600000
_cell_angle_beta   94.02610000
_cell_angle_gamma   94.02620000
_symmetry_Int_Tables_number   1
_chemical_formula_structural   CuP2H24C26(ClO)2
_chemical_formula_sum   'Cu2 P4 H48 C52 Cl4 O4'
_cell_volume   1258.27253159
_cell_formula_units_Z   2
loop_
 _symmetry_equiv_pos_site_id
 _symmetry_equiv_pos_as_xyz
  1  'x, y, z'
loop_
 _atom_site_type_symbol
 _atom_site_label
 _atom_site_symmetry_multiplicity
 _atom_site_fract_x
 _atom_site_fract_y
 _atom_site_fract_z
 _atom_site_occupancy
  Cu  Cu0  1  0.75000000  0.80850000  0.19150000  1.0
  Cu  Cu1  1  0.25000000  0.19150000  0.80850000  1.0
  P  P2  1  0.91746000  0.57316000  0.18627000  1.0
  P  P3  1  0.58254000  0.81373000  0.42684000  1.0
  P  P4  1  0.08254000  0.42684000  0.81373000  1.0
  P  P5  1  0.41746000  0.18627000  0.57316000  1.0
  H  H6  1  0.11077000  0.49352000  0.09223000  1.0
  H  H7  1  0.38923000  0.90777000  0.50649000  1.0
  H  H8  1  0.88923000  0.50648000  0.90777000  1.0
  H  H9  1  0.61077000  0.09223000  0.49351000  1.0
  H  H10  1  0.21905000  0.87919000  0.67046000  1.0
  H  H11  1  0.28095000  0.32954000  0.12081000  1.0
  H  H12  1  0.78095000  0.12081000  0.32954000  1.0
  H  H13  1  0.71905000  0.67046000  0.87919000  1.0
  H  H14  1  0.15180000  0.97635000  0.52983000  1.0
  H  H15  1  0.34820000  0.47017000  0.02365000  1.0
  H  H16  1  0.84820000  0.02365000  0.47017000  1.0
  H  H17  1  0.65180000  0.52983000  0.97635000  1.0
  H  H18  1  0.01945000  0.84174000  0.31815000  1.0
  H  H19  1  0.48056000  0.68185000  0.15826000  1.0
  H  H20  1  0.98055000  0.15826000  0.68186000  1.0
  H  H21  1  0.51944000  0.31814000  0.84174000  1.0
  H  H22  1  0.07605000  0.63583000  0.08422000  1.0
  H  H23  1  0.42394000  0.91578000  0.36417000  1.0
  H  H24  1  0.92395000  0.36417000  0.91578000  1.0
  H  H25  1  0.57606000  0.08422000  0.63583000  1.0
  H  H26  1  0.66241000  0.48664000  0.20903000  1.0
  H  H27  1  0.83759000  0.79097000  0.51336000  1.0
  H  H28  1  0.33759000  0.51336000  0.79097000  1.0
  H  H29  1  0.16241000  0.20903000  0.48664000  1.0
  H  H30  1  0.55672000  0.27442000  0.17238000  1.0
  H  H31  1  0.94328000  0.82762000  0.72558000  1.0
  H  H32  1  0.44328000  0.72558000  0.82762000  1.0
  H  H33  1  0.05672000  0.17238000  0.27442000  1.0
  H  H34  1  0.68586000  0.08678000  0.11028000  1.0
  H  H35  1  0.81414000  0.88972000  0.91322000  1.0
  H  H36  1  0.31413000  0.91322000  0.88972000  1.0
  H  H37  1  0.18587000  0.11028000  0.08678000  1.0
  H  H38  1  0.91901000  0.11325000  0.08520000  1.0
  H  H39  1  0.58099000  0.91480000  0.88675000  1.0
  H  H40  1  0.08099000  0.88675000  0.91480000  1.0
  H  H41  1  0.41901000  0.08520000  0.11325000  1.0
  H  H42  1  0.02589000  0.32386000  0.12156000  1.0
  H  H43  1  0.47411000  0.87844000  0.67614000  1.0
  H  H44  1  0.97411000  0.67613000  0.87844000  1.0
  H  H45  1  0.52589000  0.12155000  0.32386000  1.0
  H  H46  1  0.02302000  0.50998000  0.38883000  1.0
  H  H47  1  0.47698000  0.61118000  0.49002000  1.0
  H  H48  1  0.97698000  0.49002000  0.61118000  1.0
  H  H49  1  0.52302000  0.38882000  0.50997000  1.0
  H  H50  1  0.15836000  0.64550000  0.59901000  1.0
  H  H51  1  0.34165000  0.40099000  0.35450000  1.0
  H  H52  1  0.84165000  0.35450000  0.40099000  1.0
  H  H53  1  0.65835000  0.59901000  0.64550000  1.0
  C  C54  1  0.03266000  0.54074000  0.06884000  1.0
  C  C55  1  0.46734000  0.93116000  0.45926000  1.0
  C  C56  1  0.96734000  0.45926000  0.93116000  1.0
  C  C57  1  0.53266000  0.06884000  0.54073000  1.0
  C  C58  1  0.85120000  0.42033000  0.17074000  1.0
  C  C59  1  0.64880000  0.82926000  0.57967000  1.0
  C  C60  1  0.14880000  0.57967000  0.82926000  1.0
  C  C61  1  0.35120000  0.17074000  0.42033000  1.0
  C  C62  1  0.71883000  0.40535000  0.18471000  1.0
  C  C63  1  0.78117000  0.81529000  0.59465000  1.0
  C  C64  1  0.28117000  0.59465000  0.81529000  1.0
  C  C65  1  0.21883000  0.18471000  0.40535000  1.0
  C  C66  1  0.65986000  0.28574000  0.16352000  1.0
  C  C67  1  0.84015000  0.83648000  0.71426000  1.0
  C  C68  1  0.34014000  0.71426000  0.83648000  1.0
  C  C69  1  0.15986000  0.16352000  0.28573000  1.0
  C  C70  1  0.73190000  0.18079000  0.12779000  1.0
  C  C71  1  0.76810000  0.87221000  0.81921000  1.0
  C  C72  1  0.26809000  0.81921000  0.87221000  1.0
  C  C73  1  0.23190000  0.12779000  0.18079000  1.0
  C  C74  1  0.86359000  0.19570000  0.11430000  1.0
  C  C75  1  0.63641000  0.88570000  0.80430000  1.0
  C  C76  1  0.13641000  0.80429000  0.88570000  1.0
  C  C77  1  0.36359000  0.11430000  0.19570000  1.0
  C  C78  1  0.92382000  0.31514000  0.13587000  1.0
  C  C79  1  0.57618000  0.86414000  0.68486000  1.0
  C  C80  1  0.07618000  0.68486000  0.86413000  1.0
  C  C81  1  0.42382000  0.13587000  0.31514000  1.0
  C  C82  1  0.01227000  0.66730000  0.34073000  1.0
  C  C83  1  0.48773000  0.65927000  0.33270000  1.0
  C  C84  1  0.98773000  0.33270000  0.65927000  1.0
  C  C85  1  0.51227000  0.34072000  0.66730000  1.0
  C  C86  1  0.05161000  0.61201000  0.41956000  1.0
  C  C87  1  0.44839000  0.58044000  0.38799000  1.0
  C  C88  1  0.94839000  0.38799000  0.58044000  1.0
  C  C89  1  0.55161000  0.41956000  0.61201000  1.0
  C  C90  1  0.12735000  0.68805000  0.53741000  1.0
  C  C91  1  0.37266000  0.46260000  0.31195000  1.0
  C  C92  1  0.87265000  0.31195000  0.46260000  1.0
  C  C93  1  0.62734000  0.53740000  0.68805000  1.0
  C  C94  1  0.16242000  0.81902000  0.57710000  1.0
  C  C95  1  0.33758000  0.42290000  0.18098000  1.0
  C  C96  1  0.83758000  0.18098000  0.42290000  1.0
  C  C97  1  0.66242000  0.57709000  0.81902000  1.0
  C  C98  1  0.12344000  0.87420000  0.49845000  1.0
  C  C99  1  0.37657000  0.50156000  0.12580000  1.0
  C  C100  1  0.87656000  0.12580000  0.50156000  1.0
  C  C101  1  0.62343000  0.49844000  0.87420000  1.0
  C  C102  1  0.04928000  0.79872000  0.37984000  1.0
  C  C103  1  0.45072000  0.62016000  0.20128000  1.0
  C  C104  1  0.95072000  0.20128000  0.62016000  1.0
  C  C105  1  0.54928000  0.37983000  0.79871000  1.0
  Cl  Cl106  1  0.58683000  0.88159000  0.12485000  1.0
  Cl  Cl107  1  0.91317000  0.87515000  0.11841000  1.0
  Cl  Cl108  1  0.41317000  0.11841000  0.87515000  1.0
  Cl  Cl109  1  0.08683000  0.12485000  0.88159000  1.0
  O  O110  1  0.80627000  0.64017000  0.16233000  1.0
  O  O111  1  0.69373000  0.83767000  0.35983000  1.0
  O  O112  1  0.19373000  0.35982000  0.83766000  1.0
  O  O113  1  0.30627000  0.16233000  0.64018000  1.0
