# generated using pymatgen
data_HgH6C5S5Cl2
_symmetry_space_group_name_H-M   'P 1'
_cell_length_a   3.95802000
_cell_length_b   11.44380000
_cell_length_c   26.32760000
_cell_angle_alpha   88.23030000
_cell_angle_beta   89.99970000
_cell_angle_gamma   89.99990000
_symmetry_Int_Tables_number   1
_chemical_formula_structural   HgH6C5S5Cl2
_chemical_formula_sum   'Hg4 H24 C20 S20 Cl8'
_cell_volume   1191.93430795
_cell_formula_units_Z   4
loop_
 _symmetry_equiv_pos_site_id
 _symmetry_equiv_pos_as_xyz
  1  'x, y, z'
loop_
 _atom_site_type_symbol
 _atom_site_label
 _atom_site_symmetry_multiplicity
 _atom_site_fract_x
 _atom_site_fract_y
 _atom_site_fract_z
 _atom_site_occupancy
  Hg  Hg0  1  0.73659000  0.59947000  0.05933000  1.0
  Hg  Hg1  1  0.23658000  0.90052000  0.44067000  1.0
  Hg  Hg2  1  0.26341000  0.40053000  0.94067000  1.0
  Hg  Hg3  1  0.76341000  0.09947000  0.55933000  1.0
  H  H4  1  0.57102000  0.06753000  0.03973000  1.0
  H  H5  1  0.07105000  0.43246000  0.46027000  1.0
  H  H6  1  0.42893000  0.93247000  0.96027000  1.0
  H  H7  1  0.92895000  0.56754000  0.53973000  1.0
  H  H8  1  0.26899000  0.18131000  0.04736000  1.0
  H  H9  1  0.76903000  0.31868000  0.45264000  1.0
  H  H10  1  0.73095000  0.81869000  0.95265000  1.0
  H  H11  1  0.23097000  0.68132000  0.54735000  1.0
  H  H12  1  0.17691000  0.03774000  0.07229000  1.0
  H  H13  1  0.67694000  0.46225000  0.42771000  1.0
  H  H14  1  0.82305000  0.96226000  0.92772000  1.0
  H  H15  1  0.32306000  0.53775000  0.57228000  1.0
  H  H16  1  0.51004000  0.09264000  0.29368000  1.0
  H  H17  1  0.01004000  0.40736000  0.20633000  1.0
  H  H18  1  0.48998000  0.90736000  0.70633000  1.0
  H  H19  1  0.98998000  0.59264000  0.79368000  1.0
  H  H20  1  0.86671000  0.16832000  0.31879000  1.0
  H  H21  1  0.36671000  0.33168000  0.18121000  1.0
  H  H22  1  0.13331000  0.83168000  0.68121000  1.0
  H  H23  1  0.63331000  0.66832000  0.81879000  1.0
  H  H24  1  0.88950000  0.01374000  0.31108000  1.0
  H  H25  1  0.38951000  0.48625000  0.18892000  1.0
  H  H26  1  0.11051000  0.98625000  0.68892000  1.0
  H  H27  1  0.61051000  0.51374000  0.81107000  1.0
  C  C28  1  0.81569000  0.79468000  0.16592000  1.0
  C  C29  1  0.31572000  0.70532000  0.33408000  1.0
  C  C30  1  0.18427000  0.20532000  0.83408000  1.0
  C  C31  1  0.68429000  0.29468000  0.66592000  1.0
  C  C32  1  0.68844000  0.01666000  0.15183000  1.0
  C  C33  1  0.18846000  0.48333000  0.34818000  1.0
  C  C34  1  0.31154000  0.98334000  0.84817000  1.0
  C  C35  1  0.81155000  0.51667000  0.65183000  1.0
  C  C36  1  0.83783000  0.00739000  0.19899000  1.0
  C  C37  1  0.33785000  0.49262000  0.30101000  1.0
  C  C38  1  0.16216000  0.99261000  0.80101000  1.0
  C  C39  1  0.66218000  0.50739000  0.69898000  1.0
  C  C40  1  0.37831000  0.10218000  0.06519000  1.0
  C  C41  1  0.87832000  0.39781000  0.43481000  1.0
  C  C42  1  0.62166000  0.89782000  0.93481000  1.0
  C  C43  1  0.12167000  0.60219000  0.56519000  1.0
  C  C44  1  0.78638000  0.09601000  0.29531000  1.0
  C  C45  1  0.28639000  0.40400000  0.20470000  1.0
  C  C46  1  0.21364000  0.90399000  0.70470000  1.0
  C  C47  1  0.71365000  0.59600000  0.79530000  1.0
  S  S48  1  0.84771000  0.65001000  0.16101000  1.0
  S  S49  1  0.34775000  0.84999000  0.33899000  1.0
  S  S50  1  0.15225000  0.34999000  0.83899000  1.0
  S  S51  1  0.65227000  0.15001000  0.66100000  1.0
  S  S52  1  0.64232000  0.88677000  0.11996000  1.0
  S  S53  1  0.14236000  0.61323000  0.38004000  1.0
  S  S54  1  0.35763000  0.11324000  0.88004000  1.0
  S  S55  1  0.85765000  0.38677000  0.61995000  1.0
  S  S56  1  0.95509000  0.86592000  0.21844000  1.0
  S  S57  1  0.45511000  0.63408000  0.28156000  1.0
  S  S58  1  0.04488000  0.13408000  0.78156000  1.0
  S  S59  1  0.54491000  0.36592000  0.71844000  1.0
  S  S60  1  0.56372000  0.14919000  0.12364000  1.0
  S  S61  1  0.06376000  0.35081000  0.37636000  1.0
  S  S62  1  0.43625000  0.85082000  0.87637000  1.0
  S  S63  1  0.93626000  0.64919000  0.62363000  1.0
  S  S64  1  0.95533000  0.12913000  0.23277000  1.0
  S  S65  1  0.45534000  0.37086000  0.26723000  1.0
  S  S66  1  0.04467000  0.87086000  0.76723000  1.0
  S  S67  1  0.54470000  0.62914000  0.73277000  1.0
  Cl  Cl68  1  0.33939000  0.43894000  0.06632000  1.0
  Cl  Cl69  1  0.83938000  0.06106000  0.43368000  1.0
  Cl  Cl70  1  0.66062000  0.56106000  0.93367000  1.0
  Cl  Cl71  1  0.16063000  0.93894000  0.56632000  1.0
  Cl  Cl72  1  0.13660000  0.74640000  0.02816000  1.0
  Cl  Cl73  1  0.63660000  0.75360000  0.47184000  1.0
  Cl  Cl74  1  0.86340000  0.25360000  0.97184000  1.0
  Cl  Cl75  1  0.36340000  0.24640000  0.52816000  1.0
