# generated using pymatgen
data_CdH6C8N4O3
_symmetry_space_group_name_H-M   'P 1'
_cell_length_a   7.39262000
_cell_length_b   10.44143075
_cell_length_c   14.73805410
_cell_angle_alpha   73.90243502
_cell_angle_beta   75.49390135
_cell_angle_gamma   69.28969696
_symmetry_Int_Tables_number   1
_chemical_formula_structural   CdH6C8N4O3
_chemical_formula_sum   'Cd4 H24 C32 N16 O12'
_cell_volume   1007.57530281
_cell_formula_units_Z   4
loop_
 _symmetry_equiv_pos_site_id
 _symmetry_equiv_pos_as_xyz
  1  'x, y, z'
loop_
 _atom_site_type_symbol
 _atom_site_label
 _atom_site_symmetry_multiplicity
 _atom_site_fract_x
 _atom_site_fract_y
 _atom_site_fract_z
 _atom_site_occupancy
  Cd  Cd0  1  0.78438000  0.74999000  0.24992000  1.0
  Cd  Cd1  1  0.21562000  0.25001000  0.75008000  1.0
  Cd  Cd2  1  0.50000000  0.00000000  1.00000000  1.0
  Cd  Cd3  1  0.50000000  0.50000000  0.50000000  1.0
  H  H4  1  0.30611000  0.28898000  0.94386000  1.0
  H  H5  1  0.53865000  0.21099000  0.55624000  1.0
  H  H6  1  0.69389000  0.71102000  0.05614000  1.0
  H  H7  1  0.46134000  0.78901000  0.44376000  1.0
  H  H8  1  0.13433000  0.22897000  0.99625000  1.0
  H  H9  1  0.35920000  0.27104000  0.50386000  1.0
  H  H10  1  0.86567000  0.77103000  0.00375000  1.0
  H  H11  1  0.64079000  0.72897000  0.49614000  1.0
  H  H12  1  0.75445000  0.05890000  0.18747000  1.0
  H  H13  1  0.00072000  0.44127000  0.31216000  1.0
  H  H14  1  0.24555000  0.94110000  0.81254000  1.0
  H  H15  1  0.99928000  0.55873000  0.68784000  1.0
  H  H16  1  0.62027000  0.18579000  0.32127000  1.0
  H  H17  1  0.12733000  0.31389000  0.17861000  1.0
  H  H18  1  0.37974000  0.81421000  0.67873000  1.0
  H  H19  1  0.87266000  0.68611000  0.82139000  1.0
  H  H20  1  0.84670000  0.19592000  0.41733000  1.0
  H  H21  1  0.46019000  0.30330000  0.08287000  1.0
  H  H22  1  0.15330000  0.80408000  0.58267000  1.0
  H  H23  1  0.53981000  0.69669000  0.91713000  1.0
  H  H24  1  0.20263000  0.07510000  0.38089000  1.0
  H  H25  1  0.65883000  0.42431000  0.11922000  1.0
  H  H26  1  0.79738000  0.92490000  0.61911000  1.0
  H  H27  1  0.34117000  0.57569000  0.88078000  1.0
  C  C28  1  0.18265000  0.00062000  0.26276000  1.0
  C  C29  1  0.44608000  0.49922000  0.23712000  1.0
  C  C30  1  0.81734000  0.99939000  0.73724000  1.0
  C  C31  1  0.55392000  0.50078000  0.76288000  1.0
  C  C32  1  0.05525000  0.99291000  0.20834000  1.0
  C  C33  1  0.25649000  0.50718000  0.29139000  1.0
  C  C34  1  0.94474000  0.00709000  0.79167000  1.0
  C  C35  1  0.74351000  0.49282000  0.70861000  1.0
  C  C36  1  0.85249000  0.06065000  0.23109000  1.0
  C  C37  1  0.14415000  0.43943000  0.26859000  1.0
  C  C38  1  0.14751000  0.93935000  0.76891000  1.0
  C  C39  1  0.85585000  0.56057000  0.73141000  1.0
  C  C40  1  0.77716000  0.13313000  0.30544000  1.0
  C  C41  1  0.21571000  0.36666000  0.19440000  1.0
  C  C42  1  0.22285000  0.86688000  0.69455000  1.0
  C  C43  1  0.78429000  0.63334000  0.80560000  1.0
  C  C44  1  0.90309000  0.13862000  0.35965000  1.0
  C  C45  1  0.40148000  0.36087000  0.14040000  1.0
  C  C46  1  0.09692000  0.86138000  0.64035000  1.0
  C  C47  1  0.59851000  0.63913000  0.85961000  1.0
  C  C48  1  0.10331000  0.07162000  0.33867000  1.0
  C  C49  1  0.51379000  0.42791000  0.16135000  1.0
  C  C50  1  0.89669000  0.92838000  0.66133000  1.0
  C  C51  1  0.48621000  0.57209000  0.83865000  1.0
  C  C52  1  0.39998000  0.93560000  0.24697000  1.0
  C  C53  1  0.58256000  0.56431000  0.25288000  1.0
  C  C54  1  0.60002000  0.06440000  0.75303000  1.0
  C  C55  1  0.41745000  0.43569000  0.74712000  1.0
  C  C56  1  0.11003000  0.91023000  0.13365000  1.0
  C  C57  1  0.15410000  0.58983000  0.36611000  1.0
  C  C58  1  0.88997000  0.08977000  0.86635000  1.0
  C  C59  1  0.84590000  0.41017000  0.63389000  1.0
  N  N60  1  0.00267000  0.82992000  0.13222000  1.0
  N  N61  1  0.96506000  0.67011000  0.36758000  1.0
  N  N62  1  0.99734000  0.17007000  0.86778000  1.0
  N  N63  1  0.03494000  0.32989000  0.63242000  1.0
  N  N64  1  0.07412000  0.78107000  0.05060000  1.0
  N  N65  1  0.90619000  0.71887000  0.44923000  1.0
  N  N66  1  0.92588000  0.21893000  0.94940000  1.0
  N  N67  1  0.09381000  0.28113000  0.55077000  1.0
  N  N68  1  0.22054000  0.82830000  0.00332000  1.0
  N  N69  1  0.05256000  0.67160000  0.49652000  1.0
  N  N70  1  0.77945000  0.17170000  0.99669000  1.0
  N  N71  1  0.94744000  0.32840000  0.50348000  1.0
  N  N72  1  0.24701000  0.90843000  0.05363000  1.0
  N  N73  1  0.20935000  0.59152000  0.44617000  1.0
  N  N74  1  0.75299000  0.09157000  0.94637000  1.0
  N  N75  1  0.79064000  0.40848000  0.55383000  1.0
  O  O76  1  0.50505000  0.94595000  0.16437000  1.0
  O  O77  1  0.61546000  0.55391000  0.33550000  1.0
  O  O78  1  0.49496000  0.05405000  0.83562000  1.0
  O  O79  1  0.38454000  0.44609000  0.66450000  1.0
  O  O80  1  0.26596000  0.22579000  0.00343000  1.0
  O  O81  1  0.49487000  0.27416000  0.49667000  1.0
  O  O82  1  0.73404000  0.77421000  0.99657000  1.0
  O  O83  1  0.50513000  0.72583000  0.50333000  1.0
  O  O84  1  0.48014000  0.86959000  0.32152000  1.0
  O  O85  1  0.67108000  0.63042000  0.17833000  1.0
  O  O86  1  0.51986000  0.13041000  0.67848000  1.0
  O  O87  1  0.32891000  0.36959000  0.82167000  1.0
