# generated using pymatgen
data_PrH8C9NO11
_symmetry_space_group_name_H-M   'P 1'
_cell_length_a   8.53277000
_cell_length_b   8.98934000
_cell_length_c   9.47790000
_cell_angle_alpha   99.17540000
_cell_angle_beta   116.44400000
_cell_angle_gamma   92.07820000
_symmetry_Int_Tables_number   1
_chemical_formula_structural   PrH8C9NO11
_chemical_formula_sum   'Pr2 H16 C18 N2 O22'
_cell_volume   637.84874410
_cell_formula_units_Z   2
loop_
 _symmetry_equiv_pos_site_id
 _symmetry_equiv_pos_as_xyz
  1  'x, y, z'
loop_
 _atom_site_type_symbol
 _atom_site_label
 _atom_site_symmetry_multiplicity
 _atom_site_fract_x
 _atom_site_fract_y
 _atom_site_fract_z
 _atom_site_occupancy
  Pr  Pr0  1  0.67746000  0.29546000  0.30990000  1.0
  Pr  Pr1  1  0.32254000  0.70454000  0.69010000  1.0
  H  H2  1  0.18961000  0.93996000  0.91884000  1.0
  H  H3  1  0.81039000  0.06005000  0.08117000  1.0
  H  H4  1  0.38744000  0.45410000  0.34542000  1.0
  H  H5  1  0.61256000  0.54590000  0.65458000  1.0
  H  H6  1  0.38668000  0.50760000  0.20379000  1.0
  H  H7  1  0.61331000  0.49239000  0.79620000  1.0
  H  H8  1  0.87253000  0.43315000  0.12549000  1.0
  H  H9  1  0.12747000  0.56687000  0.87450000  1.0
  H  H10  1  0.96273000  0.50470000  0.31078000  1.0
  H  H11  1  0.03728000  0.49531000  0.68922000  1.0
  H  H12  1  0.58093000  0.29123000  0.93806000  1.0
  H  H13  1  0.41907000  0.70877000  0.06194000  1.0
  H  H14  1  0.40717000  0.26842000  0.95351000  1.0
  H  H15  1  0.59283000  0.73159000  0.04649000  1.0
  H  H16  1  0.17849000  0.23928000  0.27689000  1.0
  H  H17  1  0.82152000  0.76072000  0.72311000  1.0
  C  C18  1  0.33992000  0.74701000  0.34552000  1.0
  C  C19  1  0.66007000  0.25298000  0.65447000  1.0
  C  C20  1  0.28508000  0.90019000  0.38650000  1.0
  C  C21  1  0.71493000  0.09980000  0.61351000  1.0
  C  C22  1  0.25471000  0.01422000  0.29495000  1.0
  C  C23  1  0.74529000  0.98578000  0.70504000  1.0
  C  C24  1  0.20318000  0.14951000  0.34642000  1.0
  C  C25  1  0.79683000  0.85049000  0.65358000  1.0
  C  C26  1  0.18363000  0.16998000  0.48663000  1.0
  C  C27  1  0.81637000  0.83002000  0.51337000  1.0
  C  C28  1  0.21764000  0.05114000  0.57174000  1.0
  C  C29  1  0.78237000  0.94886000  0.42826000  1.0
  C  C30  1  0.20816000  0.06250000  0.72814000  1.0
  C  C31  1  0.79182000  0.93749000  0.27185000  1.0
  C  C32  1  0.28751000  0.00698000  0.15141000  1.0
  C  C33  1  0.71249000  0.99301000  0.84859000  1.0
  C  C34  1  0.14049000  0.32127000  0.54518000  1.0
  C  C35  1  0.85951000  0.67874000  0.45482000  1.0
  N  N36  1  0.26627000  0.92153000  0.52101000  1.0
  N  N37  1  0.73373000  0.07846000  0.47899000  1.0
  O  O38  1  0.42214000  0.08060000  0.16626000  1.0
  O  O39  1  0.57786000  0.91940000  0.83374000  1.0
  O  O40  1  0.16390000  0.92974000  0.01699000  1.0
  O  O41  1  0.83609000  0.07026000  0.98300000  1.0
  O  O42  1  0.35288000  0.71330000  0.21721000  1.0
  O  O43  1  0.64710000  0.28669000  0.78279000  1.0
  O  O44  1  0.36729000  0.66032000  0.44720000  1.0
  O  O45  1  0.63271000  0.33968000  0.55280000  1.0
  O  O46  1  0.20935000  0.93454000  0.77546000  1.0
  O  O47  1  0.79066000  0.06546000  0.22454000  1.0
  O  O48  1  0.20133000  0.18811000  0.80133000  1.0
  O  O49  1  0.79868000  0.81188000  0.19868000  1.0
  O  O50  1  0.98766000  0.33581000  0.53424000  1.0
  O  O51  1  0.01234000  0.66419000  0.46576000  1.0
  O  O52  1  0.26476000  0.42737000  0.59723000  1.0
  O  O53  1  0.73524000  0.57264000  0.40277000  1.0
  O  O54  1  0.38942000  0.41168000  0.24373000  1.0
  O  O55  1  0.61057000  0.58832000  0.75627000  1.0
  O  O56  1  0.91008000  0.40734000  0.23075000  1.0
  O  O57  1  0.08992000  0.59267000  0.76924000  1.0
  O  O58  1  0.53488000  0.30497000  0.01737000  1.0
  O  O59  1  0.46512000  0.69503000  0.98264000  1.0
