# generated using pymatgen
data_NaH8C3S3(NO)3
_symmetry_space_group_name_H-M   'P 1'
_cell_length_a   7.72587000
_cell_length_b   10.35150000
_cell_length_c   12.60030000
_cell_angle_alpha   90.00010000
_cell_angle_beta   90.00060000
_cell_angle_gamma   108.96200000
_symmetry_Int_Tables_number   1
_chemical_formula_structural   NaH8C3S3(NO)3
_chemical_formula_sum   'Na4 H32 C12 S12 N12 O12'
_cell_volume   953.01712558
_cell_formula_units_Z   4
loop_
 _symmetry_equiv_pos_site_id
 _symmetry_equiv_pos_as_xyz
  1  'x, y, z'
loop_
 _atom_site_type_symbol
 _atom_site_label
 _atom_site_symmetry_multiplicity
 _atom_site_fract_x
 _atom_site_fract_y
 _atom_site_fract_z
 _atom_site_occupancy
  Na  Na0  1  0.05917000  0.91475000  0.43678000  1.0
  Na  Na1  1  0.94083000  0.08525000  0.93678000  1.0
  Na  Na2  1  0.42969000  0.08035000  0.60439000  1.0
  Na  Na3  1  0.57031000  0.91965000  0.10439000  1.0
  H  H4  1  0.11174000  0.86806000  0.66825000  1.0
  H  H5  1  0.88827000  0.13195000  0.16824000  1.0
  H  H6  1  0.05569000  0.00198000  0.66737000  1.0
  H  H7  1  0.94431000  0.99802000  0.16737000  1.0
  H  H8  1  0.57007000  0.18736000  0.80454000  1.0
  H  H9  1  0.42994000  0.81264000  0.30454000  1.0
  H  H10  1  0.36744000  0.08314000  0.83550000  1.0
  H  H11  1  0.63257000  0.91687000  0.33550000  1.0
  H  H12  1  0.48366000  0.83749000  0.54493000  1.0
  H  H13  1  0.51633000  0.16251000  0.04493000  1.0
  H  H14  1  0.62681000  0.86286000  0.63615000  1.0
  H  H15  1  0.37319000  0.13714000  0.13615000  1.0
  H  H16  1  0.74110000  0.98103000  0.48888000  1.0
  H  H17  1  0.25890000  0.01897000  0.98888000  1.0
  H  H18  1  0.83350000  0.10191000  0.40796000  1.0
  H  H19  1  0.16651000  0.89809000  0.90796000  1.0
  H  H20  1  0.42892000  0.00221000  0.36730000  1.0
  H  H21  1  0.57109000  0.99779000  0.86730000  1.0
  H  H22  1  0.36414000  0.13120000  0.37774000  1.0
  H  H23  1  0.63586000  0.86880000  0.87774000  1.0
  H  H24  1  0.90961000  0.80583000  0.24593000  1.0
  H  H25  1  0.09038000  0.19417000  0.74593000  1.0
  H  H26  1  0.10736000  0.85897000  0.19776000  1.0
  H  H27  1  0.89263000  0.14103000  0.69775000  1.0
  H  H28  1  0.02891000  0.57553000  0.96186000  1.0
  H  H29  1  0.97109000  0.42448000  0.46185000  1.0
  H  H30  1  0.04139000  0.55465000  0.63839000  1.0
  H  H31  1  0.95862000  0.44536000  0.13839000  1.0
  H  H32  1  0.46450000  0.42763000  0.41797000  1.0
  H  H33  1  0.53549000  0.57236000  0.91797000  1.0
  H  H34  1  0.44197000  0.44049000  0.09338000  1.0
  H  H35  1  0.55803000  0.55951000  0.59338000  1.0
  C  C36  1  0.84232000  0.38995000  0.71101000  1.0
  C  C37  1  0.15768000  0.61006000  0.21101000  1.0
  C  C38  1  0.04860000  0.58855000  0.79920000  1.0
  C  C39  1  0.95140000  0.41146000  0.29919000  1.0
  C  C40  1  0.83617000  0.40233000  0.89575000  1.0
  C  C41  1  0.16383000  0.59767000  0.39575000  1.0
  C  C42  1  0.65875000  0.59852000  0.34821000  1.0
  C  C43  1  0.34125000  0.40148000  0.84821000  1.0
  C  C44  1  0.44024000  0.41130000  0.25531000  1.0
  C  C45  1  0.55975000  0.58870000  0.75531000  1.0
  C  C46  1  0.64369000  0.60645000  0.16272000  1.0
  C  C47  1  0.35631000  0.39355000  0.66271000  1.0
  S  S48  1  0.78019000  0.30728000  0.59495000  1.0
  S  S49  1  0.21981000  0.69273000  0.09495000  1.0
  S  S50  1  0.21612000  0.73848000  0.79454000  1.0
  S  S51  1  0.78389000  0.26152000  0.29454000  1.0
  S  S52  1  0.76830000  0.33377000  0.01597000  1.0
  S  S53  1  0.23170000  0.66623000  0.51597000  1.0
  S  S54  1  0.71271000  0.68487000  0.04609000  1.0
  S  S55  1  0.28728000  0.31513000  0.54609000  1.0
  S  S56  1  0.27551000  0.25868000  0.25565000  1.0
  S  S57  1  0.72448000  0.74132000  0.75565000  1.0
  S  S58  1  0.74787000  0.66317000  0.46583000  1.0
  S  S59  1  0.25212000  0.33682000  0.96583000  1.0
  N  N60  1  0.76624000  0.33799000  0.80482000  1.0
  N  N61  1  0.23376000  0.66201000  0.30481000  1.0
  N  N62  1  0.97251000  0.52790000  0.89150000  1.0
  N  N63  1  0.02750000  0.47210000  0.39149000  1.0
  N  N64  1  0.97987000  0.51502000  0.71022000  1.0
  N  N65  1  0.02014000  0.48499000  0.21022000  1.0
  N  N66  1  0.72101000  0.66146000  0.25531000  1.0
  N  N67  1  0.27899000  0.33853000  0.75531000  1.0
  N  N68  1  0.51700000  0.47513000  0.34619000  1.0
  N  N69  1  0.48299000  0.52486000  0.84619000  1.0
  N  N70  1  0.50517000  0.48143000  0.16458000  1.0
  N  N71  1  0.49482000  0.51856000  0.66457000  1.0
  O  O72  1  0.11477000  0.94693000  0.62397000  1.0
  O  O73  1  0.88524000  0.05307000  0.12397000  1.0
  O  O74  1  0.47801000  0.09490000  0.79155000  1.0
  O  O75  1  0.52200000  0.90510000  0.29154000  1.0
  O  O76  1  0.57825000  0.91199000  0.58240000  1.0
  O  O77  1  0.42175000  0.08802000  0.08240000  1.0
  O  O78  1  0.82230000  0.00677000  0.42521000  1.0
  O  O79  1  0.17770000  0.99323000  0.92521000  1.0
  O  O80  1  0.37033000  0.05076000  0.41750000  1.0
  O  O81  1  0.62967000  0.94924000  0.91750000  1.0
  O  O82  1  0.02426000  0.88887000  0.24306000  1.0
  O  O83  1  0.97574000  0.11113000  0.74306000  1.0
