# generated using pymatgen
data_H6PbC9O4
_symmetry_space_group_name_H-M   'P 1'
_cell_length_a   6.70101000
_cell_length_b   9.48620000
_cell_length_c   13.50800000
_cell_angle_alpha   88.33070000
_cell_angle_beta   89.99840000
_cell_angle_gamma   89.99830000
_symmetry_Int_Tables_number   1
_chemical_formula_structural   H6PbC9O4
_chemical_formula_sum   'H24 Pb4 C36 O16'
_cell_volume   858.30026387
_cell_formula_units_Z   4
loop_
 _symmetry_equiv_pos_site_id
 _symmetry_equiv_pos_as_xyz
  1  'x, y, z'
loop_
 _atom_site_type_symbol
 _atom_site_label
 _atom_site_symmetry_multiplicity
 _atom_site_fract_x
 _atom_site_fract_y
 _atom_site_fract_z
 _atom_site_occupancy
  H  H0  1  0.33525000  0.59820000  0.35502000  1.0
  H  H1  1  0.83529000  0.90179000  0.64496000  1.0
  H  H2  1  0.66473000  0.40180000  0.64499000  1.0
  H  H3  1  0.16472000  0.09822000  0.35504000  1.0
  H  H4  1  0.59530000  0.40138000  0.25449000  1.0
  H  H5  1  0.09535000  0.09861000  0.74549000  1.0
  H  H6  1  0.40468000  0.59863000  0.74550000  1.0
  H  H7  1  0.90467000  0.90142000  0.25451000  1.0
  H  H8  1  0.69761000  0.55362000  0.19743000  1.0
  H  H9  1  0.19766000  0.94638000  0.80255000  1.0
  H  H10  1  0.30236000  0.44639000  0.80255000  1.0
  H  H11  1  0.80235000  0.05362000  0.19745000  1.0
  H  H12  1  0.31426000  0.42414000  0.49710000  1.0
  H  H13  1  0.81432000  0.07583000  0.50288000  1.0
  H  H14  1  0.68574000  0.57585000  0.50290000  1.0
  H  H15  1  0.18570000  0.92415000  0.49711000  1.0
  H  H16  1  0.76720000  0.26404000  0.37600000  1.0
  H  H17  1  0.26728000  0.23593000  0.62400000  1.0
  H  H18  1  0.23277000  0.73593000  0.62399000  1.0
  H  H19  1  0.73277000  0.76408000  0.37601000  1.0
  H  H20  1  0.03008000  0.25434000  0.50549000  1.0
  H  H21  1  0.53017000  0.24566000  0.49452000  1.0
  H  H22  1  0.96988000  0.74569000  0.49451000  1.0
  H  H23  1  0.46985000  0.75430000  0.50548000  1.0
  Pb  Pb24  1  0.74893000  0.15141000  0.94997000  1.0
  Pb  Pb25  1  0.24895000  0.34859000  0.05003000  1.0
  Pb  Pb26  1  0.25107000  0.84858000  0.05004000  1.0
  Pb  Pb27  1  0.75107000  0.65140000  0.94997000  1.0
  C  C28  1  0.90245000  0.43416000  0.29174000  1.0
  C  C29  1  0.40259000  0.06587000  0.70824000  1.0
  C  C30  1  0.09751000  0.56584000  0.70824000  1.0
  C  C31  1  0.59751000  0.93415000  0.29174000  1.0
  C  C32  1  0.21352000  0.52226000  0.36025000  1.0
  C  C33  1  0.71360000  0.97773000  0.63972000  1.0
  C  C34  1  0.78648000  0.47770000  0.63977000  1.0
  C  C35  1  0.28645000  0.02228000  0.36025000  1.0
  C  C36  1  0.73209000  0.44378000  0.21943000  1.0
  C  C37  1  0.23217000  0.05620000  0.78054000  1.0
  C  C38  1  0.26785000  0.55621000  0.78056000  1.0
  C  C39  1  0.76786000  0.94379000  0.21943000  1.0
  C  C40  1  0.06715000  0.52656000  0.28600000  1.0
  C  C41  1  0.56724000  0.97346000  0.71398000  1.0
  C  C42  1  0.93279000  0.47347000  0.71403000  1.0
  C  C43  1  0.43280000  0.02654000  0.28599000  1.0
  C  C44  1  0.20195000  0.42440000  0.43871000  1.0
  C  C45  1  0.70202000  0.07557000  0.56129000  1.0
  C  C46  1  0.79796000  0.57559000  0.56133000  1.0
  C  C47  1  0.29798000  0.92442000  0.43870000  1.0
  C  C48  1  0.89424000  0.33603000  0.37107000  1.0
  C  C49  1  0.39431000  0.16397000  0.62890000  1.0
  C  C50  1  0.10570000  0.66400000  0.62893000  1.0
  C  C51  1  0.60572000  0.83604000  0.37107000  1.0
  C  C52  1  0.09806000  0.62878000  0.20091000  1.0
  C  C53  1  0.59808000  0.87123000  0.79908000  1.0
  C  C54  1  0.90190000  0.37125000  0.79911000  1.0
  C  C55  1  0.40188000  0.12876000  0.20091000  1.0
  C  C56  1  0.04242000  0.33009000  0.44361000  1.0
  C  C57  1  0.54253000  0.16994000  0.55640000  1.0
  C  C58  1  0.95752000  0.66992000  0.55639000  1.0
  C  C59  1  0.45749000  0.83006000  0.44360000  1.0
  C  C60  1  0.75572000  0.36234000  0.12517000  1.0
  C  C61  1  0.25573000  0.13764000  0.87481000  1.0
  C  C62  1  0.24429000  0.63766000  0.87483000  1.0
  C  C63  1  0.74430000  0.86235000  0.12518000  1.0
  O  O64  1  0.89012000  0.26860000  0.11756000  1.0
  O  O65  1  0.39011000  0.23139000  0.88245000  1.0
  O  O66  1  0.10988000  0.73138000  0.88246000  1.0
  O  O67  1  0.60989000  0.76862000  0.11756000  1.0
  O  O68  1  0.16701000  0.75024000  0.21907000  1.0
  O  O69  1  0.66704000  0.74974000  0.78097000  1.0
  O  O70  1  0.83305000  0.24975000  0.78095000  1.0
  O  O71  1  0.33298000  0.25027000  0.21906000  1.0
  O  O72  1  0.06231000  0.58924000  0.11215000  1.0
  O  O73  1  0.56235000  0.91076000  0.88784000  1.0
  O  O74  1  0.93775000  0.41080000  0.88786000  1.0
  O  O75  1  0.43764000  0.08923000  0.11215000  1.0
  O  O76  1  0.63081000  0.38907000  0.05470000  1.0
  O  O77  1  0.13082000  0.11094000  0.94528000  1.0
  O  O78  1  0.36917000  0.61093000  0.94531000  1.0
  O  O79  1  0.86922000  0.88907000  0.05471000  1.0
