# generated using pymatgen
data_CuHC5N4
_symmetry_space_group_name_H-M   'P 1'
_cell_length_a   9.24848000
_cell_length_b   9.24838000
_cell_length_c   21.67320000
_cell_angle_alpha   90.00080000
_cell_angle_beta   89.99990000
_cell_angle_gamma   89.99670000
_symmetry_Int_Tables_number   1
_chemical_formula_structural   CuHC5N4
_chemical_formula_sum   'Cu8 H8 C40 N32'
_cell_volume   1853.78372702
_cell_formula_units_Z   8
loop_
 _symmetry_equiv_pos_site_id
 _symmetry_equiv_pos_as_xyz
  1  'x, y, z'
loop_
 _atom_site_type_symbol
 _atom_site_label
 _atom_site_symmetry_multiplicity
 _atom_site_fract_x
 _atom_site_fract_y
 _atom_site_fract_z
 _atom_site_occupancy
  Cu  Cu0  1  0.92669000  0.53878000  0.87719000  1.0
  Cu  Cu1  1  0.03861000  0.57319000  0.62713000  1.0
  Cu  Cu2  1  0.07331000  0.46122000  0.37718000  1.0
  Cu  Cu3  1  0.96140000  0.42681000  0.12713000  1.0
  Cu  Cu4  1  0.57319000  0.03861000  0.37288000  1.0
  Cu  Cu5  1  0.42681000  0.96140000  0.87287000  1.0
  Cu  Cu6  1  0.53878000  0.92668000  0.12281000  1.0
  Cu  Cu7  1  0.46123000  0.07331000  0.62281000  1.0
  H  H8  1  0.65366000  0.72674000  0.92148000  1.0
  H  H9  1  0.22668000  0.84625000  0.67155000  1.0
  H  H10  1  0.34633000  0.27326000  0.42148000  1.0
  H  H11  1  0.77332000  0.15375000  0.17154000  1.0
  H  H12  1  0.84625000  0.22667000  0.32845000  1.0
  H  H13  1  0.15375000  0.77333000  0.82845000  1.0
  H  H14  1  0.72673000  0.65367000  0.07852000  1.0
  H  H15  1  0.27326000  0.34634000  0.57851000  1.0
  C  C16  1  0.67508000  0.74837000  0.87307000  1.0
  C  C17  1  0.24839000  0.82483000  0.62314000  1.0
  C  C18  1  0.32492000  0.25163000  0.37307000  1.0
  C  C19  1  0.75160000  0.17516000  0.12313000  1.0
  C  C20  1  0.82483000  0.24840000  0.37686000  1.0
  C  C21  1  0.17517000  0.75160000  0.87686000  1.0
  C  C22  1  0.74836000  0.67509000  0.12694000  1.0
  C  C23  1  0.25164000  0.32492000  0.62693000  1.0
  C  C24  1  0.60638000  0.91954000  0.73147000  1.0
  C  C25  1  0.41937000  0.89352000  0.48154000  1.0
  C  C26  1  0.39363000  0.08045000  0.23148000  1.0
  C  C27  1  0.58062000  0.10647000  0.98154000  1.0
  C  C28  1  0.89353000  0.41938000  0.51846000  1.0
  C  C29  1  0.10649000  0.58063000  0.01846000  1.0
  C  C30  1  0.91955000  0.60638000  0.26853000  1.0
  C  C31  1  0.08046000  0.39363000  0.76852000  1.0
  C  C32  1  0.77345000  0.73972000  0.78305000  1.0
  C  C33  1  0.23983000  0.72624000  0.53315000  1.0
  C  C34  1  0.22656000  0.26027000  0.28305000  1.0
  C  C35  1  0.76016000  0.27375000  0.03315000  1.0
  C  C36  1  0.72624000  0.23984000  0.46685000  1.0
  C  C37  1  0.27377000  0.76016000  0.96685000  1.0
  C  C38  1  0.73972000  0.77345000  0.21696000  1.0
  C  C39  1  0.26027000  0.22656000  0.71695000  1.0
  C  C40  1  0.65626000  0.83791000  0.78160000  1.0
  C  C41  1  0.33779000  0.84360000  0.53166000  1.0
  C  C42  1  0.34375000  0.16208000  0.28161000  1.0
  C  C43  1  0.66220000  0.15639000  0.03167000  1.0
  C  C44  1  0.84361000  0.33780000  0.46834000  1.0
  C  C45  1  0.15641000  0.66220000  0.96834000  1.0
  C  C46  1  0.83791000  0.65626000  0.21840000  1.0
  C  C47  1  0.16208000  0.34375000  0.71839000  1.0
  C  C48  1  0.86397000  0.69857000  0.73436000  1.0
  C  C49  1  0.19876000  0.63564000  0.48446000  1.0
  C  C50  1  0.13603000  0.30142000  0.23436000  1.0
  C  C51  1  0.80124000  0.36434000  0.98446000  1.0
  C  C52  1  0.63565000  0.19876000  0.51555000  1.0
  C  C53  1  0.36437000  0.80124000  0.01555000  1.0
  C  C54  1  0.69856000  0.86398000  0.26565000  1.0
  C  C55  1  0.30143000  0.13603000  0.76563000  1.0
  N  N56  1  0.59513000  0.84113000  0.83938000  1.0
  N  N57  1  0.34102000  0.90483000  0.58942000  1.0
  N  N58  1  0.40487000  0.15887000  0.33938000  1.0
  N  N59  1  0.65896000  0.09516000  0.08942000  1.0
  N  N60  1  0.90484000  0.34103000  0.41058000  1.0
  N  N61  1  0.09516000  0.65897000  0.91058000  1.0
  N  N62  1  0.84112000  0.59514000  0.16062000  1.0
  N  N63  1  0.15887000  0.40487000  0.66061000  1.0
  N  N64  1  0.78347000  0.68433000  0.84177000  1.0
  N  N65  1  0.18448000  0.71630000  0.59188000  1.0
  N  N66  1  0.21653000  0.31566000  0.34177000  1.0
  N  N67  1  0.81551000  0.28369000  0.09188000  1.0
  N  N68  1  0.71630000  0.18449000  0.40812000  1.0
  N  N69  1  0.28370000  0.81552000  0.90812000  1.0
  N  N70  1  0.68432000  0.78348000  0.15824000  1.0
  N  N71  1  0.31566000  0.21653000  0.65823000  1.0
  N  N72  1  0.56568000  0.98697000  0.68914000  1.0
  N  N73  1  0.48674000  0.93427000  0.43921000  1.0
  N  N74  1  0.43432000  0.01303000  0.18915000  1.0
  N  N75  1  0.51326000  0.06573000  0.93921000  1.0
  N  N76  1  0.93427000  0.48675000  0.56080000  1.0
  N  N77  1  0.06573000  0.51325000  0.06080000  1.0
  N  N78  1  0.98698000  0.56568000  0.31086000  1.0
  N  N79  1  0.01304000  0.43432000  0.81085000  1.0
  N  N80  1  0.93651000  0.66298000  0.69271000  1.0
  N  N81  1  0.16311000  0.56306000  0.44284000  1.0
  N  N82  1  0.06350000  0.33701000  0.19272000  1.0
  N  N83  1  0.83688000  0.43693000  0.94284000  1.0
  N  N84  1  0.56305000  0.16311000  0.55717000  1.0
  N  N85  1  0.43696000  0.83689000  0.05717000  1.0
  N  N86  1  0.66298000  0.93651000  0.30729000  1.0
  N  N87  1  0.33702000  0.06350000  0.80728000  1.0
