# generated using pymatgen
data_CdH28C28(N4Cl)2
_symmetry_space_group_name_H-M   'P 1'
_cell_length_a   7.77257000
_cell_length_b   8.79065000
_cell_length_c   11.12970000
_cell_angle_alpha   106.76000000
_cell_angle_beta   91.11630000
_cell_angle_gamma   108.63800000
_symmetry_Int_Tables_number   1
_chemical_formula_structural   CdH28C28(N4Cl)2
_chemical_formula_sum   'Cd1 H28 C28 N8 Cl2'
_cell_volume   684.71500490
_cell_formula_units_Z   1
loop_
 _symmetry_equiv_pos_site_id
 _symmetry_equiv_pos_as_xyz
  1  'x, y, z'
loop_
 _atom_site_type_symbol
 _atom_site_label
 _atom_site_symmetry_multiplicity
 _atom_site_fract_x
 _atom_site_fract_y
 _atom_site_fract_z
 _atom_site_occupancy
  Cd  Cd0  1  0.00000000  0.00000000  0.00000000  1.0
  H  H1  1  0.65919000  0.18002000  0.13008000  1.0
  H  H2  1  0.34081000  0.81998000  0.86992000  1.0
  H  H3  1  0.13739000  0.18279000  0.31919000  1.0
  H  H4  1  0.86261000  0.81722000  0.68081000  1.0
  H  H5  1  0.95667000  0.35407000  0.49366000  1.0
  H  H6  1  0.04333000  0.64594000  0.50634000  1.0
  H  H7  1  0.53939000  0.34547000  0.29484000  1.0
  H  H8  1  0.46061000  0.65452000  0.70515000  1.0
  H  H9  1  0.70582000  0.50455000  0.41807000  1.0
  H  H10  1  0.29417000  0.49545000  0.58192000  1.0
  H  H11  1  0.34361000  0.07995000  0.33262000  1.0
  H  H12  1  0.65638000  0.92005000  0.66738000  1.0
  H  H13  1  0.18345000  0.95581000  0.49131000  1.0
  H  H14  1  0.81655000  0.04420000  0.50869000  1.0
  H  H15  1  0.29991000  0.09000000  0.72029000  1.0
  H  H16  1  0.70010000  0.91000000  0.27971000  1.0
  H  H17  1  0.72123000  0.48453000  0.63302000  1.0
  H  H18  1  0.27877000  0.51547000  0.36697000  1.0
  H  H19  1  0.64404000  0.50861000  0.85822000  1.0
  H  H20  1  0.35597000  0.49139000  0.14178000  1.0
  H  H21  1  0.50407000  0.32310000  0.89013000  1.0
  H  H22  1  0.49593000  0.67690000  0.10987000  1.0
  H  H23  1  0.63847000  0.10453000  0.90825000  1.0
  H  H24  1  0.36154000  0.89547000  0.09175000  1.0
  H  H25  1  0.98003000  0.52057000  0.80893000  1.0
  H  H26  1  0.01997000  0.47942000  0.19107000  1.0
  H  H27  1  0.18909000  0.33909000  0.86646000  1.0
  H  H28  1  0.81090000  0.66091000  0.13355000  1.0
  C  C29  1  0.76898000  0.20282000  0.20214000  1.0
  C  C30  1  0.23102000  0.79717000  0.79786000  1.0
  C  C31  1  0.01256000  0.20849000  0.30519000  1.0
  C  C32  1  0.98745000  0.79152000  0.69481000  1.0
  C  C33  1  0.92615000  0.29477000  0.39230000  1.0
  C  C34  1  0.07384000  0.70523000  0.60770000  1.0
  C  C35  1  0.63657000  0.36764000  0.37629000  1.0
  C  C36  1  0.36342000  0.63236000  0.62371000  1.0
  C  C37  1  0.54112000  0.29185000  0.47271000  1.0
  C  C38  1  0.45887000  0.70815000  0.52729000  1.0
  C  C39  1  0.39063000  0.14166000  0.43340000  1.0
  C  C40  1  0.60936000  0.85833000  0.56660000  1.0
  C  C41  1  0.30230000  0.07116000  0.52227000  1.0
  C  C42  1  0.69770000  0.92884000  0.47773000  1.0
  C  C43  1  0.36768000  0.14635000  0.65082000  1.0
  C  C44  1  0.63232000  0.85366000  0.34918000  1.0
  C  C45  1  0.52151000  0.29343000  0.69117000  1.0
  C  C46  1  0.47850000  0.70657000  0.30882000  1.0
  C  C47  1  0.60464000  0.36680000  0.60146000  1.0
  C  C48  1  0.39536000  0.63320000  0.39853000  1.0
  C  C49  1  0.60249000  0.36993000  0.82842000  1.0
  C  C50  1  0.39752000  0.63007000  0.17158000  1.0
  C  C51  1  0.76164000  0.19016000  0.88821000  1.0
  C  C52  1  0.23837000  0.80984000  0.11179000  1.0
  C  C53  1  0.94193000  0.40547000  0.83469000  1.0
  C  C54  1  0.05807000  0.59452000  0.16530000  1.0
  C  C55  1  0.04300000  0.31478000  0.86379000  1.0
  C  C56  1  0.95701000  0.68522000  0.13621000  1.0
  N  N57  1  0.91360000  0.15213000  0.18744000  1.0
  N  N58  1  0.08640000  0.84787000  0.81256000  1.0
  N  N59  1  0.77259000  0.29094000  0.32519000  1.0
  N  N60  1  0.22741000  0.70906000  0.67481000  1.0
  N  N61  1  0.76393000  0.32512000  0.85143000  1.0
  N  N62  1  0.23607000  0.67488000  0.14857000  1.0
  N  N63  1  0.92898000  0.18062000  0.89693000  1.0
  N  N64  1  0.07102000  0.81938000  0.10307000  1.0
  Cl  Cl65  1  0.64760000  0.80481000  0.93514000  1.0
  Cl  Cl66  1  0.35239000  0.19519000  0.06486000  1.0
