# generated using pymatgen
data_NdH15C12S2O15
_symmetry_space_group_name_H-M   'P 1'
_cell_length_a   6.97278000
_cell_length_b   10.82080000
_cell_length_c   12.23970000
_cell_angle_alpha   83.97480000
_cell_angle_beta   77.11200000
_cell_angle_gamma   89.40780000
_symmetry_Int_Tables_number   1
_chemical_formula_structural   NdH15C12S2O15
_chemical_formula_sum   'Nd2 H30 C24 S4 O30'
_cell_volume   895.17897982
_cell_formula_units_Z   2
loop_
 _symmetry_equiv_pos_site_id
 _symmetry_equiv_pos_as_xyz
  1  'x, y, z'
loop_
 _atom_site_type_symbol
 _atom_site_label
 _atom_site_symmetry_multiplicity
 _atom_site_fract_x
 _atom_site_fract_y
 _atom_site_fract_z
 _atom_site_occupancy
  Nd  Nd0  1  0.21103000  0.59797000  0.21343000  1.0
  Nd  Nd1  1  0.78897000  0.40203000  0.78657000  1.0
  H  H2  1  0.96436000  0.22228000  0.26611000  1.0
  H  H3  1  0.03564000  0.77771000  0.73389000  1.0
  H  H4  1  0.77580000  0.58659000  0.16570000  1.0
  H  H5  1  0.22420000  0.41341000  0.83431000  1.0
  H  H6  1  0.86573000  0.44896000  0.16901000  1.0
  H  H7  1  0.13427000  0.55105000  0.83099000  1.0
  H  H8  1  0.35405000  0.35369000  0.09596000  1.0
  H  H9  1  0.64595000  0.64631000  0.90404000  1.0
  H  H10  1  0.26136000  0.43994000  0.01082000  1.0
  H  H11  1  0.73864000  0.56006000  0.98918000  1.0
  H  H12  1  0.86794000  0.44327000  0.39319000  1.0
  H  H13  1  0.13206000  0.55673000  0.60681000  1.0
  H  H14  1  0.06602000  0.43772000  0.43575000  1.0
  H  H15  1  0.93398000  0.56229000  0.56425000  1.0
  H  H16  1  0.43454000  0.35133000  0.24527000  1.0
  H  H17  1  0.56547000  0.64867000  0.75473000  1.0
  H  H18  1  0.48911000  0.42220000  0.33932000  1.0
  H  H19  1  0.51090000  0.57780000  0.66068000  1.0
  H  H20  1  0.83738000  0.72871000  0.32859000  1.0
  H  H21  1  0.16262000  0.27129000  0.67141000  1.0
  H  H22  1  0.97706000  0.84552000  0.27231000  1.0
  H  H23  1  0.02294000  0.15448000  0.72769000  1.0
  H  H24  1  0.09704000  0.25179000  0.98464000  1.0
  H  H25  1  0.90296000  0.74821000  0.01536000  1.0
  H  H26  1  0.50426000  0.97791000  0.84832000  1.0
  H  H27  1  0.49574000  0.02209000  0.15169000  1.0
  H  H28  1  0.31587000  0.21195000  0.42228000  1.0
  H  H29  1  0.68412000  0.78805000  0.57772000  1.0
  H  H30  1  0.17267000  0.84097000  0.37077000  1.0
  H  H31  1  0.82733000  0.15903000  0.62923000  1.0
  C  C32  1  0.12785000  0.15552000  0.97012000  1.0
  C  C33  1  0.87214000  0.84448000  0.02987000  1.0
  C  C34  1  0.31241000  0.12507000  0.91173000  1.0
  C  C35  1  0.68758000  0.87493000  0.08827000  1.0
  C  C36  1  0.35719000  0.00037000  0.89284000  1.0
  C  C37  1  0.64280000  0.99963000  0.10716000  1.0
  C  C38  1  0.21521000  0.90916000  0.93072000  1.0
  C  C39  1  0.78479000  0.09084000  0.06928000  1.0
  C  C40  1  0.02109000  0.93641000  0.98988000  1.0
  C  C41  1  0.97890000  0.06359000  0.01011000  1.0
  C  C42  1  0.46843000  0.22197000  0.86714000  1.0
  C  C43  1  0.53157000  0.77803000  0.13286000  1.0
  C  C44  1  0.33964000  0.11249000  0.43416000  1.0
  C  C45  1  0.66036000  0.88750000  0.56584000  1.0
  C  C46  1  0.22902000  0.03232000  0.39113000  1.0
  C  C47  1  0.77098000  0.96768000  0.60886000  1.0
  C  C48  1  0.25940000  0.90303000  0.40517000  1.0
  C  C49  1  0.74060000  0.09697000  0.59483000  1.0
  C  C50  1  0.40099000  0.85517000  0.45896000  1.0
  C  C51  1  0.59901000  0.14483000  0.54104000  1.0
  C  C52  1  0.51711000  0.93389000  0.50659000  1.0
  C  C53  1  0.48289000  0.06611000  0.49341000  1.0
  C  C54  1  0.07963000  0.07644000  0.32617000  1.0
  C  C55  1  0.92035000  0.92354000  0.67383000  1.0
  S  S56  1  0.28225000  0.75476000  0.90318000  1.0
  S  S57  1  0.71775000  0.24525000  0.09682000  1.0
  S  S58  1  0.43284000  0.69043000  0.46314000  1.0
  S  S59  1  0.56716000  0.30957000  0.53686000  1.0
  O  O60  1  0.64316000  0.18774000  0.82967000  1.0
  O  O61  1  0.35684000  0.81226000  0.17034000  1.0
  O  O62  1  0.42665000  0.33845000  0.86744000  1.0
  O  O63  1  0.57335000  0.66155000  0.13256000  1.0
  O  O64  1  0.23091000  0.67418000  0.00995000  1.0
  O  O65  1  0.76909000  0.32582000  0.99005000  1.0
  O  O66  1  0.16960000  0.71678000  0.82324000  1.0
  O  O67  1  0.83041000  0.28322000  0.17676000  1.0
  O  O68  1  0.49608000  0.75978000  0.85462000  1.0
  O  O69  1  0.50392000  0.24022000  0.14538000  1.0
  O  O70  1  0.06089000  0.19938000  0.31463000  1.0
  O  O71  1  0.93911000  0.80062000  0.68537000  1.0
  O  O72  1  0.98217000  0.00560000  0.28597000  1.0
  O  O73  1  0.01783000  0.99441000  0.71404000  1.0
  O  O74  1  0.31759000  0.64897000  0.38674000  1.0
  O  O75  1  0.68242000  0.35103000  0.61326000  1.0
  O  O76  1  0.35036000  0.63823000  0.58078000  1.0
  O  O77  1  0.64964000  0.36177000  0.41922000  1.0
  O  O78  1  0.64386000  0.66808000  0.42920000  1.0
  O  O79  1  0.35615000  0.33192000  0.57080000  1.0
  O  O80  1  0.89730000  0.53803000  0.16651000  1.0
  O  O81  1  0.10270000  0.46197000  0.83349000  1.0
  O  O82  1  0.26661000  0.42541000  0.09001000  1.0
  O  O83  1  0.73339000  0.57459000  0.91000000  1.0
  O  O84  1  0.99863000  0.48407000  0.38311000  1.0
  O  O85  1  0.00137000  0.51593000  0.61688000  1.0
  O  O86  1  0.40310000  0.42631000  0.28473000  1.0
  O  O87  1  0.59691000  0.57369000  0.71527000  1.0
  O  O88  1  0.96168000  0.75426000  0.27396000  1.0
  O  O89  1  0.03832000  0.24573000  0.72604000  1.0
