# generated using pymatgen
data_GdCuH10C16N5O9
_symmetry_space_group_name_H-M   'P 1'
_cell_length_a   10.59990000
_cell_length_b   10.75010000
_cell_length_c   11.47360000
_cell_angle_alpha   81.06230000
_cell_angle_beta   73.87610000
_cell_angle_gamma   60.79260000
_symmetry_Int_Tables_number   1
_chemical_formula_structural   GdCuH10C16N5O9
_chemical_formula_sum   'Gd2 Cu2 H20 C32 N10 O18'
_cell_volume   1095.99281971
_cell_formula_units_Z   2
loop_
 _symmetry_equiv_pos_site_id
 _symmetry_equiv_pos_as_xyz
  1  'x, y, z'
loop_
 _atom_site_type_symbol
 _atom_site_label
 _atom_site_symmetry_multiplicity
 _atom_site_fract_x
 _atom_site_fract_y
 _atom_site_fract_z
 _atom_site_occupancy
  Gd  Gd0  1  0.99343000  0.55886000  0.17622000  1.0
  Gd  Gd1  1  0.00657000  0.44114000  0.82378000  1.0
  Cu  Cu2  1  0.00000000  0.00000000  0.00000000  1.0
  Cu  Cu3  1  0.00000000  0.00000000  0.50000000  1.0
  H  H4  1  0.25116000  0.04309000  0.52399000  1.0
  H  H5  1  0.74883000  0.95691000  0.47601000  1.0
  H  H6  1  0.52876000  0.93865000  0.43032000  1.0
  H  H7  1  0.47124000  0.06135000  0.56968000  1.0
  H  H8  1  0.49018000  0.66286000  0.22613000  1.0
  H  H9  1  0.50983000  0.33713000  0.77387000  1.0
  H  H10  1  0.21527000  0.77413000  0.32678000  1.0
  H  H11  1  0.78473000  0.22586000  0.67323000  1.0
  H  H12  1  0.74433000  0.97490000  0.17403000  1.0
  H  H13  1  0.25567000  0.02510000  0.82597000  1.0
  H  H14  1  0.46383000  0.12513000  0.22848000  1.0
  H  H15  1  0.53616000  0.87488000  0.77152000  1.0
  H  H16  1  0.51032000  0.41674000  0.93914000  1.0
  H  H17  1  0.48968000  0.58326000  0.06086000  1.0
  H  H18  1  0.78749000  0.25546000  0.89313000  1.0
  H  H19  1  0.21251000  0.74455000  0.10687000  1.0
  H  H20  1  0.15973000  0.50373000  0.34958000  1.0
  H  H21  1  0.84027000  0.49627000  0.65042000  1.0
  H  H22  1  0.05152000  0.65773000  0.40156000  1.0
  H  H23  1  0.94848000  0.34227000  0.59844000  1.0
  C  C24  1  0.97331000  0.19421000  0.29048000  1.0
  C  C25  1  0.02669000  0.80579000  0.70952000  1.0
  C  C26  1  0.98642000  0.18642000  0.16655000  1.0
  C  C27  1  0.01358000  0.81358000  0.83345000  1.0
  C  C28  1  0.96042000  0.29788000  0.37263000  1.0
  C  C29  1  0.03958000  0.70212000  0.62737000  1.0
  C  C30  1  0.00548000  0.27160000  0.05579000  1.0
  C  C31  1  0.99452000  0.72840000  0.94421000  1.0
  C  C32  1  0.30893000  0.95828000  0.45799000  1.0
  C  C33  1  0.69107000  0.04171000  0.54200000  1.0
  C  C34  1  0.46074000  0.90149000  0.40620000  1.0
  C  C35  1  0.53926000  0.09851000  0.59380000  1.0
  C  C36  1  0.52736000  0.79485000  0.32075000  1.0
  C  C37  1  0.47264000  0.20514000  0.67925000  1.0
  C  C38  1  0.43932000  0.74668000  0.29177000  1.0
  C  C39  1  0.56068000  0.25332000  0.70823000  1.0
  C  C40  1  0.28865000  0.80756000  0.34708000  1.0
  C  C41  1  0.71135000  0.19243000  0.65292000  1.0
  C  C42  1  0.69029000  0.73082000  0.26003000  1.0
  C  C43  1  0.30971000  0.26918000  0.73997000  1.0
  C  C44  1  0.68711000  0.07281000  0.12386000  1.0
  C  C45  1  0.31289000  0.92719000  0.87614000  1.0
  C  C46  1  0.53346000  0.15583000  0.15380000  1.0
  C  C47  1  0.46654000  0.84418000  0.84620000  1.0
  C  C48  1  0.46801000  0.28200000  0.08731000  1.0
  C  C49  1  0.53199000  0.71801000  0.91269000  1.0
  C  C50  1  0.55912000  0.31864000  0.99139000  1.0
  C  C51  1  0.44088000  0.68137000  0.00860000  1.0
  C  C52  1  0.71177000  0.23001000  0.96569000  1.0
  C  C53  1  0.28823000  0.77000000  0.03431000  1.0
  C  C54  1  0.30330000  0.37861000  0.12117000  1.0
  C  C55  1  0.69670000  0.62139000  0.87883000  1.0
  N  N56  1  0.96910000  0.07297000  0.34110000  1.0
  N  N57  1  0.03090000  0.92703000  0.65889000  1.0
  N  N58  1  0.97710000  0.99359000  0.25866000  1.0
  N  N59  1  0.02290000  0.00641000  0.74134000  1.0
  N  N60  1  0.98785000  0.06208000  0.15348000  1.0
  N  N61  1  0.01215000  0.93792000  0.84652000  1.0
  N  N62  1  0.22516000  0.91188000  0.42791000  1.0
  N  N63  1  0.77483000  0.08812000  0.57209000  1.0
  N  N64  1  0.77368000  0.11045000  0.03157000  1.0
  N  N65  1  0.22632000  0.88955000  0.96843000  1.0
  O  O66  1  0.22406000  0.34198000  0.21037000  1.0
  O  O67  1  0.77594000  0.65803000  0.78963000  1.0
  O  O68  1  0.24789000  0.49556000  0.06195000  1.0
  O  O69  1  0.75211000  0.50445000  0.93805000  1.0
  O  O70  1  0.73733000  0.65006000  0.17072000  1.0
  O  O71  1  0.26267000  0.34994000  0.82928000  1.0
  O  O72  1  0.77613000  0.75643000  0.30003000  1.0
  O  O73  1  0.22387000  0.24357000  0.69997000  1.0
  O  O74  1  0.92415000  0.42559000  0.33523000  1.0
  O  O75  1  0.07586000  0.57441000  0.66477000  1.0
  O  O76  1  0.98209000  0.24847000  0.47734000  1.0
  O  O77  1  0.01791000  0.75153000  0.52266000  1.0
  O  O78  1  0.01277000  0.38505000  0.06040000  1.0
  O  O79  1  0.98723000  0.61495000  0.93961000  1.0
  O  O80  1  0.01599000  0.22750000  0.95450000  1.0
  O  O81  1  0.98401000  0.77250000  0.04551000  1.0
  O  O82  1  0.09503000  0.60074000  0.32556000  1.0
  O  O83  1  0.90497000  0.39926000  0.67444000  1.0
