# generated using pymatgen
data_H11PbC13N7O
_symmetry_space_group_name_H-M   'P 1'
_cell_length_a   7.35493000
_cell_length_b   9.71143000
_cell_length_c   10.31620000
_cell_angle_alpha   88.52550000
_cell_angle_beta   78.35020000
_cell_angle_gamma   73.90760000
_symmetry_Int_Tables_number   1
_chemical_formula_structural   H11PbC13N7O
_chemical_formula_sum   'H22 Pb2 C26 N14 O2'
_cell_volume   693.03866214
_cell_formula_units_Z   2
loop_
 _symmetry_equiv_pos_site_id
 _symmetry_equiv_pos_as_xyz
  1  'x, y, z'
loop_
 _atom_site_type_symbol
 _atom_site_label
 _atom_site_symmetry_multiplicity
 _atom_site_fract_x
 _atom_site_fract_y
 _atom_site_fract_z
 _atom_site_occupancy
  H  H0  1  0.63438000  0.94037000  0.44898000  1.0
  H  H1  1  0.36561000  0.05961000  0.55099000  1.0
  H  H2  1  0.81782000  0.05419000  0.04766000  1.0
  H  H3  1  0.18226000  0.94583000  0.95233000  1.0
  H  H4  1  0.00621000  0.79491000  0.99932000  1.0
  H  H5  1  0.99385000  0.20510000  0.00065000  1.0
  H  H6  1  0.99648000  0.62213000  0.18379000  1.0
  H  H7  1  0.00352000  0.37786000  0.81616000  1.0
  H  H8  1  0.69354000  0.41008000  0.99818000  1.0
  H  H9  1  0.30642000  0.58992000  0.00182000  1.0
  H  H10  1  0.85738000  0.43837000  0.08937000  1.0
  H  H11  1  0.14260000  0.56165000  0.91061000  1.0
  H  H12  1  0.72163000  0.58593000  0.01054000  1.0
  H  H13  1  0.27831000  0.41409000  0.98945000  1.0
  H  H14  1  0.10506000  0.79609000  0.49617000  1.0
  H  H15  1  0.89488000  0.20387000  0.50383000  1.0
  H  H16  1  0.10465000  0.02466000  0.37333000  1.0
  H  H17  1  0.89524000  0.97531000  0.62667000  1.0
  H  H18  1  0.32919000  0.00914000  0.15472000  1.0
  H  H19  1  0.67075000  0.99086000  0.84531000  1.0
  H  H20  1  0.54518000  0.77055000  0.06494000  1.0
  H  H21  1  0.45481000  0.22946000  0.93508000  1.0
  Pb  Pb22  1  0.30191000  0.42219000  0.49046000  1.0
  Pb  Pb23  1  0.69825000  0.57783000  0.50954000  1.0
  C  C24  1  0.71639000  0.91284000  0.34839000  1.0
  C  C25  1  0.28362000  0.08714000  0.65158000  1.0
  C  C26  1  0.71553000  0.01823000  0.25291000  1.0
  C  C27  1  0.28450000  0.98176000  0.74707000  1.0
  C  C28  1  0.82050000  0.97546000  0.12477000  1.0
  C  C29  1  0.17955000  0.02454000  0.87521000  1.0
  C  C30  1  0.92424000  0.83207000  0.09831000  1.0
  C  C31  1  0.07579000  0.16793000  0.90166000  1.0
  C  C32  1  0.91723000  0.73534000  0.20029000  1.0
  C  C33  1  0.08277000  0.26464000  0.79967000  1.0
  C  C34  1  0.59970000  0.16808000  0.29225000  1.0
  C  C35  1  0.40036000  0.83192000  0.70774000  1.0
  C  C36  1  0.56287000  0.51198000  0.18780000  1.0
  C  C37  1  0.43712000  0.48803000  0.81220000  1.0
  C  C38  1  0.71567000  0.48830000  0.06418000  1.0
  C  C39  1  0.28430000  0.51171000  0.93581000  1.0
  C  C40  1  0.43950000  0.65622000  0.23469000  1.0
  C  C41  1  0.56049000  0.34378000  0.76533000  1.0
  C  C42  1  0.20174000  0.79604000  0.40063000  1.0
  C  C43  1  0.79820000  0.20394000  0.59938000  1.0
  C  C44  1  0.20111000  0.92202000  0.33243000  1.0
  C  C45  1  0.79882000  0.07796000  0.66758000  1.0
  C  C46  1  0.32620000  0.91230000  0.20995000  1.0
  C  C47  1  0.67375000  0.08770000  0.79006000  1.0
  C  C48  1  0.44641000  0.77876000  0.16023000  1.0
  C  C49  1  0.55357000  0.22124000  0.83979000  1.0
  N  N50  1  0.81366000  0.77441000  0.32327000  1.0
  N  N51  1  0.18633000  0.22558000  0.67668000  1.0
  N  N52  1  0.64593000  0.27095000  0.21401000  1.0
  N  N53  1  0.35408000  0.72904000  0.78597000  1.0
  N  N54  1  0.53317000  0.40360000  0.25923000  1.0
  N  N55  1  0.46685000  0.59639000  0.74077000  1.0
  N  N56  1  0.31646000  0.66747000  0.35401000  1.0
  N  N57  1  0.68352000  0.33251000  0.64600000  1.0
  N  N58  1  0.06326000  0.40104000  0.37320000  1.0
  N  N59  1  0.93682000  0.59900000  0.62687000  1.0
  N  N60  1  0.12245000  0.33235000  0.26971000  1.0
  N  N61  1  0.87755000  0.66769000  0.73036000  1.0
  N  N62  1  0.17580000  0.26670000  0.16955000  1.0
  N  N63  1  0.82411000  0.73334000  0.83052000  1.0
  O  O64  1  0.46841000  0.18548000  0.39810000  1.0
  O  O65  1  0.53171000  0.81452000  0.60193000  1.0
