# generated using pymatgen
data_DyH21(C9O2)3
_symmetry_space_group_name_H-M   'P 1'
_cell_length_a   7.89309000
_cell_length_b   11.28980000
_cell_length_c   12.98000000
_cell_angle_alpha   93.65400000
_cell_angle_beta   90.00000000
_cell_angle_gamma   90.00000000
_symmetry_Int_Tables_number   1
_chemical_formula_structural   DyH21(C9O2)3
_chemical_formula_sum   'Dy2 H42 C54 O12'
_cell_volume   1154.31469020
_cell_formula_units_Z   2
loop_
 _symmetry_equiv_pos_site_id
 _symmetry_equiv_pos_as_xyz
  1  'x, y, z'
loop_
 _atom_site_type_symbol
 _atom_site_label
 _atom_site_symmetry_multiplicity
 _atom_site_fract_x
 _atom_site_fract_y
 _atom_site_fract_z
 _atom_site_occupancy
  Dy  Dy0  1  0.49526000  0.54175000  0.47342000  1.0
  Dy  Dy1  1  0.99526000  0.45825000  0.52658000  1.0
  H  H2  1  0.32202000  0.12101000  0.60681000  1.0
  H  H3  1  0.82202000  0.87900000  0.39319000  1.0
  H  H4  1  0.65701000  0.26159000  0.60245000  1.0
  H  H5  1  0.15701000  0.73841000  0.39755000  1.0
  H  H6  1  0.45588000  0.95339000  0.59754000  1.0
  H  H7  1  0.95588000  0.04661000  0.40246000  1.0
  H  H8  1  0.61779000  0.77339000  0.63010000  1.0
  H  H9  1  0.11779000  0.22661000  0.36990000  1.0
  H  H10  1  0.92539000  0.78533000  0.66894000  1.0
  H  H11  1  0.42539000  0.21468000  0.33106000  1.0
  H  H12  1  0.07384000  0.98073000  0.67135000  1.0
  H  H13  1  0.57384000  0.01928000  0.32865000  1.0
  H  H14  1  0.91122000  0.16342000  0.63731000  1.0
  H  H15  1  0.41122000  0.83658000  0.36268000  1.0
  H  H16  1  0.85581000  0.18351000  0.26109000  1.0
  H  H17  1  0.35581000  0.81649000  0.73891000  1.0
  H  H18  1  0.56033000  0.33133000  0.18187000  1.0
  H  H19  1  0.06032000  0.66867000  0.81813000  1.0
  H  H20  1  0.80511000  0.04184000  0.13963000  1.0
  H  H21  1  0.30511000  0.95816000  0.86037000  1.0
  H  H22  1  0.81658000  0.92543000  0.97261000  1.0
  H  H23  1  0.31658000  0.07457000  0.02739000  1.0
  H  H24  1  0.67849000  0.00087000  0.81734000  1.0
  H  H25  1  0.17848000  0.99913000  0.18266000  1.0
  H  H26  1  0.52561000  0.19485000  0.83080000  1.0
  H  H27  1  0.02560000  0.80515000  0.16920000  1.0
  H  H28  1  0.51261000  0.31200000  0.99899000  1.0
  H  H29  1  0.01260000  0.68800000  0.00101000  1.0
  H  H30  1  0.08670000  0.37628000  0.24012000  1.0
  H  H31  1  0.58670000  0.62372000  0.75988000  1.0
  H  H32  1  0.32044000  0.55017000  0.13337000  1.0
  H  H33  1  0.82044000  0.44982000  0.86663000  1.0
  H  H34  1  0.05141000  0.26861000  0.09610000  1.0
  H  H35  1  0.55142000  0.73139000  0.90389000  1.0
  H  H36  1  0.99019000  0.17135000  0.92458000  1.0
  H  H37  1  0.49019000  0.82865000  0.07542000  1.0
  H  H38  1  0.09315000  0.26135000  0.76515000  1.0
  H  H39  1  0.59315000  0.73864000  0.23485000  1.0
  H  H40  1  0.25907000  0.44818000  0.77902000  1.0
  H  H41  1  0.75907000  0.55182000  0.22099000  1.0
  H  H42  1  0.32021000  0.54720000  0.95208000  1.0
  H  H43  1  0.82021000  0.45280000  0.04792000  1.0
  C  C44  1  0.33120000  0.31105000  0.58926000  1.0
  C  C45  1  0.83120000  0.68895000  0.41073000  1.0
  C  C46  1  0.40977000  0.19510000  0.60245000  1.0
  C  C47  1  0.90977000  0.80491000  0.39755000  1.0
  C  C48  1  0.57964000  0.18182000  0.60642000  1.0
  C  C49  1  0.07964000  0.81819000  0.39357000  1.0
  C  C50  1  0.67137000  0.07207000  0.61859000  1.0
  C  C51  1  0.17137000  0.92792000  0.38141000  1.0
  C  C52  1  0.59049000  0.96057000  0.61578000  1.0
  C  C53  1  0.09050000  0.03943000  0.38422000  1.0
  C  C54  1  0.68172000  0.85890000  0.63420000  1.0
  C  C55  1  0.18173000  0.14111000  0.36580000  1.0
  C  C56  1  0.85542000  0.86588000  0.65519000  1.0
  C  C57  1  0.35542000  0.13413000  0.34481000  1.0
  C  C58  1  0.93811000  0.97533000  0.65592000  1.0
  C  C59  1  0.43811000  0.02467000  0.34408000  1.0
  C  C60  1  0.84731000  0.07767000  0.63714000  1.0
  C  C61  1  0.34731000  0.92232000  0.36286000  1.0
  C  C62  1  0.73809000  0.32807000  0.35467000  1.0
  C  C63  1  0.23809000  0.67193000  0.64533000  1.0
  C  C64  1  0.75429000  0.24902000  0.26064000  1.0
  C  C65  1  0.25429000  0.75098000  0.73936000  1.0
  C  C66  1  0.65378000  0.25958000  0.17736000  1.0
  C  C67  1  0.15378000  0.74042000  0.82263000  1.0
  C  C68  1  0.66024000  0.18666000  0.08093000  1.0
  C  C69  1  0.16024000  0.81334000  0.91907000  1.0
  C  C70  1  0.74490000  0.07649000  0.07213000  1.0
  C  C71  1  0.24490000  0.92351000  0.92787000  1.0
  C  C72  1  0.75066000  0.01040000  0.97807000  1.0
  C  C73  1  0.25066000  0.98960000  0.02193000  1.0
  C  C74  1  0.67231000  0.05275000  0.89093000  1.0
  C  C75  1  0.17231000  0.94725000  0.10907000  1.0
  C  C76  1  0.58682000  0.16140000  0.89846000  1.0
  C  C77  1  0.08682000  0.83860000  0.10155000  1.0
  C  C78  1  0.57976000  0.22735000  0.99286000  1.0
  C  C79  1  0.07975000  0.77265000  0.00714000  1.0
  C  C80  1  0.25096000  0.50467000  0.32284000  1.0
  C  C81  1  0.75096000  0.49533000  0.67716000  1.0
  C  C82  1  0.17676000  0.44764000  0.22935000  1.0
  C  C83  1  0.67676000  0.55235000  0.77066000  1.0
  C  C84  1  0.23101000  0.47620000  0.13520000  1.0
  C  C85  1  0.73101000  0.52379000  0.86480000  1.0
  C  C86  1  0.18813000  0.41644000  0.03618000  1.0
  C  C87  1  0.68813000  0.58355000  0.96382000  1.0
  C  C88  1  0.09553000  0.30939000  0.02702000  1.0
  C  C89  1  0.59554000  0.69061000  0.97298000  1.0
  C  C90  1  0.06191000  0.25400000  0.93039000  1.0
  C  C91  1  0.56191000  0.74600000  0.06960000  1.0
  C  C92  1  0.12079000  0.30366000  0.84099000  1.0
  C  C93  1  0.62079000  0.69633000  0.15901000  1.0
  C  C94  1  0.21369000  0.40928000  0.84864000  1.0
  C  C95  1  0.71369000  0.59071000  0.15136000  1.0
  C  C96  1  0.24717000  0.46500000  0.94537000  1.0
  C  C97  1  0.74717000  0.53499000  0.05463000  1.0
  O  O98  1  0.42528000  0.40288000  0.58304000  1.0
  O  O99  1  0.92528000  0.59712000  0.41697000  1.0
  O  O100  1  0.16929000  0.31549000  0.58504000  1.0
  O  O101  1  0.66929000  0.68452000  0.41496000  1.0
  O  O102  1  0.61090000  0.39743000  0.36551000  1.0
  O  O103  1  0.11090000  0.60258000  0.63448000  1.0
  O  O104  1  0.85604000  0.32380000  0.42245000  1.0
  O  O105  1  0.35604000  0.67620000  0.57755000  1.0
  O  O106  1  0.22277000  0.45822000  0.41123000  1.0
  O  O107  1  0.72277000  0.54178000  0.58877000  1.0
  O  O108  1  0.35404000  0.59100000  0.32112000  1.0
  O  O109  1  0.85404000  0.40899000  0.67888000  1.0
