# generated using pymatgen
data_UH13C6SNO11
_symmetry_space_group_name_H-M   'P 1'
_cell_length_a   8.16597000
_cell_length_b   12.21540000
_cell_length_c   14.41870000
_cell_angle_alpha   89.99910000
_cell_angle_beta   101.49100000
_cell_angle_gamma   89.99960000
_symmetry_Int_Tables_number   1
_chemical_formula_structural   UH13C6SNO11
_chemical_formula_sum   'U4 H52 C24 S4 N4 O44'
_cell_volume   1409.44508341
_cell_formula_units_Z   4
loop_
 _symmetry_equiv_pos_site_id
 _symmetry_equiv_pos_as_xyz
  1  'x, y, z'
loop_
 _atom_site_type_symbol
 _atom_site_label
 _atom_site_symmetry_multiplicity
 _atom_site_fract_x
 _atom_site_fract_y
 _atom_site_fract_z
 _atom_site_occupancy
  U  U0  1  0.24371000  0.35779000  0.63764000  1.0
  U  U1  1  0.25628000  0.85779000  0.86236000  1.0
  U  U2  1  0.75629000  0.64222000  0.36236000  1.0
  U  U3  1  0.74371000  0.14221000  0.13764000  1.0
  H  H4  1  0.97757000  0.38967000  0.45949000  1.0
  H  H5  1  0.52244000  0.88967000  0.04051000  1.0
  H  H6  1  0.02243000  0.61033000  0.54051000  1.0
  H  H7  1  0.47756000  0.11033000  0.95949000  1.0
  H  H8  1  0.86637000  0.37388000  0.54188000  1.0
  H  H9  1  0.63364000  0.87387000  0.95812000  1.0
  H  H10  1  0.13363000  0.62613000  0.45812000  1.0
  H  H11  1  0.36636000  0.12612000  0.04188000  1.0
  H  H12  1  0.50605000  0.36852000  0.83472000  1.0
  H  H13  1  0.99395000  0.86853000  0.66528000  1.0
  H  H14  1  0.49395000  0.63148000  0.16527000  1.0
  H  H15  1  0.00605000  0.13148000  0.33472000  1.0
  H  H16  1  0.33092000  0.41008000  0.85487000  1.0
  H  H17  1  0.16907000  0.91009000  0.64513000  1.0
  H  H18  1  0.66908000  0.58992000  0.14512000  1.0
  H  H19  1  0.83093000  0.08991000  0.35488000  1.0
  H  H20  1  0.16481000  0.29857000  0.27719000  1.0
  H  H21  1  0.33520000  0.79856000  0.22282000  1.0
  H  H22  1  0.83520000  0.70143000  0.72282000  1.0
  H  H23  1  0.66480000  0.20144000  0.77718000  1.0
  H  H24  1  0.03419000  0.42095000  0.14288000  1.0
  H  H25  1  0.46580000  0.92094000  0.35712000  1.0
  H  H26  1  0.96581000  0.57905000  0.85712000  1.0
  H  H27  1  0.53419000  0.07906000  0.64288000  1.0
  H  H28  1  0.19116000  0.51566000  0.19474000  1.0
  H  H29  1  0.30884000  0.01565000  0.30525000  1.0
  H  H30  1  0.80884000  0.48434000  0.80526000  1.0
  H  H31  1  0.69116000  0.98435000  0.69475000  1.0
  H  H32  1  0.34127000  0.44474000  0.36229000  1.0
  H  H33  1  0.15873000  0.94474000  0.13770000  1.0
  H  H34  1  0.65873000  0.55526000  0.63771000  1.0
  H  H35  1  0.84128000  0.05526000  0.86229000  1.0
  H  H36  1  0.46636000  0.43205000  0.27474000  1.0
  H  H37  1  0.03363000  0.93205000  0.22526000  1.0
  H  H38  1  0.53364000  0.56795000  0.72526000  1.0
  H  H39  1  0.96637000  0.06796000  0.77474000  1.0
  H  H40  1  0.58214000  0.32870000  0.41987000  1.0
  H  H41  1  0.91787000  0.82870000  0.08013000  1.0
  H  H42  1  0.41786000  0.67130000  0.58013000  1.0
  H  H43  1  0.08213000  0.17130000  0.91987000  1.0
  H  H44  1  0.53257000  0.23615000  0.32248000  1.0
  H  H45  1  0.96744000  0.73615000  0.17752000  1.0
  H  H46  1  0.46744000  0.76385000  0.67752000  1.0
  H  H47  1  0.03257000  0.26385000  0.82249000  1.0
  H  H48  1  0.40514000  0.25427000  0.18553000  1.0
  H  H49  1  0.09485000  0.75427000  0.31447000  1.0
  H  H50  1  0.59486000  0.74572000  0.81448000  1.0
  H  H51  1  0.90514000  0.24573000  0.68553000  1.0
  H  H52  1  0.28076000  0.34268000  0.10279000  1.0
  H  H53  1  0.21922000  0.84268000  0.39721000  1.0
  H  H54  1  0.71924000  0.65731000  0.89721000  1.0
  H  H55  1  0.78077000  0.15732000  0.60279000  1.0
  C  C56  1  0.11800000  0.44466000  0.20932000  1.0
  C  C57  1  0.38200000  0.94465000  0.29068000  1.0
  C  C58  1  0.88200000  0.55534000  0.79068000  1.0
  C  C59  1  0.61800000  0.05535000  0.70932000  1.0
  C  C60  1  0.01595000  0.46987000  0.28438000  1.0
  C  C61  1  0.48405000  0.96986000  0.21562000  1.0
  C  C62  1  0.98405000  0.53013000  0.71562000  1.0
  C  C63  1  0.51595000  0.03014000  0.78438000  1.0
  C  C64  1  0.38418000  0.38781000  0.31342000  1.0
  C  C65  1  0.11581000  0.88781000  0.18658000  1.0
  C  C66  1  0.61582000  0.61219000  0.68658000  1.0
  C  C67  1  0.88419000  0.11219000  0.81342000  1.0
  C  C68  1  0.47982000  0.29342000  0.36741000  1.0
  C  C69  1  0.02019000  0.79342000  0.13259000  1.0
  C  C70  1  0.52018000  0.70658000  0.63259000  1.0
  C  C71  1  0.97981000  0.20658000  0.86741000  1.0
  C  C72  1  0.15534000  0.19539000  0.13183000  1.0
  C  C73  1  0.34466000  0.69539000  0.36818000  1.0
  C  C74  1  0.84467000  0.80460000  0.86818000  1.0
  C  C75  1  0.65534000  0.30462000  0.63182000  1.0
  C  C76  1  0.27933000  0.28769000  0.16273000  1.0
  C  C77  1  0.22067000  0.78769000  0.33726000  1.0
  C  C78  1  0.72067000  0.71230000  0.83727000  1.0
  C  C79  1  0.77933000  0.21231000  0.66273000  1.0
  S  S80  1  0.36138000  0.21067000  0.43269000  1.0
  S  S81  1  0.13863000  0.71067000  0.06731000  1.0
  S  S82  1  0.63862000  0.78934000  0.56731000  1.0
  S  S83  1  0.86137000  0.28933000  0.93269000  1.0
  N  N84  1  0.23320000  0.35126000  0.24225000  1.0
  N  N85  1  0.26680000  0.85126000  0.25775000  1.0
  N  N86  1  0.76680000  0.64874000  0.75775000  1.0
  N  N87  1  0.73320000  0.14875000  0.74225000  1.0
  O  O88  1  0.93961000  0.56326000  0.27370000  1.0
  O  O89  1  0.56041000  0.06325000  0.22631000  1.0
  O  O90  1  0.06040000  0.43674000  0.72630000  1.0
  O  O91  1  0.43960000  0.93675000  0.77370000  1.0
  O  O92  1  0.47563000  0.13099000  0.48490000  1.0
  O  O93  1  0.02437000  0.63099000  0.01510000  1.0
  O  O94  1  0.52438000  0.86901000  0.51510000  1.0
  O  O95  1  0.97562000  0.36902000  0.98490000  1.0
  O  O96  1  0.18871000  0.12489000  0.07565000  1.0
  O  O97  1  0.31128000  0.62488000  0.42436000  1.0
  O  O98  1  0.81129000  0.87511000  0.92435000  1.0
  O  O99  1  0.68872000  0.37512000  0.57564000  1.0
  O  O100  1  0.29344000  0.28915000  0.49481000  1.0
  O  O101  1  0.20655000  0.78914000  0.00518000  1.0
  O  O102  1  0.70656000  0.71086000  0.50519000  1.0
  O  O103  1  0.79344000  0.21086000  0.99482000  1.0
  O  O104  1  0.01407000  0.40097000  0.34776000  1.0
  O  O105  1  0.48593000  0.90097000  0.15224000  1.0
  O  O106  1  0.98592000  0.59902000  0.65224000  1.0
  O  O107  1  0.51407000  0.09903000  0.84776000  1.0
  O  O108  1  0.98132000  0.36737000  0.52650000  1.0
  O  O109  1  0.51868000  0.86738000  0.97350000  1.0
  O  O110  1  0.01868000  0.63263000  0.47350000  1.0
  O  O111  1  0.48131000  0.13262000  0.02650000  1.0
  O  O112  1  0.39677000  0.40163000  0.80615000  1.0
  O  O113  1  0.10323000  0.90164000  0.69385000  1.0
  O  O114  1  0.60324000  0.59837000  0.19384000  1.0
  O  O115  1  0.89677000  0.09837000  0.30616000  1.0
  O  O116  1  0.18291000  0.22528000  0.67666000  1.0
  O  O117  1  0.31710000  0.72528000  0.82335000  1.0
  O  O118  1  0.81709000  0.77473000  0.32334000  1.0
  O  O119  1  0.68290000  0.27472000  0.17665000  1.0
  O  O120  1  0.30032000  0.49165000  0.60200000  1.0
  O  O121  1  0.19967000  0.99165000  0.89799000  1.0
  O  O122  1  0.69968000  0.50835000  0.39800000  1.0
  O  O123  1  0.80033000  0.00835000  0.10201000  1.0
  O  O124  1  0.02392000  0.19832000  0.16789000  1.0
  O  O125  1  0.47608000  0.69831000  0.33211000  1.0
  O  O126  1  0.97608000  0.80168000  0.83211000  1.0
  O  O127  1  0.52392000  0.30169000  0.66789000  1.0
  O  O128  1  0.22269000  0.16383000  0.36216000  1.0
  O  O129  1  0.27731000  0.66382000  0.13784000  1.0
  O  O130  1  0.77731000  0.83617000  0.63784000  1.0
  O  O131  1  0.72268000  0.33618000  0.86216000  1.0
