# generated using pymatgen
data_Fe3H24C42N6O13
_symmetry_space_group_name_H-M   'P 1'
_cell_length_a   15.24850000
_cell_length_b   16.89270000
_cell_length_c   16.89201797
_cell_angle_alpha   119.99200617
_cell_angle_beta   89.99889963
_cell_angle_gamma   89.99790000
_symmetry_Int_Tables_number   1
_chemical_formula_structural   Fe3H24C42N6O13
_chemical_formula_sum   'Fe6 H48 C84 N12 O26'
_cell_volume   3768.54179730
_cell_formula_units_Z   2
loop_
 _symmetry_equiv_pos_site_id
 _symmetry_equiv_pos_as_xyz
  1  'x, y, z'
loop_
 _atom_site_type_symbol
 _atom_site_label
 _atom_site_symmetry_multiplicity
 _atom_site_fract_x
 _atom_site_fract_y
 _atom_site_fract_z
 _atom_site_occupancy
  Fe  Fe0  1  0.75019000  0.26753000  0.53507000  1.0
  Fe  Fe1  1  0.75017000  0.46491000  0.73247000  1.0
  Fe  Fe2  1  0.74963000  0.26734000  0.73268000  1.0
  Fe  Fe3  1  0.25026000  0.73254000  0.46507000  1.0
  Fe  Fe4  1  0.25009000  0.53518000  0.26759000  1.0
  Fe  Fe5  1  0.24964000  0.73266000  0.26736000  1.0
  H  H6  1  0.55526000  0.34103000  0.40502000  1.0
  H  H7  1  0.55520000  0.59502000  0.93606000  1.0
  H  H8  1  0.55526000  0.06393000  0.65892000  1.0
  H  H9  1  0.05527000  0.65894000  0.59496000  1.0
  H  H10  1  0.05523000  0.40497000  0.06395000  1.0
  H  H11  1  0.05525000  0.93607000  0.34107000  1.0
  H  H12  1  0.44477000  0.40499000  0.34106000  1.0
  H  H13  1  0.44476000  0.93605000  0.59501000  1.0
  H  H14  1  0.44471000  0.65894000  0.06399000  1.0
  H  H15  1  0.94477000  0.59499000  0.65892000  1.0
  H  H16  1  0.94476000  0.06397000  0.40499000  1.0
  H  H17  1  0.94475000  0.34105000  0.93602000  1.0
  H  H18  1  0.44475000  0.65891000  0.59498000  1.0
  H  H19  1  0.44475000  0.40498000  0.06397000  1.0
  H  H20  1  0.44474000  0.93603000  0.34104000  1.0
  H  H21  1  0.94477000  0.34107000  0.40500000  1.0
  H  H22  1  0.94477000  0.59501000  0.93605000  1.0
  H  H23  1  0.94474000  0.06399000  0.65896000  1.0
  H  H24  1  0.55526000  0.59497000  0.65895000  1.0
  H  H25  1  0.55522000  0.06396000  0.40498000  1.0
  H  H26  1  0.55525000  0.34108000  0.93607000  1.0
  H  H27  1  0.05526000  0.40501000  0.34103000  1.0
  H  H28  1  0.05522000  0.93606000  0.59502000  1.0
  H  H29  1  0.05527000  0.65891000  0.06393000  1.0
  H  H30  1  0.75000000  0.31048000  0.37664000  1.0
  H  H31  1  0.74994000  0.62338000  0.93379000  1.0
  H  H32  1  0.75006000  0.06619000  0.68954000  1.0
  H  H33  1  0.24996000  0.68952000  0.62337000  1.0
  H  H34  1  0.24996000  0.37664000  0.06620000  1.0
  H  H35  1  0.25007000  0.93379000  0.31042000  1.0
  H  H36  1  0.25001000  0.37663000  0.31045000  1.0
  H  H37  1  0.24994000  0.93377000  0.62336000  1.0
  H  H38  1  0.25005000  0.68953000  0.06617000  1.0
  H  H39  1  0.74998000  0.62337000  0.68953000  1.0
  H  H40  1  0.74995000  0.06623000  0.37665000  1.0
  H  H41  1  0.75006000  0.31044000  0.93381000  1.0
  H  H42  1  0.74999000  0.22992000  0.20437000  1.0
  H  H43  1  0.74999000  0.79565000  0.02545000  1.0
  H  H44  1  0.75002000  0.97452000  0.77010000  1.0
  H  H45  1  0.24998000  0.77007000  0.79562000  1.0
  H  H46  1  0.25000000  0.20436000  0.97453000  1.0
  H  H47  1  0.25002000  0.02545000  0.22985000  1.0
  H  H48  1  0.24999000  0.20435000  0.22987000  1.0
  H  H49  1  0.24999000  0.02543000  0.79562000  1.0
  H  H50  1  0.25002000  0.77008000  0.97449000  1.0
  H  H51  1  0.74999000  0.79564000  0.77009000  1.0
  H  H52  1  0.74999000  0.97458000  0.20438000  1.0
  H  H53  1  0.75002000  0.22989000  0.02548000  1.0
  C  C54  1  0.56185000  0.46455000  0.53544000  1.0
  C  C55  1  0.56175000  0.46458000  0.92913000  1.0
  C  C56  1  0.56178000  0.07088000  0.53542000  1.0
  C  C57  1  0.06186000  0.53543000  0.46454000  1.0
  C  C58  1  0.06178000  0.53541000  0.07087000  1.0
  C  C59  1  0.06177000  0.92913000  0.46457000  1.0
  C  C60  1  0.43823000  0.53542000  0.46455000  1.0
  C  C61  1  0.43820000  0.92913000  0.46457000  1.0
  C  C62  1  0.43816000  0.53542000  0.07089000  1.0
  C  C63  1  0.93824000  0.46456000  0.53543000  1.0
  C  C64  1  0.93819000  0.07089000  0.53543000  1.0
  C  C65  1  0.93819000  0.46458000  0.92913000  1.0
  C  C66  1  0.62892000  0.42713000  0.57285000  1.0
  C  C67  1  0.62890000  0.42717000  0.85442000  1.0
  C  C68  1  0.62892000  0.14559000  0.57283000  1.0
  C  C69  1  0.12893000  0.57283000  0.42712000  1.0
  C  C70  1  0.12891000  0.57281000  0.14559000  1.0
  C  C71  1  0.12891000  0.85441000  0.42716000  1.0
  C  C72  1  0.37109000  0.57280000  0.42721000  1.0
  C  C73  1  0.37109000  0.85438000  0.42725000  1.0
  C  C74  1  0.37108000  0.57280000  0.14569000  1.0
  C  C75  1  0.87109000  0.42720000  0.57279000  1.0
  C  C76  1  0.87109000  0.14567000  0.57278000  1.0
  C  C77  1  0.87109000  0.42723000  0.85436000  1.0
  C  C78  1  0.53068000  0.41062000  0.44585000  1.0
  C  C79  1  0.53059000  0.55416000  0.96479000  1.0
  C  C80  1  0.53063000  0.03520000  0.58935000  1.0
  C  C81  1  0.03069000  0.58936000  0.55414000  1.0
  C  C82  1  0.03062000  0.44582000  0.03521000  1.0
  C  C83  1  0.03062000  0.96480000  0.41064000  1.0
  C  C84  1  0.46939000  0.44583000  0.41063000  1.0
  C  C85  1  0.46936000  0.96479000  0.55416000  1.0
  C  C86  1  0.46931000  0.58936000  0.03522000  1.0
  C  C87  1  0.96940000  0.55415000  0.58935000  1.0
  C  C88  1  0.96935000  0.03523000  0.44584000  1.0
  C  C89  1  0.96934000  0.41063000  0.96479000  1.0
  C  C90  1  0.46939000  0.58934000  0.55414000  1.0
  C  C91  1  0.46933000  0.44583000  0.03522000  1.0
  C  C92  1  0.46935000  0.96480000  0.41063000  1.0
  C  C93  1  0.96939000  0.41064000  0.44584000  1.0
  C  C94  1  0.96936000  0.55416000  0.96479000  1.0
  C  C95  1  0.96934000  0.03522000  0.58937000  1.0
  C  C96  1  0.53067000  0.55414000  0.58936000  1.0
  C  C97  1  0.53062000  0.03521000  0.44582000  1.0
  C  C98  1  0.53060000  0.41064000  0.96480000  1.0
  C  C99  1  0.03068000  0.44585000  0.41062000  1.0
  C  C100  1  0.03061000  0.96480000  0.55417000  1.0
  C  C101  1  0.03063000  0.58934000  0.03520000  1.0
  C  C102  1  0.74998000  0.09559000  0.19108000  1.0
  C  C103  1  0.74998000  0.80892000  0.90441000  1.0
  C  C104  1  0.75005000  0.09551000  0.90448000  1.0
  C  C105  1  0.24997000  0.90441000  0.80894000  1.0
  C  C106  1  0.24999000  0.19109000  0.09557000  1.0
  C  C107  1  0.25005000  0.90445000  0.09548000  1.0
  C  C108  1  0.74995000  0.23617000  0.33528000  1.0
  C  C109  1  0.74995000  0.66473000  0.90082000  1.0
  C  C110  1  0.75010000  0.09915000  0.76385000  1.0
  C  C111  1  0.24992000  0.76383000  0.66473000  1.0
  C  C112  1  0.24998000  0.33529000  0.09917000  1.0
  C  C113  1  0.25010000  0.90082000  0.23611000  1.0
  C  C114  1  0.24998000  0.33527000  0.23614000  1.0
  C  C115  1  0.24992000  0.90081000  0.66471000  1.0
  C  C116  1  0.25010000  0.76383000  0.09912000  1.0
  C  C117  1  0.74995000  0.66474000  0.76384000  1.0
  C  C118  1  0.74995000  0.09920000  0.33530000  1.0
  C  C119  1  0.75010000  0.23614000  0.90085000  1.0
  C  C120  1  0.74996000  0.19143000  0.24025000  1.0
  C  C121  1  0.74997000  0.75976000  0.95109000  1.0
  C  C122  1  0.75008000  0.04888000  0.80861000  1.0
  C  C123  1  0.24994000  0.80857000  0.75976000  1.0
  C  C124  1  0.24999000  0.24023000  0.04888000  1.0
  C  C125  1  0.25007000  0.95109000  0.19135000  1.0
  C  C126  1  0.24998000  0.24024000  0.19139000  1.0
  C  C127  1  0.24995000  0.95108000  0.75975000  1.0
  C  C128  1  0.25007000  0.80858000  0.04884000  1.0
  C  C129  1  0.74996000  0.75976000  0.80858000  1.0
  C  C130  1  0.74997000  0.04892000  0.24025000  1.0
  C  C131  1  0.75007000  0.19138000  0.95112000  1.0
  C  C132  1  0.75001000  0.04488000  0.08972000  1.0
  C  C133  1  0.75000000  0.91029000  0.95513000  1.0
  C  C134  1  0.75000000  0.04490000  0.95510000  1.0
  C  C135  1  0.25001000  0.95510000  0.91025000  1.0
  C  C136  1  0.25000000  0.08969000  0.04485000  1.0
  C  C137  1  0.24999000  0.95509000  0.04488000  1.0
  N  N138  1  0.74992000  0.19099000  0.38192000  1.0
  N  N139  1  0.74992000  0.61811000  0.80903000  1.0
  N  N140  1  0.75016000  0.19098000  0.80901000  1.0
  N  N141  1  0.24988000  0.80901000  0.61808000  1.0
  N  N142  1  0.24996000  0.38189000  0.19095000  1.0
  N  N143  1  0.25015000  0.80900000  0.19096000  1.0
  N  N144  1  0.74998000  0.09391000  0.04699000  1.0
  N  N145  1  0.75004000  0.95299000  0.04700000  1.0
  N  N146  1  0.74998000  0.95300000  0.90607000  1.0
  N  N147  1  0.24999000  0.90609000  0.95302000  1.0
  N  N148  1  0.25004000  0.04703000  0.95302000  1.0
  N  N149  1  0.24997000  0.04701000  0.09394000  1.0
  O  O150  1  0.65524000  0.34565000  0.52001000  1.0
  O  O151  1  0.65575000  0.48019000  0.82618000  1.0
  O  O152  1  0.65482000  0.17446000  0.65448000  1.0
  O  O153  1  0.15541000  0.65424000  0.48004000  1.0
  O  O154  1  0.15565000  0.51983000  0.17392000  1.0
  O  O155  1  0.15474000  0.82547000  0.34547000  1.0
  O  O156  1  0.34454000  0.51989000  0.34583000  1.0
  O  O157  1  0.34526000  0.82540000  0.47998000  1.0
  O  O158  1  0.34440000  0.65411000  0.17399000  1.0
  O  O159  1  0.84471000  0.48008000  0.65426000  1.0
  O  O160  1  0.84521000  0.17463000  0.52006000  1.0
  O  O161  1  0.84428000  0.34598000  0.82615000  1.0
  O  O162  1  0.34488000  0.65434000  0.48006000  1.0
  O  O163  1  0.34511000  0.52006000  0.17461000  1.0
  O  O164  1  0.34423000  0.82621000  0.34602000  1.0
  O  O165  1  0.84471000  0.34575000  0.51992000  1.0
  O  O166  1  0.84522000  0.47995000  0.82538000  1.0
  O  O167  1  0.84429000  0.17387000  0.65404000  1.0
  O  O168  1  0.65525000  0.47998000  0.65434000  1.0
  O  O169  1  0.65575000  0.17383000  0.51981000  1.0
  O  O170  1  0.65481000  0.34551000  0.82554000  1.0
  O  O171  1  0.15509000  0.52005000  0.34556000  1.0
  O  O172  1  0.15580000  0.82623000  0.48022000  1.0
  O  O173  1  0.15492000  0.65442000  0.17439000  1.0
  O  O174  1  0.74999000  0.33326000  0.66673000  1.0
  O  O175  1  0.24999000  0.66677333  0.33333333  1.0
