# generated using pymatgen
data_CoH18C20(I2O3)4
_symmetry_space_group_name_H-M   'P 1'
_cell_length_a   9.63083000
_cell_length_b   10.01060000
_cell_length_c   10.69160000
_cell_angle_alpha   103.44200000
_cell_angle_beta   113.45800000
_cell_angle_gamma   98.10490000
_symmetry_Int_Tables_number   1
_chemical_formula_structural   CoH18C20(I2O3)4
_chemical_formula_sum   'Co1 H18 C20 I8 O12'
_cell_volume   887.62594326
_cell_formula_units_Z   1
loop_
 _symmetry_equiv_pos_site_id
 _symmetry_equiv_pos_as_xyz
  1  'x, y, z'
loop_
 _atom_site_type_symbol
 _atom_site_label
 _atom_site_symmetry_multiplicity
 _atom_site_fract_x
 _atom_site_fract_y
 _atom_site_fract_z
 _atom_site_occupancy
  Co  Co0  1  0.50000000  0.50000000  0.50000000  1.0
  H  H1  1  0.45917000  0.59465000  0.71834000  1.0
  H  H2  1  0.54084000  0.40534000  0.28166000  1.0
  H  H3  1  0.27174000  0.26006000  0.33928000  1.0
  H  H4  1  0.72825000  0.73994000  0.66072000  1.0
  H  H5  1  0.15291000  0.42718000  0.49104000  1.0
  H  H6  1  0.84709000  0.57282000  0.50895000  1.0
  H  H7  1  0.17657000  0.56385000  0.64499000  1.0
  H  H8  1  0.82344000  0.43615000  0.35500000  1.0
  H  H9  1  0.24647000  0.40986000  0.66720000  1.0
  H  H10  1  0.75353000  0.59014000  0.33280000  1.0
  H  H11  1  0.41059000  0.23650000  0.60752000  1.0
  H  H12  1  0.58938000  0.76349000  0.39247000  1.0
  H  H13  1  0.47980000  0.13106000  0.49699000  1.0
  H  H14  1  0.52021000  0.86895000  0.50303000  1.0
  H  H15  1  0.27346000  0.09916000  0.44429000  1.0
  H  H16  1  0.72654000  0.90083000  0.55569000  1.0
  H  H17  1  0.70534000  0.69487000  0.02829000  1.0
  H  H18  1  0.29466000  0.30513000  0.97172000  1.0
  C  C19  1  0.71141000  0.55198000  0.81591000  1.0
  C  C20  1  0.28858000  0.44802000  0.18408000  1.0
  C  C21  1  0.86177000  0.53141000  0.91907000  1.0
  C  C22  1  0.13823000  0.46859000  0.08093000  1.0
  C  C23  1  0.00591000  0.60950000  0.93823000  1.0
  C  C24  1  0.99409000  0.39050000  0.06176000  1.0
  C  C25  1  0.14446000  0.57693000  0.01861000  1.0
  C  C26  1  0.85554000  0.42306000  0.98138000  1.0
  C  C27  1  0.23019000  0.48471000  0.60503000  1.0
  C  C28  1  0.76981000  0.51529000  0.39496000  1.0
  C  C29  1  0.38523000  0.18100000  0.49632000  1.0
  C  C30  1  0.61477000  0.81900000  0.50367000  1.0
  C  C31  1  0.85889000  0.85502000  0.19205000  1.0
  C  C32  1  0.14111000  0.14498000  0.80796000  1.0
  C  C33  1  0.92651000  0.92404000  0.35252000  1.0
  C  C34  1  0.07348000  0.07596000  0.64749000  1.0
  C  C35  1  0.86784000  0.03217000  0.40682000  1.0
  C  C36  1  0.13216000  0.96783000  0.59319000  1.0
  C  C37  1  0.94177000  0.10922000  0.55445000  1.0
  C  C38  1  0.05824000  0.89079000  0.44556000  1.0
  I  I39  1  0.01435000  0.78289000  0.85864000  1.0
  I  I40  1  0.98565000  0.21711000  0.14135000  1.0
  I  I41  1  0.36569000  0.69127000  0.05595000  1.0
  I  I42  1  0.63431000  0.30872000  0.94404000  1.0
  I  I43  1  0.66332000  0.07111000  0.26451000  1.0
  I  I44  1  0.33669000  0.92891000  0.73550000  1.0
  I  I45  1  0.85716000  0.27252000  0.63766000  1.0
  I  I46  1  0.14285000  0.72749000  0.36235000  1.0
  O  O47  1  0.67329000  0.48837000  0.68464000  1.0
  O  O48  1  0.32671000  0.51163000  0.31535000  1.0
  O  O49  1  0.63513000  0.62662000  0.86242000  1.0
  O  O50  1  0.36487000  0.37338000  0.13758000  1.0
  O  O51  1  0.37719000  0.55564000  0.61593000  1.0
  O  O52  1  0.62282000  0.44435000  0.38407000  1.0
  O  O53  1  0.37768000  0.28147000  0.41788000  1.0
  O  O54  1  0.62231000  0.71852000  0.58212000  1.0
  O  O55  1  0.90923000  0.91037000  0.12202000  1.0
  O  O56  1  0.09076000  0.08963000  0.87799000  1.0
  O  O57  1  0.74552000  0.73583000  0.13866000  1.0
  O  O58  1  0.25448000  0.26417000  0.86136000  1.0
