# generated using pymatgen
data_SmH7C8O9
_symmetry_space_group_name_H-M   'P 1'
_cell_length_a   8.33083000
_cell_length_b   8.72858000
_cell_length_c   14.33040000
_cell_angle_alpha   89.99970000
_cell_angle_beta   89.99970000
_cell_angle_gamma   76.36400000
_symmetry_Int_Tables_number   1
_chemical_formula_structural   SmH7C8O9
_chemical_formula_sum   'Sm4 H28 C32 O36'
_cell_volume   1012.68159064
_cell_formula_units_Z   4
loop_
 _symmetry_equiv_pos_site_id
 _symmetry_equiv_pos_as_xyz
  1  'x, y, z'
loop_
 _atom_site_type_symbol
 _atom_site_label
 _atom_site_symmetry_multiplicity
 _atom_site_fract_x
 _atom_site_fract_y
 _atom_site_fract_z
 _atom_site_occupancy
  Sm  Sm0  1  0.36600000  0.59406000  0.68728000  1.0
  Sm  Sm1  1  0.63400000  0.90594000  0.18728000  1.0
  Sm  Sm2  1  0.63401000  0.40594000  0.31272000  1.0
  Sm  Sm3  1  0.36600000  0.09405000  0.81272000  1.0
  H  H4  1  0.91959000  0.11232000  0.70654000  1.0
  H  H5  1  0.08041000  0.38768000  0.20654000  1.0
  H  H6  1  0.08041000  0.88768000  0.29346000  1.0
  H  H7  1  0.91959000  0.61232000  0.79346000  1.0
  H  H8  1  0.82171000  0.46353000  0.65261000  1.0
  H  H9  1  0.17829000  0.03647000  0.15261000  1.0
  H  H10  1  0.17829000  0.53647000  0.34739000  1.0
  H  H11  1  0.82171000  0.96353000  0.84739000  1.0
  H  H12  1  0.43754000  0.12736000  0.57506000  1.0
  H  H13  1  0.56246000  0.37264000  0.07506000  1.0
  H  H14  1  0.56246000  0.87264000  0.42494000  1.0
  H  H15  1  0.43754000  0.62736000  0.92494000  1.0
  H  H16  1  0.86358000  0.93516000  0.45131000  1.0
  H  H17  1  0.13642000  0.56484000  0.95131000  1.0
  H  H18  1  0.13642000  0.06484000  0.54869000  1.0
  H  H19  1  0.86358000  0.43516000  0.04869000  1.0
  H  H20  1  0.35674000  0.41384000  0.50210000  1.0
  H  H21  1  0.64326000  0.08616000  0.00210000  1.0
  H  H22  1  0.64326000  0.58616000  0.49790000  1.0
  H  H23  1  0.35674000  0.91384000  0.99791000  1.0
  H  H24  1  0.35773000  0.58274000  0.46963000  1.0
  H  H25  1  0.64227000  0.91726000  0.96963000  1.0
  H  H26  1  0.64227000  0.41726000  0.53037000  1.0
  H  H27  1  0.35773000  0.08274000  0.03037000  1.0
  H  H28  1  0.00755000  0.59819000  0.59707000  1.0
  H  H29  1  0.99245000  0.90181000  0.09706000  1.0
  H  H30  1  0.99245000  0.40181000  0.40293000  1.0
  H  H31  1  0.00755000  0.09819000  0.90294000  1.0
  C  C32  1  0.65841000  0.23858000  0.68491000  1.0
  C  C33  1  0.34159000  0.26142000  0.18491000  1.0
  C  C34  1  0.34159000  0.76142000  0.31509000  1.0
  C  C35  1  0.65841000  0.73858000  0.81508000  1.0
  C  C36  1  0.84017000  0.22537000  0.68630000  1.0
  C  C37  1  0.15983000  0.27463000  0.18630000  1.0
  C  C38  1  0.15984000  0.77463000  0.31370000  1.0
  C  C39  1  0.84017000  0.72537000  0.81370000  1.0
  C  C40  1  0.90398000  0.35018000  0.66953000  1.0
  C  C41  1  0.09602000  0.14982000  0.16953000  1.0
  C  C42  1  0.09602000  0.64982000  0.33047000  1.0
  C  C43  1  0.90398000  0.85019000  0.83047000  1.0
  C  C44  1  0.08277000  0.34666000  0.67665000  1.0
  C  C45  1  0.91723000  0.15334000  0.17665000  1.0
  C  C46  1  0.91723000  0.65334000  0.32335000  1.0
  C  C47  1  0.08277000  0.84666000  0.82335000  1.0
  C  C48  1  0.46511000  0.87557000  0.60569000  1.0
  C  C49  1  0.53488000  0.62443000  0.10569000  1.0
  C  C50  1  0.53489000  0.12443000  0.39431000  1.0
  C  C51  1  0.46512000  0.37557000  0.89431000  1.0
  C  C52  1  0.47590000  0.00992000  0.54470000  1.0
  C  C53  1  0.52410000  0.49008000  0.04470000  1.0
  C  C54  1  0.52410000  0.99008000  0.45530000  1.0
  C  C55  1  0.47590000  0.50992000  0.95530000  1.0
  C  C56  1  0.02614000  0.80167000  0.56035000  1.0
  C  C57  1  0.97385000  0.69833000  0.06035000  1.0
  C  C58  1  0.97385000  0.19833000  0.43965000  1.0
  C  C59  1  0.02614000  0.30167000  0.93965000  1.0
  C  C60  1  0.96470000  0.93839000  0.49892000  1.0
  C  C61  1  0.03529000  0.56161000  0.99891000  1.0
  C  C62  1  0.03530000  0.06161000  0.50109000  1.0
  C  C63  1  0.96470000  0.43839000  0.00108000  1.0
  O  O64  1  0.56588000  0.35632000  0.64212000  1.0
  O  O65  1  0.43412000  0.14368000  0.14212000  1.0
  O  O66  1  0.43412000  0.64368000  0.35788000  1.0
  O  O67  1  0.56588000  0.85632000  0.85788000  1.0
  O  O68  1  0.31808000  0.52504000  0.52081000  1.0
  O  O69  1  0.68192000  0.97496000  0.02081000  1.0
  O  O70  1  0.68192000  0.47496000  0.47919000  1.0
  O  O71  1  0.31808000  0.02504000  0.97919000  1.0
  O  O72  1  0.60639000  0.13196000  0.72691000  1.0
  O  O73  1  0.39361000  0.36803000  0.22691000  1.0
  O  O74  1  0.39361000  0.86804000  0.27309000  1.0
  O  O75  1  0.60639000  0.63197000  0.77309000  1.0
  O  O76  1  0.12038000  0.48008000  0.66542000  1.0
  O  O77  1  0.87962000  0.01993000  0.16540000  1.0
  O  O78  1  0.87962000  0.51992000  0.33459000  1.0
  O  O79  1  0.12038000  0.98007000  0.83459000  1.0
  O  O80  1  0.18769000  0.21915000  0.69293000  1.0
  O  O81  1  0.81231000  0.28085000  0.19293000  1.0
  O  O82  1  0.81232000  0.78085000  0.30707000  1.0
  O  O83  1  0.18768000  0.71915000  0.80707000  1.0
  O  O84  1  0.51022000  0.73402000  0.57602000  1.0
  O  O85  1  0.48978000  0.76598000  0.07602000  1.0
  O  O86  1  0.48978000  0.26598000  0.42398000  1.0
  O  O87  1  0.51023000  0.23402000  0.92398000  1.0
  O  O88  1  0.40168000  0.90375000  0.68700000  1.0
  O  O89  1  0.59831000  0.59626000  0.18700000  1.0
  O  O90  1  0.59832000  0.09626000  0.31300000  1.0
  O  O91  1  0.40169000  0.40375000  0.81300000  1.0
  O  O92  1  0.14476000  0.79665000  0.61395000  1.0
  O  O93  1  0.85523000  0.70335000  0.11395000  1.0
  O  O94  1  0.85524000  0.20335000  0.38605000  1.0
  O  O95  1  0.14476000  0.29665000  0.88605000  1.0
  O  O96  1  0.94737000  0.68767000  0.55319000  1.0
  O  O97  1  0.05263000  0.81233000  0.05318000  1.0
  O  O98  1  0.05262000  0.31233000  0.44682000  1.0
  O  O99  1  0.94737000  0.18767000  0.94682000  1.0
