# generated using pymatgen
data_MgAgH18C18(NO2)3
_symmetry_space_group_name_H-M   'P 1'
_cell_length_a   10.75060000
_cell_length_b   11.41290000
_cell_length_c   14.21880000
_cell_angle_alpha   98.60680000
_cell_angle_beta   107.11200000
_cell_angle_gamma   113.79400000
_symmetry_Int_Tables_number   1
_chemical_formula_structural   MgAgH18C18(NO2)3
_chemical_formula_sum   'Mg2 Ag2 H36 C36 N6 O12'
_cell_volume   1452.01749200
_cell_formula_units_Z   2
loop_
 _symmetry_equiv_pos_site_id
 _symmetry_equiv_pos_as_xyz
  1  'x, y, z'
loop_
 _atom_site_type_symbol
 _atom_site_label
 _atom_site_symmetry_multiplicity
 _atom_site_fract_x
 _atom_site_fract_y
 _atom_site_fract_z
 _atom_site_occupancy
  Mg  Mg0  1  0.24632000  0.56641000  0.32365000  1.0
  Mg  Mg1  1  0.75368000  0.43359000  0.67635000  1.0
  Ag  Ag2  1  0.54732000  0.86962000  0.94444000  1.0
  Ag  Ag3  1  0.45268000  0.13038000  0.05557000  1.0
  H  H4  1  0.67631000  0.68304000  0.58204000  1.0
  H  H5  1  0.32369000  0.31697000  0.41797000  1.0
  H  H6  1  0.60567000  0.63817000  0.67680000  1.0
  H  H7  1  0.39433000  0.36184000  0.32320000  1.0
  H  H8  1  0.66554000  0.80483000  0.67088000  1.0
  H  H9  1  0.33446000  0.19518000  0.32912000  1.0
  H  H10  1  0.03390000  0.69887000  0.51774000  1.0
  H  H11  1  0.96610000  0.30113000  0.48225000  1.0
  H  H12  1  0.18426000  0.77442000  0.64242000  1.0
  H  H13  1  0.81574000  0.22558000  0.35758000  1.0
  H  H14  1  0.06417000  0.59922000  0.59787000  1.0
  H  H15  1  0.93583000  0.40078000  0.40213000  1.0
  H  H16  1  0.99222000  0.07972000  0.19180000  1.0
  H  H17  1  0.00778000  0.92027000  0.80821000  1.0
  H  H18  1  0.83869000  0.07210000  0.21708000  1.0
  H  H19  1  0.16131000  0.92789000  0.78292000  1.0
  H  H20  1  0.01430000  0.13488000  0.32245000  1.0
  H  H21  1  0.98569000  0.86512000  0.67755000  1.0
  H  H22  1  0.88137000  0.53995000  0.04869000  1.0
  H  H23  1  0.11863000  0.46005000  0.95131000  1.0
  H  H24  1  0.73337000  0.38773000  0.04432000  1.0
  H  H25  1  0.26664000  0.61227000  0.95568000  1.0
  H  H26  1  0.83981000  0.37963000  0.97198000  1.0
  H  H27  1  0.16019000  0.62036000  0.02802000  1.0
  H  H28  1  0.43587000  0.38696000  0.13468000  1.0
  H  H29  1  0.56414000  0.61305000  0.86532000  1.0
  H  H30  1  0.57172000  0.53731000  0.12699000  1.0
  H  H31  1  0.42829000  0.46270000  0.87302000  1.0
  H  H32  1  0.38680000  0.45804000  0.03570000  1.0
  H  H33  1  0.61321000  0.54197000  0.96430000  1.0
  H  H34  1  0.45266000  0.94655000  0.18779000  1.0
  H  H35  1  0.54735000  0.05345000  0.81221000  1.0
  H  H36  1  0.62316000  0.98123000  0.28163000  1.0
  H  H37  1  0.37683000  0.01876000  0.71837000  1.0
  H  H38  1  0.48431000  0.99349000  0.32198000  1.0
  H  H39  1  0.51570000  0.00651000  0.67802000  1.0
  C  C40  1  0.61057000  0.69888000  0.62341000  1.0
  C  C41  1  0.38943000  0.30113000  0.37660000  1.0
  C  C42  1  0.45866000  0.65909000  0.54781000  1.0
  C  C43  1  0.54134000  0.34091000  0.45220000  1.0
  C  C44  1  0.35701000  0.68077000  0.58700000  1.0
  C  C45  1  0.64299000  0.31922000  0.41300000  1.0
  C  C46  1  0.21465000  0.66148000  0.52241000  1.0
  C  C47  1  0.78534000  0.33852000  0.47759000  1.0
  C  C48  1  0.11917000  0.68621000  0.57316000  1.0
  C  C49  1  0.88084000  0.31380000  0.42684000  1.0
  C  C50  1  0.40236000  0.72578000  0.69438000  1.0
  C  C51  1  0.59763000  0.27422000  0.30562000  1.0
  C  C52  1  0.95900000  0.13181000  0.24332000  1.0
  C  C53  1  0.04100000  0.86819000  0.75668000  1.0
  C  C54  1  0.00667000  0.27377000  0.23819000  1.0
  C  C55  1  0.99333000  0.72623000  0.76181000  1.0
  C  C56  1  0.91860000  0.29588000  0.15127000  1.0
  C  C57  1  0.08141000  0.70411000  0.84872000  1.0
  C  C58  1  0.95314000  0.42623000  0.13648000  1.0
  C  C59  1  0.04686000  0.57376000  0.86352000  1.0
  C  C60  1  0.84554000  0.43436000  0.04508000  1.0
  C  C61  1  0.15446000  0.56564000  0.95492000  1.0
  C  C62  1  0.78942000  0.18470000  0.07827000  1.0
  C  C63  1  0.21059000  0.81529000  0.92173000  1.0
  C  C64  1  0.45605000  0.48164000  0.11737000  1.0
  C  C65  1  0.54396000  0.51837000  0.88263000  1.0
  C  C66  1  0.41590000  0.56208000  0.18566000  1.0
  C  C67  1  0.58409000  0.43792000  0.81434000  1.0
  C  C68  1  0.46698000  0.70271000  0.19492000  1.0
  C  C69  1  0.53302000  0.29729000  0.80508000  1.0
  C  C70  1  0.43918000  0.79166000  0.25981000  1.0
  C  C71  1  0.56082000  0.20834000  0.74019000  1.0
  C  C72  1  0.50401000  0.93728000  0.26370000  1.0
  C  C73  1  0.49599000  0.06271000  0.73630000  1.0
  C  C74  1  0.54191000  0.75600000  0.13360000  1.0
  C  C75  1  0.45808000  0.24399000  0.86640000  1.0
  N  N76  1  0.44156000  0.76276000  0.78457000  1.0
  N  N77  1  0.55843000  0.23724000  0.21542000  1.0
  N  N78  1  0.67934000  0.09132000  0.01774000  1.0
  N  N79  1  0.32067000  0.90867000  0.98226000  1.0
  N  N80  1  0.60140000  0.80177000  0.08044000  1.0
  N  N81  1  0.39860000  0.19823000  0.91956000  1.0
  O  O82  1  0.42478000  0.60934000  0.45324000  1.0
  O  O83  1  0.57523000  0.39067000  0.54676000  1.0
  O  O84  1  0.16497000  0.62375000  0.42502000  1.0
  O  O85  1  0.83503000  0.37626000  0.57498000  1.0
  O  O86  1  0.12218000  0.36729000  0.30969000  1.0
  O  O87  1  0.87782000  0.63271000  0.69032000  1.0
  O  O88  1  0.06773000  0.53251000  0.19587000  1.0
  O  O89  1  0.93226000  0.46748000  0.80413000  1.0
  O  O90  1  0.33745000  0.50220000  0.23107000  1.0
  O  O91  1  0.66255000  0.49779000  0.76892000  1.0
  O  O92  1  0.36286000  0.75327000  0.31178000  1.0
  O  O93  1  0.63712000  0.24673000  0.68821000  1.0
