# generated using pymatgen
data_NaCuPH8C2SO8
_symmetry_space_group_name_H-M   'P 1'
_cell_length_a   7.51444000
_cell_length_b   7.66922000
_cell_length_c   14.60840000
_cell_angle_alpha   90.00000000
_cell_angle_beta   92.90280000
_cell_angle_gamma   89.99990000
_symmetry_Int_Tables_number   1
_chemical_formula_structural   NaCuPH8C2SO8
_chemical_formula_sum   'Na4 Cu4 P4 H32 C8 S4 O32'
_cell_volume   840.80030598
_cell_formula_units_Z   4
loop_
 _symmetry_equiv_pos_site_id
 _symmetry_equiv_pos_as_xyz
  1  'x, y, z'
loop_
 _atom_site_type_symbol
 _atom_site_label
 _atom_site_symmetry_multiplicity
 _atom_site_fract_x
 _atom_site_fract_y
 _atom_site_fract_z
 _atom_site_occupancy
  Na  Na0  1  0.07041000  0.68514000  0.96155000  1.0
  Na  Na1  1  0.42959000  0.18514000  0.03845000  1.0
  Na  Na2  1  0.92959000  0.31486000  0.03845000  1.0
  Na  Na3  1  0.57041000  0.81486000  0.96155000  1.0
  Cu  Cu4  1  0.93255000  0.19274000  0.52739000  1.0
  Cu  Cu5  1  0.56745000  0.69274000  0.47260000  1.0
  Cu  Cu6  1  0.06745000  0.80726000  0.47260000  1.0
  Cu  Cu7  1  0.43255000  0.30726000  0.52739000  1.0
  P  P8  1  0.86221000  0.55388000  0.60694000  1.0
  P  P9  1  0.63779000  0.05388000  0.39306000  1.0
  P  P10  1  0.13779000  0.44612000  0.39306000  1.0
  P  P11  1  0.36221000  0.94612000  0.60694000  1.0
  H  H12  1  0.71108000  0.07083000  0.63052000  1.0
  H  H13  1  0.78892000  0.57082000  0.36948000  1.0
  H  H14  1  0.28892000  0.92918000  0.36948000  1.0
  H  H15  1  0.21107000  0.42917000  0.63052000  1.0
  H  H16  1  0.87472000  0.94026000  0.62215000  1.0
  H  H17  1  0.62528000  0.44026000  0.37785000  1.0
  H  H18  1  0.12528000  0.05974000  0.37785000  1.0
  H  H19  1  0.37472000  0.55974000  0.62215000  1.0
  H  H20  1  0.69708000  0.68517000  0.72223000  1.0
  H  H21  1  0.80292000  0.18516000  0.27777000  1.0
  H  H22  1  0.30292000  0.31484000  0.27778000  1.0
  H  H23  1  0.19708000  0.81484000  0.72222000  1.0
  H  H24  1  0.91904000  0.63136000  0.76311000  1.0
  H  H25  1  0.58096000  0.13136000  0.23689000  1.0
  H  H26  1  0.08096000  0.36864000  0.23689000  1.0
  H  H27  1  0.41904000  0.86864000  0.76311000  1.0
  H  H28  1  0.62006000  0.35915000  0.72553000  1.0
  H  H29  1  0.87994000  0.85915000  0.27447000  1.0
  H  H30  1  0.37994000  0.64085000  0.27447000  1.0
  H  H31  1  0.12006000  0.14085000  0.72553000  1.0
  H  H32  1  0.83900000  0.31727000  0.77452000  1.0
  H  H33  1  0.66100000  0.81727000  0.22547000  1.0
  H  H34  1  0.16100000  0.68273000  0.22547000  1.0
  H  H35  1  0.33900000  0.18273000  0.77452000  1.0
  H  H36  1  0.14040000  0.40942000  0.85545000  1.0
  H  H37  1  0.35960000  0.90942000  0.14455000  1.0
  H  H38  1  0.85960000  0.59058000  0.14455000  1.0
  H  H39  1  0.64040000  0.09058000  0.85545000  1.0
  H  H40  1  0.29241000  0.54078000  0.83525000  1.0
  H  H41  1  0.20760000  0.04078000  0.16475000  1.0
  H  H42  1  0.70759000  0.45922000  0.16475000  1.0
  H  H43  1  0.79241000  0.95922000  0.83525000  1.0
  C  C44  1  0.80065000  0.58382000  0.72373000  1.0
  C  C45  1  0.69935000  0.08382000  0.27627000  1.0
  C  C46  1  0.19935000  0.41618000  0.27627000  1.0
  C  C47  1  0.30065000  0.91618000  0.72373000  1.0
  C  C48  1  0.73369000  0.41578000  0.76547000  1.0
  C  C49  1  0.76631000  0.91578000  0.23453000  1.0
  C  C50  1  0.26631000  0.58422000  0.23453000  1.0
  C  C51  1  0.23369000  0.08422000  0.76547000  1.0
  S  S52  1  0.65221000  0.45638000  0.87616000  1.0
  S  S53  1  0.84779000  0.95638000  0.12384000  1.0
  S  S54  1  0.34779000  0.54361000  0.12384000  1.0
  S  S55  1  0.15221000  0.04361000  0.87616000  1.0
  O  O56  1  0.84517000  0.06390000  0.63631000  1.0
  O  O57  1  0.65482000  0.56390000  0.36369000  1.0
  O  O58  1  0.15482000  0.93610000  0.36369000  1.0
  O  O59  1  0.34517000  0.43610000  0.63631000  1.0
  O  O60  1  0.99525000  0.39863000  0.60334000  1.0
  O  O61  1  0.50475000  0.89863000  0.39666000  1.0
  O  O62  1  0.00475000  0.60137000  0.39666000  1.0
  O  O63  1  0.49525000  0.10137000  0.60334000  1.0
  O  O64  1  0.95037000  0.72930000  0.58240000  1.0
  O  O65  1  0.54963000  0.22929000  0.41760000  1.0
  O  O66  1  0.04963000  0.27071000  0.41760000  1.0
  O  O67  1  0.45037000  0.77071000  0.58240000  1.0
  O  O68  1  0.69247000  0.50955000  0.54679000  1.0
  O  O69  1  0.80753000  0.00955000  0.45321000  1.0
  O  O70  1  0.30753000  0.49045000  0.45321000  1.0
  O  O71  1  0.19247000  0.99045000  0.54679000  1.0
  O  O72  1  0.79965000  0.52509000  0.93634000  1.0
  O  O73  1  0.70035000  0.02509000  0.06366000  1.0
  O  O74  1  0.20035000  0.47491000  0.06366000  1.0
  O  O75  1  0.29965000  0.97492000  0.93634000  1.0
  O  O76  1  0.51023000  0.58776000  0.86285000  1.0
  O  O77  1  0.98977000  0.08776000  0.13715000  1.0
  O  O78  1  0.48977000  0.41224000  0.13715000  1.0
  O  O79  1  0.01023000  0.91224000  0.86285000  1.0
  O  O80  1  0.58485000  0.28838000  0.90976000  1.0
  O  O81  1  0.91515000  0.78838000  0.09024000  1.0
  O  O82  1  0.41515000  0.71162000  0.09024000  1.0
  O  O83  1  0.08485000  0.21162000  0.90976000  1.0
  O  O84  1  0.16152000  0.52882000  0.83382000  1.0
  O  O85  1  0.33848000  0.02882000  0.16618000  1.0
  O  O86  1  0.83848000  0.47118000  0.16618000  1.0
  O  O87  1  0.66153000  0.97118000  0.83382000  1.0
