# generated using pymatgen
data_CdH54C43N4O9
_symmetry_space_group_name_H-M   'P 1'
_cell_length_a   13.80040000
_cell_length_b   15.08860000
_cell_length_c   19.42870000
_cell_angle_alpha   89.99990000
_cell_angle_beta   90.00020000
_cell_angle_gamma   90.00000000
_symmetry_Int_Tables_number   1
_chemical_formula_structural   CdH54C43N4O9
_chemical_formula_sum   'Cd4 H216 C172 N16 O36'
_cell_volume   4045.61324364
_cell_formula_units_Z   4
loop_
 _symmetry_equiv_pos_site_id
 _symmetry_equiv_pos_as_xyz
  1  'x, y, z'
loop_
 _atom_site_type_symbol
 _atom_site_label
 _atom_site_symmetry_multiplicity
 _atom_site_fract_x
 _atom_site_fract_y
 _atom_site_fract_z
 _atom_site_occupancy
  Cd  Cd0  1  0.80624000  0.13901000  0.96450000  1.0
  Cd  Cd1  1  0.69376000  0.86099000  0.46450000  1.0
  Cd  Cd2  1  0.19376000  0.63901000  0.53550000  1.0
  Cd  Cd3  1  0.30624000  0.36099000  0.03550000  1.0
  H  H4  1  0.75929000  0.02976000  0.09836000  1.0
  H  H5  1  0.74071000  0.97024000  0.59836000  1.0
  H  H6  1  0.24071000  0.52977000  0.40164000  1.0
  H  H7  1  0.25929000  0.47023000  0.90164000  1.0
  H  H8  1  0.74040000  0.17153000  0.10242000  1.0
  H  H9  1  0.75960000  0.82847000  0.60242000  1.0
  H  H10  1  0.25960000  0.67153000  0.39758000  1.0
  H  H11  1  0.24040000  0.32847000  0.89758000  1.0
  H  H12  1  0.58807000  0.21563000  0.05289000  1.0
  H  H13  1  0.91193000  0.78437000  0.55289000  1.0
  H  H14  1  0.41193000  0.71563000  0.44711000  1.0
  H  H15  1  0.08807000  0.28437000  0.94711000  1.0
  H  H16  1  0.59915000  0.14005000  0.88622000  1.0
  H  H17  1  0.90085000  0.85995000  0.38622000  1.0
  H  H18  1  0.40084000  0.64005000  0.61378000  1.0
  H  H19  1  0.09915000  0.35995000  0.11378000  1.0
  H  H20  1  0.59438000  0.23531000  0.94039000  1.0
  H  H21  1  0.90562000  0.76469000  0.44039000  1.0
  H  H22  1  0.40562000  0.73531000  0.55961000  1.0
  H  H23  1  0.09438000  0.26469000  0.05961000  1.0
  H  H24  1  0.84343000  0.08491000  0.69681000  1.0
  H  H25  1  0.65657000  0.91509000  0.19681000  1.0
  H  H26  1  0.15657000  0.58491000  0.80319000  1.0
  H  H27  1  0.34343000  0.41509000  0.30319000  1.0
  H  H28  1  0.62233000  0.04230000  0.22945000  1.0
  H  H29  1  0.87768000  0.95770000  0.72946000  1.0
  H  H30  1  0.37768000  0.54230000  0.27054000  1.0
  H  H31  1  0.12232000  0.45770000  0.77055000  1.0
  H  H32  1  0.80456000  0.30698000  0.61934000  1.0
  H  H33  1  0.69544000  0.69302000  0.11934000  1.0
  H  H34  1  0.19544000  0.80698000  0.88066000  1.0
  H  H35  1  0.30456000  0.19303000  0.38066000  1.0
  H  H36  1  0.45562000  0.14603000  0.10057000  1.0
  H  H37  1  0.04438000  0.85397000  0.60058000  1.0
  H  H38  1  0.54438000  0.64603000  0.39943000  1.0
  H  H39  1  0.95562000  0.35397000  0.89943000  1.0
  H  H40  1  0.51182000  0.04061000  0.10498000  1.0
  H  H41  1  0.98817000  0.95939000  0.60498000  1.0
  H  H42  1  0.48818000  0.54061000  0.39502000  1.0
  H  H43  1  0.01182000  0.45939000  0.89502000  1.0
  H  H44  1  0.84063000  0.05593000  0.82400000  1.0
  H  H45  1  0.65937000  0.94407000  0.32400000  1.0
  H  H46  1  0.15937000  0.55593000  0.67600000  1.0
  H  H47  1  0.34063000  0.44407000  0.17600000  1.0
  H  H48  1  0.66174000  0.98535000  0.01919000  1.0
  H  H49  1  0.83826000  0.01465000  0.51919000  1.0
  H  H50  1  0.33826000  0.48535000  0.48080000  1.0
  H  H51  1  0.16174000  0.51465000  0.98081000  1.0
  H  H52  1  0.66028000  0.00223000  0.92840000  1.0
  H  H53  1  0.83972000  0.99777000  0.42839000  1.0
  H  H54  1  0.33972000  0.50223000  0.57160000  1.0
  H  H55  1  0.16028000  0.49777000  0.07160000  1.0
  H  H56  1  0.66879000  0.31074000  0.09403000  1.0
  H  H57  1  0.83121000  0.68926000  0.59403000  1.0
  H  H58  1  0.33121000  0.81074000  0.40597000  1.0
  H  H59  1  0.16880000  0.18926000  0.90597000  1.0
  H  H60  1  0.72704000  0.11867000  0.60434000  1.0
  H  H61  1  0.77296000  0.88133000  0.10434000  1.0
  H  H62  1  0.27296000  0.61867000  0.89566000  1.0
  H  H63  1  0.22704000  0.38133000  0.39566000  1.0
  H  H64  1  0.69490000  0.46398000  0.89201000  1.0
  H  H65  1  0.80510000  0.53602000  0.39201000  1.0
  H  H66  1  0.30510000  0.96398000  0.60799000  1.0
  H  H67  1  0.19490000  0.03602000  0.10799000  1.0
  H  H68  1  0.72465000  0.38591000  0.68021000  1.0
  H  H69  1  0.77535000  0.61409000  0.18021000  1.0
  H  H70  1  0.27535000  0.88591000  0.81979000  1.0
  H  H71  1  0.22465000  0.11409000  0.31979000  1.0
  H  H72  1  0.56505000  0.10035000  0.34220000  1.0
  H  H73  1  0.93494000  0.89965000  0.84220000  1.0
  H  H74  1  0.43495000  0.60035000  0.15780000  1.0
  H  H75  1  0.06505000  0.39965000  0.65780000  1.0
  H  H76  1  0.54391000  0.39956000  0.32470000  1.0
  H  H77  1  0.95609000  0.60044000  0.82470000  1.0
  H  H78  1  0.45609000  0.89956000  0.17530000  1.0
  H  H79  1  0.04391000  0.10044000  0.67530000  1.0
  H  H80  1  0.75178000  0.31507000  0.93024000  1.0
  H  H81  1  0.74822000  0.68493000  0.43024000  1.0
  H  H82  1  0.24822000  0.81507000  0.56976000  1.0
  H  H83  1  0.25178000  0.18493000  0.06976000  1.0
  H  H84  1  0.48546000  0.17808000  0.58002000  1.0
  H  H85  1  0.01454000  0.82192000  0.08002000  1.0
  H  H86  1  0.51454000  0.67808000  0.91998000  1.0
  H  H87  1  0.98546000  0.32192000  0.41998000  1.0
  H  H88  1  0.56485000  0.09331000  0.60936000  1.0
  H  H89  1  0.93515000  0.90669000  0.10936000  1.0
  H  H90  1  0.43516000  0.59331000  0.89064000  1.0
  H  H91  1  0.06484000  0.40669000  0.39064000  1.0
  H  H92  1  0.57011000  0.51404000  0.23234000  1.0
  H  H93  1  0.92990000  0.48596000  0.73234000  1.0
  H  H94  1  0.42989000  0.01404000  0.26766000  1.0
  H  H95  1  0.07010000  0.98596000  0.76766000  1.0
  H  H96  1  0.65668000  0.52306000  0.01300000  1.0
  H  H97  1  0.84332000  0.47694000  0.51301000  1.0
  H  H98  1  0.34332000  0.02306000  0.48700000  1.0
  H  H99  1  0.15667000  0.97694000  0.98700000  1.0
  H  H100  1  0.59498000  0.41825000  0.01968000  1.0
  H  H101  1  0.90502000  0.58176000  0.51968000  1.0
  H  H102  1  0.40502000  0.91825000  0.48032000  1.0
  H  H103  1  0.09497000  0.08176000  0.98032000  1.0
  H  H104  1  0.72234000  0.42550000  0.03864000  1.0
  H  H105  1  0.77765000  0.57450000  0.53864000  1.0
  H  H106  1  0.27765000  0.92550000  0.46136000  1.0
  H  H107  1  0.22234000  0.07450000  0.96136000  1.0
  H  H108  1  0.89870000  0.20083000  0.56033000  1.0
  H  H109  1  0.60130000  0.79917000  0.06033000  1.0
  H  H110  1  0.10130000  0.70083000  0.93967000  1.0
  H  H111  1  0.39870000  0.29917000  0.43967000  1.0
  H  H112  1  0.79150000  0.25110000  0.49589000  1.0
  H  H113  1  0.70849000  0.74890000  0.99589000  1.0
  H  H114  1  0.20850000  0.75110000  0.00411000  1.0
  H  H115  1  0.29150000  0.24890000  0.50411000  1.0
  H  H116  1  0.79193000  0.13369000  0.49310000  1.0
  H  H117  1  0.70807000  0.86631000  0.99310000  1.0
  H  H118  1  0.20807000  0.63369000  0.00690000  1.0
  H  H119  1  0.29193000  0.36631000  0.50690000  1.0
  H  H120  1  0.66331000  0.18462000  0.41528000  1.0
  H  H121  1  0.83669000  0.81538000  0.91528000  1.0
  H  H122  1  0.33670000  0.68462000  0.08472000  1.0
  H  H123  1  0.16331000  0.31538000  0.58472000  1.0
  H  H124  1  0.53753000  0.29052000  0.45953000  1.0
  H  H125  1  0.96247000  0.70948000  0.95953000  1.0
  H  H126  1  0.46248000  0.79052000  0.04047000  1.0
  H  H127  1  0.03753000  0.20948000  0.54047000  1.0
  H  H128  1  0.65362000  0.33761000  0.45708000  1.0
  H  H129  1  0.84638000  0.66239000  0.95708000  1.0
  H  H130  1  0.34638000  0.83761000  0.04292000  1.0
  H  H131  1  0.15362000  0.16239000  0.54293000  1.0
  H  H132  1  0.51618000  0.12648000  0.46800000  1.0
  H  H133  1  0.98382000  0.87352000  0.96800000  1.0
  H  H134  1  0.48382000  0.62648000  0.03200000  1.0
  H  H135  1  0.01618000  0.37352000  0.53200000  1.0
  H  H136  1  0.66088000  0.35276000  0.57778000  1.0
  H  H137  1  0.83912000  0.64724000  0.07778000  1.0
  H  H138  1  0.33912000  0.85276000  0.92222000  1.0
  H  H139  1  0.16088000  0.14724000  0.42222000  1.0
  H  H140  1  0.53631000  0.32710000  0.57968000  1.0
  H  H141  1  0.96369000  0.67290000  0.07968000  1.0
  H  H142  1  0.46369000  0.82710000  0.92032000  1.0
  H  H143  1  0.03631000  0.17289000  0.42032000  1.0
  H  H144  1  0.38123000  0.05515000  0.00913000  1.0
  H  H145  1  0.11876000  0.94485000  0.50914000  1.0
  H  H146  1  0.61876000  0.55515000  0.49087000  1.0
  H  H147  1  0.88123000  0.44485000  0.99086000  1.0
  H  H148  1  0.43367000  0.12700000  0.90208000  1.0
  H  H149  1  0.06633000  0.87300000  0.40208000  1.0
  H  H150  1  0.56633000  0.62700000  0.59792000  1.0
  H  H151  1  0.93367000  0.37300000  0.09792000  1.0
  H  H152  1  0.49334000  0.97709000  0.92311000  1.0
  H  H153  1  0.00666000  0.02291000  0.42311000  1.0
  H  H154  1  0.50666000  0.47709000  0.57689000  1.0
  H  H155  1  0.99333000  0.52291000  0.07689000  1.0
  H  H156  1  0.50376000  0.93555000  0.00835000  1.0
  H  H157  1  0.99624000  0.06445000  0.50835000  1.0
  H  H158  1  0.49624000  0.43555000  0.49165000  1.0
  H  H159  1  0.00376000  0.56445000  0.99165000  1.0
  H  H160  1  0.63987000  0.60849000  0.69841000  1.0
  H  H161  1  0.86013000  0.39151000  0.19841000  1.0
  H  H162  1  0.36013000  0.10849000  0.80159000  1.0
  H  H163  1  0.13987000  0.89151000  0.30159000  1.0
  H  H164  1  0.58588000  0.50219000  0.68241000  1.0
  H  H165  1  0.91413000  0.49781000  0.18241000  1.0
  H  H166  1  0.41413000  0.00219000  0.81759000  1.0
  H  H167  1  0.08588000  0.99781000  0.31759000  1.0
  H  H168  1  0.71316000  0.52066000  0.66589000  1.0
  H  H169  1  0.78684000  0.47934000  0.16589000  1.0
  H  H170  1  0.28684000  0.02066000  0.83411000  1.0
  H  H171  1  0.21316000  0.97934000  0.33411000  1.0
  H  H172  1  0.52788000  0.30932000  0.81968000  1.0
  H  H173  1  0.97212000  0.69068000  0.31968000  1.0
  H  H174  1  0.47212000  0.80932000  0.68032000  1.0
  H  H175  1  0.02789000  0.19068000  0.18032000  1.0
  H  H176  1  0.41157000  0.26075000  0.81963000  1.0
  H  H177  1  0.08843000  0.73925000  0.31963000  1.0
  H  H178  1  0.58843000  0.76075000  0.68037000  1.0
  H  H179  1  0.91157000  0.23925000  0.18037000  1.0
  H  H180  1  0.50102000  0.36175000  0.69906000  1.0
  H  H181  1  0.99898000  0.63825000  0.19906000  1.0
  H  H182  1  0.49898000  0.86175000  0.80094000  1.0
  H  H183  1  0.00102000  0.13825000  0.30094000  1.0
  H  H184  1  0.32735000  0.36086000  0.65390000  1.0
  H  H185  1  0.17265000  0.63914000  0.15391000  1.0
  H  H186  1  0.67265000  0.86086000  0.84609000  1.0
  H  H187  1  0.82735000  0.13914000  0.34609000  1.0
  H  H188  1  0.29649000  0.28510000  0.72022000  1.0
  H  H189  1  0.20351000  0.71490000  0.22022000  1.0
  H  H190  1  0.70351000  0.78510000  0.77978000  1.0
  H  H191  1  0.79649000  0.21490000  0.27978000  1.0
  H  H192  1  0.38079000  0.25336000  0.65583000  1.0
  H  H193  1  0.11921000  0.74664000  0.15583000  1.0
  H  H194  1  0.61921000  0.75336000  0.84417000  1.0
  H  H195  1  0.88079000  0.24664000  0.34417000  1.0
  H  H196  1  0.54071000  0.14672000  0.79261000  1.0
  H  H197  1  0.95930000  0.85328000  0.29260000  1.0
  H  H198  1  0.45929000  0.64672000  0.70739000  1.0
  H  H199  1  0.04071000  0.35328000  0.20740000  1.0
  H  H200  1  0.57825000  0.21130000  0.72057000  1.0
  H  H201  1  0.92175000  0.78870000  0.22057000  1.0
  H  H202  1  0.42175000  0.71130000  0.77943000  1.0
  H  H203  1  0.07825000  0.28870000  0.27943000  1.0
  H  H204  1  0.46354000  0.15970000  0.72138000  1.0
  H  H205  1  0.03647000  0.84030000  0.22138000  1.0
  H  H206  1  0.53646000  0.65970000  0.77862000  1.0
  H  H207  1  0.96353000  0.34030000  0.27862000  1.0
  H  H208  1  0.46845000  0.45552000  0.80093000  1.0
  H  H209  1  0.03155000  0.54448000  0.30093000  1.0
  H  H210  1  0.53155000  0.95552000  0.69907000  1.0
  H  H211  1  0.96845000  0.04448000  0.19907000  1.0
  H  H212  1  0.34653000  0.41583000  0.80391000  1.0
  H  H213  1  0.15347000  0.58417000  0.30391000  1.0
  H  H214  1  0.65347000  0.91583000  0.69609000  1.0
  H  H215  1  0.84653000  0.08417000  0.19609000  1.0
  H  H216  1  0.34143000  0.54065000  0.74321000  1.0
  H  H217  1  0.15857000  0.45935000  0.24321000  1.0
  H  H218  1  0.65857000  0.04065000  0.75679000  1.0
  H  H219  1  0.84143000  0.95935000  0.25679000  1.0
  C  C220  1  0.67537000  0.13280000  0.11660000  1.0
  C  C221  1  0.82463000  0.86719000  0.61659000  1.0
  C  C222  1  0.32463000  0.63280000  0.38340000  1.0
  C  C223  1  0.17537000  0.36720000  0.88341000  1.0
  C  C224  1  0.79486000  0.21922000  0.70677000  1.0
  C  C225  1  0.70514000  0.78078000  0.20677000  1.0
  C  C226  1  0.20514000  0.71922000  0.79323000  1.0
  C  C227  1  0.29486000  0.28078000  0.29323000  1.0
  C  C228  1  0.60107000  0.14427000  0.05822000  1.0
  C  C229  1  0.89893000  0.85573000  0.55822000  1.0
  C  C230  1  0.39893000  0.64427000  0.44178000  1.0
  C  C231  1  0.10107000  0.35573000  0.94178000  1.0
  C  C232  1  0.57791000  0.16434000  0.93723000  1.0
  C  C233  1  0.92209000  0.83566000  0.43723000  1.0
  C  C234  1  0.42209000  0.66434000  0.56277000  1.0
  C  C235  1  0.07791000  0.33566000  0.06277000  1.0
  C  C236  1  0.58612000  0.28979000  0.26071000  1.0
  C  C237  1  0.91388000  0.71021000  0.76071000  1.0
  C  C238  1  0.41388000  0.78979000  0.23929000  1.0
  C  C239  1  0.08612000  0.21021000  0.73929000  1.0
  C  C240  1  0.82064000  0.13684000  0.73223000  1.0
  C  C241  1  0.67936000  0.86316000  0.23223000  1.0
  C  C242  1  0.17936000  0.63684000  0.76777000  1.0
  C  C243  1  0.32064000  0.36316000  0.26777000  1.0
  C  C244  1  0.62030000  0.26303000  0.19395000  1.0
  C  C245  1  0.87971000  0.73698000  0.69395000  1.0
  C  C246  1  0.37971000  0.76303000  0.30605000  1.0
  C  C247  1  0.12030000  0.23697000  0.80605000  1.0
  C  C248  1  0.63541000  0.17023000  0.18323000  1.0
  C  C249  1  0.86459000  0.82977000  0.68323000  1.0
  C  C250  1  0.36460000  0.67023000  0.31677000  1.0
  C  C251  1  0.13541000  0.32977000  0.81677000  1.0
  C  C252  1  0.61252000  0.11314000  0.23635000  1.0
  C  C253  1  0.88748000  0.88686000  0.73636000  1.0
  C  C254  1  0.38748000  0.61314000  0.26365000  1.0
  C  C255  1  0.11252000  0.38686000  0.76365000  1.0
  C  C256  1  0.80425000  0.23506000  0.63018000  1.0
  C  C257  1  0.69575000  0.76494000  0.13018000  1.0
  C  C258  1  0.19575000  0.73506000  0.86982000  1.0
  C  C259  1  0.30425000  0.26494000  0.36982000  1.0
  C  C260  1  0.50253000  0.09976000  0.07241000  1.0
  C  C261  1  0.99747000  0.90025000  0.57241000  1.0
  C  C262  1  0.49747000  0.59976000  0.42759000  1.0
  C  C263  1  0.00253000  0.40024000  0.92759000  1.0
  C  C264  1  0.81999000  0.12040000  0.80334000  1.0
  C  C265  1  0.68001000  0.87960000  0.30334000  1.0
  C  C266  1  0.18001000  0.62040000  0.69666000  1.0
  C  C267  1  0.31999000  0.37960000  0.19666000  1.0
  C  C268  1  0.76909000  0.26430000  0.82660000  1.0
  C  C269  1  0.73091000  0.73570000  0.32660000  1.0
  C  C270  1  0.23091000  0.76430000  0.67340000  1.0
  C  C271  1  0.26909000  0.23570000  0.17340000  1.0
  C  C272  1  0.62454000  0.01924000  0.97715000  1.0
  C  C273  1  0.87546000  0.98076000  0.47715000  1.0
  C  C274  1  0.37546000  0.51924000  0.52285000  1.0
  C  C275  1  0.12454000  0.48076000  0.02285000  1.0
  C  C276  1  0.63748000  0.32916000  0.14329000  1.0
  C  C277  1  0.86253000  0.67085000  0.64329000  1.0
  C  C278  1  0.36253000  0.82916000  0.35671000  1.0
  C  C279  1  0.13748000  0.17084000  0.85671000  1.0
  C  C280  1  0.76452000  0.28547000  0.75454000  1.0
  C  C281  1  0.73547000  0.71453000  0.25454000  1.0
  C  C282  1  0.23548000  0.78547000  0.74546000  1.0
  C  C283  1  0.26452000  0.21453000  0.24546000  1.0
  C  C284  1  0.72575000  0.18822000  0.58752000  1.0
  C  C285  1  0.77425000  0.81178000  0.08752000  1.0
  C  C286  1  0.27425000  0.68822000  0.91248000  1.0
  C  C287  1  0.22574000  0.31178000  0.41248000  1.0
  C  C288  1  0.71416000  0.41277000  0.85485000  1.0
  C  C289  1  0.78583000  0.58723000  0.35485000  1.0
  C  C290  1  0.28584000  0.91277000  0.64515000  1.0
  C  C291  1  0.21417000  0.08723000  0.14515000  1.0
  C  C292  1  0.73076000  0.37045000  0.73460000  1.0
  C  C293  1  0.76924000  0.62955000  0.23460000  1.0
  C  C294  1  0.26924000  0.87044000  0.76540000  1.0
  C  C295  1  0.23076000  0.12955000  0.26540000  1.0
  C  C296  1  0.70551000  0.43291000  0.78370000  1.0
  C  C297  1  0.79449000  0.56709000  0.28370000  1.0
  C  C298  1  0.29449000  0.93291000  0.71630000  1.0
  C  C299  1  0.20551000  0.06709000  0.21630000  1.0
  C  C300  1  0.57977000  0.14640000  0.29995000  1.0
  C  C301  1  0.92023000  0.85360000  0.79996000  1.0
  C  C302  1  0.42023000  0.64640000  0.20004000  1.0
  C  C303  1  0.07977000  0.35360000  0.70004000  1.0
  C  C304  1  0.56987000  0.38138000  0.27364000  1.0
  C  C305  1  0.93013000  0.61862000  0.77364000  1.0
  C  C306  1  0.43013000  0.88139000  0.22636000  1.0
  C  C307  1  0.06987000  0.11861000  0.72636000  1.0
  C  C308  1  0.74475000  0.33048000  0.87557000  1.0
  C  C309  1  0.75525000  0.66952000  0.37557000  1.0
  C  C310  1  0.25525000  0.83048000  0.62443000  1.0
  C  C311  1  0.24475000  0.16952000  0.12443000  1.0
  C  C312  1  0.55944000  0.15149000  0.57561000  1.0
  C  C313  1  0.94056000  0.84850000  0.07561000  1.0
  C  C314  1  0.44056000  0.65149000  0.92439000  1.0
  C  C315  1  0.05944000  0.34850000  0.42439000  1.0
  C  C316  1  0.61701000  0.41717000  0.15725000  1.0
  C  C317  1  0.88300000  0.58284000  0.65725000  1.0
  C  C318  1  0.38299000  0.91717000  0.34275000  1.0
  C  C319  1  0.11701000  0.08283000  0.84275000  1.0
  C  C320  1  0.58371000  0.44383000  0.22317000  1.0
  C  C321  1  0.91629000  0.55617000  0.72317000  1.0
  C  C322  1  0.41629000  0.94383000  0.27683000  1.0
  C  C323  1  0.08371000  0.05617000  0.77683000  1.0
  C  C324  1  0.65233000  0.46049000  0.04158000  1.0
  C  C325  1  0.84767000  0.53951000  0.54158000  1.0
  C  C326  1  0.34767000  0.96049000  0.45842000  1.0
  C  C327  1  0.15233000  0.03951000  0.95842000  1.0
  C  C328  1  0.74919000  0.19125000  0.50932000  1.0
  C  C329  1  0.75081000  0.80874000  0.00932000  1.0
  C  C330  1  0.25081000  0.69125000  0.99068000  1.0
  C  C331  1  0.24919000  0.30875000  0.49068000  1.0
  C  C332  1  0.65281000  0.19526000  0.47042000  1.0
  C  C333  1  0.84719000  0.80473000  0.97042000  1.0
  C  C334  1  0.34719000  0.69526000  0.02958000  1.0
  C  C335  1  0.15281000  0.30474000  0.52958000  1.0
  C  C336  1  0.60942000  0.28723000  0.48338000  1.0
  C  C337  1  0.89058000  0.71277000  0.98338000  1.0
  C  C338  1  0.39058000  0.78722000  0.01662000  1.0
  C  C339  1  0.10943000  0.21277000  0.51662000  1.0
  C  C340  1  0.58212000  0.12472000  0.49996000  1.0
  C  C341  1  0.91788000  0.87528000  0.99996000  1.0
  C  C342  1  0.41788000  0.62472000  0.00004000  1.0
  C  C343  1  0.08212000  0.37528000  0.50004000  1.0
  C  C344  1  0.62375000  0.03133000  0.49178000  1.0
  C  C345  1  0.87625000  0.96867000  0.99178000  1.0
  C  C346  1  0.37625000  0.53133000  0.00822000  1.0
  C  C347  1  0.12375000  0.46867000  0.50822000  1.0
  C  C348  1  0.60719000  0.30262000  0.56242000  1.0
  C  C349  1  0.89280000  0.69737000  0.06242000  1.0
  C  C350  1  0.39281000  0.80262000  0.93758000  1.0
  C  C351  1  0.10719000  0.19738000  0.43758000  1.0
  C  C352  1  0.45810000  0.07239000  0.00314000  1.0
  C  C353  1  0.04190000  0.92761000  0.50314000  1.0
  C  C354  1  0.54190000  0.57239000  0.49686000  1.0
  C  C355  1  0.95810000  0.42761000  0.99686000  1.0
  C  C356  1  0.46848000  0.14858000  0.95000000  1.0
  C  C357  1  0.03152000  0.85142000  0.45000000  1.0
  C  C358  1  0.53152000  0.64858000  0.55000000  1.0
  C  C359  1  0.96848000  0.35142000  0.05000000  1.0
  C  C360  1  0.51637000  0.99381000  0.97567000  1.0
  C  C361  1  0.98363000  0.00619000  0.47567000  1.0
  C  C362  1  0.48363000  0.49381000  0.52433000  1.0
  C  C363  1  0.01637000  0.50619000  0.02432000  1.0
  C  C364  1  0.41236000  0.22895000  0.97545000  1.0
  C  C365  1  0.08764000  0.77105000  0.47545000  1.0
  C  C366  1  0.58764000  0.72895000  0.52455000  1.0
  C  C367  1  0.91236000  0.27105000  0.02455000  1.0
  C  C368  1  0.65181000  0.53695000  0.69946000  1.0
  C  C369  1  0.84819000  0.46305000  0.19946000  1.0
  C  C370  1  0.34819000  0.03695000  0.80054000  1.0
  C  C371  1  0.15181000  0.96305000  0.30054000  1.0
  C  C372  1  0.47350000  0.27779000  0.78606000  1.0
  C  C373  1  0.02650000  0.72222000  0.28606000  1.0
  C  C374  1  0.52650000  0.77778000  0.71394000  1.0
  C  C375  1  0.97350000  0.22221000  0.21394000  1.0
  C  C376  1  0.43866000  0.34555000  0.73251000  1.0
  C  C377  1  0.06134000  0.65445000  0.23251000  1.0
  C  C378  1  0.56134000  0.84555000  0.76749000  1.0
  C  C379  1  0.93866000  0.15445000  0.26749000  1.0
  C  C380  1  0.35646000  0.30912000  0.68781000  1.0
  C  C381  1  0.14354000  0.69088000  0.18781000  1.0
  C  C382  1  0.64354000  0.80912000  0.81219000  1.0
  C  C383  1  0.85646000  0.19088000  0.31219000  1.0
  C  C384  1  0.51650000  0.19453000  0.75379000  1.0
  C  C385  1  0.98350000  0.80547000  0.25378000  1.0
  C  C386  1  0.48350000  0.69453000  0.74621000  1.0
  C  C387  1  0.01650000  0.30547000  0.24622000  1.0
  C  C388  1  0.40783000  0.43021000  0.76924000  1.0
  C  C389  1  0.09217000  0.56979000  0.26924000  1.0
  C  C390  1  0.59217000  0.93021000  0.73076000  1.0
  C  C391  1  0.90783000  0.06979000  0.23076000  1.0
  N  N392  1  0.79647000  0.18216000  0.84940000  1.0
  N  N393  1  0.70353000  0.81783000  0.34940000  1.0
  N  N394  1  0.20353000  0.68216000  0.65060000  1.0
  N  N395  1  0.29647000  0.31784000  0.15060000  1.0
  N  N396  1  0.56848000  0.23178000  0.31292000  1.0
  N  N397  1  0.93153000  0.76822000  0.81292000  1.0
  N  N398  1  0.43152000  0.73178000  0.18708000  1.0
  N  N399  1  0.06848000  0.26822000  0.68708000  1.0
  N  N400  1  0.62686000  0.22022000  0.60054000  1.0
  N  N401  1  0.87314000  0.77978000  0.10054000  1.0
  N  N402  1  0.37314000  0.72022000  0.89946000  1.0
  N  N403  1  0.12686000  0.27978000  0.39946000  1.0
  N  N404  1  0.63824000  0.11638000  0.98877000  1.0
  N  N405  1  0.86176000  0.88362000  0.48877000  1.0
  N  N406  1  0.36176000  0.61638000  0.51123000  1.0
  N  N407  1  0.13824000  0.38362000  0.01123000  1.0
  O  O408  1  0.70138000  0.04212000  0.12695000  1.0
  O  O409  1  0.79862000  0.95788000  0.62695000  1.0
  O  O410  1  0.29862000  0.54212000  0.37305000  1.0
  O  O411  1  0.20138000  0.45788000  0.87305000  1.0
  O  O412  1  0.62942000  0.48501000  0.11098000  1.0
  O  O413  1  0.87058000  0.51499000  0.61098000  1.0
  O  O414  1  0.37058000  0.98501000  0.38902000  1.0
  O  O415  1  0.12942000  0.01499000  0.88902000  1.0
  O  O416  1  0.67201000  0.51566000  0.76986000  1.0
  O  O417  1  0.82799000  0.48434000  0.26987000  1.0
  O  O418  1  0.32799000  0.01566000  0.73013000  1.0
  O  O419  1  0.17201000  0.98434000  0.23013000  1.0
  O  O420  1  0.89567000  0.19743000  0.61034000  1.0
  O  O421  1  0.60433000  0.80257000  0.11034000  1.0
  O  O422  1  0.10433000  0.69743000  0.88966000  1.0
  O  O423  1  0.39567000  0.30257000  0.38966000  1.0
  O  O424  1  0.64601000  0.98520000  0.54468000  1.0
  O  O425  1  0.85399000  0.01480000  0.04469000  1.0
  O  O426  1  0.35398000  0.48520000  0.95532000  1.0
  O  O427  1  0.14601000  0.51480000  0.45531000  1.0
  O  O428  1  0.63515000  0.00175000  0.43082000  1.0
  O  O429  1  0.86485000  0.99824000  0.93082000  1.0
  O  O430  1  0.36486000  0.50176000  0.06918000  1.0
  O  O431  1  0.13514000  0.49825000  0.56918000  1.0
  O  O432  1  0.31959000  0.22519000  0.97117000  1.0
  O  O433  1  0.18041000  0.77481000  0.47116000  1.0
  O  O434  1  0.68041000  0.72519000  0.52884000  1.0
  O  O435  1  0.81959000  0.27481000  0.02884000  1.0
  O  O436  1  0.45609000  0.29411000  0.00290000  1.0
  O  O437  1  0.04391000  0.70589000  0.50290000  1.0
  O  O438  1  0.54391000  0.79411000  0.49710000  1.0
  O  O439  1  0.95609000  0.20589000  0.99710000  1.0
  O  O440  1  0.37943000  0.49590000  0.71927000  1.0
  O  O441  1  0.12057000  0.50410000  0.21927000  1.0
  O  O442  1  0.62058000  0.99589000  0.78073000  1.0
  O  O443  1  0.87943000  0.00410000  0.28073000  1.0
