# generated using pymatgen
data_Cd3H12(C4N11)2
_symmetry_space_group_name_H-M   'P 1'
_cell_length_a   8.24362000
_cell_length_b   9.75752000
_cell_length_c   14.32780000
_cell_angle_alpha   81.94720000
_cell_angle_beta   73.28720000
_cell_angle_gamma   65.01260000
_symmetry_Int_Tables_number   1
_chemical_formula_structural   Cd3H12(C4N11)2
_chemical_formula_sum   'Cd6 H24 C16 N44'
_cell_volume   1000.26084969
_cell_formula_units_Z   2
loop_
 _symmetry_equiv_pos_site_id
 _symmetry_equiv_pos_as_xyz
  1  'x, y, z'
loop_
 _atom_site_type_symbol
 _atom_site_label
 _atom_site_symmetry_multiplicity
 _atom_site_fract_x
 _atom_site_fract_y
 _atom_site_fract_z
 _atom_site_occupancy
  Cd  Cd0  1  0.97259000  0.96087000  0.87319000  1.0
  Cd  Cd1  1  0.80665000  0.53910000  0.62680000  1.0
  Cd  Cd2  1  0.02741000  0.03912000  0.12681000  1.0
  Cd  Cd3  1  0.19335000  0.46091000  0.37319000  1.0
  Cd  Cd4  1  0.58171000  0.24996000  0.75000000  1.0
  Cd  Cd5  1  0.41829000  0.75004000  0.25000000  1.0
  H  H6  1  0.50232000  0.78478000  0.01482000  1.0
  H  H7  1  0.30203000  0.71518000  0.48517000  1.0
  H  H8  1  0.49768000  0.21521000  0.98517000  1.0
  H  H9  1  0.69796000  0.28482000  0.51484000  1.0
  H  H10  1  0.66513000  0.80887000  0.91519000  1.0
  H  H11  1  0.38926000  0.69109000  0.58483000  1.0
  H  H12  1  0.33487000  0.19112000  0.08481000  1.0
  H  H13  1  0.61074000  0.30891000  0.41517000  1.0
  H  H14  1  0.68331000  0.87482000  0.52609000  1.0
  H  H15  1  0.08425000  0.62519000  0.97385000  1.0
  H  H16  1  0.31670000  0.12518000  0.47391000  1.0
  H  H17  1  0.91576000  0.37481000  0.02615000  1.0
  H  H18  1  0.64199000  0.05437000  0.54338000  1.0
  H  H19  1  0.23968000  0.44567000  0.95660000  1.0
  H  H20  1  0.35802000  0.94564000  0.45662000  1.0
  H  H21  1  0.76033000  0.55432000  0.04340000  1.0
  H  H22  1  0.70788000  0.90955000  0.25344000  1.0
  H  H23  1  0.87099000  0.59044000  0.24655000  1.0
  H  H24  1  0.29210000  0.09045000  0.74656000  1.0
  H  H25  1  0.12900000  0.40955000  0.75345000  1.0
  H  H26  1  0.95091000  0.65693000  0.79100000  1.0
  H  H27  1  0.39908000  0.84299000  0.70899000  1.0
  H  H28  1  0.04910000  0.34307000  0.20900000  1.0
  H  H29  1  0.60092000  0.15701000  0.29101000  1.0
  C  C30  1  0.72222000  0.89590000  0.17718000  1.0
  C  C31  1  0.79527000  0.60413000  0.32280000  1.0
  C  C32  1  0.27777000  0.10409000  0.82283000  1.0
  C  C33  1  0.20473000  0.39587000  0.67720000  1.0
  C  C34  1  0.69181000  0.83777000  0.04704000  1.0
  C  C35  1  0.57669000  0.66217000  0.45295000  1.0
  C  C36  1  0.30819000  0.16223000  0.95297000  1.0
  C  C37  1  0.42331000  0.33783000  0.54705000  1.0
  C  C38  1  0.87947000  0.75673000  0.75086000  1.0
  C  C39  1  0.38704000  0.74324000  0.74908000  1.0
  C  C40  1  0.12054000  0.24327000  0.24913000  1.0
  C  C41  1  0.61296000  0.25676000  0.25093000  1.0
  C  C42  1  0.73545000  0.90340000  0.64915000  1.0
  C  C43  1  0.28813000  0.59661000  0.85084000  1.0
  C  C44  1  0.26455000  0.09660000  0.35085000  1.0
  C  C45  1  0.71187000  0.40339000  0.14917000  1.0
  N  N46  1  0.82452000  0.89208000  0.01938000  1.0
  N  N47  1  0.73607000  0.60785000  0.48059000  1.0
  N  N48  1  0.17548000  0.10791000  0.98062000  1.0
  N  N49  1  0.26392000  0.39216000  0.51941000  1.0
  N  N50  1  0.84144000  0.93044000  0.10487000  1.0
  N  N51  1  0.87676000  0.56957000  0.39509000  1.0
  N  N52  1  0.15855000  0.06956000  0.89514000  1.0
  N  N53  1  0.12324000  0.43043000  0.60491000  1.0
  N  N54  1  0.62630000  0.83697000  0.14516000  1.0
  N  N55  1  0.60841000  0.66302000  0.35483000  1.0
  N  N56  1  0.37370000  0.16303000  0.85484000  1.0
  N  N57  1  0.39159000  0.33698000  0.64517000  1.0
  N  N58  1  0.63416000  0.77963000  0.98709000  1.0
  N  N59  1  0.40099000  0.72031000  0.51292000  1.0
  N  N60  1  0.36584000  0.22036000  0.01290000  1.0
  N  N61  1  0.59901000  0.27969000  0.48708000  1.0
  N  N62  1  0.84450000  0.89651000  0.77202000  1.0
  N  N63  1  0.51299000  0.60349000  0.72795000  1.0
  N  N64  1  0.15551000  0.10349000  0.22798000  1.0
  N  N65  1  0.48701000  0.39651000  0.27205000  1.0
  N  N66  1  0.75131000  0.99268000  0.70634000  1.0
  N  N67  1  0.45041000  0.50732000  0.79369000  1.0
  N  N68  1  0.24870000  0.00732000  0.29366000  1.0
  N  N69  1  0.54959000  0.49268000  0.20631000  1.0
  N  N70  1  0.81334000  0.75433000  0.67516000  1.0
  N  N71  1  0.24285000  0.74567000  0.82481000  1.0
  N  N72  1  0.18667000  0.24567000  0.32484000  1.0
  N  N73  1  0.75715000  0.25433000  0.17519000  1.0
  N  N74  1  0.64392000  0.95388000  0.57672000  1.0
  N  N75  1  0.17453000  0.54614000  0.92324000  1.0
  N  N76  1  0.35609000  0.04612000  0.42328000  1.0
  N  N77  1  0.82548000  0.45386000  0.07676000  1.0
  N  N78  1  0.74444000  0.21500000  0.87503000  1.0
  N  N79  1  0.83446000  0.28489000  0.62497000  1.0
  N  N80  1  0.25555000  0.78500000  0.12498000  1.0
  N  N81  1  0.16553000  0.71511000  0.37502000  1.0
  N  N82  1  0.79621000  0.31641000  0.86507000  1.0
  N  N83  1  0.97768000  0.18352000  0.63496000  1.0
  N  N84  1  0.20379000  0.68358000  0.13493000  1.0
  N  N85  1  0.02231000  0.81649000  0.36504000  1.0
  N  N86  1  0.84390000  0.41549000  0.85492000  1.0
  N  N87  1  0.11430000  0.08449000  0.64515000  1.0
  N  N88  1  0.15610000  0.58451000  0.14509000  1.0
  N  N89  1  0.88570000  0.91552000  0.35484000  1.0
