# generated using pymatgen
data_Zn2H25C37N8O3
_symmetry_space_group_name_H-M   'P 1'
_cell_length_a   19.63380000
_cell_length_b   19.68750000
_cell_length_c   20.02440000
_cell_angle_alpha   68.74400000
_cell_angle_beta   73.69500000
_cell_angle_gamma   111.08100000
_symmetry_Int_Tables_number   1
_chemical_formula_structural   Zn2H25C37N8O3
_chemical_formula_sum   'Zn4 H50 C74 N16 O6'
_cell_volume   5931.02759643
_cell_formula_units_Z   2
loop_
 _symmetry_equiv_pos_site_id
 _symmetry_equiv_pos_as_xyz
  1  'x, y, z'
loop_
 _atom_site_type_symbol
 _atom_site_label
 _atom_site_symmetry_multiplicity
 _atom_site_fract_x
 _atom_site_fract_y
 _atom_site_fract_z
 _atom_site_occupancy
  Zn  Zn0  1  0.10268000  0.60979000  0.99799000  1.0
  Zn  Zn1  1  0.88828000  0.38937000  1.00000000  1.0
  Zn  Zn2  1  0.98634000  0.59833000  0.90623000  1.0
  Zn  Zn3  1  0.00248000  0.40114000  0.09228000  1.0
  H  H4  1  0.99394000  0.64952000  0.45213000  1.0
  H  H5  1  0.06992000  0.19656000  0.78087000  1.0
  H  H6  1  0.24612000  0.22633000  0.87306000  1.0
  H  H7  1  0.07435000  0.07451000  0.77576000  1.0
  H  H8  1  0.72127000  0.19207000  0.14715000  1.0
  H  H9  1  0.26282000  0.63687000  0.86303000  1.0
  H  H10  1  0.85591000  0.62338000  0.02193000  1.0
  H  H11  1  0.12857000  0.36749000  0.16442000  1.0
  H  H12  1  0.86380000  0.35740000  0.25651000  1.0
  H  H13  1  0.96811000  0.64193000  0.73603000  1.0
  H  H14  1  0.71835000  0.34835000  0.13830000  1.0
  H  H15  1  0.80279000  0.35268000  0.54318000  1.0
  H  H16  1  0.25879000  0.64204000  0.04800000  1.0
  H  H17  1  0.99983000  0.63271000  0.13469000  1.0
  H  H18  1  0.85844000  0.36907000  0.85077000  1.0
  H  H19  1  0.88056000  0.20526000  0.25991000  1.0
  H  H20  1  0.10368000  0.60871000  0.74988000  1.0
  H  H21  1  0.02131000  0.79561000  0.83029000  1.0
  H  H22  1  0.15489000  0.39888000  0.97546000  1.0
  H  H23  1  0.84545000  0.59167000  0.44110000  1.0
  H  H24  1  0.95127000  0.41075000  0.55426000  1.0
  H  H25  1  0.21298000  0.87968000  0.92999000  1.0
  H  H26  1  0.49994000  0.95029000  0.36800000  1.0
  H  H27  1  0.00063000  0.30855000  0.84705000  1.0
  H  H28  1  0.67256000  0.36734000  0.59580000  1.0
  H  H29  1  0.68934000  0.47233000  0.55435000  1.0
  H  H30  1  0.61358000  0.44133000  0.69618000  1.0
  H  H31  1  0.54931000  0.36821000  0.67690000  1.0
  H  H32  1  0.59614000  0.33630000  0.73716000  1.0
  H  H33  1  0.10484000  0.52383000  0.44321000  1.0
  H  H34  1  0.12369000  0.62946000  0.40502000  1.0
  H  H35  1  0.20379000  0.66618000  0.26224000  1.0
  H  H36  1  0.24663000  0.62820000  0.32440000  1.0
  H  H37  1  0.50099000  0.78456000  0.62287000  1.0
  H  H38  1  0.18416000  0.56053000  0.29943000  1.0
  H  H39  1  0.44355000  0.66832000  0.21245000  1.0
  H  H40  1  0.36067000  0.59466000  0.20894000  1.0
  H  H41  1  0.38819000  0.71023000  0.08055000  1.0
  H  H42  1  0.37184000  0.73752000  0.15710000  1.0
  H  H43  1  0.47415000  0.78540000  0.07895000  1.0
  H  H44  1  0.55161000  0.37676000  0.10295000  1.0
  H  H45  1  0.44536000  0.31322000  0.13046000  1.0
  H  H46  1  0.43716000  0.18679000  0.23657000  1.0
  H  H47  1  0.51396000  0.22757000  0.13685000  1.0
  H  H48  1  0.36900000  0.82351000  0.48685000  1.0
  H  H49  1  0.54368000  0.25089000  0.20605000  1.0
  H  H50  1  0.63206000  0.91127000  0.50408000  1.0
  H  H51  1  0.59888000  0.62127000  0.12590000  1.0
  H  H52  1  0.34371000  0.35856000  0.21561000  1.0
  H  H53  1  0.25093000  0.10445000  0.86746000  1.0
  C  C54  1  0.13869000  0.79638000  0.91886000  1.0
  C  C55  1  0.97316000  0.52854000  0.43901000  1.0
  C  C56  1  0.86880000  0.55156000  0.46674000  1.0
  C  C57  1  0.92784000  0.45070000  0.52847000  1.0
  C  C58  1  0.89240000  0.48934000  0.30395000  1.0
  C  C59  1  0.91388000  0.51104000  0.68971000  1.0
  C  C60  1  0.84514000  0.41844000  0.52361000  1.0
  C  C61  1  0.95153000  0.58381000  0.47165000  1.0
  C  C62  1  0.88944000  0.49581000  0.43355000  1.0
  C  C63  1  0.90713000  0.50646000  0.56173000  1.0
  C  C64  1  0.88504000  0.49115000  0.36580000  1.0
  C  C65  1  0.01718000  0.35737000  0.91081000  1.0
  C  C66  1  0.91345000  0.51046000  0.62907000  1.0
  C  C67  1  0.42683000  0.84238000  0.49015000  1.0
  C  C68  1  0.57448000  0.89173000  0.50028000  1.0
  C  C69  1  0.77118000  0.20919000  0.16264000  1.0
  C  C70  1  0.21238000  0.62471000  0.84798000  1.0
  C  C71  1  0.42556000  0.79542000  0.56365000  1.0
  C  C72  1  0.57519000  0.94044000  0.42779000  1.0
  C  C73  1  0.50124000  0.82074000  0.56667000  1.0
  C  C74  1  0.49998000  0.91342000  0.42382000  1.0
  C  C75  1  0.35008000  0.72931000  0.63455000  1.0
  C  C76  1  0.77254000  0.16280000  0.23453000  1.0
  C  C77  1  0.64780000  0.01609000  0.36114000  1.0
  C  C78  1  0.70761000  0.08381000  0.30303000  1.0
  C  C79  1  0.28521000  0.68036000  0.69835000  1.0
  C  C80  1  0.54291000  0.56312000  0.14652000  1.0
  C  C81  1  0.39930000  0.41604000  0.19696000  1.0
  C  C82  1  0.54346000  0.48685000  0.16713000  1.0
  C  C83  1  0.40037000  0.49352000  0.17099000  1.0
  C  C84  1  0.46884000  0.41213000  0.19513000  1.0
  C  C85  1  0.47326000  0.56726000  0.14812000  1.0
  C  C86  1  0.61716000  0.48513000  0.15459000  1.0
  C  C87  1  0.21397000  0.63708000  0.77340000  1.0
  C  C88  1  0.33381000  0.49770000  0.15990000  1.0
  C  C89  1  0.27994000  0.50116000  0.14221000  1.0
  C  C90  1  0.68109000  0.48347000  0.13443000  1.0
  C  C91  1  0.20896000  0.19322000  0.85133000  1.0
  C  C92  1  0.11215000  0.10815000  0.79672000  1.0
  C  C93  1  0.83440000  0.55681000  0.04243000  1.0
  C  C94  1  0.15014000  0.43487000  0.13132000  1.0
  C  C95  1  0.15546000  0.21840000  0.83018000  1.0
  C  C96  1  0.16068000  0.07882000  0.82398000  1.0
  C  C97  1  0.10973000  0.17651000  0.79966000  1.0
  C  C98  1  0.75465000  0.48464000  0.09930000  1.0
  C  C99  1  0.21146000  0.12489000  0.84832000  1.0
  C  C100  1  0.14237000  0.27802000  0.84643000  1.0
  C  C101  1  0.15273000  0.00148000  0.83276000  1.0
  C  C102  1  0.13566000  0.92938000  0.84878000  1.0
  C  C103  1  0.12371000  0.31924000  0.87327000  1.0
  C  C104  1  0.90323000  0.42558000  0.21414000  1.0
  C  C105  1  0.94104000  0.57430000  0.77660000  1.0
  C  C106  1  0.76399000  0.41599000  0.10185000  1.0
  C  C107  1  0.21678000  0.57528000  0.07188000  1.0
  C  C108  1  0.97258000  0.56647000  0.15153000  1.0
  C  C109  1  0.21986000  0.50380000  0.11820000  1.0
  C  C110  1  0.88427000  0.43470000  0.83566000  1.0
  C  C111  1  0.85244000  0.21563000  0.22048000  1.0
  C  C112  1  0.13117000  0.61059000  0.78973000  1.0
  C  C113  1  0.05668000  0.78604000  0.86209000  1.0
  C  C114  1  0.10561000  0.38870000  0.95879000  1.0
  C  C115  1  0.11289000  0.84502000  0.87243000  1.0
  C  C116  1  0.08945000  0.35629000  0.90908000  1.0
  C  C117  1  0.67984000  0.41917000  0.60816000  1.0
  C  C118  1  0.60524000  0.38946000  0.68420000  1.0
  C  C119  1  0.11620000  0.57924000  0.39014000  1.0
  C  C120  1  0.91607000  0.49271000  0.22903000  1.0
  C  C121  1  0.19213000  0.61032000  0.31449000  1.0
  C  C122  1  0.42094000  0.65455000  0.17159000  1.0
  C  C123  1  0.41346000  0.72628000  0.11874000  1.0
  C  C124  1  0.49122000  0.32083000  0.15316000  1.0
  C  C125  1  0.49681000  0.24174000  0.18516000  1.0
  C  C126  1  0.91319000  0.50759000  0.76137000  1.0
  C  C127  1  0.82366000  0.47374000  0.55636000  1.0
  N  N128  1  0.10154000  0.71672000  0.93457000  1.0
  N  N129  1  0.15110000  0.55046000  0.05871000  1.0
  N  N130  1  0.99272000  0.54416000  0.09623000  1.0
  N  N131  1  0.89423000  0.45642000  0.88998000  1.0
  N  N132  1  0.89437000  0.28675000  0.14672000  1.0
  N  N133  1  0.08550000  0.58685000  0.86706000  1.0
  N  N134  1  0.05023000  0.71038000  0.89871000  1.0
  N  N135  1  0.04783000  0.40663000  0.98684000  1.0
  N  N136  1  0.99339000  0.38798000  0.95650000  1.0
  N  N137  1  0.84377000  0.28258000  0.11086000  1.0
  N  N138  1  0.13545000  0.59557000  0.90249000  1.0
  N  N139  1  0.88532000  0.53229000  0.01296000  1.0
  N  N140  1  0.10960000  0.46319000  0.09571000  1.0
  N  N141  1  0.95035000  0.45769000  0.13451000  1.0
  N  N142  1  0.92961000  0.54339000  0.85332000  1.0
  N  N143  1  0.84233000  0.44610000  0.04930000  1.0
  O  O144  1  0.19220000  0.81976000  0.94764000  1.0
  O  O145  1  0.97325000  0.33012000  0.87528000  1.0
  O  O146  1  0.75139000  0.44712000  0.62045000  1.0
  O  O147  1  0.04596000  0.55511000  0.37537000  1.0
  O  O148  1  0.48082000  0.64583000  0.11910000  1.0
  O  O149  1  0.46568000  0.33538000  0.21931000  1.0
