# generated using pymatgen
data_MnH20C18N2ClO4
_symmetry_space_group_name_H-M   'P 1'
_cell_length_a   9.58460000
_cell_length_b   9.75622000
_cell_length_c   9.76503000
_cell_angle_alpha   82.28010000
_cell_angle_beta   77.62280000
_cell_angle_gamma   77.83830000
_symmetry_Int_Tables_number   1
_chemical_formula_structural   MnH20C18N2ClO4
_chemical_formula_sum   'Mn2 H40 C36 N4 Cl2 O8'
_cell_volume   868.07206613
_cell_formula_units_Z   2
loop_
 _symmetry_equiv_pos_site_id
 _symmetry_equiv_pos_as_xyz
  1  'x, y, z'
loop_
 _atom_site_type_symbol
 _atom_site_label
 _atom_site_symmetry_multiplicity
 _atom_site_fract_x
 _atom_site_fract_y
 _atom_site_fract_z
 _atom_site_occupancy
  Mn  Mn0  1  0.99988000  0.00005000  0.99995000  1.0
  Mn  Mn1  1  0.49969000  0.99991000  0.00009000  1.0
  H  H2  1  0.08489000  0.37342000  0.83246000  1.0
  H  H3  1  0.41540000  0.16493000  0.62694000  1.0
  H  H4  1  0.91512000  0.62658000  0.16754000  1.0
  H  H5  1  0.58468000  0.83507000  0.37305000  1.0
  H  H6  1  0.10421000  0.40533000  0.58460000  1.0
  H  H7  1  0.39415000  0.41556000  0.59479000  1.0
  H  H8  1  0.89579000  0.59466000  0.41540000  1.0
  H  H9  1  0.60585000  0.58444000  0.40522000  1.0
  H  H10  1  0.17069000  0.30191000  0.35344000  1.0
  H  H11  1  0.32978000  0.64628000  0.69828000  1.0
  H  H12  1  0.82931000  0.69809000  0.64656000  1.0
  H  H13  1  0.67022000  0.35371000  0.30171000  1.0
  H  H14  1  0.20528000  0.04449000  0.34465000  1.0
  H  H15  1  0.29653000  0.65554000  0.95545000  1.0
  H  H16  1  0.79472000  0.95551000  0.65535000  1.0
  H  H17  1  0.70347000  0.34446000  0.04455000  1.0
  H  H18  1  0.13511000  0.82462000  0.38552000  1.0
  H  H19  1  0.36601000  0.61452000  0.17467000  1.0
  H  H20  1  0.86489000  0.17537000  0.61449000  1.0
  H  H21  1  0.63399000  0.38549000  0.82533000  1.0
  H  H22  1  0.22981000  0.67783000  0.48197000  1.0
  H  H23  1  0.27074000  0.51839000  0.32195000  1.0
  H  H24  1  0.77019000  0.32217000  0.51803000  1.0
  H  H25  1  0.72926000  0.48162000  0.67805000  1.0
  H  H26  1  0.32224000  0.81501000  0.38934000  1.0
  H  H27  1  0.17861000  0.61100000  0.18524000  1.0
  H  H28  1  0.67776000  0.18499000  0.61066000  1.0
  H  H29  1  0.82139000  0.38900000  0.81476000  1.0
  H  H30  1  0.12488000  0.21657000  0.13827000  1.0
  H  H31  1  0.37521000  0.86173000  0.78344000  1.0
  H  H32  1  0.87513000  0.78343000  0.86173000  1.0
  H  H33  1  0.62478000  0.13823000  0.21653000  1.0
  H  H34  1  0.93319000  0.26842000  0.16213000  1.0
  H  H35  1  0.56687000  0.83706000  0.73370000  1.0
  H  H36  1  0.06681000  0.73158000  0.83786000  1.0
  H  H37  1  0.43312000  0.16296000  0.26631000  1.0
  H  H38  1  0.04867000  0.38156000  0.05438000  1.0
  H  H39  1  0.45433000  0.94565000  0.61906000  1.0
  H  H40  1  0.95133000  0.61844000  0.94563000  1.0
  H  H41  1  0.54567000  0.05435000  0.38093000  1.0
  C  C42  1  0.07038000  0.26370000  0.83942000  1.0
  C  C43  1  0.43010000  0.15951000  0.73624000  1.0
  C  C44  1  0.92964000  0.73630000  0.16058000  1.0
  C  C45  1  0.56987000  0.84048000  0.26378000  1.0
  C  C46  1  0.09595000  0.20407000  0.70757000  1.0
  C  C47  1  0.40357000  0.29198000  0.79544000  1.0
  C  C48  1  0.90405000  0.79593000  0.29244000  1.0
  C  C49  1  0.59640000  0.70801000  0.20457000  1.0
  C  C50  1  0.11736000  0.29204000  0.57978000  1.0
  C  C51  1  0.38153000  0.41989000  0.70810000  1.0
  C  C52  1  0.88263000  0.70796000  0.42022000  1.0
  C  C53  1  0.61847000  0.58010000  0.29191000  1.0
  C  C54  1  0.15474000  0.23479000  0.45190000  1.0
  C  C55  1  0.34486000  0.54787000  0.76551000  1.0
  C  C56  1  0.84526000  0.76521000  0.54810000  1.0
  C  C57  1  0.65515000  0.45212000  0.23449000  1.0
  C  C58  1  0.17544000  0.08794000  0.44652000  1.0
  C  C59  1  0.32472000  0.55365000  0.91221000  1.0
  C  C60  1  0.82456000  0.91206000  0.55349000  1.0
  C  C61  1  0.67529000  0.44635000  0.08779000  1.0
  C  C62  1  0.15696000  0.99934000  0.57033000  1.0
  C  C63  1  0.34279000  0.42973000  0.00054000  1.0
  C  C64  1  0.84304000  0.00066000  0.42968000  1.0
  C  C65  1  0.65722000  0.57027000  0.99946000  1.0
  C  C66  1  0.11273000  0.05646000  0.70361000  1.0
  C  C67  1  0.38736000  0.29638000  0.94316000  1.0
  C  C68  1  0.88728000  0.94353000  0.29639000  1.0
  C  C69  1  0.61263000  0.70362000  0.05685000  1.0
  C  C70  1  0.21852000  0.79107000  0.45075000  1.0
  C  C71  1  0.28220000  0.54936000  0.20869000  1.0
  C  C72  1  0.78149000  0.20893000  0.54924000  1.0
  C  C73  1  0.71780000  0.45064000  0.79131000  1.0
  C  C74  1  0.03500000  0.27209000  0.08657000  1.0
  C  C75  1  0.46598000  0.91322000  0.72892000  1.0
  C  C76  1  0.96500000  0.72791000  0.91343000  1.0
  C  C77  1  0.53399000  0.08677000  0.27107000  1.0
  N  N78  1  0.03840000  0.19949000  0.96439000  1.0
  N  N79  1  0.46272000  0.03517000  0.80257000  1.0
  N  N80  1  0.96162000  0.80051000  0.03561000  1.0
  N  N81  1  0.53713000  0.96481000  0.19748000  1.0
  Cl  Cl82  1  0.74456000  0.08447000  0.91256000  1.0
  Cl  Cl83  1  0.25599000  0.91567000  0.08730000  1.0
  O  O84  1  0.09474000  0.96747000  0.81638000  1.0
  O  O85  1  0.40630000  0.18337000  0.03182000  1.0
  O  O86  1  0.90531000  0.03252000  0.18363000  1.0
  O  O87  1  0.59365000  0.81665000  0.96820000  1.0
  O  O88  1  0.17742000  0.85635000  0.57967000  1.0
  O  O89  1  0.32206000  0.42048000  0.14359000  1.0
  O  O90  1  0.82258000  0.14365000  0.42033000  1.0
  O  O91  1  0.67795000  0.57953000  0.85641000  1.0
