# generated using pymatgen
data_CuH18C30(NO2)4
_symmetry_space_group_name_H-M   'P 1'
_cell_length_a   14.78490000
_cell_length_b   16.68750000
_cell_length_c   17.79231466
_cell_angle_alpha   62.04099142
_cell_angle_beta   65.44109197
_cell_angle_gamma   90.00040000
_symmetry_Int_Tables_number   1
_chemical_formula_structural   CuH18C30(NO2)4
_chemical_formula_sum   'Cu4 H72 C120 N16 O32'
_cell_volume   3421.31935936
_cell_formula_units_Z   4
loop_
 _symmetry_equiv_pos_site_id
 _symmetry_equiv_pos_as_xyz
  1  'x, y, z'
loop_
 _atom_site_type_symbol
 _atom_site_label
 _atom_site_symmetry_multiplicity
 _atom_site_fract_x
 _atom_site_fract_y
 _atom_site_fract_z
 _atom_site_occupancy
  Cu  Cu0  1  0.50000000  0.00000000  0.50000000  1.0
  Cu  Cu1  1  0.00000000  0.00000000  0.50000000  1.0
  Cu  Cu2  1  1.00000000  0.50000000  0.50000000  1.0
  Cu  Cu3  1  0.50000000  0.50000000  0.50000000  1.0
  H  H4  1  0.38389000  0.81141000  0.57766000  1.0
  H  H5  1  0.40553000  0.64853000  0.65096000  1.0
  H  H6  1  0.70121000  0.76247000  0.60094000  1.0
  H  H7  1  0.66703000  0.92006000  0.53239000  1.0
  H  H8  1  0.65025000  0.59224000  0.63611000  1.0
  H  H9  1  0.51919000  0.54626000  0.67735000  1.0
  H  H10  1  0.31000000  0.44205000  0.06033000  1.0
  H  H11  1  0.26428000  0.81948000  0.79957000  1.0
  H  H12  1  0.10431000  0.75599000  0.95602000  1.0
  H  H13  1  0.03840000  0.11112000  0.57728000  1.0
  H  H14  1  0.94336000  0.20064000  0.65066000  1.0
  H  H15  1  0.69766000  0.13652000  0.60077000  1.0
  H  H16  1  0.80048000  0.04746000  0.53224000  1.0
  H  H17  1  0.71345000  0.27165000  0.63624000  1.0
  H  H18  1  0.80358000  0.27638000  0.67716000  1.0
  H  H19  1  0.62955000  0.99740000  0.06048000  1.0
  H  H20  1  0.93563000  0.88119000  0.79973000  1.0
  H  H21  1  0.93922000  0.78809000  0.95611000  1.0
  H  H22  1  0.61612000  0.18860000  0.42233000  1.0
  H  H23  1  0.59447000  0.35147000  0.34904000  1.0
  H  H24  1  0.29879000  0.23753000  0.39906000  1.0
  H  H25  1  0.33297000  0.07994000  0.46761000  1.0
  H  H26  1  0.34974000  0.40776000  0.36389000  1.0
  H  H27  1  0.48080000  0.45374000  0.32266000  1.0
  H  H28  1  0.69000000  0.55795000  0.93967000  1.0
  H  H29  1  0.73572000  0.18052000  0.20043000  1.0
  H  H30  1  0.89568000  0.24401000  0.04398000  1.0
  H  H31  1  0.96160000  0.88888000  0.42272000  1.0
  H  H32  1  0.05664000  0.79936000  0.34934000  1.0
  H  H33  1  0.30234000  0.86348000  0.39923000  1.0
  H  H34  1  0.19952000  0.95253000  0.46776000  1.0
  H  H35  1  0.28655000  0.72835000  0.36376000  1.0
  H  H36  1  0.19642000  0.72362000  0.32284000  1.0
  H  H37  1  0.37044000  0.00261000  0.93952000  1.0
  H  H38  1  0.06437000  0.11881000  0.20027000  1.0
  H  H39  1  0.06078000  0.21191000  0.04389000  1.0
  H  H40  1  0.11582000  0.38891000  0.42271000  1.0
  H  H41  1  0.09429000  0.29949000  0.34919000  1.0
  H  H42  1  0.79870000  0.36361000  0.39902000  1.0
  H  H43  1  0.83285000  0.45256000  0.46770000  1.0
  H  H44  1  0.84976000  0.22839000  0.36389000  1.0
  H  H45  1  0.98085000  0.22374000  0.32267000  1.0
  H  H46  1  0.18999000  0.50231000  0.93965000  1.0
  H  H47  1  0.23555000  0.61892000  0.20037000  1.0
  H  H48  1  0.39554000  0.71197000  0.04397000  1.0
  H  H49  1  0.46153000  0.68857000  0.42245000  1.0
  H  H50  1  0.55652000  0.85144000  0.34922000  1.0
  H  H51  1  0.80217000  0.73743000  0.39915000  1.0
  H  H52  1  0.69937000  0.57986000  0.46767000  1.0
  H  H53  1  0.78650000  0.90778000  0.36380000  1.0
  H  H54  1  0.69646000  0.95363000  0.32285000  1.0
  H  H55  1  0.87050000  0.05796000  0.93948000  1.0
  H  H56  1  0.56409000  0.68071000  0.20042000  1.0
  H  H57  1  0.56056000  0.74415000  0.04399000  1.0
  H  H58  1  0.88418000  0.61109000  0.57729000  1.0
  H  H59  1  0.90572000  0.70051000  0.65080000  1.0
  H  H60  1  0.20130000  0.63638000  0.60098000  1.0
  H  H61  1  0.16715000  0.54744000  0.53230000  1.0
  H  H62  1  0.15024000  0.77161000  0.63611000  1.0
  H  H63  1  0.01915000  0.77626000  0.67733000  1.0
  H  H64  1  0.81001000  0.49769000  0.06035000  1.0
  H  H65  1  0.76445000  0.38108000  0.79963000  1.0
  H  H66  1  0.60446000  0.28803000  0.95603000  1.0
  H  H67  1  0.53847000  0.31143000  0.57755000  1.0
  H  H68  1  0.44348000  0.14856000  0.65078000  1.0
  H  H69  1  0.19783000  0.26257000  0.60085000  1.0
  H  H70  1  0.30063000  0.42014000  0.53233000  1.0
  H  H71  1  0.21350000  0.09222000  0.63620000  1.0
  H  H72  1  0.30354000  0.04636000  0.67715000  1.0
  H  H73  1  0.12951000  0.94204000  0.06052000  1.0
  H  H74  1  0.43591000  0.31929000  0.79958000  1.0
  H  H75  1  0.43944000  0.25585000  0.95601000  1.0
  C  C76  1  0.45256000  0.79711000  0.58495000  1.0
  C  C77  1  0.46600000  0.70676000  0.62447000  1.0
  C  C78  1  0.55594000  0.69204000  0.63120000  1.0
  C  C79  1  0.62935000  0.76989000  0.59793000  1.0
  C  C80  1  0.61067000  0.85827000  0.55983000  1.0
  C  C81  1  0.57111000  0.59436000  0.67598000  1.0
  C  C82  1  0.62533000  0.57285000  0.79953000  1.0
  C  C83  1  0.45146000  0.52115000  0.85401000  1.0
  C  C84  1  0.46509000  0.50483000  0.93825000  1.0
  C  C85  1  0.39141000  0.46737000  0.03415000  1.0
  C  C86  1  0.43012000  0.46383000  0.09465000  1.0
  C  C87  1  0.28750000  0.91769000  0.62039000  1.0
  C  C88  1  0.18994000  0.88494000  0.71283000  1.0
  C  C89  1  0.19158000  0.83243000  0.80080000  1.0
  C  C90  1  0.10194000  0.79714000  0.88812000  1.0
  C  C91  1  0.96241000  0.11806000  0.58464000  1.0
  C  C92  1  0.90941000  0.16887000  0.62418000  1.0
  C  C93  1  0.81269000  0.17678000  0.63101000  1.0
  C  C94  1  0.77254000  0.13219000  0.59775000  1.0
  C  C95  1  0.82937000  0.08189000  0.55963000  1.0
  C  C96  1  0.75286000  0.22965000  0.67593000  1.0
  C  C97  1  0.57521000  0.12762000  0.79959000  1.0
  C  C98  1  0.69466000  0.12480000  0.85400000  1.0
  C  C99  1  0.59675000  0.05685000  0.93825000  1.0
  C  C100  1  0.57443000  0.99840000  0.03416000  1.0
  C  C101  1  0.47514000  0.94154000  0.09464000  1.0
  C  C102  1  0.09161000  0.96205000  0.62050000  1.0
  C  C103  1  0.09679000  0.90256000  0.71290000  1.0
  C  C104  1  0.00716000  0.86706000  0.80090000  1.0
  C  C105  1  0.00952000  0.81497000  0.88818000  1.0
  C  C106  1  0.54744000  0.20289000  0.41505000  1.0
  C  C107  1  0.53400000  0.29324000  0.37553000  1.0
  C  C108  1  0.44406000  0.30796000  0.36880000  1.0
  C  C109  1  0.37065000  0.23011000  0.40207000  1.0
  C  C110  1  0.38933000  0.14173000  0.44017000  1.0
  C  C111  1  0.42889000  0.40564000  0.32402000  1.0
  C  C112  1  0.37467000  0.42715000  0.20047000  1.0
  C  C113  1  0.54854000  0.47885000  0.14599000  1.0
  C  C114  1  0.53491000  0.49517000  0.06175000  1.0
  C  C115  1  0.60859000  0.53263000  0.96585000  1.0
  C  C116  1  0.56988000  0.53616000  0.90535000  1.0
  C  C117  1  0.71251000  0.08231000  0.37960000  1.0
  C  C118  1  0.81006000  0.11506000  0.28717000  1.0
  C  C119  1  0.80842000  0.16757000  0.19920000  1.0
  C  C120  1  0.89806000  0.20286000  0.11188000  1.0
  C  C121  1  0.03759000  0.88194000  0.41536000  1.0
  C  C122  1  0.09060000  0.83113000  0.37582000  1.0
  C  C123  1  0.18731000  0.82322000  0.36899000  1.0
  C  C124  1  0.22746000  0.86781000  0.40225000  1.0
  C  C125  1  0.17064000  0.91811000  0.44036000  1.0
  C  C126  1  0.24714000  0.77035000  0.32407000  1.0
  C  C127  1  0.42479000  0.87238000  0.20041000  1.0
  C  C128  1  0.30535000  0.87520000  0.14599000  1.0
  C  C129  1  0.40326000  0.94315000  0.06174000  1.0
  C  C130  1  0.42556000  0.00161000  0.96584000  1.0
  C  C131  1  0.52485000  0.05846000  0.90536000  1.0
  C  C132  1  0.90838000  0.03795000  0.37950000  1.0
  C  C133  1  0.90321000  0.09744000  0.28710000  1.0
  C  C134  1  0.99285000  0.13294000  0.19909000  1.0
  C  C135  1  0.99049000  0.18503000  0.11181000  1.0
  C  C136  1  0.04723000  0.38200000  0.41528000  1.0
  C  C137  1  0.03381000  0.33124000  0.37567000  1.0
  C  C138  1  0.94395000  0.32337000  0.36881000  1.0
  C  C139  1  0.87053000  0.36795000  0.40208000  1.0
  C  C140  1  0.88918000  0.41818000  0.44027000  1.0
  C  C141  1  0.92887000  0.27042000  0.32402000  1.0
  C  C142  1  0.87464000  0.37232000  0.20044000  1.0
  C  C143  1  0.04852000  0.37513000  0.14598000  1.0
  C  C144  1  0.03489000  0.44303000  0.06173000  1.0
  C  C145  1  0.10859000  0.50148000  0.96585000  1.0
  C  C146  1  0.06989000  0.55850000  0.90537000  1.0
  C  C147  1  0.21231000  0.53792000  0.37957000  1.0
  C  C148  1  0.30989000  0.59753000  0.28716000  1.0
  C  C149  1  0.30825000  0.63306000  0.19917000  1.0
  C  C150  1  0.39789000  0.68514000  0.11189000  1.0
  C  C151  1  0.53749000  0.70284000  0.41517000  1.0
  C  C152  1  0.59047000  0.79319000  0.37568000  1.0
  C  C153  1  0.68716000  0.80789000  0.36891000  1.0
  C  C154  1  0.72730000  0.73005000  0.40216000  1.0
  C  C155  1  0.67048000  0.64167000  0.44026000  1.0
  C  C156  1  0.74708000  0.90561000  0.32407000  1.0
  C  C157  1  0.92475000  0.92717000  0.20044000  1.0
  C  C158  1  0.80533000  0.97881000  0.14599000  1.0
  C  C159  1  0.90327000  0.99514000  0.06173000  1.0
  C  C160  1  0.92561000  0.03262000  0.96580000  1.0
  C  C161  1  0.02486000  0.03616000  0.90536000  1.0
  C  C162  1  0.40810000  0.58233000  0.37961000  1.0
  C  C163  1  0.40298000  0.61519000  0.28717000  1.0
  C  C164  1  0.49262000  0.66773000  0.19919000  1.0
  C  C165  1  0.49028000  0.70302000  0.11189000  1.0
  C  C166  1  0.95277000  0.61801000  0.58472000  1.0
  C  C167  1  0.96619000  0.66876000  0.62433000  1.0
  C  C168  1  0.05605000  0.67663000  0.63119000  1.0
  C  C169  1  0.12947000  0.63205000  0.59792000  1.0
  C  C170  1  0.11082000  0.58182000  0.55973000  1.0
  C  C171  1  0.07113000  0.72957000  0.67598000  1.0
  C  C172  1  0.12536000  0.62767000  0.79956000  1.0
  C  C173  1  0.95147000  0.62487000  0.85403000  1.0
  C  C174  1  0.96511000  0.55697000  0.93827000  1.0
  C  C175  1  0.89141000  0.49852000  0.03415000  1.0
  C  C176  1  0.93011000  0.44150000  0.09463000  1.0
  C  C177  1  0.78769000  0.46207000  0.62043000  1.0
  C  C178  1  0.69012000  0.40247000  0.71284000  1.0
  C  C179  1  0.69175000  0.36694000  0.80083000  1.0
  C  C180  1  0.60211000  0.31486000  0.88811000  1.0
  C  C181  1  0.46252000  0.29716000  0.58483000  1.0
  C  C182  1  0.40953000  0.20681000  0.62432000  1.0
  C  C183  1  0.31284000  0.19211000  0.63109000  1.0
  C  C184  1  0.27270000  0.26995000  0.59784000  1.0
  C  C185  1  0.32952000  0.35833000  0.55974000  1.0
  C  C186  1  0.25292000  0.09439000  0.67593000  1.0
  C  C187  1  0.07526000  0.07283000  0.79956000  1.0
  C  C188  1  0.19467000  0.02119000  0.85401000  1.0
  C  C189  1  0.09674000  0.00486000  0.93827000  1.0
  C  C190  1  0.07440000  0.96738000  0.03420000  1.0
  C  C191  1  0.97514000  0.96384000  0.09464000  1.0
  C  C192  1  0.59190000  0.41767000  0.62039000  1.0
  C  C193  1  0.59702000  0.38481000  0.71283000  1.0
  C  C194  1  0.50739000  0.33227000  0.80080000  1.0
  C  C195  1  0.50972000  0.29698000  0.88811000  1.0
  N  N196  1  0.52361000  0.87158000  0.55329000  1.0
  N  N197  1  0.55016000  0.56038000  0.77478000  1.0
  N  N198  1  0.92299000  0.07519000  0.55306000  1.0
  N  N199  1  0.67515000  0.16481000  0.77480000  1.0
  N  N200  1  0.47639000  0.12842000  0.44671000  1.0
  N  N201  1  0.44984000  0.43962000  0.22522000  1.0
  N  N202  1  0.07701000  0.92481000  0.44694000  1.0
  N  N203  1  0.32484000  0.83519000  0.22520000  1.0
  N  N204  1  0.97620000  0.42483000  0.44691000  1.0
  N  N205  1  0.94982000  0.33516000  0.22521000  1.0
  N  N206  1  0.57688000  0.62838000  0.44679000  1.0
  N  N207  1  0.82481000  0.93962000  0.22521000  1.0
  N  N208  1  0.02380000  0.57517000  0.55309000  1.0
  N  N209  1  0.05018000  0.66484000  0.77479000  1.0
  N  N210  1  0.42312000  0.37162000  0.55321000  1.0
  N  N211  1  0.17519000  0.06038000  0.77479000  1.0
  O  O212  1  0.36697000  0.95425000  0.61775000  1.0
  O  O213  1  0.28833000  0.90644000  0.55533000  1.0
  O  O214  1  0.71667000  0.60840000  0.74298000  1.0
  O  O215  1  0.37225000  0.50604000  0.85115000  1.0
  O  O216  1  0.01475000  0.92802000  0.61800000  1.0
  O  O217  1  0.15591000  0.03828000  0.55525000  1.0
  O  O218  1  0.54039000  0.14870000  0.74307000  1.0
  O  O219  1  0.77672000  0.14281000  0.85114000  1.0
  O  O220  1  0.63303000  0.04575000  0.38225000  1.0
  O  O221  1  0.71167000  0.09356000  0.44467000  1.0
  O  O222  1  0.28333000  0.39160000  0.25702000  1.0
  O  O223  1  0.62775000  0.49396000  0.14885000  1.0
  O  O224  1  0.98525000  0.07198000  0.38200000  1.0
  O  O225  1  0.84409000  0.96172000  0.44475000  1.0
  O  O226  1  0.45960000  0.85130000  0.25693000  1.0
  O  O227  1  0.22328000  0.85719000  0.14886000  1.0
  O  O228  1  0.13290000  0.57190000  0.38213000  1.0
  O  O229  1  0.21141000  0.46164000  0.44470000  1.0
  O  O230  1  0.78329000  0.35127000  0.25696000  1.0
  O  O231  1  0.12774000  0.35716000  0.14881000  1.0
  O  O232  1  0.48499000  0.54587000  0.38214000  1.0
  O  O233  1  0.34380000  0.59343000  0.44478000  1.0
  O  O234  1  0.95955000  0.89166000  0.25696000  1.0
  O  O235  1  0.72323000  0.99386000  0.14888000  1.0
  O  O236  1  0.86710000  0.42810000  0.61787000  1.0
  O  O237  1  0.78858000  0.53836000  0.55531000  1.0
  O  O238  1  0.21671000  0.64873000  0.74304000  1.0
  O  O239  1  0.87226000  0.64284000  0.85119000  1.0
  O  O240  1  0.51501000  0.45413000  0.61786000  1.0
  O  O241  1  0.65620000  0.40656000  0.55522000  1.0
  O  O242  1  0.04045000  0.10833000  0.74304000  1.0
  O  O243  1  0.27677000  0.00613000  0.85112000  1.0
