# generated using pymatgen
data_CuH8C10N2O3
_symmetry_space_group_name_H-M   'P 1'
_cell_length_a   4.34908000
_cell_length_b   13.38710000
_cell_length_c   15.58890000
_cell_angle_alpha   89.99970000
_cell_angle_beta   89.99880000
_cell_angle_gamma   89.99970000
_symmetry_Int_Tables_number   1
_chemical_formula_structural   CuH8C10N2O3
_chemical_formula_sum   'Cu4 H32 C40 N8 O12'
_cell_volume   907.61021470
_cell_formula_units_Z   4
loop_
 _symmetry_equiv_pos_site_id
 _symmetry_equiv_pos_as_xyz
  1  'x, y, z'
loop_
 _atom_site_type_symbol
 _atom_site_label
 _atom_site_symmetry_multiplicity
 _atom_site_fract_x
 _atom_site_fract_y
 _atom_site_fract_z
 _atom_site_occupancy
  Cu  Cu0  1  0.06278000  0.16262000  0.44914000  1.0
  Cu  Cu1  1  0.43722000  0.83738000  0.94914000  1.0
  Cu  Cu2  1  0.93721000  0.66262000  0.05086000  1.0
  Cu  Cu3  1  0.56278000  0.33738000  0.55086000  1.0
  H  H4  1  0.66158000  0.15534000  0.55037000  1.0
  H  H5  1  0.83841000  0.84466000  0.05037000  1.0
  H  H6  1  0.33843000  0.65535000  0.94963000  1.0
  H  H7  1  0.16158000  0.34465000  0.44963000  1.0
  H  H8  1  0.74465000  0.16662000  0.17876000  1.0
  H  H9  1  0.75535000  0.83338000  0.67876000  1.0
  H  H10  1  0.25534000  0.66666667  0.32125000  1.0
  H  H11  1  0.24464000  0.33338000  0.82124000  1.0
  H  H12  1  0.55272000  0.99843000  0.13064000  1.0
  H  H13  1  0.94729000  0.00158000  0.63064000  1.0
  H  H14  1  0.44729000  0.49842000  0.36936000  1.0
  H  H15  1  0.05271000  0.50157000  0.86936000  1.0
  H  H16  1  0.18493000  0.90570000  0.22181000  1.0
  H  H17  1  0.31508000  0.09430000  0.72181000  1.0
  H  H18  1  0.81508000  0.40570000  0.27819000  1.0
  H  H19  1  0.68493000  0.59430000  0.77819000  1.0
  H  H20  1  0.93049000  0.83022000  0.31405000  1.0
  H  H21  1  0.56951000  0.16978000  0.81405000  1.0
  H  H22  1  0.06951000  0.33022000  0.18594000  1.0
  H  H23  1  0.43049000  0.66978000  0.68595000  1.0
  H  H24  1  0.56143000  0.76050000  0.42259000  1.0
  H  H25  1  0.93856000  0.23950000  0.92259000  1.0
  H  H26  1  0.43857000  0.26050000  0.07740000  1.0
  H  H27  1  0.06145000  0.73950000  0.57741000  1.0
  H  H28  1  0.35652000  0.87265000  0.53762000  1.0
  H  H29  1  0.14346000  0.12735000  0.03762000  1.0
  H  H30  1  0.64348000  0.37266000  0.96238000  1.0
  H  H31  1  0.85654000  0.62735000  0.46238000  1.0
  H  H32  1  0.47003000  0.27180000  0.38199000  1.0
  H  H33  1  0.02998000  0.72819000  0.88199000  1.0
  H  H34  1  0.52997000  0.77180000  0.11802000  1.0
  H  H35  1  0.97002000  0.22819000  0.61801000  1.0
  C  C36  1  0.61523000  0.00094000  0.49582000  1.0
  C  C37  1  0.88477000  0.99907000  0.99582000  1.0
  C  C38  1  0.38479000  0.50094000  0.00418000  1.0
  C  C39  1  0.11522000  0.49906000  0.50418000  1.0
  C  C40  1  0.46950000  0.16530000  0.29377000  1.0
  C  C41  1  0.03051000  0.83470000  0.79377000  1.0
  C  C42  1  0.53050000  0.66530000  0.20623000  1.0
  C  C43  1  0.96949000  0.33470000  0.70623000  1.0
  C  C44  1  0.94451000  0.97430000  0.37598000  1.0
  C  C45  1  0.55549000  0.02570000  0.87598000  1.0
  C  C46  1  0.05549000  0.47430000  0.12402000  1.0
  C  C47  1  0.44450000  0.52570000  0.62402000  1.0
  C  C48  1  0.16407000  0.02240000  0.31732000  1.0
  C  C49  1  0.33594000  0.97760000  0.81732000  1.0
  C  C50  1  0.83593000  0.52239000  0.18269000  1.0
  C  C51  1  0.66406000  0.47760000  0.68268000  1.0
  C  C52  1  0.57626000  0.12450000  0.21569000  1.0
  C  C53  1  0.92375000  0.87550000  0.71570000  1.0
  C  C54  1  0.42374000  0.62451000  0.28431000  1.0
  C  C55  1  0.07625000  0.37549000  0.78430000  1.0
  C  C56  1  0.47198000  0.03167000  0.19010000  1.0
  C  C57  1  0.02803000  0.96833000  0.69010000  1.0
  C  C58  1  0.52803000  0.53167000  0.30991000  1.0
  C  C59  1  0.97197000  0.46833000  0.80990000  1.0
  C  C60  1  0.26511000  0.97890000  0.24164000  1.0
  C  C61  1  0.23490000  0.02110000  0.74164000  1.0
  C  C62  1  0.73489000  0.47890000  0.25836000  1.0
  C  C63  1  0.76511000  0.52110000  0.75836000  1.0
  C  C64  1  0.84612000  0.87599000  0.36663000  1.0
  C  C65  1  0.65387000  0.12401000  0.86663000  1.0
  C  C66  1  0.15388000  0.37599000  0.13337000  1.0
  C  C67  1  0.34612000  0.62400000  0.63337000  1.0
  C  C68  1  0.63881000  0.83781000  0.42714000  1.0
  C  C69  1  0.86119000  0.16220000  0.92714000  1.0
  C  C70  1  0.36120000  0.33781000  0.07286000  1.0
  C  C71  1  0.13881000  0.66220000  0.57286000  1.0
  C  C72  1  0.52533000  0.89862000  0.49115000  1.0
  C  C73  1  0.97465000  0.10138000  0.99115000  1.0
  C  C74  1  0.47467000  0.39862000  0.00885000  1.0
  C  C75  1  0.02533000  0.60138000  0.50885000  1.0
  N  N76  1  0.84074000  0.03371000  0.44068000  1.0
  N  N77  1  0.65926000  0.96629000  0.94067000  1.0
  N  N78  1  0.15927000  0.53371000  0.05933000  1.0
  N  N79  1  0.34073000  0.46629000  0.55933000  1.0
  N  N80  1  0.26062000  0.11522000  0.34185000  1.0
  N  N81  1  0.23939000  0.88478000  0.84185000  1.0
  N  N82  1  0.73938000  0.61522000  0.15816000  1.0
  N  N83  1  0.76061000  0.38478000  0.65815000  1.0
  O  O84  1  0.48883000  0.06186000  0.54904000  1.0
  O  O85  1  0.01116000  0.93814000  0.04904000  1.0
  O  O86  1  0.51118000  0.56186000  0.95096000  1.0
  O  O87  1  0.98882000  0.43814000  0.45096000  1.0
  O  O88  1  0.57802000  0.25185000  0.32069000  1.0
  O  O89  1  0.92200000  0.74815000  0.82069000  1.0
  O  O90  1  0.42199000  0.75185000  0.17932000  1.0
  O  O91  1  0.07801000  0.24814000  0.67931000  1.0
  O  O92  1  0.81414000  0.21543000  0.54348000  1.0
  O  O93  1  0.68584000  0.78457000  0.04348000  1.0
  O  O94  1  0.18587000  0.71544000  0.95651000  1.0
  O  O95  1  0.31414000  0.28456000  0.45651000  1.0
