# generated using pymatgen
data_Cd3H24(C9N7)2
_symmetry_space_group_name_H-M   'P 1'
_cell_length_a   8.81969000
_cell_length_b   11.34930000
_cell_length_c   13.17920000
_cell_angle_alpha   89.99990000
_cell_angle_beta   89.99990000
_cell_angle_gamma   74.89900000
_symmetry_Int_Tables_number   1
_chemical_formula_structural   Cd3H24(C9N7)2
_chemical_formula_sum   'Cd6 H48 C36 N28'
_cell_volume   1273.64785018
_cell_formula_units_Z   2
loop_
 _symmetry_equiv_pos_site_id
 _symmetry_equiv_pos_as_xyz
  1  'x, y, z'
loop_
 _atom_site_type_symbol
 _atom_site_label
 _atom_site_symmetry_multiplicity
 _atom_site_fract_x
 _atom_site_fract_y
 _atom_site_fract_z
 _atom_site_occupancy
  Cd  Cd0  1  0.47345000  0.79435000  0.78472000  1.0
  Cd  Cd1  1  0.52654000  0.70565000  0.28472000  1.0
  Cd  Cd2  1  0.52655000  0.20565000  0.21528000  1.0
  Cd  Cd3  1  0.47345000  0.29435000  0.71528000  1.0
  Cd  Cd4  1  0.00000000  0.50000000  1.00000000  1.0
  Cd  Cd5  1  0.00000000  0.00000000  0.50000000  1.0
  H  H6  1  0.18020000  0.63148000  0.18004000  1.0
  H  H7  1  0.81980000  0.86851000  0.68004000  1.0
  H  H8  1  0.81980000  0.36851000  0.81996000  1.0
  H  H9  1  0.18020000  0.13149000  0.31996000  1.0
  H  H10  1  0.33772000  0.54896000  0.10230000  1.0
  H  H11  1  0.66228000  0.95104000  0.60230000  1.0
  H  H12  1  0.66228000  0.45104000  0.89770000  1.0
  H  H13  1  0.33772000  0.04896000  0.39770000  1.0
  H  H14  1  0.16332000  0.69219000  0.86536000  1.0
  H  H15  1  0.83668000  0.80782000  0.36537000  1.0
  H  H16  1  0.83668000  0.30781000  0.13463000  1.0
  H  H17  1  0.16332000  0.19218000  0.63463000  1.0
  H  H18  1  0.32769000  0.58479000  0.91914000  1.0
  H  H19  1  0.67231000  0.91521000  0.41914000  1.0
  H  H20  1  0.67231000  0.41521000  0.08086000  1.0
  H  H21  1  0.32769000  0.08479000  0.58086000  1.0
  H  H22  1  0.26341000  0.95938000  0.97240000  1.0
  H  H23  1  0.73659000  0.54062000  0.47240000  1.0
  H  H24  1  0.73659000  0.04061000  0.02760000  1.0
  H  H25  1  0.26341000  0.45938000  0.52760000  1.0
  H  H26  1  0.12541000  0.90939000  0.89567000  1.0
  H  H27  1  0.87458000  0.59061000  0.39567000  1.0
  H  H28  1  0.87458000  0.09061000  0.10434000  1.0
  H  H29  1  0.12542000  0.40939000  0.60434000  1.0
  H  H30  1  0.14218000  0.84591000  0.20825000  1.0
  H  H31  1  0.85782000  0.65409000  0.70825000  1.0
  H  H32  1  0.85782000  0.15409000  0.79175000  1.0
  H  H33  1  0.14218000  0.34591000  0.29175000  1.0
  H  H34  1  0.27212000  0.92398000  0.15151000  1.0
  H  H35  1  0.72788000  0.57601000  0.65151000  1.0
  H  H36  1  0.72788000  0.07601000  0.84849000  1.0
  H  H37  1  0.27212000  0.42399000  0.34849000  1.0
  H  H38  1  0.51200000  0.65444000  0.02331000  1.0
  H  H39  1  0.48800000  0.84556000  0.52331000  1.0
  H  H40  1  0.48800000  0.34556000  0.97669000  1.0
  H  H41  1  0.51200000  0.15444000  0.47669000  1.0
  H  H42  1  0.48555000  0.81345000  0.04532000  1.0
  H  H43  1  0.51445000  0.68655000  0.54532000  1.0
  H  H44  1  0.51445000  0.18655000  0.95468000  1.0
  H  H45  1  0.48555000  0.31345000  0.45468000  1.0
  H  H46  1  0.95276000  0.80251000  0.97160000  1.0
  H  H47  1  0.04723000  0.69749000  0.47160000  1.0
  H  H48  1  0.04723000  0.19749000  0.02840000  1.0
  H  H49  1  0.95277000  0.30251000  0.52840000  1.0
  H  H50  1  0.95869000  0.77646000  0.10550000  1.0
  H  H51  1  0.04131000  0.72354000  0.60550000  1.0
  H  H52  1  0.04131000  0.22354000  0.89450000  1.0
  H  H53  1  0.95869000  0.27646000  0.39450000  1.0
  C  C54  1  0.25099000  0.63716000  0.11251000  1.0
  C  C55  1  0.74901000  0.86284000  0.61251000  1.0
  C  C56  1  0.74901000  0.36284000  0.88749000  1.0
  C  C57  1  0.25099000  0.13716000  0.38749000  1.0
  C  C58  1  0.24053000  0.67220000  0.93199000  1.0
  C  C59  1  0.75947000  0.82781000  0.43199000  1.0
  C  C60  1  0.75947000  0.32780000  0.06801000  1.0
  C  C61  1  0.24053000  0.17220000  0.56801000  1.0
  C  C62  1  0.20216000  0.88729000  0.96234000  1.0
  C  C63  1  0.79784000  0.61271000  0.46234000  1.0
  C  C64  1  0.79784000  0.11271000  0.03766000  1.0
  C  C65  1  0.20216000  0.38729000  0.53766000  1.0
  C  C66  1  0.21157000  0.85200000  0.14036000  1.0
  C  C67  1  0.78842000  0.64801000  0.64035000  1.0
  C  C68  1  0.78842000  0.14800000  0.85965000  1.0
  C  C69  1  0.21158000  0.35200000  0.35965000  1.0
  C  C70  1  0.42409000  0.74179000  0.03492000  1.0
  C  C71  1  0.57591000  0.75821000  0.53492000  1.0
  C  C72  1  0.57591000  0.25821000  0.96508000  1.0
  C  C73  1  0.42409000  0.24179000  0.46508000  1.0
  C  C74  1  0.02961000  0.78310000  0.03837000  1.0
  C  C75  1  0.97039000  0.71690000  0.53837000  1.0
  C  C76  1  0.97039000  0.21690000  0.96163000  1.0
  C  C77  1  0.02961000  0.28309000  0.46163000  1.0
  C  C78  1  0.47651000  0.49488000  0.70146000  1.0
  C  C79  1  0.52349000  0.00512000  0.20147000  1.0
  C  C80  1  0.52349000  0.50512000  0.29854000  1.0
  C  C81  1  0.47651000  0.99488000  0.79853000  1.0
  C  C82  1  0.76522000  0.63150000  0.19913000  1.0
  C  C83  1  0.23478000  0.86850000  0.69913000  1.0
  C  C84  1  0.23478000  0.36850000  0.80087000  1.0
  C  C85  1  0.76522000  0.13150000  0.30087000  1.0
  C  C86  1  0.30409000  0.30296000  0.12687000  1.0
  C  C87  1  0.69591000  0.19704000  0.62687000  1.0
  C  C88  1  0.69591000  0.69705000  0.87313000  1.0
  C  C89  1  0.30409000  0.80296000  0.37313000  1.0
  N  N90  1  0.32218000  0.76977000  0.94408000  1.0
  N  N91  1  0.67782000  0.73023000  0.44407000  1.0
  N  N92  1  0.67782000  0.23023000  0.05593000  1.0
  N  N93  1  0.32218000  0.26977000  0.55593000  1.0
  N  N94  1  0.14530000  0.66190000  0.02272000  1.0
  N  N95  1  0.85470000  0.83810000  0.52272000  1.0
  N  N96  1  0.85470000  0.33810000  0.97728000  1.0
  N  N97  1  0.14530000  0.16190000  0.47728000  1.0
  N  N98  1  0.33288000  0.73378000  0.12743000  1.0
  N  N99  1  0.66712000  0.76622000  0.62743000  1.0
  N  N100  1  0.66712000  0.26622000  0.87257000  1.0
  N  N101  1  0.33288000  0.23378000  0.37257000  1.0
  N  N102  1  0.10819000  0.88028000  0.05236000  1.0
  N  N103  1  0.89181000  0.61972000  0.55236000  1.0
  N  N104  1  0.89181000  0.11972000  0.94764000  1.0
  N  N105  1  0.10819000  0.38028000  0.44764000  1.0
  N  N106  1  0.18791000  0.35819000  0.08801000  1.0
  N  N107  1  0.81209000  0.14181000  0.58801000  1.0
  N  N108  1  0.81209000  0.64181000  0.91199000  1.0
  N  N109  1  0.18790000  0.85819000  0.41199000  1.0
  N  N110  1  0.46441000  0.59752000  0.72139000  1.0
  N  N111  1  0.53559000  0.90248000  0.22139000  1.0
  N  N112  1  0.53559000  0.40248000  0.27861000  1.0
  N  N113  1  0.46441000  0.09752000  0.77861000  1.0
  N  N114  1  0.86851000  0.57628000  0.14818000  1.0
  N  N115  1  0.13149000  0.92372000  0.64818000  1.0
  N  N116  1  0.13148000  0.42372000  0.85182000  1.0
  N  N117  1  0.86851000  0.07628000  0.35182000  1.0
