# generated using pymatgen
data_ZnH26C26(NO2)2
_symmetry_space_group_name_H-M   'P 1'
_cell_length_a   14.11450000
_cell_length_b   15.22360000
_cell_length_c   17.09760000
_cell_angle_alpha   88.08580000
_cell_angle_beta   86.67670000
_cell_angle_gamma   85.48190000
_symmetry_Int_Tables_number   1
_chemical_formula_structural   ZnH26C26(NO2)2
_chemical_formula_sum   'Zn2 H52 C52 N4 O8'
_cell_volume   3654.71069139
_cell_formula_units_Z   2
loop_
 _symmetry_equiv_pos_site_id
 _symmetry_equiv_pos_as_xyz
  1  'x, y, z'
loop_
 _atom_site_type_symbol
 _atom_site_label
 _atom_site_symmetry_multiplicity
 _atom_site_fract_x
 _atom_site_fract_y
 _atom_site_fract_z
 _atom_site_occupancy
  Zn  Zn0  1  0.60433000  0.49468000  0.50653000  1.0
  Zn  Zn1  1  0.39557000  0.50896000  0.49789000  1.0
  H  H2  1  0.39730000  0.42259000  0.27363000  1.0
  H  H3  1  0.62910000  0.38917000  0.00151000  1.0
  H  H4  1  0.70454000  0.39967000  0.11656000  1.0
  H  H5  1  0.34193000  0.37664000  0.88537000  1.0
  H  H6  1  0.63279000  0.44445000  0.88850000  1.0
  H  H7  1  0.40034000  0.38240000  0.13453000  1.0
  H  H8  1  0.63199000  0.93543000  0.41471000  1.0
  H  H9  1  0.38270000  0.07817000  0.39561000  1.0
  H  H10  1  0.63635000  0.77107000  0.42131000  1.0
  H  H11  1  0.36971000  0.24123000  0.41253000  1.0
  H  H12  1  0.35362000  0.78769000  0.52832000  1.0
  H  H13  1  0.62925000  0.49008000  0.74838000  1.0
  H  H14  1  0.60261000  0.21243000  0.56318000  1.0
  H  H15  1  0.97427000  0.55977000  0.37604000  1.0
  H  H16  1  0.07508000  0.58339000  0.32183000  1.0
  H  H17  1  0.04016000  0.37059000  0.55747000  1.0
  H  H18  1  0.94470000  0.30883000  0.57879000  1.0
  H  H19  1  0.15447000  0.71006000  0.27931000  1.0
  H  H20  1  0.14338000  0.72317000  0.38269000  1.0
  H  H21  1  0.21740000  0.78987000  0.32308000  1.0
  H  H22  1  0.31903000  0.67279000  0.39058000  1.0
  H  H23  1  0.32770000  0.65719000  0.28886000  1.0
  H  H24  1  0.24808000  0.50732000  0.61597000  1.0
  H  H25  1  0.31878000  0.51717000  0.35401000  1.0
  H  H26  1  0.21231000  0.53928000  0.30532000  1.0
  H  H27  1  0.70286000  0.20160000  0.65553000  1.0
  H  H28  1  0.82393000  0.20738000  0.67596000  1.0
  H  H29  1  0.73227000  0.23954000  0.74721000  1.0
  H  H30  1  0.80076000  0.37196000  0.68062000  1.0
  H  H31  1  0.67912000  0.36983000  0.66455000  1.0
  H  H32  1  0.70352000  0.33583000  0.53171000  1.0
  H  H33  1  0.81940000  0.28667000  0.54154000  1.0
  H  H34  1  0.22072000  0.11058000  0.60389000  1.0
  H  H35  1  0.73064000  0.63114000  0.49077000  1.0
  H  H36  1  0.18127000  0.01328000  0.65141000  1.0
  H  H37  1  0.24876000  0.08440000  0.70233000  1.0
  H  H38  1  0.35407000  0.95240000  0.65809000  1.0
  H  H39  1  0.39052000  0.04935000  0.60999000  1.0
  H  H40  1  0.29823000  0.01691000  0.49438000  1.0
  H  H41  1  0.26486000  0.91864000  0.54181000  1.0
  H  H42  1  0.70838000  0.89349000  0.65808000  1.0
  H  H43  1  0.72570000  0.99209000  0.70625000  1.0
  H  H44  1  0.64213000  0.91943000  0.74686000  1.0
  H  H45  1  0.55706000  0.05013000  0.67950000  1.0
  H  H46  1  0.06990000  0.50423000  0.63316000  1.0
  H  H47  1  0.54001000  0.95181000  0.63237000  1.0
  H  H48  1  0.66889000  0.98216000  0.53199000  1.0
  H  H49  1  0.69071000  0.07896000  0.57941000  1.0
  H  H50  1  0.90569000  0.65395000  0.48663000  1.0
  H  H51  1  0.34037000  0.42294000  0.74403000  1.0
  H  H52  1  0.69998000  0.43668000  0.25805000  1.0
  H  H53  1  0.41128000  0.38355000  0.00886000  1.0
  C  C54  1  0.49747000  0.67114000  0.48525000  1.0
  C  C55  1  0.55374000  0.18161000  0.52743000  1.0
  C  C56  1  0.41108000  0.91333000  0.50250000  1.0
  C  C57  1  0.56086000  0.09002000  0.52096000  1.0
  C  C58  1  0.49233000  0.95485000  0.47194000  1.0
  C  C59  1  0.49558000  0.05211000  0.47469000  1.0
  C  C60  1  0.09652000  0.54192000  0.43548000  1.0
  C  C61  1  0.91015000  0.43470000  0.53572000  1.0
  C  C62  1  0.19730000  0.54326000  0.43095000  1.0
  C  C63  1  0.81014000  0.42762000  0.53692000  1.0
  C  C64  1  0.20245000  0.51691000  0.56661000  1.0
  C  C65  1  0.47716000  0.33333333  0.50202000  1.0
  C  C66  1  0.78398000  0.57746000  0.50280000  1.0
  C  C67  1  0.10437000  0.51459000  0.57517000  1.0
  C  C68  1  0.88060000  0.58890000  0.50019000  1.0
  C  C69  1  0.54358000  0.46804000  0.35544000  1.0
  C  C70  1  0.48464000  0.48957000  0.65309000  1.0
  C  C71  1  0.04974000  0.52569000  0.50942000  1.0
  C  C72  1  0.94574000  0.51726000  0.51568000  1.0
  C  C73  1  0.54796000  0.43584000  0.27352000  1.0
  C  C74  1  0.48452000  0.45997000  0.73753000  1.0
  C  C75  1  0.46431000  0.41758000  0.23851000  1.0
  C  C76  1  0.57147000  0.90266000  0.44127000  1.0
  C  C77  1  0.56715000  0.46396000  0.77889000  1.0
  C  C78  1  0.46654000  0.39498000  0.16050000  1.0
  C  C79  1  0.56874000  0.43764000  0.85720000  1.0
  C  C80  1  0.55259000  0.39179000  0.11393000  1.0
  C  C81  1  0.48739000  0.40660000  0.89779000  1.0
  C  C82  1  0.63696000  0.40408000  0.15127000  1.0
  C  C83  1  0.40549000  0.40096000  0.85522000  1.0
  C  C84  1  0.63492000  0.42539000  0.22983000  1.0
  C  C85  1  0.40404000  0.42705000  0.77646000  1.0
  C  C86  1  0.55736000  0.38661000  0.02898000  1.0
  C  C87  1  0.42958000  0.10763000  0.43413000  1.0
  C  C88  1  0.48300000  0.38890000  0.98210000  1.0
  C  C89  1  0.25199000  0.55944000  0.35450000  1.0
  C  C90  1  0.27842000  0.65546000  0.34109000  1.0
  C  C91  1  0.19377000  0.72293000  0.33110000  1.0
  C  C92  1  0.76971000  0.34208000  0.56118000  1.0
  C  C93  1  0.74924000  0.33546000  0.65113000  1.0
  C  C94  1  0.75217000  0.24095000  0.68411000  1.0
  C  C95  1  0.32212000  0.96397000  0.53574000  1.0
  C  C96  1  0.33256000  0.00494000  0.61535000  1.0
  C  C97  1  0.24079000  0.05602000  0.64503000  1.0
  C  C98  1  0.57414000  0.81104000  0.44432000  1.0
  C  C99  1  0.63432000  0.03616000  0.56697000  1.0
  C  C100  1  0.59419000  0.99685000  0.64473000  1.0
  C  C101  1  0.67173000  0.94780000  0.69166000  1.0
  C  C102  1  0.42236000  0.19846000  0.44267000  1.0
  C  C103  1  0.49566000  0.76948000  0.47721000  1.0
  C  C104  1  0.48419000  0.23597000  0.49082000  1.0
  C  C105  1  0.41478000  0.82124000  0.50413000  1.0
  N  N106  1  0.24711000  0.52947000  0.49569000  1.0
  N  N107  1  0.75047000  0.49797000  0.51981000  1.0
  N  N108  1  0.04609000  0.55060000  0.36858000  1.0
  N  N109  1  0.97091000  0.36161000  0.55030000  1.0
  O  O110  1  0.57793000  0.62743000  0.47768000  1.0
  O  O111  1  0.39761000  0.37516000  0.48867000  1.0
  O  O112  1  0.41757000  0.63859000  0.50004000  1.0
  O  O113  1  0.55065000  0.36730000  0.52386000  1.0
  O  O114  1  0.62077000  0.46211000  0.39123000  1.0
  O  O115  1  0.40692000  0.49012000  0.61874000  1.0
  O  O116  1  0.46296000  0.49985000  0.38340000  1.0
  O  O117  1  0.56411000  0.51114000  0.62162000  1.0
