# generated using pymatgen
data_GdZnH10C15NO10
_symmetry_space_group_name_H-M   'P 1'
_cell_length_a   7.78641000
_cell_length_b   10.20750000
_cell_length_c   11.63570000
_cell_angle_alpha   70.10920000
_cell_angle_beta   74.76520000
_cell_angle_gamma   79.80190000
_symmetry_Int_Tables_number   1
_chemical_formula_structural   GdZnH10C15NO10
_chemical_formula_sum   'Gd2 Zn2 H20 C30 N2 O20'
_cell_volume   835.14587367
_cell_formula_units_Z   2
loop_
 _symmetry_equiv_pos_site_id
 _symmetry_equiv_pos_as_xyz
  1  'x, y, z'
loop_
 _atom_site_type_symbol
 _atom_site_label
 _atom_site_symmetry_multiplicity
 _atom_site_fract_x
 _atom_site_fract_y
 _atom_site_fract_z
 _atom_site_occupancy
  Gd  Gd0  1  0.36518000  0.45002000  0.67705000  1.0
  Gd  Gd1  1  0.63482000  0.54998000  0.32294000  1.0
  Zn  Zn2  1  0.34457000  0.24618000  0.46299000  1.0
  Zn  Zn3  1  0.65543000  0.75382000  0.53701000  1.0
  H  H4  1  0.94993000  0.10236000  0.83347000  1.0
  H  H5  1  0.05007000  0.89763000  0.16653000  1.0
  H  H6  1  0.71492000  0.95892000  0.99654000  1.0
  H  H7  1  0.28508000  0.04108000  0.00346000  1.0
  H  H8  1  0.53816000  0.04558000  0.17203000  1.0
  H  H9  1  0.46183000  0.95442000  0.82797000  1.0
  H  H10  1  0.82663000  0.41280000  0.02320000  1.0
  H  H11  1  0.17337000  0.58720000  0.97680000  1.0
  H  H12  1  0.73995000  0.90607000  0.73876000  1.0
  H  H13  1  0.26005000  0.09393000  0.26124000  1.0
  H  H14  1  0.04870000  0.80673000  0.76930000  1.0
  H  H15  1  0.95131000  0.19327000  0.23070000  1.0
  H  H16  1  0.30425000  0.95748000  0.65302000  1.0
  H  H17  1  0.69576000  0.04252000  0.34698000  1.0
  H  H18  1  0.27472000  0.48448000  0.44597000  1.0
  H  H19  1  0.72528000  0.51552000  0.55403000  1.0
  H  H20  1  0.54373000  0.25205000  0.88217000  1.0
  H  H21  1  0.45628000  0.74796000  0.11783000  1.0
  H  H22  1  0.42093000  0.36958000  0.93154000  1.0
  H  H23  1  0.57909000  0.63042000  0.06846000  1.0
  C  C24  1  0.05097000  0.34331000  0.82614000  1.0
  C  C25  1  0.94904000  0.65668000  0.17387000  1.0
  C  C26  1  0.89975000  0.26613000  0.91779000  1.0
  C  C27  1  0.10025000  0.73387000  0.08221000  1.0
  C  C28  1  0.86745000  0.13908000  0.90974000  1.0
  C  C29  1  0.13254000  0.86092000  0.09026000  1.0
  C  C30  1  0.73673000  0.05984000  0.00051000  1.0
  C  C31  1  0.26326000  0.94016000  0.99949000  1.0
  C  C32  1  0.63674000  0.10848000  0.09895000  1.0
  C  C33  1  0.36325000  0.89152000  0.90105000  1.0
  C  C34  1  0.66435000  0.23782000  0.10586000  1.0
  C  C35  1  0.33563000  0.76219000  0.89414000  1.0
  C  C36  1  0.56056000  0.28820000  0.21367000  1.0
  C  C37  1  0.43943000  0.71181000  0.78632000  1.0
  C  C38  1  0.79756000  0.31582000  0.01546000  1.0
  C  C39  1  0.20244000  0.68418000  0.98454000  1.0
  C  C40  1  0.96705000  0.31775000  0.44660000  1.0
  C  C41  1  0.03295000  0.68226000  0.55340000  1.0
  C  C42  1  0.97681000  0.17725000  0.54639000  1.0
  C  C43  1  0.02319000  0.82275000  0.45361000  1.0
  C  C44  1  0.82595000  0.10512000  0.61272000  1.0
  C  C45  1  0.17405000  0.89488000  0.38728000  1.0
  C  C46  1  0.63817000  0.17166000  0.60408000  1.0
  C  C47  1  0.36184000  0.82833000  0.39592000  1.0
  C  C48  1  0.85306000  0.96851000  0.69216000  1.0
  C  C49  1  0.14695000  0.03149000  0.30784000  1.0
  C  C50  1  0.02475000  0.91275000  0.70828000  1.0
  C  C51  1  0.97525000  0.08725000  0.29172000  1.0
  C  C52  1  0.16707000  0.99429000  0.64418000  1.0
  C  C53  1  0.83294000  0.00571000  0.35582000  1.0
  N  N54  1  0.14202000  0.12222000  0.56385000  1.0
  N  N55  1  0.85798000  0.87778000  0.43615000  1.0
  O  O56  1  0.09409000  0.44937000  0.84209000  1.0
  O  O57  1  0.90591000  0.55062000  0.15790000  1.0
  O  O58  1  0.13927000  0.29626000  0.73574000  1.0
  O  O59  1  0.86075000  0.70372000  0.26427000  1.0
  O  O60  1  0.58378000  0.40792000  0.21411000  1.0
  O  O61  1  0.41622000  0.59208000  0.78589000  1.0
  O  O62  1  0.45685000  0.20440000  0.30070000  1.0
  O  O63  1  0.54313000  0.79561000  0.69929000  1.0
  O  O64  1  0.10887000  0.37652000  0.39360000  1.0
  O  O65  1  0.89114000  0.62348000  0.60640000  1.0
  O  O66  1  0.81311000  0.36435000  0.42295000  1.0
  O  O67  1  0.18689000  0.63566000  0.57706000  1.0
  O  O68  1  0.57397000  0.25516000  0.66805000  1.0
  O  O69  1  0.42603000  0.74484000  0.33195000  1.0
  O  O70  1  0.55733000  0.13245000  0.54208000  1.0
  O  O71  1  0.44268000  0.86754000  0.45792000  1.0
  O  O72  1  0.38347000  0.43191000  0.47147000  1.0
  O  O73  1  0.61652000  0.56809000  0.52852000  1.0
  O  O74  1  0.42594000  0.30500000  0.88511000  1.0
  O  O75  1  0.57407000  0.69500000  0.11488000  1.0
