# generated using pymatgen
data_Al3H28C53O16
_symmetry_space_group_name_H-M   'P 1'
_cell_length_a   12.70620000
_cell_length_b   12.79990000
_cell_length_c   27.69310000
_cell_angle_alpha   89.46420000
_cell_angle_beta   89.80350000
_cell_angle_gamma   61.55720000
_symmetry_Int_Tables_number   1
_chemical_formula_structural   Al3H28C53O16
_chemical_formula_sum   'Al6 H56 C106 O32'
_cell_volume   3960.11854462
_cell_formula_units_Z   2
loop_
 _symmetry_equiv_pos_site_id
 _symmetry_equiv_pos_as_xyz
  1  'x, y, z'
loop_
 _atom_site_type_symbol
 _atom_site_label
 _atom_site_symmetry_multiplicity
 _atom_site_fract_x
 _atom_site_fract_y
 _atom_site_fract_z
 _atom_site_occupancy
  Al  Al0  1  0.38450000  0.42470000  0.50200000  1.0
  Al  Al1  1  0.41269000  0.66017000  0.50070000  1.0
  Al  Al2  1  0.63646000  0.42653000  0.49966000  1.0
  Al  Al3  1  0.92548000  0.92110000  0.01616000  1.0
  Al  Al4  1  0.66981000  0.92720000  0.01493000  1.0
  Al  Al5  1  0.88979000  0.68869000  0.01622000  1.0
  H  H6  1  0.54155000  0.89737000  0.77246000  1.0
  H  H7  1  0.73703000  0.80627000  0.70722000  1.0
  H  H8  1  0.51240000  0.99631000  0.23030000  1.0
  H  H9  1  0.50029000  0.96652000  0.31758000  1.0
  H  H10  1  0.78252000  0.53396000  0.12938000  1.0
  H  H11  1  0.81714000  0.39647000  0.19941000  1.0
  H  H12  1  0.79594000  0.36682000  0.28626000  1.0
  H  H13  1  0.72206000  0.45136000  0.36787000  1.0
  H  H14  1  0.87877000  0.04964000  0.14585000  1.0
  H  H15  1  0.79468000  0.20412000  0.38202000  1.0
  H  H16  1  0.96217000  0.06408000  0.22536000  1.0
  H  H17  1  0.68536000  0.95871000  0.77367000  1.0
  H  H18  1  0.46072000  0.74649000  0.73282000  1.0
  H  H19  1  0.93249000  0.11690000  0.31184000  1.0
  H  H20  1  0.50426000  0.15838000  0.13112000  1.0
  H  H21  1  0.36593000  0.24735000  0.20126000  1.0
  H  H22  1  0.33636000  0.29835000  0.28799000  1.0
  H  H23  1  0.42027000  0.31149000  0.36762000  1.0
  H  H24  1  0.03325000  0.55056000  0.14959000  1.0
  H  H25  1  0.19188000  0.50097000  0.38636000  1.0
  H  H26  1  0.05873000  0.44999000  0.23050000  1.0
  H  H27  1  0.10985000  0.84141000  0.13273000  1.0
  H  H28  1  0.20157000  0.48455000  0.78189000  1.0
  H  H29  1  0.60318000  0.56697000  0.80184000  1.0
  H  H30  1  0.18113000  0.91153000  0.20288000  1.0
  H  H31  1  0.23027000  0.89892000  0.29004000  1.0
  H  H32  1  0.25399000  0.80086000  0.36986000  1.0
  H  H33  1  0.79482000  0.47580000  0.73628000  1.0
  H  H34  1  0.87678000  0.62772000  0.77613000  1.0
  H  H35  1  0.86094000  0.14777000  0.77910000  1.0
  H  H36  1  0.83991000  0.99569000  0.70948000  1.0
  H  H37  1  0.52360000  0.47223000  0.79255000  1.0
  H  H38  1  0.39999000  0.60759000  0.85763000  1.0
  H  H39  1  0.02182000  0.60114000  0.70972000  1.0
  H  H40  1  0.29832000  0.53938000  0.91729000  1.0
  H  H41  1  0.31853000  0.33687000  0.91042000  1.0
  H  H42  1  0.44375000  0.20179000  0.84652000  1.0
  H  H43  1  0.33371000  0.23441000  0.77221000  1.0
  H  H44  1  0.43105000  0.07805000  0.77887000  1.0
  H  H45  1  0.32501000  0.13266000  0.73020000  1.0
  H  H46  1  0.37001000  0.99776000  0.41420000  1.0
  H  H47  1  0.35795000  0.86330000  0.41250000  1.0
  H  H48  1  0.35781000  0.93848000  0.35725000  1.0
  H  H49  1  0.93531000  0.47003000  0.32921000  1.0
  H  H50  1  0.33857000  0.57998000  0.73860000  1.0
  H  H51  1  0.00037000  0.52032000  0.37488000  1.0
  H  H52  1  0.03387000  0.36766000  0.37397000  1.0
  H  H53  1  0.50383000  0.41889000  0.70125000  1.0
  H  H54  1  0.61158000  0.43693000  0.66520000  1.0
  H  H55  1  0.54392000  0.53081000  0.71602000  1.0
  H  H56  1  0.22596000  0.78173000  0.79916000  1.0
  H  H57  1  0.04787000  0.89812000  0.72746000  1.0
  H  H58  1  0.90891000  0.80292000  0.77058000  1.0
  H  H59  1  0.57567000  0.91217000  0.14782000  1.0
  H  H60  1  0.30309000  0.30560000  0.53018000  1.0
  H  H61  1  0.01867000  0.03112000  0.98942000  1.0
  C  C62  1  0.26850000  0.63259000  0.56935000  1.0
  C  C63  1  0.65038000  0.65154000  0.65579000  1.0
  C  C64  1  0.35092000  0.48117000  0.88820000  1.0
  C  C65  1  0.36225000  0.36754000  0.88422000  1.0
  C  C66  1  0.43171000  0.29191000  0.84763000  1.0
  C  C67  1  0.38523000  0.15100000  0.75253000  1.0
  C  C68  1  0.39399000  0.91599000  0.39421000  1.0
  C  C69  1  0.01533000  0.44542000  0.35150000  1.0
  C  C70  1  0.57758000  0.44073000  0.70191000  1.0
  C  C71  1  0.76661000  0.06427000  0.73013000  1.0
  C  C72  1  0.60141000  0.61088000  0.56723000  1.0
  C  C73  1  0.77823000  0.14887000  0.76767000  1.0
  C  C74  1  0.70474000  0.09180000  0.89623000  1.0
  C  C75  1  0.63116000  0.22574000  0.61294000  1.0
  C  C76  1  0.67955000  0.04432000  0.76433000  1.0
  C  C77  1  0.69177000  0.12822000  0.80244000  1.0
  C  C78  1  0.56902000  0.15484000  0.74053000  1.0
  C  C79  1  0.65681000  0.17275000  0.70550000  1.0
  C  C80  1  0.63490000  0.63604000  0.61353000  1.0
  C  C81  1  0.57818000  0.24215000  0.77957000  1.0
  C  C82  1  0.66935000  0.25784000  0.74458000  1.0
  C  C83  1  0.70323000  0.10692000  0.85268000  1.0
  C  C84  1  0.60082000  0.28517000  0.56686000  1.0
  C  C85  1  0.64194000  0.19782000  0.65558000  1.0
  C  C86  1  0.06695000  0.64088000  0.73023000  1.0
  C  C87  1  0.16659000  0.57624000  0.76923000  1.0
  C  C88  1  0.06167000  0.69441000  0.89629000  1.0
  C  C89  1  0.20875000  0.67152000  0.61489000  1.0
  C  C90  1  0.00466000  0.75328000  0.76279000  1.0
  C  C91  1  0.78446000  0.65395000  0.76602000  1.0
  C  C92  1  0.10386000  0.68826000  0.80310000  1.0
  C  C93  1  0.08157000  0.80627000  0.73975000  1.0
  C  C94  1  0.14409000  0.69427000  0.70595000  1.0
  C  C95  1  0.18096000  0.74174000  0.77876000  1.0
  C  C96  1  0.27070000  0.63111000  0.43285000  1.0
  C  C97  1  0.24306000  0.62952000  0.74634000  1.0
  C  C98  1  0.08057000  0.68965000  0.85300000  1.0
  C  C99  1  0.17404000  0.68806000  0.65659000  1.0
  C  C100  1  0.57392000  0.75479000  0.36391000  1.0
  C  C101  1  0.58587000  0.77335000  0.31413000  1.0
  C  C102  1  0.67581000  0.70544000  0.80295000  1.0
  C  C103  1  0.60494000  0.80786000  0.21320000  1.0
  C  C104  1  0.54787000  0.90670000  0.24522000  1.0
  C  C105  1  0.54019000  0.89032000  0.29365000  1.0
  C  C106  1  0.61448000  0.82307000  0.16345000  1.0
  C  C107  1  0.67831000  0.72478000  0.13366000  1.0
  C  C108  1  0.60185000  0.61155000  0.43351000  1.0
  C  C109  1  0.68505000  0.54055000  0.35239000  1.0
  C  C110  1  0.69669000  0.55532000  0.30284000  1.0
  C  C111  1  0.64586000  0.67308000  0.28327000  1.0
  C  C112  1  0.75839000  0.45636000  0.27111000  1.0
  C  C113  1  0.73976000  0.56984000  0.74445000  1.0
  C  C114  1  0.77005000  0.47282000  0.22300000  1.0
  C  C115  1  0.71980000  0.58997000  0.20220000  1.0
  C  C116  1  0.65662000  0.69025000  0.23298000  1.0
  C  C117  1  0.73157000  0.60924000  0.15297000  1.0
  C  C118  1  0.62287000  0.63805000  0.38298000  1.0
  C  C119  1  0.72042000  0.21433000  0.35928000  1.0
  C  C120  1  0.58215000  0.30503000  0.42972000  1.0
  C  C121  1  0.74007000  0.18093000  0.31064000  1.0
  C  C122  1  0.77464000  0.11978000  0.21104000  1.0
  C  C123  1  0.87305000  0.10278000  0.24129000  1.0
  C  C124  1  0.66178000  0.66845000  0.70564000  1.0
  C  C125  1  0.85664000  0.13162000  0.28905000  1.0
  C  C126  1  0.79033000  0.08778000  0.16233000  1.0
  C  C127  1  0.69359000  0.10047000  0.13414000  1.0
  C  C128  1  0.50845000  0.27508000  0.35099000  1.0
  C  C129  1  0.52358000  0.24535000  0.30198000  1.0
  C  C130  1  0.64046000  0.19811000  0.28127000  1.0
  C  C131  1  0.42509000  0.26207000  0.27177000  1.0
  C  C132  1  0.70699000  0.75332000  0.72869000  1.0
  C  C133  1  0.44167000  0.23352000  0.22394000  1.0
  C  C134  1  0.55815000  0.18449000  0.20223000  1.0
  C  C135  1  0.63143000  0.62030000  0.77987000  1.0
  C  C136  1  0.65757000  0.16795000  0.23158000  1.0
  C  C137  1  0.57833000  0.14920000  0.15374000  1.0
  C  C138  1  0.60563000  0.26127000  0.37917000  1.0
  C  C139  1  0.18877000  0.57179000  0.36332000  1.0
  C  C140  1  0.15348000  0.58197000  0.31493000  1.0
  C  C141  1  0.09228000  0.59936000  0.21486000  1.0
  C  C142  1  0.08658000  0.51149000  0.24553000  1.0
  C  C143  1  0.11657000  0.50236000  0.29331000  1.0
  C  C144  1  0.59841000  0.80367000  0.76420000  1.0
  C  C145  1  0.06317000  0.60935000  0.16562000  1.0
  C  C146  1  0.55340000  0.71976000  0.74278000  1.0
  C  C147  1  0.06974000  0.69644000  0.13680000  1.0
  C  C148  1  0.22519000  0.74110000  0.35405000  1.0
  C  C149  1  0.19401000  0.75205000  0.30512000  1.0
  C  C150  1  0.15754000  0.67172000  0.28498000  1.0
  C  C151  1  0.20104000  0.83918000  0.27427000  1.0
  C  C152  1  0.17400000  0.84615000  0.22632000  1.0
  C  C153  1  0.13629000  0.76742000  0.20525000  1.0
  C  C154  1  0.12843000  0.67972000  0.23516000  1.0
  C  C155  1  0.10641000  0.77442000  0.15631000  1.0
  C  C156  1  0.68474000  0.72969000  0.89702000  1.0
  C  C157  1  0.68088000  0.72000000  0.85334000  1.0
  C  C158  1  0.22398000  0.65109000  0.38263000  1.0
  C  C159  1  0.72141000  0.05275000  0.94572000  1.0
  C  C160  1  0.70676000  0.74640000  0.94645000  1.0
  C  C161  1  0.02679000  0.72001000  0.94588000  1.0
  C  C162  1  0.71976000  0.05175000  0.08434000  1.0
  C  C163  1  0.69902000  0.74646000  0.08255000  1.0
  C  C164  1  0.02865000  0.71516000  0.08577000  1.0
  C  C165  1  0.49037000  0.32868000  0.81362000  1.0
  C  C166  1  0.47660000  0.44364000  0.81778000  1.0
  C  C167  1  0.40784000  0.51919000  0.85465000  1.0
  O  O168  1  0.49927000  0.31119000  0.54964000  1.0
  O  O169  1  0.80372000  0.66534000  0.96512000  1.0
  O  O170  1  0.01200000  0.64196000  0.97073000  1.0
  O  O171  1  0.29959000  0.52659000  0.55790000  1.0
  O  O172  1  0.02317000  0.80443000  0.06375000  1.0
  O  O173  1  0.82451000  0.01652000  0.06866000  1.0
  O  O174  1  0.63556000  0.04366000  0.06124000  1.0
  O  O175  1  0.63007000  0.84891000  0.06413000  1.0
  O  O176  1  0.78894000  0.66451000  0.06057000  1.0
  O  O177  1  0.99633000  0.64196000  0.06771000  1.0
  O  O178  1  0.82685000  0.84471000  0.01502000  1.0
  O  O179  1  0.50952000  0.68804000  0.45598000  1.0
  O  O180  1  0.28904000  0.70762000  0.54498000  1.0
  O  O181  1  0.49846000  0.68674000  0.55106000  1.0
  O  O182  1  0.67312000  0.51302000  0.54699000  1.0
  O  O183  1  0.67836000  0.31191000  0.54809000  1.0
  O  O184  1  0.47970000  0.33511000  0.44688000  1.0
  O  O185  1  0.27856000  0.54190000  0.45568000  1.0
  O  O186  1  0.30532000  0.70412000  0.44929000  1.0
  O  O187  1  0.46856000  0.15974000  0.71997000  1.0
  O  O188  1  0.52281000  0.85126000  0.39372000  1.0
  O  O189  1  0.11879000  0.41117000  0.32109000  1.0
  O  O190  1  0.67359000  0.50841000  0.45081000  1.0
  O  O191  1  0.67393000  0.36025000  0.73299000  1.0
  O  O192  1  0.66699000  0.31370000  0.45207000  1.0
  O  O193  1  0.47935000  0.50431000  0.50143000  1.0
  O  O194  1  0.01002000  0.81969000  0.96072000  1.0
  O  O195  1  0.81832000  0.03257000  0.96584000  1.0
  O  O196  1  0.63721000  0.03668000  0.96475000  1.0
  O  O197  1  0.63244000  0.84235000  0.96725000  1.0
  O  O198  1  0.29589000  0.35326000  0.50184000  1.0
  O  O199  1  0.01771000  0.98847000  0.01825000  1.0
