# generated using pymatgen
data_CdH5C6SN3Cl2
_symmetry_space_group_name_H-M   'P 1'
_cell_length_a   6.82062000
_cell_length_b   7.20966000
_cell_length_c   10.20830000
_cell_angle_alpha   74.04030000
_cell_angle_beta   73.24890000
_cell_angle_gamma   78.17060000
_symmetry_Int_Tables_number   1
_chemical_formula_structural   CdH5C6SN3Cl2
_chemical_formula_sum   'Cd2 H10 C12 S2 N6 Cl4'
_cell_volume   457.82594554
_cell_formula_units_Z   2
loop_
 _symmetry_equiv_pos_site_id
 _symmetry_equiv_pos_as_xyz
  1  'x, y, z'
loop_
 _atom_site_type_symbol
 _atom_site_label
 _atom_site_symmetry_multiplicity
 _atom_site_fract_x
 _atom_site_fract_y
 _atom_site_fract_z
 _atom_site_occupancy
  Cd  Cd0  1  0.79354000  0.49135000  0.40801000  1.0
  Cd  Cd1  1  0.20646000  0.50865000  0.59199000  1.0
  H  H2  1  0.40882000  0.73693000  0.69602000  1.0
  H  H3  1  0.59118000  0.26307000  0.30398000  1.0
  H  H4  1  0.26506000  0.89623000  0.59410000  1.0
  H  H5  1  0.73494000  0.10378000  0.40590000  1.0
  H  H6  1  0.63677000  0.07260000  0.89959000  1.0
  H  H7  1  0.36323000  0.92740000  0.10042000  1.0
  H  H8  1  0.90891000  0.03088000  0.68968000  1.0
  H  H9  1  0.09108000  0.96913000  0.31032000  1.0
  H  H10  1  0.66000000  0.87586000  0.14005000  1.0
  H  H11  1  0.33999000  0.12413000  0.85996000  1.0
  C  C12  1  0.96419000  0.72873000  0.05892000  1.0
  C  C13  1  0.03581000  0.27128000  0.94108000  1.0
  C  C14  1  0.13122000  0.71270000  0.93649000  1.0
  C  C15  1  0.86878000  0.28730000  0.06351000  1.0
  C  C16  1  0.11069000  0.81833000  0.79977000  1.0
  C  C17  1  0.88931000  0.18167000  0.20023000  1.0
  C  C18  1  0.77155000  0.96572000  0.91369000  1.0
  C  C19  1  0.22844000  0.03427000  0.08632000  1.0
  C  C20  1  0.92977000  0.94430000  0.79163000  1.0
  C  C21  1  0.07023000  0.05571000  0.20836000  1.0
  C  C22  1  0.78260000  0.85986000  0.04686000  1.0
  C  C23  1  0.21740000  0.14015000  0.95313000  1.0
  S  S24  1  0.24999000  0.50412000  0.13397000  1.0
  S  S25  1  0.75001000  0.49588000  0.86603000  1.0
  N  N26  1  0.01242000  0.61108000  0.17774000  1.0
  N  N27  1  0.98758000  0.38892000  0.82226000  1.0
  N  N28  1  0.26348000  0.78240000  0.68028000  1.0
  N  N29  1  0.73651000  0.21760000  0.31972000  1.0
  N  N30  1  0.29993000  0.59240000  0.96647000  1.0
  N  N31  1  0.70007000  0.40760000  0.03352000  1.0
  Cl  Cl32  1  0.85792000  0.73320000  0.53705000  1.0
  Cl  Cl33  1  0.14208000  0.26680000  0.46296000  1.0
  Cl  Cl34  1  0.44725000  0.69274000  0.35830000  1.0
  Cl  Cl35  1  0.55276000  0.30726000  0.64170000  1.0
