# generated using pymatgen
data_Co3H12C15N6O7
_symmetry_space_group_name_H-M   'P 1'
_cell_length_a   10.68490000
_cell_length_b   10.95970000
_cell_length_c   10.97940000
_cell_angle_alpha   82.26740000
_cell_angle_beta   83.43600000
_cell_angle_gamma   86.39200000
_symmetry_Int_Tables_number   1
_chemical_formula_structural   Co3H12C15N6O7
_chemical_formula_sum   'Co6 H24 C30 N12 O14'
_cell_volume   1264.20372705
_cell_formula_units_Z   2
loop_
 _symmetry_equiv_pos_site_id
 _symmetry_equiv_pos_as_xyz
  1  'x, y, z'
loop_
 _atom_site_type_symbol
 _atom_site_label
 _atom_site_symmetry_multiplicity
 _atom_site_fract_x
 _atom_site_fract_y
 _atom_site_fract_z
 _atom_site_occupancy
  Co  Co0  1  0.25201000  0.07878000  0.90838000  1.0
  Co  Co1  1  0.74797000  0.92121000  0.09163000  1.0
  Co  Co2  1  0.49635000  0.84396000  0.00005000  1.0
  Co  Co3  1  0.50360000  0.15603000  0.99994000  1.0
  Co  Co4  1  0.00926000  0.97331000  0.84449000  1.0
  Co  Co5  1  0.99079000  0.02672000  0.15552000  1.0
  H  H6  1  0.99443000  0.64612000  0.83725000  1.0
  H  H7  1  0.00558000  0.35387000  0.16276000  1.0
  H  H8  1  0.09200000  0.43078000  0.85046000  1.0
  H  H9  1  0.90802000  0.56921000  0.14954000  1.0
  H  H10  1  0.44134000  0.55183000  0.94457000  1.0
  H  H11  1  0.55867000  0.44819000  0.05545000  1.0
  H  H12  1  0.51639000  0.15440000  0.32190000  1.0
  H  H13  1  0.48358000  0.84555000  0.67813000  1.0
  H  H14  1  0.42621000  0.12238000  0.54465000  1.0
  H  H15  1  0.57378000  0.87760000  0.45539000  1.0
  H  H16  1  0.06282000  0.04475000  0.44455000  1.0
  H  H17  1  0.93716000  0.95524000  0.55545000  1.0
  H  H18  1  0.04098000  0.18346000  0.91624000  1.0
  H  H19  1  0.95900000  0.81653000  0.08373000  1.0
  H  H20  1  0.47574000  0.04523000  0.81671000  1.0
  H  H21  1  0.52426000  0.95477000  0.18332000  1.0
  H  H22  1  0.27965000  0.77698000  0.17252000  1.0
  H  H23  1  0.72035000  0.22304000  0.82746000  1.0
  H  H24  1  0.32441000  0.73371000  0.38267000  1.0
  H  H25  1  0.67559000  0.26632000  0.61731000  1.0
  H  H26  1  0.42076000  0.64090000  0.28044000  1.0
  H  H27  1  0.57923000  0.35911000  0.71956000  1.0
  H  H28  1  0.48109000  0.77510000  0.32276000  1.0
  H  H29  1  0.51892000  0.22491000  0.67722000  1.0
  C  C30  1  0.29093000  0.69210000  0.91523000  1.0
  C  C31  1  0.70908000  0.30792000  0.08477000  1.0
  C  C32  1  0.16608000  0.71870000  0.88313000  1.0
  C  C33  1  0.83394000  0.28133000  0.11689000  1.0
  C  C34  1  0.09102000  0.62556000  0.85933000  1.0
  C  C35  1  0.90900000  0.37447000  0.14068000  1.0
  C  C36  1  0.14527000  0.50729000  0.86710000  1.0
  C  C37  1  0.85475000  0.49272000  0.13290000  1.0
  C  C38  1  0.27112000  0.47990000  0.89715000  1.0
  C  C39  1  0.72888000  0.52009000  0.10284000  1.0
  C  C40  1  0.34535000  0.57201000  0.92147000  1.0
  C  C41  1  0.65466000  0.42800000  0.07852000  1.0
  C  C42  1  0.32182000  0.34867000  0.90479000  1.0
  C  C43  1  0.67817000  0.65132000  0.09520000  1.0
  C  C44  1  0.21084000  0.08363000  0.29459000  1.0
  C  C45  1  0.78912000  0.91636000  0.70540000  1.0
  C  C46  1  0.33744000  0.11676000  0.26014000  1.0
  C  C47  1  0.66252000  0.88321000  0.73986000  1.0
  C  C48  1  0.41836000  0.13177000  0.34883000  1.0
  C  C49  1  0.58161000  0.86819000  0.65115000  1.0
  C  C50  1  0.36797000  0.11431000  0.47128000  1.0
  C  C51  1  0.63205000  0.88566000  0.52872000  1.0
  C  C52  1  0.24017000  0.08388000  0.50674000  1.0
  C  C53  1  0.75985000  0.91611000  0.49326000  1.0
  C  C54  1  0.16025000  0.06842000  0.41873000  1.0
  C  C55  1  0.83974000  0.93157000  0.58128000  1.0
  C  C56  1  0.19320000  0.06716000  0.64161000  1.0
  C  C57  1  0.80682000  0.93286000  0.35840000  1.0
  C  C58  1  0.39568000  0.73513000  0.30181000  1.0
  C  C59  1  0.60432000  0.26489000  0.69817000  1.0
  N  N60  1  0.33625000  0.80155000  0.93588000  1.0
  N  N61  1  0.66375000  0.19848000  0.06412000  1.0
  N  N62  1  0.24410000  0.88806000  0.91728000  1.0
  N  N63  1  0.75592000  0.11197000  0.08273000  1.0
  N  N64  1  0.14212000  0.84215000  0.88460000  1.0
  N  N65  1  0.85791000  0.15787000  0.11541000  1.0
  N  N66  1  0.16045000  0.07146000  0.18700000  1.0
  N  N67  1  0.83953000  0.92854000  0.81298000  1.0
  N  N68  1  0.25191000  0.09582000  0.09446000  1.0
  N  N69  1  0.74806000  0.90417000  0.90553000  1.0
  N  N70  1  0.35762000  0.12459000  0.13454000  1.0
  N  N71  1  0.64234000  0.87539000  0.86546000  1.0
  O  O72  1  0.05982000  0.09607000  0.94033000  1.0
  O  O73  1  0.94033000  0.90396000  0.05966000  1.0
  O  O74  1  0.43883000  0.04243000  0.90215000  1.0
  O  O75  1  0.56104000  0.95755000  0.09784000  1.0
  O  O76  1  0.43279000  0.32497000  0.93875000  1.0
  O  O77  1  0.56720000  0.67505000  0.06125000  1.0
  O  O78  1  0.25102000  0.27016000  0.87668000  1.0
  O  O79  1  0.74900000  0.72980000  0.12332000  1.0
  O  O80  1  0.07819000  0.03732000  0.67188000  1.0
  O  O81  1  0.92183000  0.96268000  0.32811000  1.0
  O  O82  1  0.27057000  0.08321000  0.71696000  1.0
  O  O83  1  0.72940000  0.91678000  0.28309000  1.0
  O  O84  1  0.35224000  0.81304000  0.19709000  1.0
  O  O85  1  0.64779000  0.18697000  0.80286000  1.0
