# generated using pymatgen
data_KH6C9BrO2
_symmetry_space_group_name_H-M   'P 1'
_cell_length_a   3.92859000
_cell_length_b   11.33550000
_cell_length_c   21.20950000
_cell_angle_alpha   89.68420000
_cell_angle_beta   95.33160000
_cell_angle_gamma   90.02390000
_symmetry_Int_Tables_number   1
_chemical_formula_structural   KH6C9BrO2
_chemical_formula_sum   'K4 H24 C36 Br4 O8'
_cell_volume   940.41210938
_cell_formula_units_Z   4
loop_
 _symmetry_equiv_pos_site_id
 _symmetry_equiv_pos_as_xyz
  1  'x, y, z'
loop_
 _atom_site_type_symbol
 _atom_site_label
 _atom_site_symmetry_multiplicity
 _atom_site_fract_x
 _atom_site_fract_y
 _atom_site_fract_z
 _atom_site_occupancy
  K  K0  1  0.72386000  0.46042000  0.51487000  1.0
  K  K1  1  0.78926000  0.96031000  0.51465000  1.0
  K  K2  1  0.19127000  0.71069000  0.41178000  1.0
  K  K3  1  0.21903000  0.21056000  0.41172000  1.0
  H  H4  1  0.54958000  0.45233000  0.15730000  1.0
  H  H5  1  0.60986000  0.95203000  0.15720000  1.0
  H  H6  1  0.95297000  0.21016000  0.02669000  1.0
  H  H7  1  0.07535000  0.71010000  0.02643000  1.0
  H  H8  1  0.14236000  0.07691000  0.11591000  1.0
  H  H9  1  0.97203000  0.57718000  0.11555000  1.0
  H  H10  1  0.04065000  0.13020000  0.22655000  1.0
  H  H11  1  0.18330000  0.63037000  0.22628000  1.0
  H  H12  1  0.76498000  0.25189000  0.29893000  1.0
  H  H13  1  0.53230000  0.75169000  0.29883000  1.0
  H  H14  1  0.70423000  0.51339000  0.25892000  1.0
  H  H15  1  0.55454000  0.01316000  0.25876000  1.0
  H  H16  1  0.34278000  0.19979000  0.76921000  1.0
  H  H17  1  0.42739000  0.69999000  0.76937000  1.0
  H  H18  1  0.86776000  0.95694000  0.90211000  1.0
  H  H19  1  0.03562000  0.45716000  0.90230000  1.0
  H  H20  1  0.98791000  0.82631000  0.81356000  1.0
  H  H21  1  0.82665000  0.32637000  0.81381000  1.0
  H  H22  1  0.78975000  0.88144000  0.70222000  1.0
  H  H23  1  0.91313000  0.38141000  0.70244000  1.0
  H  H24  1  0.45261000  0.00254000  0.62810000  1.0
  H  H25  1  0.17459000  0.50256000  0.62829000  1.0
  H  H26  1  0.38027000  0.26167000  0.66789000  1.0
  H  H27  1  0.28788000  0.76168000  0.66808000  1.0
  C  C28  1  0.79743000  0.29641000  0.20005000  1.0
  C  C29  1  0.40276000  0.79622000  0.19992000  1.0
  C  C30  1  0.68745000  0.37132000  0.14900000  1.0
  C  C31  1  0.46295000  0.87111000  0.14893000  1.0
  C  C32  1  0.74408000  0.33886000  0.08771000  1.0
  C  C33  1  0.34514000  0.83876000  0.08759000  1.0
  C  C34  1  0.90891000  0.23378000  0.07495000  1.0
  C  C35  1  0.16664000  0.73384000  0.07472000  1.0
  C  C36  1  0.01355000  0.15901000  0.12552000  1.0
  C  C37  1  0.11124000  0.65912000  0.12524000  1.0
  C  C38  1  0.95661000  0.18907000  0.18724000  1.0
  C  C39  1  0.22945000  0.68911000  0.18700000  1.0
  C  C40  1  0.75410000  0.32647000  0.26569000  1.0
  C  C41  1  0.51091000  0.82626000  0.26557000  1.0
  C  C42  1  0.71226000  0.43509000  0.28925000  1.0
  C  C43  1  0.57633000  0.93490000  0.28913000  1.0
  C  C44  1  0.68967000  0.45736000  0.35811000  1.0
  C  C45  1  0.66731000  0.95723000  0.35799000  1.0
  C  C46  1  0.55957000  0.04553000  0.72749000  1.0
  C  C47  1  0.16883000  0.54554000  0.72765000  1.0
  C  C48  1  0.49048000  0.11907000  0.77807000  1.0
  C  C49  1  0.28891000  0.61914000  0.77822000  1.0
  C  C50  1  0.60077000  0.08560000  0.83976000  1.0
  C  C51  1  0.24059000  0.58572000  0.83992000  1.0
  C  C52  1  0.78067000  0.98103000  0.85352000  1.0
  C  C53  1  0.07425000  0.48114000  0.85369000  1.0
  C  C54  1  0.84626000  0.90785000  0.80335000  1.0
  C  C55  1  0.95810000  0.40790000  0.80357000  1.0
  C  C56  1  0.73551000  0.93893000  0.74120000  1.0
  C  C57  1  0.00653000  0.43894000  0.74140000  1.0
  C  C58  1  0.45739000  0.07609000  0.66149000  1.0
  C  C59  1  0.20398000  0.57616000  0.66165000  1.0
  C  C60  1  0.37739000  0.18395000  0.63763000  1.0
  C  C61  1  0.25986000  0.68406000  0.63778000  1.0
  C  C62  1  0.29447000  0.20626000  0.56842000  1.0
  C  C63  1  0.27233000  0.70641000  0.56854000  1.0
  Br  Br64  1  0.58757000  0.44130000  0.01919000  1.0
  Br  Br65  1  0.43466000  0.94123000  0.01920000  1.0
  Br  Br66  1  0.50044000  0.18616000  0.90756000  1.0
  Br  Br67  1  0.40844000  0.68636000  0.90773000  1.0
  O  O68  1  0.66500000  0.56473000  0.37499000  1.0
  O  O69  1  0.70865000  0.06462000  0.37487000  1.0
  O  O70  1  0.70134000  0.36959000  0.39633000  1.0
  O  O71  1  0.69400000  0.86945000  0.39619000  1.0
  O  O72  1  0.23601000  0.31297000  0.55115000  1.0
  O  O73  1  0.31294000  0.81315000  0.55123000  1.0
  O  O74  1  0.29142000  0.11914000  0.53035000  1.0
  O  O75  1  0.23697000  0.61926000  0.53049000  1.0
