# generated using pymatgen
data_V6Cu2H16C20N4O17
_symmetry_space_group_name_H-M   'P 1'
_cell_length_a   8.01075000
_cell_length_b   9.62493000
_cell_length_c   10.54680000
_cell_angle_alpha   98.89280000
_cell_angle_beta   102.66700000
_cell_angle_gamma   106.27400000
_symmetry_Int_Tables_number   1
_chemical_formula_structural   V6Cu2H16C20N4O17
_chemical_formula_sum   'V6 Cu2 H16 C20 N4 O17'
_cell_volume   741.06871663
_cell_formula_units_Z   1
loop_
 _symmetry_equiv_pos_site_id
 _symmetry_equiv_pos_as_xyz
  1  'x, y, z'
loop_
 _atom_site_type_symbol
 _atom_site_label
 _atom_site_symmetry_multiplicity
 _atom_site_fract_x
 _atom_site_fract_y
 _atom_site_fract_z
 _atom_site_occupancy
  V  V0  1  0.23010000  0.01036000  0.56194000  1.0
  V  V1  1  0.76989000  0.98965000  0.43806000  1.0
  V  V2  1  0.76005000  0.05691000  0.83994000  1.0
  V  V3  1  0.23996000  0.94310000  0.16007000  1.0
  V  V4  1  0.22436000  0.09040000  0.88024000  1.0
  V  V5  1  0.77564000  0.90960000  0.11977000  1.0
  Cu  Cu6  1  0.47364000  0.75868000  0.55891000  1.0
  Cu  Cu7  1  0.52637000  0.24132000  0.44110000  1.0
  H  H8  1  0.42962000  0.79838000  0.84009000  1.0
  H  H9  1  0.57038000  0.20161000  0.15991000  1.0
  H  H10  1  0.02797000  0.29525000  0.59513000  1.0
  H  H11  1  0.97202000  0.70474000  0.40486000  1.0
  H  H12  1  0.04031000  0.37950000  0.83179000  1.0
  H  H13  1  0.95969000  0.62050000  0.16821000  1.0
  H  H14  1  0.46563000  0.64620000  0.27365000  1.0
  H  H15  1  0.53437000  0.35380000  0.72634000  1.0
  H  H16  1  0.25008000  0.63810000  0.96092000  1.0
  H  H17  1  0.74993000  0.36190000  0.03908000  1.0
  H  H18  1  0.29109000  0.40995000  0.09825000  1.0
  H  H19  1  0.70890000  0.59006000  0.90175000  1.0
  H  H20  1  0.06717000  0.20728000  0.15842000  1.0
  H  H21  1  0.93283000  0.79272000  0.84158000  1.0
  H  H22  1  0.03400000  0.24339000  0.38915000  1.0
  H  H23  1  0.96600000  0.75660000  0.61085000  1.0
  C  C24  1  0.23035000  0.46428000  0.45276000  1.0
  C  C25  1  0.76964000  0.53571000  0.54724000  1.0
  C  C26  1  0.33960000  0.68623000  0.79026000  1.0
  C  C27  1  0.66039000  0.31377000  0.20974000  1.0
  C  C28  1  0.11745000  0.40546000  0.65172000  1.0
  C  C29  1  0.88256000  0.59453000  0.34828000  1.0
  C  C30  1  0.22359000  0.50126000  0.59180000  1.0
  C  C31  1  0.77641000  0.49873000  0.40820000  1.0
  C  C32  1  0.12486000  0.45336000  0.78522000  1.0
  C  C33  1  0.87515000  0.54664000  0.21478000  1.0
  C  C34  1  0.36864000  0.55379000  0.29388000  1.0
  C  C35  1  0.63135000  0.44620000  0.70611000  1.0
  C  C36  1  0.23808000  0.59547000  0.85613000  1.0
  C  C37  1  0.76192000  0.40453000  0.14387000  1.0
  C  C38  1  0.26954000  0.42300000  0.19730000  1.0
  C  C39  1  0.73046000  0.57700000  0.80270000  1.0
  C  C40  1  0.14736000  0.31069000  0.23163000  1.0
  C  C41  1  0.85263000  0.68931000  0.76837000  1.0
  C  C42  1  0.12766000  0.33061000  0.36064000  1.0
  C  C43  1  0.87234000  0.66939000  0.63936000  1.0
  N  N44  1  0.34836000  0.57257000  0.41744000  1.0
  N  N45  1  0.65163000  0.42743000  0.58256000  1.0
  N  N46  1  0.33195000  0.64007000  0.66188000  1.0
  N  N47  1  0.66805000  0.35992000  0.33812000  1.0
  O  O48  1  0.26396000  0.86507000  0.48200000  1.0
  O  O49  1  0.73604000  0.13494000  0.51801000  1.0
  O  O50  1  0.26183000  0.00085000  0.73513000  1.0
  O  O51  1  0.73817000  0.99916000  0.26488000  1.0
  O  O52  1  0.63585000  0.82955000  0.45609000  1.0
  O  O53  1  0.36415000  0.17044000  0.54391000  1.0
  O  O54  1  0.61782000  0.91947000  0.71135000  1.0
  O  O55  1  0.38220000  0.08054000  0.28866000  1.0
  O  O56  1  0.00000000  0.00000000  0.50000000  1.0
  O  O57  1  0.26952000  0.99266000  0.00506000  1.0
  O  O58  1  0.73047000  0.00734000  0.99495000  1.0
  O  O59  1  0.72155000  0.21328000  0.83673000  1.0
  O  O60  1  0.27843000  0.78672000  0.16325000  1.0
  O  O61  1  0.35181000  0.26254000  0.92737000  1.0
  O  O62  1  0.64821000  0.73746000  0.07264000  1.0
  O  O63  1  0.99550000  0.08036000  0.84464000  1.0
  O  O64  1  0.00452000  0.91966000  0.15538000  1.0
