# generated using pymatgen
data_Ni2MoH60C32(N5O)4
_symmetry_space_group_name_H-M   'P 1'
_cell_length_a   14.81400000
_cell_length_b   14.81710000
_cell_length_c   16.69330000
_cell_angle_alpha   105.37600000
_cell_angle_beta   105.37900000
_cell_angle_gamma   112.66500000
_symmetry_Int_Tables_number   1
_chemical_formula_structural   Ni2MoH60C32(N5O)4
_chemical_formula_sum   'Ni4 Mo2 H120 C64 N40 O8'
_cell_volume   2969.30192377
_cell_formula_units_Z   2
loop_
 _symmetry_equiv_pos_site_id
 _symmetry_equiv_pos_as_xyz
  1  'x, y, z'
loop_
 _atom_site_type_symbol
 _atom_site_label
 _atom_site_symmetry_multiplicity
 _atom_site_fract_x
 _atom_site_fract_y
 _atom_site_fract_z
 _atom_site_occupancy
  Ni  Ni0  1  0.00001000  0.50001000  0.00000000  1.0
  Ni  Ni1  1  0.50000000  0.00001000  0.50000000  1.0
  Ni  Ni2  1  0.99999000  0.00002000  0.50002000  1.0
  Ni  Ni3  1  0.00002000  0.99999000  0.00002000  1.0
  Mo  Mo4  1  0.87289000  0.12707000  0.75001000  1.0
  Mo  Mo5  1  0.12707000  0.87290000  0.25001000  1.0
  H  H6  1  0.12721000  0.41835000  0.90351000  1.0
  H  H7  1  0.25991000  0.52660000  0.97211000  1.0
  H  H8  1  0.09366000  0.34405000  0.01232000  1.0
  H  H9  1  0.23162000  0.43037000  0.08951000  1.0
  H  H10  1  0.99714000  0.37905000  0.18651000  1.0
  H  H11  1  0.96116000  0.31507000  0.06679000  1.0
  H  H12  1  0.18707000  0.65668000  0.97447000  1.0
  H  H13  1  0.16853000  0.57961000  0.86310000  1.0
  H  H14  1  0.80010000  0.99951000  0.37478000  1.0
  H  H15  1  0.79265000  0.93297000  0.26505000  1.0
  H  H16  1  0.74821000  0.85559000  0.41786000  1.0
  H  H17  1  0.71577000  0.76330000  0.30768000  1.0
  H  H18  1  0.86368000  0.73400000  0.53745000  1.0
  H  H19  1  0.83470000  0.84157000  0.54895000  1.0
  H  H20  1  0.93194000  0.12647000  0.33305000  1.0
  H  H21  1  0.99342000  0.04426000  0.32395000  1.0
  H  H22  1  0.15751000  0.53531000  0.27579000  1.0
  H  H23  1  0.23507000  0.59749000  0.22314000  1.0
  H  H24  1  0.25685000  0.43985000  0.30344000  1.0
  H  H25  1  0.32463000  0.48034000  0.23468000  1.0
  H  H26  1  0.86020000  0.63755000  0.40634000  1.0
  H  H27  1  0.92217000  0.73352000  0.36612000  1.0
  H  H28  1  0.68665000  0.55648000  0.26916000  1.0
  H  H29  1  0.75656000  0.64710000  0.22628000  1.0
  H  H30  1  0.20338000  0.57932000  0.08748000  1.0
  H  H31  1  0.98909000  0.46353000  0.83473000  1.0
  H  H32  1  0.89521000  0.86470000  0.32848000  1.0
  H  H33  1  0.98361000  0.16099000  0.49048000  1.0
  H  H34  1  0.42117000  0.59032000  0.39500000  1.0
  H  H35  1  0.87986000  0.57447000  0.25539000  1.0
  H  H36  1  0.58165000  0.87282000  0.59648000  1.0
  H  H37  1  0.47340000  0.74012000  0.52789000  1.0
  H  H38  1  0.65595000  0.90635000  0.48767000  1.0
  H  H39  1  0.56963000  0.76840000  0.41048000  1.0
  H  H40  1  0.62093000  0.00287000  0.31347000  1.0
  H  H41  1  0.68491000  0.03886000  0.43319000  1.0
  H  H42  1  0.34331000  0.81293000  0.52552000  1.0
  H  H43  1  0.42040000  0.83149000  0.63689000  1.0
  H  H44  1  0.00051000  0.19991000  0.12523000  1.0
  H  H45  1  0.06704000  0.20736000  0.23495000  1.0
  H  H46  1  0.14441000  0.25180000  0.08215000  1.0
  H  H47  1  0.23671000  0.28424000  0.19232000  1.0
  H  H48  1  0.26600000  0.13634000  0.96255000  1.0
  H  H49  1  0.15843000  0.16532000  0.95106000  1.0
  H  H50  1  0.87354000  0.06808000  0.16695000  1.0
  H  H51  1  0.95575000  0.00659000  0.17605000  1.0
  H  H52  1  0.46468000  0.84249000  0.22420000  1.0
  H  H53  1  0.40250000  0.76493000  0.27685000  1.0
  H  H54  1  0.56015000  0.74316000  0.19655000  1.0
  H  H55  1  0.51967000  0.67539000  0.26532000  1.0
  H  H56  1  0.36245000  0.13982000  0.09366000  1.0
  H  H57  1  0.26648000  0.07784000  0.13387000  1.0
  H  H58  1  0.44353000  0.31335000  0.23084000  1.0
  H  H59  1  0.35289000  0.24345000  0.27372000  1.0
  H  H60  1  0.42068000  0.79662000  0.41251000  1.0
  H  H61  1  0.53646000  0.01092000  0.66525000  1.0
  H  H62  1  0.13533000  0.10480000  0.17153000  1.0
  H  H63  1  0.83904000  0.01640000  0.00952000  1.0
  H  H64  1  0.40970000  0.57883000  0.10500000  1.0
  H  H65  1  0.42550000  0.12013000  0.24461000  1.0
  H  H66  1  0.87281000  0.58165000  0.09648000  1.0
  H  H67  1  0.74011000  0.47340000  0.02788000  1.0
  H  H68  1  0.90635000  0.65595000  0.98767000  1.0
  H  H69  1  0.76840000  0.56964000  0.91048000  1.0
  H  H70  1  0.00288000  0.62095000  0.81348000  1.0
  H  H71  1  0.03886000  0.68492000  0.93319000  1.0
  H  H72  1  0.81294000  0.34331000  0.02552000  1.0
  H  H73  1  0.83149000  0.42040000  0.13689000  1.0
  H  H74  1  0.19991000  0.00051000  0.62522000  1.0
  H  H75  1  0.20736000  0.06704000  0.73495000  1.0
  H  H76  1  0.25179000  0.14441000  0.58215000  1.0
  H  H77  1  0.28424000  0.23671000  0.69233000  1.0
  H  H78  1  0.13634000  0.26601000  0.46255000  1.0
  H  H79  1  0.16531000  0.15843000  0.45106000  1.0
  H  H80  1  0.06808000  0.87354000  0.66695000  1.0
  H  H81  1  0.00660000  0.95575000  0.67605000  1.0
  H  H82  1  0.84250000  0.46468000  0.72420000  1.0
  H  H83  1  0.76494000  0.40251000  0.77685000  1.0
  H  H84  1  0.74317000  0.56015000  0.69656000  1.0
  H  H85  1  0.67540000  0.51968000  0.76533000  1.0
  H  H86  1  0.13981000  0.36245000  0.59365000  1.0
  H  H87  1  0.07783000  0.26649000  0.63387000  1.0
  H  H88  1  0.31335000  0.44355000  0.73083000  1.0
  H  H89  1  0.24345000  0.35292000  0.77372000  1.0
  H  H90  1  0.79663000  0.42068000  0.91251000  1.0
  H  H91  1  0.01092000  0.53646000  0.16525000  1.0
  H  H92  1  0.10480000  0.13533000  0.67154000  1.0
  H  H93  1  0.01640000  0.83904000  0.50952000  1.0
  H  H94  1  0.57885000  0.40971000  0.60500000  1.0
  H  H95  1  0.12011000  0.42551000  0.74460000  1.0
  H  H96  1  0.41834000  0.12721000  0.40351000  1.0
  H  H97  1  0.52660000  0.25990000  0.47211000  1.0
  H  H98  1  0.34404000  0.09367000  0.51232000  1.0
  H  H99  1  0.43037000  0.23162000  0.58952000  1.0
  H  H100  1  0.37906000  0.99714000  0.68651000  1.0
  H  H101  1  0.31507000  0.96116000  0.56679000  1.0
  H  H102  1  0.65668000  0.18706000  0.47447000  1.0
  H  H103  1  0.57959000  0.16853000  0.36310000  1.0
  H  H104  1  0.99951000  0.80010000  0.87477000  1.0
  H  H105  1  0.93297000  0.79265000  0.76504000  1.0
  H  H106  1  0.85560000  0.74821000  0.91785000  1.0
  H  H107  1  0.76330000  0.71577000  0.80767000  1.0
  H  H108  1  0.73400000  0.86367000  0.03744000  1.0
  H  H109  1  0.84157000  0.83469000  0.04894000  1.0
  H  H110  1  0.12647000  0.93194000  0.83305000  1.0
  H  H111  1  0.04426000  0.99342000  0.82395000  1.0
  H  H112  1  0.53532000  0.15751000  0.77578000  1.0
  H  H113  1  0.59750000  0.23507000  0.72313000  1.0
  H  H114  1  0.43987000  0.25685000  0.80345000  1.0
  H  H115  1  0.48035000  0.32463000  0.73468000  1.0
  H  H116  1  0.63756000  0.86019000  0.90632000  1.0
  H  H117  1  0.73352000  0.92216000  0.86611000  1.0
  H  H118  1  0.55649000  0.68663000  0.76916000  1.0
  H  H119  1  0.64711000  0.75655000  0.72627000  1.0
  H  H120  1  0.57931000  0.20337000  0.58748000  1.0
  H  H121  1  0.46352000  0.98909000  0.33472000  1.0
  H  H122  1  0.86469000  0.89521000  0.82847000  1.0
  H  H123  1  0.16098000  0.98362000  0.99048000  1.0
  H  H124  1  0.59033000  0.42118000  0.89500000  1.0
  H  H125  1  0.57447000  0.87984000  0.75537000  1.0
  C  C126  1  0.90056000  0.26470000  0.85526000  1.0
  C  C127  1  0.93297000  0.26629000  0.72134000  1.0
  C  C128  1  0.89331000  0.07016000  0.62703000  1.0
  C  C129  1  0.82130000  0.95882000  0.70531000  1.0
  C  C130  1  0.17451000  0.50147000  0.95561000  1.0
  C  C131  1  0.15090000  0.42280000  0.06932000  1.0
  C  C132  1  0.01004000  0.39203000  0.12731000  1.0
  C  C133  1  0.14474000  0.57529000  0.91961000  1.0
  C  C134  1  0.84417000  0.97381000  0.33888000  1.0
  C  C135  1  0.77951000  0.81542000  0.37706000  1.0
  C  C136  1  0.86865000  0.79842000  0.51436000  1.0
  C  C137  1  0.94887000  0.07070000  0.35868000  1.0
  C  C138  1  0.19924000  0.52217000  0.23210000  1.0
  C  C139  1  0.28934000  0.50460000  0.28124000  1.0
  C  C140  1  0.84513000  0.68437000  0.36825000  1.0
  C  C141  1  0.76570000  0.60466000  0.27064000  1.0
  C  C142  1  0.73527000  0.09944000  0.64483000  1.0
  C  C143  1  0.73360000  0.06695000  0.77872000  1.0
  C  C144  1  0.92981000  0.10664000  0.87306000  1.0
  C  C145  1  0.04106000  0.17859000  0.79471000  1.0
  C  C146  1  0.49853000  0.82551000  0.54438000  1.0
  C  C147  1  0.57720000  0.84911000  0.43067000  1.0
  C  C148  1  0.60795000  0.98997000  0.37267000  1.0
  C  C149  1  0.42470000  0.85527000  0.58038000  1.0
  C  C150  1  0.02620000  0.15583000  0.16112000  1.0
  C  C151  1  0.18459000  0.22050000  0.12294000  1.0
  C  C152  1  0.20158000  0.13137000  0.98563000  1.0
  C  C153  1  0.92931000  0.05113000  0.14132000  1.0
  C  C154  1  0.47782000  0.80076000  0.26789000  1.0
  C  C155  1  0.49541000  0.71067000  0.21876000  1.0
  C  C156  1  0.31563000  0.15488000  0.13174000  1.0
  C  C157  1  0.39534000  0.23430000  0.22936000  1.0
  C  C158  1  0.09945000  0.73528000  0.14480000  1.0
  C  C159  1  0.06697000  0.73363000  0.27870000  1.0
  C  C160  1  0.10666000  0.92982000  0.37304000  1.0
  C  C161  1  0.17861000  0.04110000  0.29471000  1.0
  C  C162  1  0.82551000  0.49853000  0.04438000  1.0
  C  C163  1  0.84912000  0.57720000  0.93067000  1.0
  C  C164  1  0.98998000  0.60796000  0.87268000  1.0
  C  C165  1  0.85527000  0.42470000  0.08038000  1.0
  C  C166  1  0.15584000  0.02620000  0.66112000  1.0
  C  C167  1  0.22050000  0.18459000  0.62295000  1.0
  C  C168  1  0.13137000  0.20159000  0.48564000  1.0
  C  C169  1  0.05114000  0.92931000  0.64132000  1.0
  C  C170  1  0.80077000  0.47783000  0.76790000  1.0
  C  C171  1  0.71068000  0.49541000  0.71876000  1.0
  C  C172  1  0.15487000  0.31564000  0.63174000  1.0
  C  C173  1  0.23430000  0.39536000  0.72936000  1.0
  C  C174  1  0.26469000  0.90055000  0.35523000  1.0
  C  C175  1  0.26631000  0.93300000  0.22132000  1.0
  C  C176  1  0.07017000  0.89332000  0.12700000  1.0
  C  C177  1  0.95887000  0.82136000  0.20531000  1.0
  C  C178  1  0.50146000  0.17451000  0.45561000  1.0
  C  C179  1  0.42279000  0.15090000  0.56932000  1.0
  C  C180  1  0.39203000  0.01004000  0.62731000  1.0
  C  C181  1  0.57528000  0.14474000  0.41960000  1.0
  C  C182  1  0.97381000  0.84418000  0.83887000  1.0
  C  C183  1  0.81542000  0.77951000  0.87705000  1.0
  C  C184  1  0.79842000  0.86864000  0.01436000  1.0
  C  C185  1  0.07070000  0.94888000  0.85867000  1.0
  C  C186  1  0.52218000  0.19924000  0.73210000  1.0
  C  C187  1  0.50461000  0.28934000  0.78124000  1.0
  C  C188  1  0.68437000  0.84512000  0.86824000  1.0
  C  C189  1  0.60467000  0.76568000  0.77063000  1.0
  N  N190  1  0.92190000  0.34229000  0.91609000  1.0
  N  N191  1  0.96982000  0.34600000  0.71099000  1.0
  N  N192  1  0.90672000  0.03705000  0.56146000  1.0
  N  N193  1  0.79489000  0.86717000  0.68522000  1.0
  N  N194  1  0.14894000  0.50518000  0.03566000  1.0
  N  N195  1  0.12186000  0.42882000  0.14598000  1.0
  N  N196  1  0.02831000  0.53424000  0.89234000  1.0
  N  N197  1  0.87069000  0.90110000  0.37308000  1.0
  N  N198  1  0.80751000  0.74945000  0.41705000  1.0
  N  N199  1  0.01656000  0.12316000  0.45734000  1.0
  N  N200  1  0.65771000  0.07814000  0.58397000  1.0
  N  N201  1  0.65385000  0.03011000  0.78904000  1.0
  N  N202  1  0.96298000  0.09325000  0.93863000  1.0
  N  N203  1  0.13273000  0.20503000  0.81475000  1.0
  N  N204  1  0.49482000  0.85106000  0.46433000  1.0
  N  N205  1  0.57117000  0.87816000  0.35401000  1.0
  N  N206  1  0.46575000  0.97169000  0.60764000  1.0
  N  N207  1  0.09892000  0.12932000  0.12693000  1.0
  N  N208  1  0.25055000  0.19250000  0.08295000  1.0
  N  N209  1  0.87685000  0.98344000  0.04266000  1.0
  N  N210  1  0.07813000  0.65772000  0.08396000  1.0
  N  N211  1  0.03013000  0.65390000  0.28903000  1.0
  N  N212  1  0.09328000  0.96297000  0.43861000  1.0
  N  N213  1  0.20504000  0.13275000  0.31475000  1.0
  N  N214  1  0.85107000  0.49482000  0.96433000  1.0
  N  N215  1  0.87816000  0.57117000  0.85401000  1.0
  N  N216  1  0.97170000  0.46576000  0.10764000  1.0
  N  N217  1  0.12932000  0.09892000  0.62694000  1.0
  N  N218  1  0.19250000  0.25055000  0.58295000  1.0
  N  N219  1  0.98344000  0.87686000  0.54266000  1.0
  N  N220  1  0.34228000  0.92189000  0.41608000  1.0
  N  N221  1  0.34604000  0.96984000  0.21098000  1.0
  N  N222  1  0.03705000  0.90672000  0.06142000  1.0
  N  N223  1  0.86720000  0.79493000  0.18524000  1.0
  N  N224  1  0.50517000  0.14894000  0.53566000  1.0
  N  N225  1  0.42882000  0.12185000  0.64598000  1.0
  N  N226  1  0.53423000  0.02831000  0.39234000  1.0
  N  N227  1  0.90109000  0.87069000  0.87307000  1.0
  N  N228  1  0.74946000  0.80751000  0.91704000  1.0
  N  N229  1  0.12316000  0.01657000  0.95734000  1.0
  O  O230  1  0.36917000  0.60391000  0.35828000  1.0
  O  O231  1  0.80171000  0.53211000  0.23709000  1.0
  O  O232  1  0.39610000  0.63083000  0.14171000  1.0
  O  O233  1  0.46788000  0.19827000  0.26290000  1.0
  O  O234  1  0.63084000  0.39610000  0.64172000  1.0
  O  O235  1  0.19826000  0.46789000  0.76289000  1.0
  O  O236  1  0.60392000  0.36918000  0.85828000  1.0
  O  O237  1  0.53211000  0.80169000  0.73708000  1.0
