# generated using pymatgen
data_Ag2H14C24S2N4Cl8O7F6
_symmetry_space_group_name_H-M   'P 1'
_cell_length_a   12.17850000
_cell_length_b   12.61230000
_cell_length_c   13.89090000
_cell_angle_alpha   88.31310000
_cell_angle_beta   78.49390000
_cell_angle_gamma   61.88640000
_symmetry_Int_Tables_number   1
_chemical_formula_structural   Ag2H14C24S2N4Cl8O7F6
_chemical_formula_sum   'Ag4 H28 C48 S4 N8 Cl16 O14 F12'
_cell_volume   1838.92003033
_cell_formula_units_Z   2
loop_
 _symmetry_equiv_pos_site_id
 _symmetry_equiv_pos_as_xyz
  1  'x, y, z'
loop_
 _atom_site_type_symbol
 _atom_site_label
 _atom_site_symmetry_multiplicity
 _atom_site_fract_x
 _atom_site_fract_y
 _atom_site_fract_z
 _atom_site_occupancy
  Ag  Ag0  1  0.47430000  0.64824000  0.40586000  1.0
  Ag  Ag1  1  0.52570000  0.35176000  0.59414000  1.0
  Ag  Ag2  1  0.54637000  0.04695000  0.14250000  1.0
  Ag  Ag3  1  0.45363000  0.95304000  0.85750000  1.0
  H  H4  1  0.43668000  0.85724000  0.28460000  1.0
  H  H5  1  0.56332000  0.14276000  0.71540000  1.0
  H  H6  1  0.67532000  0.65008000  0.24165000  1.0
  H  H7  1  0.32468000  0.34992000  0.75836000  1.0
  H  H8  1  0.37120000  0.53075000  0.27540000  1.0
  H  H9  1  0.62880000  0.46924000  0.72460000  1.0
  H  H10  1  0.20813000  0.86311000  0.43325000  1.0
  H  H11  1  0.79187000  0.13689000  0.56675000  1.0
  H  H12  1  0.70719000  0.44803000  0.48621000  1.0
  H  H13  1  0.29281000  0.55197000  0.51379000  1.0
  H  H14  1  0.82671000  0.98875000  0.05261000  1.0
  H  H15  1  0.17329000  0.01125000  0.94739000  1.0
  H  H16  1  0.29652000  0.11000000  0.07016000  1.0
  H  H17  1  0.70348000  0.89001000  0.92984000  1.0
  H  H18  1  0.37486000  0.25512000  0.29689000  1.0
  H  H19  1  0.62514000  0.74488000  0.70311000  1.0
  H  H20  1  0.66701000  0.84567000  0.27698000  1.0
  H  H21  1  0.33299000  0.15433000  0.72303000  1.0
  H  H22  1  0.48632000  0.00497000  0.34348000  1.0
  H  H23  1  0.51368000  0.99503000  0.65651000  1.0
  H  H24  1  0.50281000  0.92404000  0.45120000  1.0
  H  H25  1  0.49719000  0.07596000  0.54880000  1.0
  H  H26  1  0.25560000  0.04262000  0.37203000  1.0
  H  H27  1  0.74441000  0.95738000  0.62797000  1.0
  H  H28  1  0.28879000  0.11209000  0.46357000  1.0
  H  H29  1  0.71121000  0.88791000  0.53643000  1.0
  H  H30  1  0.27517000  0.97954000  0.48872000  1.0
  H  H31  1  0.72483000  0.02046000  0.51128000  1.0
  C  C32  1  0.17433000  0.33418000  0.29429000  1.0
  C  C33  1  0.82567000  0.66582000  0.70571000  1.0
  C  C34  1  0.08174000  0.77426000  0.27373000  1.0
  C  C35  1  0.91826000  0.22574000  0.72627000  1.0
  C  C36  1  0.86087000  0.80397000  0.27828000  1.0
  C  C37  1  0.13913000  0.19603000  0.72172000  1.0
  C  C38  1  0.18586000  0.65900000  0.24857000  1.0
  C  C39  1  0.81414000  0.34100000  0.75143000  1.0
  C  C40  1  0.73655000  0.57519000  0.27923000  1.0
  C  C41  1  0.26345000  0.42481000  0.72077000  1.0
  C  C42  1  0.94410000  0.40901000  0.28710000  1.0
  C  C43  1  0.05590000  0.59099000  0.71291000  1.0
  C  C44  1  0.09157000  0.84940000  0.34019000  1.0
  C  C45  1  0.90842000  0.15060000  0.65981000  1.0
  C  C46  1  0.95476000  0.88163000  0.14737000  1.0
  C  C47  1  0.04524000  0.11837000  0.85263000  1.0
  C  C48  1  0.88368000  0.38891000  0.37777000  1.0
  C  C49  1  0.11632000  0.61109000  0.62223000  1.0
  C  C50  1  0.29101000  0.62128000  0.29194000  1.0
  C  C51  1  0.70899000  0.37872000  0.70806000  1.0
  C  C52  1  0.19959000  0.80685000  0.38042000  1.0
  C  C53  1  0.80041000  0.19315000  0.61958000  1.0
  C  C54  1  0.96611000  0.81806000  0.23237000  1.0
  C  C55  1  0.03389000  0.18194000  0.76762000  1.0
  C  C56  1  0.12915000  0.24782000  0.16684000  1.0
  C  C57  1  0.87085000  0.75217000  0.83316000  1.0
  C  C58  1  0.75417000  0.46280000  0.41580000  1.0
  C  C59  1  0.24583000  0.53720000  0.58420000  1.0
  C  C60  1  0.83955000  0.93488000  0.11603000  1.0
  C  C61  1  0.16044000  0.06512000  0.88397000  1.0
  C  C62  1  0.08225000  0.33172000  0.24858000  1.0
  C  C63  1  0.91775000  0.66827000  0.75142000  1.0
  C  C64  1  0.25999000  0.17388000  0.13416000  1.0
  C  C65  1  0.74001000  0.82612000  0.86584000  1.0
  C  C66  1  0.30354000  0.25598000  0.25979000  1.0
  C  C67  1  0.69646000  0.74402000  0.74021000  1.0
  C  C68  1  0.86563000  0.50496000  0.23757000  1.0
  C  C69  1  0.13438000  0.49503000  0.76244000  1.0
  C  C70  1  0.51032000  0.32075000  0.94217000  1.0
  C  C71  1  0.48968000  0.67925000  0.05782000  1.0
  C  C72  1  0.74919000  0.85686000  0.24229000  1.0
  C  C73  1  0.25081000  0.14314000  0.75772000  1.0
  C  C74  1  0.45132000  0.95056000  0.39074000  1.0
  C  C75  1  0.54868000  0.04944000  0.60926000  1.0
  C  C76  1  0.33250000  0.72763000  0.76145000  1.0
  C  C77  1  0.66750000  0.27237000  0.23855000  1.0
  C  C78  1  0.30932000  0.02475000  0.43091000  1.0
  C  C79  1  0.69068000  0.97525000  0.56909000  1.0
  S  S80  1  0.57543000  0.15615000  0.91017000  1.0
  S  S81  1  0.42457000  0.84385000  0.08983000  1.0
  S  S82  1  0.41627000  0.73573000  0.63528000  1.0
  S  S83  1  0.58373000  0.26427000  0.36472000  1.0
  N  N84  1  0.29621000  0.69461000  0.35699000  1.0
  N  N85  1  0.70379000  0.30540000  0.64300000  1.0
  N  N86  1  0.34477000  0.17739000  0.18102000  1.0
  N  N87  1  0.65523000  0.82261000  0.81898000  1.0
  N  N88  1  0.73871000  0.92397000  0.16427000  1.0
  N  N89  1  0.26129000  0.07603000  0.83574000  1.0
  N  N90  1  0.68264000  0.55400000  0.36655000  1.0
  N  N91  1  0.31736000  0.44600000  0.63345000  1.0
  Cl  Cl92  1  0.86720000  0.72313000  0.38076000  1.0
  Cl  Cl93  1  0.13280000  0.27687000  0.61924000  1.0
  Cl  Cl94  1  0.13180000  0.43297000  0.39444000  1.0
  Cl  Cl95  1  0.86821000  0.56703000  0.60556000  1.0
  Cl  Cl96  1  0.92413000  0.54074000  0.12527000  1.0
  Cl  Cl97  1  0.07587000  0.45926000  0.87473000  1.0
  Cl  Cl98  1  0.97043000  0.99423000  0.37221000  1.0
  Cl  Cl99  1  0.02957000  0.00577000  0.62779000  1.0
  Cl  Cl100  1  0.18568000  0.56412000  0.16262000  1.0
  Cl  Cl101  1  0.81432000  0.43588000  0.83738000  1.0
  Cl  Cl102  1  0.96807000  0.27037000  0.44267000  1.0
  Cl  Cl103  1  0.03193000  0.72962000  0.55733000  1.0
  Cl  Cl104  1  0.02636000  0.23084000  0.10789000  1.0
  Cl  Cl105  1  0.97364000  0.76916000  0.89211000  1.0
  Cl  Cl106  1  0.08326000  0.89544000  0.08442000  1.0
  Cl  Cl107  1  0.91674000  0.10456000  0.91558000  1.0
  O  O108  1  0.44319000  0.83482000  0.64836000  1.0
  O  O109  1  0.55681000  0.16518000  0.35165000  1.0
  O  O110  1  0.65704000  0.09747000  0.98059000  1.0
  O  O111  1  0.34296000  0.90253000  0.01941000  1.0
  O  O112  1  0.46039000  0.14292000  0.92480000  1.0
  O  O113  1  0.53961000  0.85708000  0.07520000  1.0
  O  O114  1  0.48641000  0.83948000  0.33682000  1.0
  O  O115  1  0.51359000  0.16052000  0.66318000  1.0
  O  O116  1  0.32276000  0.75918000  0.57425000  1.0
  O  O117  1  0.67725000  0.24082000  0.42575000  1.0
  O  O118  1  0.64520000  0.13690000  0.80792000  1.0
  O  O119  1  0.35480000  0.86310000  0.19208000  1.0
  O  O120  1  0.52771000  0.61597000  0.61481000  1.0
  O  O121  1  0.47229000  0.38403000  0.38519000  1.0
  F  F122  1  0.44320000  0.38700000  0.87485000  1.0
  F  F123  1  0.55680000  0.61300000  0.12515000  1.0
  F  F124  1  0.30797000  0.63289000  0.76592000  1.0
  F  F125  1  0.69203000  0.36711000  0.23408000  1.0
  F  F126  1  0.43093000  0.35372000  0.03197000  1.0
  F  F127  1  0.56907000  0.64628000  0.96803000  1.0
  F  F128  1  0.60451000  0.34880000  0.94354000  1.0
  F  F129  1  0.39549000  0.65120000  0.05646000  1.0
  F  F130  1  0.21976000  0.82952000  0.79047000  1.0
  F  F131  1  0.78024000  0.17048000  0.20953000  1.0
  F  F132  1  0.40602000  0.71386000  0.82760000  1.0
  F  F133  1  0.59397000  0.28614000  0.17241000  1.0
