# generated using pymatgen
data_Ag2H12WC6(S3N2)2
_symmetry_space_group_name_H-M   'P 1'
_cell_length_a   6.24604000
_cell_length_b   13.26040000
_cell_length_c   18.82440000
_cell_angle_alpha   90.00000000
_cell_angle_beta   90.00000000
_cell_angle_gamma   92.30230000
_symmetry_Int_Tables_number   1
_chemical_formula_structural   Ag2H12WC6(S3N2)2
_chemical_formula_sum   'Ag8 H48 W4 C24 S24 N16'
_cell_volume   1557.87216314
_cell_formula_units_Z   4
loop_
 _symmetry_equiv_pos_site_id
 _symmetry_equiv_pos_as_xyz
  1  'x, y, z'
loop_
 _atom_site_type_symbol
 _atom_site_label
 _atom_site_symmetry_multiplicity
 _atom_site_fract_x
 _atom_site_fract_y
 _atom_site_fract_z
 _atom_site_occupancy
  Ag  Ag0  1  0.99547000  0.42711000  0.24999000  1.0
  Ag  Ag1  1  0.00452000  0.57292000  0.74999000  1.0
  Ag  Ag2  1  0.50639000  0.84691000  0.36122000  1.0
  Ag  Ag3  1  0.49339000  0.15281000  0.86130000  1.0
  Ag  Ag4  1  0.49385000  0.15330000  0.63882000  1.0
  Ag  Ag5  1  0.50636000  0.84693000  0.13875000  1.0
  Ag  Ag6  1  0.93530000  0.75633000  0.24999000  1.0
  Ag  Ag7  1  0.06459000  0.24366000  0.75034000  1.0
  H  H8  1  0.13525000  0.28886000  0.50620000  1.0
  H  H9  1  0.86476000  0.71110000  0.00621000  1.0
  H  H10  1  0.86484000  0.71114000  0.49378000  1.0
  H  H11  1  0.13515000  0.28891000  0.99375000  1.0
  H  H12  1  0.74230000  0.45798000  0.38736000  1.0
  H  H13  1  0.25784000  0.54208000  0.88736000  1.0
  H  H14  1  0.25776000  0.54199000  0.61261000  1.0
  H  H15  1  0.74213000  0.45796000  0.11261000  1.0
  H  H16  1  0.61361000  0.76063000  0.61798000  1.0
  H  H17  1  0.38626000  0.23937000  0.11802000  1.0
  H  H18  1  0.38643000  0.23934000  0.38203000  1.0
  H  H19  1  0.61368000  0.76065000  0.88197000  1.0
  H  H20  1  0.26702000  0.95244000  0.50103000  1.0
  H  H21  1  0.73292000  0.04762000  0.00104000  1.0
  H  H22  1  0.73320000  0.04762000  0.49899000  1.0
  H  H23  1  0.26689000  0.95232000  0.99898000  1.0
  H  H24  1  0.87303000  0.37837000  0.59568000  1.0
  H  H25  1  0.12704000  0.62163000  0.09571000  1.0
  H  H26  1  0.12710000  0.62165000  0.40430000  1.0
  H  H27  1  0.87284000  0.37837000  0.90427000  1.0
  H  H28  1  0.75755000  0.27211000  0.55014000  1.0
  H  H29  1  0.24243000  0.72790000  0.05015000  1.0
  H  H30  1  0.24257000  0.72790000  0.44985000  1.0
  H  H31  1  0.75742000  0.27209000  0.94984000  1.0
  H  H32  1  0.52365000  0.38833000  0.49738000  1.0
  H  H33  1  0.47642000  0.61170000  0.99740000  1.0
  H  H34  1  0.47643000  0.61165000  0.50260000  1.0
  H  H35  1  0.52350000  0.38833000  0.00258000  1.0
  H  H36  1  0.69550000  0.49400000  0.52141000  1.0
  H  H37  1  0.30457000  0.50602000  0.02142000  1.0
  H  H38  1  0.30456000  0.50600000  0.47857000  1.0
  H  H39  1  0.69535000  0.49398000  0.97856000  1.0
  H  H40  1  0.35822000  0.86629000  0.69853000  1.0
  H  H41  1  0.64175000  0.13375000  0.19857000  1.0
  H  H42  1  0.64184000  0.13371000  0.30149000  1.0
  H  H43  1  0.35817000  0.86627000  0.80144000  1.0
  H  H44  1  0.22709000  0.75299000  0.66648000  1.0
  H  H45  1  0.77280000  0.24709000  0.16649000  1.0
  H  H46  1  0.77292000  0.24702000  0.33352000  1.0
  H  H47  1  0.22715000  0.75290000  0.83350000  1.0
  H  H48  1  0.00463000  0.85313000  0.59374000  1.0
  H  H49  1  0.99526000  0.14695000  0.09375000  1.0
  H  H50  1  0.99550000  0.14692000  0.40624000  1.0
  H  H51  1  0.00461000  0.85301000  0.90623000  1.0
  H  H52  1  0.14387000  0.96452000  0.62420000  1.0
  H  H53  1  0.85614000  0.03557000  0.12422000  1.0
  H  H54  1  0.85626000  0.03551000  0.37581000  1.0
  H  H55  1  0.14372000  0.96441000  0.87580000  1.0
  W  W56  1  0.54044000  0.59191000  0.24999000  1.0
  W  W57  1  0.45955000  0.40809000  0.74996000  1.0
  W  W58  1  0.25293000  0.94438000  0.24999000  1.0
  W  W59  1  0.74710000  0.05562000  0.75004000  1.0
  C  C60  1  0.98491000  0.37588000  0.43161000  1.0
  C  C61  1  0.01512000  0.62412000  0.93163000  1.0
  C  C62  1  0.01516000  0.62414000  0.56836000  1.0
  C  C63  1  0.98476000  0.37589000  0.06835000  1.0
  C  C64  1  0.83293000  0.34774000  0.54300000  1.0
  C  C65  1  0.16712000  0.65224000  0.04302000  1.0
  C  C66  1  0.16720000  0.65226000  0.45698000  1.0
  C  C67  1  0.83277000  0.34773000  0.95695000  1.0
  C  C68  1  0.69063000  0.41706000  0.49965000  1.0
  C  C69  1  0.30946000  0.58295000  0.99966000  1.0
  C  C70  1  0.30946000  0.58293000  0.50033000  1.0
  C  C71  1  0.69050000  0.41704000  0.00032000  1.0
  C  C72  1  0.47765000  0.85260000  0.54236000  1.0
  C  C73  1  0.52222000  0.14742000  0.04240000  1.0
  C  C74  1  0.52251000  0.14743000  0.45766000  1.0
  C  C75  1  0.47765000  0.85256000  0.95761000  1.0
  C  C76  1  0.30693000  0.82475000  0.65066000  1.0
  C  C77  1  0.69299000  0.17531000  0.15069000  1.0
  C  C78  1  0.69315000  0.17526000  0.34934000  1.0
  C  C79  1  0.30692000  0.82469000  0.84930000  1.0
  C  C80  1  0.16429000  0.88853000  0.60253000  1.0
  C  C81  1  0.83561000  0.11155000  0.10255000  1.0
  C  C82  1  0.83584000  0.11150000  0.39747000  1.0
  C  C83  1  0.16427000  0.88842000  0.89746000  1.0
  S  S84  1  0.16398000  0.36945000  0.36392000  1.0
  S  S85  1  0.83605000  0.63052000  0.86394000  1.0
  S  S86  1  0.83607000  0.63053000  0.63605000  1.0
  S  S87  1  0.16387000  0.36951000  0.13603000  1.0
  S  S88  1  0.67944000  0.85716000  0.48066000  1.0
  S  S89  1  0.32036000  0.14281000  0.98073000  1.0
  S  S90  1  0.32075000  0.14286000  0.51936000  1.0
  S  S91  1  0.67942000  0.85716000  0.01931000  1.0
  S  S92  1  0.59678000  0.42820000  0.24998000  1.0
  S  S93  1  0.40320000  0.57180000  0.75002000  1.0
  S  S94  1  0.19332000  0.60629000  0.25000000  1.0
  S  S95  1  0.80667000  0.39372000  0.74999000  1.0
  S  S96  1  0.66931000  0.66201000  0.34930000  1.0
  S  S97  1  0.33065000  0.33787000  0.84924000  1.0
  S  S98  1  0.33081000  0.33809000  0.65063000  1.0
  S  S99  1  0.66925000  0.66201000  0.15068000  1.0
  S  S100  1  0.61635000  0.94299000  0.24998000  1.0
  S  S101  1  0.38367000  0.05700000  0.74997000  1.0
  S  S102  1  0.11222000  0.87571000  0.34980000  1.0
  S  S103  1  0.88758000  0.12411000  0.84994000  1.0
  S  S104  1  0.88803000  0.12444000  0.65032000  1.0
  S  S105  1  0.11219000  0.87573000  0.15018000  1.0
  S  S106  1  0.17530000  0.10122000  0.25000000  1.0
  S  S107  1  0.82478000  0.89878000  0.74996000  1.0
  N  N108  1  0.02350000  0.34237000  0.49787000  1.0
  N  N109  1  0.97651000  0.65759000  0.99789000  1.0
  N  N110  1  0.97659000  0.65762000  0.50210000  1.0
  N  N111  1  0.02340000  0.34242000  0.00208000  1.0
  N  N112  1  0.79085000  0.41589000  0.42926000  1.0
  N  N113  1  0.20922000  0.58413000  0.92927000  1.0
  N  N114  1  0.20925000  0.58412000  0.57073000  1.0
  N  N115  1  0.79071000  0.41588000  0.07071000  1.0
  N  N116  1  0.49257000  0.80781000  0.60544000  1.0
  N  N117  1  0.50731000  0.19219000  0.10548000  1.0
  N  N118  1  0.50751000  0.19218000  0.39457000  1.0
  N  N119  1  0.49261000  0.80781000  0.89452000  1.0
  N  N120  1  0.28600000  0.89451000  0.53569000  1.0
  N  N121  1  0.71386000  0.10551000  0.03572000  1.0
  N  N122  1  0.71419000  0.10553000  0.46433000  1.0
  N  N123  1  0.28599000  0.89443000  0.96430000  1.0
