# generated using pymatgen
data_ZnH20C25NO4
_symmetry_space_group_name_H-M   'P 1'
_cell_length_a   10.96710000
_cell_length_b   14.75480000
_cell_length_c   16.18750000
_cell_angle_alpha   90.16600000
_cell_angle_beta   90.03910000
_cell_angle_gamma   91.37320000
_symmetry_Int_Tables_number   1
_chemical_formula_structural   ZnH20C25NO4
_chemical_formula_sum   'Zn2 H40 C50 N2 O8'
_cell_volume   2618.65462375
_cell_formula_units_Z   2
loop_
 _symmetry_equiv_pos_site_id
 _symmetry_equiv_pos_as_xyz
  1  'x, y, z'
loop_
 _atom_site_type_symbol
 _atom_site_label
 _atom_site_symmetry_multiplicity
 _atom_site_fract_x
 _atom_site_fract_y
 _atom_site_fract_z
 _atom_site_occupancy
  Zn  Zn0  1  0.50517000  0.59534000  0.50021000  1.0
  Zn  Zn1  1  0.49482000  0.40465000  0.49979000  1.0
  H  H2  1  0.71781000  0.12835000  0.66678000  1.0
  H  H3  1  0.28219000  0.87164000  0.33322000  1.0
  H  H4  1  0.57183000  0.91753000  0.37574000  1.0
  H  H5  1  0.42818000  0.08246000  0.62425000  1.0
  H  H6  1  0.81624000  0.41201000  0.67345000  1.0
  H  H7  1  0.18375000  0.58799000  0.32655000  1.0
  H  H8  1  0.81343000  0.11602000  0.52882000  1.0
  H  H9  1  0.18658000  0.88398000  0.47118000  1.0
  H  H10  1  0.11089000  0.36746000  0.55073000  1.0
  H  H11  1  0.88910000  0.63253000  0.44927000  1.0
  H  H12  1  0.46607000  0.64230000  0.07772000  1.0
  H  H13  1  0.53395000  0.35771000  0.92228000  1.0
  H  H14  1  0.66505000  0.21557000  0.78665000  1.0
  H  H15  1  0.76176000  0.31080000  0.80925000  1.0
  H  H16  1  0.62052000  0.32679000  0.75889000  1.0
  H  H17  1  0.33494000  0.78441000  0.21334000  1.0
  H  H18  1  0.37947000  0.67320000  0.24110000  1.0
  H  H19  1  0.23823000  0.68919000  0.19075000  1.0
  H  H20  1  0.95987000  0.31094000  0.41262000  1.0
  H  H21  1  0.99573000  0.19711000  0.43510000  1.0
  H  H22  1  0.85172000  0.22262000  0.39251000  1.0
  H  H23  1  0.04024000  0.68904000  0.58742000  1.0
  H  H24  1  0.14821000  0.77751000  0.60746000  1.0
  H  H25  1  0.00414000  0.80281000  0.56487000  1.0
  H  H26  1  0.45684000  0.72737000  0.95302000  1.0
  H  H27  1  0.54417000  0.68455000  0.86900000  1.0
  H  H28  1  0.38508000  0.66552000  0.87076000  1.0
  H  H29  1  0.54319000  0.27265000  0.04697000  1.0
  H  H30  1  0.61495000  0.33449000  0.12923000  1.0
  H  H31  1  0.45586000  0.31545000  0.13100000  1.0
  H  H32  1  0.43109000  0.07580000  0.27778000  1.0
  H  H33  1  0.42762000  0.18037000  0.33299000  1.0
  H  H34  1  0.52425000  0.16998000  0.24613000  1.0
  H  H35  1  0.64617000  0.16125000  0.37652000  1.0
  H  H36  1  0.65283000  0.05894000  0.31989000  1.0
  H  H37  1  0.57238000  0.81961000  0.66698000  1.0
  H  H38  1  0.56893000  0.92417000  0.72220000  1.0
  H  H39  1  0.47577000  0.83000000  0.75385000  1.0
  H  H40  1  0.34719000  0.94107000  0.68010000  1.0
  H  H41  1  0.35382000  0.83875000  0.62347000  1.0
  C  C42  1  0.49210000  0.49419000  0.33822000  1.0
  C  C43  1  0.50790000  0.50578000  0.66178000  1.0
  C  C44  1  0.12784000  0.50090000  0.49987000  1.0
  C  C45  1  0.87214000  0.49910000  0.50014000  1.0
  C  C46  1  0.06670000  0.57759000  0.47073000  1.0
  C  C47  1  0.93328000  0.42241000  0.52928000  1.0
  C  C48  1  0.48383000  0.58334000  0.95675000  1.0
  C  C49  1  0.51619000  0.41667000  0.04325000  1.0
  C  C50  1  0.50344000  0.50105000  0.91359000  1.0
  C  C51  1  0.49658000  0.49897000  0.08641000  1.0
  C  C52  1  0.51914000  0.41970000  0.95741000  1.0
  C  C53  1  0.48087000  0.58031000  0.04259000  1.0
  C  C54  1  0.50660000  0.50080000  0.82631000  1.0
  C  C55  1  0.49342000  0.49920000  0.17369000  1.0
  C  C56  1  0.49208000  0.49645000  0.24895000  1.0
  C  C57  1  0.50795000  0.50352000  0.75106000  1.0
  C  C58  1  0.54074000  0.95507000  0.42960000  1.0
  C  C59  1  0.45928000  0.04493000  0.57038000  1.0
  C  C60  1  0.49588000  0.90691000  0.49839000  1.0
  C  C61  1  0.50414000  0.09309000  0.50160000  1.0
  C  C62  1  0.45370000  0.95054000  0.57050000  1.0
  C  C63  1  0.54631000  0.04945000  0.42949000  1.0
  C  C64  1  0.73570000  0.50247000  0.49642000  1.0
  C  C65  1  0.26429000  0.49754000  0.50358000  1.0
  C  C66  1  0.49592000  0.81088000  0.49565000  1.0
  C  C67  1  0.50408000  0.18912000  0.50433000  1.0
  C  C68  1  0.75903000  0.27151000  0.68027000  1.0
  C  C69  1  0.24095000  0.72848000  0.31972000  1.0
  C  C70  1  0.81537000  0.34636000  0.64200000  1.0
  C  C71  1  0.18461000  0.65364000  0.35800000  1.0
  C  C72  1  0.87013000  0.34039000  0.56402000  1.0
  C  C73  1  0.12984000  0.65961000  0.43598000  1.0
  C  C74  1  0.86950000  0.25669000  0.52172000  1.0
  C  C75  1  0.13050000  0.74332000  0.47829000  1.0
  C  C76  1  0.81407000  0.18159000  0.56055000  1.0
  C  C77  1  0.18593000  0.81841000  0.43945000  1.0
  C  C78  1  0.75998000  0.18840000  0.63826000  1.0
  C  C79  1  0.24002000  0.81159000  0.36174000  1.0
  C  C80  1  0.06074000  0.42533000  0.52819000  1.0
  C  C81  1  0.93924000  0.57467000  0.47181000  1.0
  C  C82  1  0.69842000  0.28138000  0.76314000  1.0
  C  C83  1  0.30156000  0.71861000  0.23686000  1.0
  C  C84  1  0.92231000  0.24667000  0.43629000  1.0
  C  C85  1  0.07767000  0.75334000  0.56370000  1.0
  C  C86  1  0.46661000  0.67011000  0.91037000  1.0
  C  C87  1  0.53342000  0.32991000  0.08962000  1.0
  C  C88  1  0.59148000  0.10199000  0.35559000  1.0
  C  C89  1  0.48714000  0.13367000  0.29999000  1.0
  C  C90  1  0.40853000  0.89801000  0.64439000  1.0
  C  C91  1  0.51288000  0.86631000  0.70000000  1.0
  N  N92  1  0.50034000  0.26757000  0.50549000  1.0
  N  N93  1  0.49965000  0.73243000  0.49449000  1.0
  O  O94  1  0.49707000  0.57110000  0.37441000  1.0
  O  O95  1  0.50292000  0.42887000  0.62559000  1.0
  O  O96  1  0.48699000  0.41620000  0.37149000  1.0
  O  O97  1  0.51302000  0.58376000  0.62851000  1.0
  O  O98  1  0.68903000  0.58071000  0.49935000  1.0
  O  O99  1  0.31096000  0.41929000  0.50065000  1.0
  O  O100  1  0.67749000  0.42728000  0.48970000  1.0
  O  O101  1  0.32249000  0.57272000  0.51031000  1.0
