# generated using pymatgen
data_InH7(C5O4)2
_symmetry_space_group_name_H-M   'P 1'
_cell_length_a   7.44632000
_cell_length_b   8.52598000
_cell_length_c   9.85801000
_cell_angle_alpha   113.85900000
_cell_angle_beta   92.25780000
_cell_angle_gamma   109.72600000
_symmetry_Int_Tables_number   1
_chemical_formula_structural   InH7(C5O4)2
_chemical_formula_sum   'In2 H14 C20 O16'
_cell_volume   527.41596543
_cell_formula_units_Z   2
loop_
 _symmetry_equiv_pos_site_id
 _symmetry_equiv_pos_as_xyz
  1  'x, y, z'
loop_
 _atom_site_type_symbol
 _atom_site_label
 _atom_site_symmetry_multiplicity
 _atom_site_fract_x
 _atom_site_fract_y
 _atom_site_fract_z
 _atom_site_occupancy
  In  In0  1  0.45898000  0.71580000  0.38572000  1.0
  In  In1  1  0.54101000  0.28415000  0.61425000  1.0
  H  H2  1  0.53614000  0.74886000  0.07719000  1.0
  H  H3  1  0.46385000  0.25116000  0.92282000  1.0
  H  H4  1  0.84474000  0.94855000  0.78261000  1.0
  H  H5  1  0.15528000  0.05145000  0.21740000  1.0
  H  H6  1  0.86145000  0.33852000  0.23510000  1.0
  H  H7  1  0.13855000  0.66150000  0.76490000  1.0
  H  H8  1  0.09640000  0.17429000  0.80939000  1.0
  H  H9  1  0.90361000  0.82571000  0.19061000  1.0
  H  H10  1  0.19496000  0.42041000  0.89512000  1.0
  H  H11  1  0.80505000  0.57958000  0.10487000  1.0
  H  H12  1  0.83841000  0.71973000  0.43591000  1.0
  H  H13  1  0.16159000  0.28027000  0.56410000  1.0
  H  H14  1  0.72637000  0.69247000  0.56844000  1.0
  H  H15  1  0.27363000  0.30754000  0.43156000  1.0
  C  C16  1  0.69302000  0.04798000  0.17214000  1.0
  C  C17  1  0.30699000  0.95204000  0.82788000  1.0
  C  C18  1  0.62795000  0.86500000  0.05853000  1.0
  C  C19  1  0.37205000  0.13501000  0.94147000  1.0
  C  C20  1  0.68238000  0.83170000  0.91871000  1.0
  C  C21  1  0.31762000  0.16830000  0.08130000  1.0
  C  C22  1  0.80221000  0.97870000  0.89167000  1.0
  C  C23  1  0.19777000  0.02130000  0.10832000  1.0
  C  C24  1  0.86665000  0.16061000  0.00648000  1.0
  C  C25  1  0.13336000  0.83940000  0.99352000  1.0
  C  C26  1  0.80906000  0.19598000  0.14613000  1.0
  C  C27  1  0.19095000  0.80402000  0.85387000  1.0
  C  C28  1  0.64435000  0.08418000  0.32410000  1.0
  C  C29  1  0.35566000  0.91582000  0.67590000  1.0
  C  C30  1  0.62279000  0.63631000  0.80410000  1.0
  C  C31  1  0.37720000  0.36367000  0.19590000  1.0
  C  C32  1  0.05955000  0.29768000  0.86154000  1.0
  C  C33  1  0.94046000  0.70232000  0.13846000  1.0
  C  C34  1  0.92093000  0.29596000  0.74288000  1.0
  C  C35  1  0.07908000  0.70404000  0.25712000  1.0
  O  O36  1  0.64152000  0.97265000  0.37980000  1.0
  O  O37  1  0.35845000  0.02735000  0.62020000  1.0
  O  O38  1  0.73865000  0.75164000  0.49781000  1.0
  O  O39  1  0.26135000  0.24836000  0.50218000  1.0
  O  O40  1  0.61393000  0.23312000  0.39542000  1.0
  O  O41  1  0.38607000  0.76690000  0.60458000  1.0
  O  O42  1  0.50623000  0.50398000  0.82661000  1.0
  O  O43  1  0.49376000  0.49600000  0.17339000  1.0
  O  O44  1  0.69420000  0.59514000  0.68268000  1.0
  O  O45  1  0.30579000  0.40483000  0.31732000  1.0
  O  O46  1  0.99233000  0.31390000  0.99792000  1.0
  O  O47  1  0.00768000  0.68610000  0.00207000  1.0
  O  O48  1  0.74630000  0.27242000  0.76473000  1.0
  O  O49  1  0.25370000  0.72757000  0.23526000  1.0
  O  O50  1  0.98299000  0.31835000  0.63299000  1.0
  O  O51  1  0.01702000  0.68165000  0.36701000  1.0
