# generated using pymatgen
data_CdH12C16(SN3)2
_symmetry_space_group_name_H-M   'P 1'
_cell_length_a   5.63394000
_cell_length_b   7.28651000
_cell_length_c   21.08460000
_cell_angle_alpha   89.99990000
_cell_angle_beta   84.32880000
_cell_angle_gamma   89.99890000
_symmetry_Int_Tables_number   1
_chemical_formula_structural   CdH12C16(SN3)2
_chemical_formula_sum   'Cd2 H24 C32 S4 N12'
_cell_volume   861.32334433
_cell_formula_units_Z   2
loop_
 _symmetry_equiv_pos_site_id
 _symmetry_equiv_pos_as_xyz
  1  'x, y, z'
loop_
 _atom_site_type_symbol
 _atom_site_label
 _atom_site_symmetry_multiplicity
 _atom_site_fract_x
 _atom_site_fract_y
 _atom_site_fract_z
 _atom_site_occupancy
  Cd  Cd0  1  0.99999000  0.49998000  1.00000000  1.0
  Cd  Cd1  1  0.99999000  0.00002000  0.50000000  1.0
  H  H2  1  0.85589000  0.42224000  0.86526000  1.0
  H  H3  1  0.14410000  0.92225000  0.63473000  1.0
  H  H4  1  0.14409000  0.57774000  0.13474000  1.0
  H  H5  1  0.85588000  0.07776000  0.36526000  1.0
  H  H6  1  0.47464000  0.69060000  0.89118000  1.0
  H  H7  1  0.52532000  0.19061000  0.60882000  1.0
  H  H8  1  0.52534000  0.30940000  0.10883000  1.0
  H  H9  1  0.47465000  0.80943000  0.39118000  1.0
  H  H10  1  0.65319000  0.73417000  0.74790000  1.0
  H  H11  1  0.34681000  0.23417000  0.75210000  1.0
  H  H12  1  0.34681000  0.26583000  0.25210000  1.0
  H  H13  1  0.65320000  0.76583000  0.24790000  1.0
  H  H14  1  0.52944000  0.66241000  0.64059000  1.0
  H  H15  1  0.47058000  0.16239000  0.85941000  1.0
  H  H16  1  0.47060000  0.33761000  0.35941000  1.0
  H  H17  1  0.52943000  0.83760000  0.14059000  1.0
  H  H18  1  0.14344000  0.51143000  0.62867000  1.0
  H  H19  1  0.85659000  0.01142000  0.87132000  1.0
  H  H20  1  0.85658000  0.48859000  0.37132000  1.0
  H  H21  1  0.14342000  0.98857000  0.12868000  1.0
  H  H22  1  0.86937000  0.42078000  0.72376000  1.0
  H  H23  1  0.13065000  0.92078000  0.77624000  1.0
  H  H24  1  0.13064000  0.57923000  0.27624000  1.0
  H  H25  1  0.86935000  0.07921000  0.22376000  1.0
  C  C26  1  0.34004000  0.63037000  0.86411000  1.0
  C  C27  1  0.65997000  0.13037000  0.63589000  1.0
  C  C28  1  0.65996000  0.36962000  0.13590000  1.0
  C  C29  1  0.34007000  0.86963000  0.36411000  1.0
  C  C30  1  0.33254000  0.61565000  0.79707000  1.0
  C  C31  1  0.66745000  0.11565000  0.70293000  1.0
  C  C32  1  0.66745000  0.38434000  0.20293000  1.0
  C  C33  1  0.33254000  0.88436000  0.29707000  1.0
  C  C34  1  0.48446000  0.66593000  0.74284000  1.0
  C  C35  1  0.51555000  0.16593000  0.75716000  1.0
  C  C36  1  0.51555000  0.33407000  0.25716000  1.0
  C  C37  1  0.48446000  0.83407000  0.24284000  1.0
  C  C38  1  0.41361000  0.62647000  0.68325000  1.0
  C  C39  1  0.58640000  0.12646000  0.81675000  1.0
  C  C40  1  0.58640000  0.37354000  0.31675000  1.0
  C  C41  1  0.41361000  0.87354000  0.18325000  1.0
  C  C42  1  0.19260000  0.53917000  0.67653000  1.0
  C  C43  1  0.80743000  0.03916000  0.82347000  1.0
  C  C44  1  0.80743000  0.46084000  0.32347000  1.0
  C  C45  1  0.19259000  0.96083000  0.17653000  1.0
  C  C46  1  0.03866000  0.48784000  0.72902000  1.0
  C  C47  1  0.96136000  0.98783000  0.77098000  1.0
  C  C48  1  0.96135000  0.51216000  0.27098000  1.0
  C  C49  1  0.03864000  0.01215000  0.22902000  1.0
  C  C50  1  0.11205000  0.52577000  0.78940000  1.0
  C  C51  1  0.88794000  0.02577000  0.71059000  1.0
  C  C52  1  0.88795000  0.47422000  0.21060000  1.0
  C  C53  1  0.11206000  0.97423000  0.28941000  1.0
  C  C54  1  0.50950000  0.27365000  0.97534000  1.0
  C  C55  1  0.49050000  0.77367000  0.52465000  1.0
  C  C56  1  0.49049000  0.72632000  0.02465000  1.0
  C  C57  1  0.50949000  0.22635000  0.47535000  1.0
  S  S58  1  0.25664000  0.17508000  0.99808000  1.0
  S  S59  1  0.74337000  0.67510000  0.50191000  1.0
  S  S60  1  0.74335000  0.82488000  0.00192000  1.0
  S  S61  1  0.25663000  0.32492000  0.49808000  1.0
  N  N62  1  0.14487000  0.55503000  0.89410000  1.0
  N  N63  1  0.85510000  0.05504000  0.60590000  1.0
  N  N64  1  0.85510000  0.44496000  0.10590000  1.0
  N  N65  1  0.14487000  0.94499000  0.39411000  1.0
  N  N66  1  0.00733000  0.49277000  0.84943000  1.0
  N  N67  1  0.99264000  0.99278000  0.65056000  1.0
  N  N68  1  0.99266000  0.50722000  0.15056000  1.0
  N  N69  1  0.00734000  0.00723000  0.34943000  1.0
  N  N70  1  0.69305000  0.34496000  0.95678000  1.0
  N  N71  1  0.30695000  0.84498000  0.54321000  1.0
  N  N72  1  0.30694000  0.65500000  0.04322000  1.0
  N  N73  1  0.69303000  0.15504000  0.45678000  1.0
