# generated using pymatgen
data_H22Pb(C3O)6
_symmetry_space_group_name_H-M   'P 1'
_cell_length_a   8.04708000
_cell_length_b   9.97428000
_cell_length_c   12.83460000
_cell_angle_alpha   112.80400000
_cell_angle_beta   96.21280000
_cell_angle_gamma   90.04280000
_symmetry_Int_Tables_number   1
_chemical_formula_structural   H22Pb(C3O)6
_chemical_formula_sum   'H44 Pb2 C36 O12'
_cell_volume   943.03096541
_cell_formula_units_Z   2
loop_
 _symmetry_equiv_pos_site_id
 _symmetry_equiv_pos_as_xyz
  1  'x, y, z'
loop_
 _atom_site_type_symbol
 _atom_site_label
 _atom_site_symmetry_multiplicity
 _atom_site_fract_x
 _atom_site_fract_y
 _atom_site_fract_z
 _atom_site_occupancy
  H  H0  1  0.49969000  0.17506000  0.07391000  1.0
  H  H1  1  0.99999000  0.10137000  0.92662000  1.0
  H  H2  1  0.50031000  0.82492000  0.92609000  1.0
  H  H3  1  0.00000000  0.89864000  0.07340000  1.0
  H  H4  1  0.39882000  0.03310000  0.17975000  1.0
  H  H5  1  0.10079000  0.85379000  0.82083000  1.0
  H  H6  1  0.60119000  0.96688000  0.82026000  1.0
  H  H7  1  0.89919000  0.14621000  0.17918000  1.0
  H  H8  1  0.45504000  0.13327000  0.39134000  1.0
  H  H9  1  0.04458000  0.74274000  0.60928000  1.0
  H  H10  1  0.54498000  0.86673000  0.60867000  1.0
  H  H11  1  0.95541000  0.25727000  0.39073000  1.0
  H  H12  1  0.61424000  0.36908000  0.49444000  1.0
  H  H13  1  0.88554000  0.87545000  0.50606000  1.0
  H  H14  1  0.38577000  0.63093000  0.50556000  1.0
  H  H15  1  0.11449000  0.12457000  0.49395000  1.0
  H  H16  1  0.69872000  0.63455000  0.38534000  1.0
  H  H17  1  0.80130000  0.24955000  0.61484000  1.0
  H  H18  1  0.30127000  0.36545000  0.61466000  1.0
  H  H19  1  0.19872000  0.75046000  0.38516000  1.0
  H  H20  1  0.88038000  0.54264000  0.39819000  1.0
  H  H21  1  0.61950000  0.14496000  0.60228000  1.0
  H  H22  1  0.11962000  0.45735000  0.60180000  1.0
  H  H23  1  0.38052000  0.85505000  0.39772000  1.0
  H  H24  1  0.73843000  0.58110000  0.50247000  1.0
  H  H25  1  0.76114000  0.07909000  0.49785000  1.0
  H  H26  1  0.26157000  0.41889000  0.49752000  1.0
  H  H27  1  0.23888000  0.92092000  0.50215000  1.0
  H  H28  1  0.31021000  0.49444000  0.28676000  1.0
  H  H29  1  0.18933000  0.20799000  0.71317000  1.0
  H  H30  1  0.68979000  0.50555000  0.71323000  1.0
  H  H31  1  0.81067000  0.79200000  0.28681000  1.0
  H  H32  1  0.21816000  0.34764000  0.31153000  1.0
  H  H33  1  0.28191000  0.03681000  0.68848000  1.0
  H  H34  1  0.78185000  0.65235000  0.68846000  1.0
  H  H35  1  0.71810000  0.96318000  0.31152000  1.0
  H  H36  1  0.11412000  0.51503000  0.34260000  1.0
  H  H37  1  0.38555000  0.17355000  0.65751000  1.0
  H  H38  1  0.88589000  0.48497000  0.65741000  1.0
  H  H39  1  0.61447000  0.82645000  0.34249000  1.0
  H  H40  1  0.99427000  0.42147000  0.17209000  1.0
  H  H41  1  0.50549000  0.24963000  0.82799000  1.0
  H  H42  1  0.00571000  0.57854000  0.82793000  1.0
  H  H43  1  0.49450000  0.75037000  0.17202000  1.0
  Pb  Pb44  1  0.24997000  0.41752000  0.00016000  1.0
  Pb  Pb45  1  0.75000000  0.58248000  0.99983000  1.0
  C  C46  1  0.67296000  0.42670000  0.15405000  1.0
  C  C47  1  0.82687000  0.27278000  0.84613000  1.0
  C  C48  1  0.32702000  0.57329000  0.84594000  1.0
  C  C49  1  0.17312000  0.72723000  0.15387000  1.0
  C  C50  1  0.61895000  0.34802000  0.22398000  1.0
  C  C51  1  0.88090000  0.12432000  0.77641000  1.0
  C  C52  1  0.38106000  0.65197000  0.77601000  1.0
  C  C53  1  0.11910000  0.87568000  0.22359000  1.0
  C  C54  1  0.52624000  0.21534000  0.16638000  1.0
  C  C55  1  0.97347000  0.04928000  0.83414000  1.0
  C  C56  1  0.47376000  0.78463000  0.83361000  1.0
  C  C57  1  0.02654000  0.95074000  0.16587000  1.0
  C  C58  1  0.46941000  0.13634000  0.22531000  1.0
  C  C59  1  0.03026000  0.91154000  0.77528000  1.0
  C  C60  1  0.53060000  0.86365000  0.77470000  1.0
  C  C61  1  0.96972000  0.08846000  0.22472000  1.0
  C  C62  1  0.50217000  0.19216000  0.34382000  1.0
  C  C63  1  0.99754000  0.84903000  0.65678000  1.0
  C  C64  1  0.49785000  0.80783000  0.65618000  1.0
  C  C65  1  0.00246000  0.15099000  0.34324000  1.0
  C  C66  1  0.59234000  0.32475000  0.40165000  1.0
  C  C67  1  0.90747000  0.92375000  0.59885000  1.0
  C  C68  1  0.40766000  0.67526000  0.59835000  1.0
  C  C69  1  0.09255000  0.07625000  0.40115000  1.0
  C  C70  1  0.65392000  0.40470000  0.34392000  1.0
  C  C71  1  0.84588000  0.06121000  0.65648000  1.0
  C  C72  1  0.34607000  0.59529000  0.65608000  1.0
  C  C73  1  0.15414000  0.93880000  0.34352000  1.0
  C  C74  1  0.74749000  0.54814000  0.41139000  1.0
  C  C75  1  0.75232000  0.13718000  0.58894000  1.0
  C  C76  1  0.25251000  0.45185000  0.58860000  1.0
  C  C77  1  0.24771000  0.86283000  0.41107000  1.0
  C  C78  1  0.19170000  0.43734000  0.28361000  1.0
  C  C79  1  0.30797000  0.15445000  0.71643000  1.0
  C  C80  1  0.80830000  0.56266000  0.71639000  1.0
  C  C81  1  0.69203000  0.84555000  0.28356000  1.0
  O  O82  1  0.57675000  0.41482000  0.06433000  1.0
  O  O83  1  0.92292000  0.35069000  0.93586000  1.0
  O  O84  1  0.42322000  0.58518000  0.93567000  1.0
  O  O85  1  0.07706000  0.64934000  0.06415000  1.0
  O  O86  1  0.81095000  0.50193000  0.18284000  1.0
  O  O87  1  0.68912000  0.31916000  0.81698000  1.0
  O  O88  1  0.18902000  0.49808000  0.81716000  1.0
  O  O89  1  0.31088000  0.68084000  0.18301000  1.0
  O  O90  1  0.10770000  0.38110000  0.17012000  1.0
  O  O91  1  0.39172000  0.21177000  0.82997000  1.0
  O  O92  1  0.89227000  0.61890000  0.82988000  1.0
  O  O93  1  0.60825000  0.78824000  0.17003000  1.0
