# generated using pymatgen
data_ZnH14C18(NO2)2
_symmetry_space_group_name_H-M   'P 1'
_cell_length_a   12.37820000
_cell_length_b   13.28980000
_cell_length_c   15.81230000
_cell_angle_alpha   90.00000000
_cell_angle_beta   89.99990000
_cell_angle_gamma   89.99990000
_symmetry_Int_Tables_number   1
_chemical_formula_structural   ZnH14C18(NO2)2
_chemical_formula_sum   'Zn4 H56 C72 N8 O16'
_cell_volume   2601.18347405
_cell_formula_units_Z   4
loop_
 _symmetry_equiv_pos_site_id
 _symmetry_equiv_pos_as_xyz
  1  'x, y, z'
loop_
 _atom_site_type_symbol
 _atom_site_label
 _atom_site_symmetry_multiplicity
 _atom_site_fract_x
 _atom_site_fract_y
 _atom_site_fract_z
 _atom_site_occupancy
  Zn  Zn0  1  0.14812000  0.25000000  0.75000000  1.0
  Zn  Zn1  1  0.35188000  0.75000000  0.75000000  1.0
  Zn  Zn2  1  0.85189000  0.75000000  0.25000000  1.0
  Zn  Zn3  1  0.64812000  0.25000000  0.25000000  1.0
  H  H4  1  0.91488000  0.34452000  0.98123000  1.0
  H  H5  1  0.58511000  0.65548000  0.98123000  1.0
  H  H6  1  0.58511000  0.84452000  0.51877000  1.0
  H  H7  1  0.91489000  0.15548000  0.51877000  1.0
  H  H8  1  0.08511000  0.65548000  0.01877000  1.0
  H  H9  1  0.41489000  0.34452000  0.01877000  1.0
  H  H10  1  0.41489000  0.15548000  0.48123000  1.0
  H  H11  1  0.08512000  0.84452000  0.48123000  1.0
  H  H12  1  0.08596000  0.50050000  0.92727000  1.0
  H  H13  1  0.41404000  0.49950000  0.92727000  1.0
  H  H14  1  0.41404000  0.00050000  0.57273000  1.0
  H  H15  1  0.08596000  0.99950000  0.57273000  1.0
  H  H16  1  0.91404000  0.49950000  0.07273000  1.0
  H  H17  1  0.58596000  0.50050000  0.07273000  1.0
  H  H18  1  0.58596000  0.99950000  0.42727000  1.0
  H  H19  1  0.91404000  0.00050000  0.42727000  1.0
  H  H20  1  0.22228000  0.25601000  0.56566000  1.0
  H  H21  1  0.27772000  0.74399000  0.56566000  1.0
  H  H22  1  0.27772000  0.75601000  0.93434000  1.0
  H  H23  1  0.22228000  0.24399000  0.93434000  1.0
  H  H24  1  0.77772000  0.74399000  0.43434000  1.0
  H  H25  1  0.72228000  0.25601000  0.43434000  1.0
  H  H26  1  0.72228000  0.24399000  0.06567000  1.0
  H  H27  1  0.77772000  0.75601000  0.06566000  1.0
  H  H28  1  0.35344000  0.35340000  0.47885000  1.0
  H  H29  1  0.14656000  0.64660000  0.47885000  1.0
  H  H30  1  0.14656000  0.85340000  0.02115000  1.0
  H  H31  1  0.35343000  0.14660000  0.02115000  1.0
  H  H32  1  0.64656000  0.64660000  0.52115000  1.0
  H  H33  1  0.85344000  0.35341000  0.52115000  1.0
  H  H34  1  0.85343000  0.14660000  0.97885000  1.0
  H  H35  1  0.64656000  0.85340000  0.97885000  1.0
  H  H36  1  0.43848000  0.51669000  0.70704000  1.0
  H  H37  1  0.06152000  0.48331000  0.70704000  1.0
  H  H38  1  0.06152000  0.01670000  0.79296000  1.0
  H  H39  1  0.43848000  0.98330000  0.79296000  1.0
  H  H40  1  0.56152000  0.48331000  0.29296000  1.0
  H  H41  1  0.93849000  0.51670000  0.29296000  1.0
  H  H42  1  0.93848000  0.98330000  0.20704000  1.0
  H  H43  1  0.56152000  0.01670000  0.20704000  1.0
  H  H44  1  0.30773000  0.40815000  0.78431000  1.0
  H  H45  1  0.19227000  0.59185000  0.78431000  1.0
  H  H46  1  0.19227000  0.90815000  0.71569000  1.0
  H  H47  1  0.30773000  0.09185000  0.71569000  1.0
  H  H48  1  0.69226000  0.59185000  0.21569000  1.0
  H  H49  1  0.80773000  0.40815000  0.21569000  1.0
  H  H50  1  0.80773000  0.09185000  0.28431000  1.0
  H  H51  1  0.69227000  0.90815000  0.28431000  1.0
  H  H52  1  0.51291000  0.57362000  0.57546000  1.0
  H  H53  1  0.98709000  0.42638000  0.57546000  1.0
  H  H54  1  0.98709000  0.07362000  0.92454000  1.0
  H  H55  1  0.51291000  0.92638000  0.92454000  1.0
  H  H56  1  0.48708000  0.42638000  0.42454000  1.0
  H  H57  1  0.01292000  0.57362000  0.42454000  1.0
  H  H58  1  0.01291000  0.92638000  0.07546000  1.0
  H  H59  1  0.48709000  0.07362000  0.07546000  1.0
  C  C60  1  0.02502000  0.31604000  0.87549000  1.0
  C  C61  1  0.47498000  0.68396000  0.87549000  1.0
  C  C62  1  0.47498000  0.81604000  0.62451000  1.0
  C  C63  1  0.02502000  0.18396000  0.62451000  1.0
  C  C64  1  0.97498000  0.68397000  0.12451000  1.0
  C  C65  1  0.52502000  0.31603000  0.12451000  1.0
  C  C66  1  0.52502000  0.18396000  0.37549000  1.0
  C  C67  1  0.97498000  0.81604000  0.37549000  1.0
  C  C68  1  0.98027000  0.37848000  0.94470000  1.0
  C  C69  1  0.51973000  0.62152000  0.94470000  1.0
  C  C70  1  0.51973000  0.87848000  0.55530000  1.0
  C  C71  1  0.98027000  0.12152000  0.55530000  1.0
  C  C72  1  0.01973000  0.62152000  0.05530000  1.0
  C  C73  1  0.48027000  0.37848000  0.05530000  1.0
  C  C74  1  0.48027000  0.12152000  0.44470000  1.0
  C  C75  1  0.01973000  0.87848000  0.44470000  1.0
  C  C76  1  0.01969000  0.47015000  0.96531000  1.0
  C  C77  1  0.48031000  0.52986000  0.96531000  1.0
  C  C78  1  0.48030000  0.97014000  0.53469000  1.0
  C  C79  1  0.01970000  0.02985000  0.53469000  1.0
  C  C80  1  0.98030000  0.52986000  0.03469000  1.0
  C  C81  1  0.51970000  0.47014000  0.03469000  1.0
  C  C82  1  0.51970000  0.02986000  0.46531000  1.0
  C  C83  1  0.98031000  0.97014000  0.46531000  1.0
  C  C84  1  0.27338000  0.31360000  0.59422000  1.0
  C  C85  1  0.22662000  0.68640000  0.59422000  1.0
  C  C86  1  0.22662000  0.81360000  0.90578000  1.0
  C  C87  1  0.27338000  0.18640000  0.90578000  1.0
  C  C88  1  0.72662000  0.68640000  0.40578000  1.0
  C  C89  1  0.77338000  0.31360000  0.40577000  1.0
  C  C90  1  0.77338000  0.18640000  0.09423000  1.0
  C  C91  1  0.72662000  0.81360000  0.09422000  1.0
  C  C92  1  0.34587000  0.36873000  0.54631000  1.0
  C  C93  1  0.15413000  0.63127000  0.54631000  1.0
  C  C94  1  0.15413000  0.86873000  0.95369000  1.0
  C  C95  1  0.34587000  0.13127000  0.95369000  1.0
  C  C96  1  0.65413000  0.63127000  0.45369000  1.0
  C  C97  1  0.84587000  0.36873000  0.45369000  1.0
  C  C98  1  0.84587000  0.13127000  0.04631000  1.0
  C  C99  1  0.65413000  0.86873000  0.04631000  1.0
  C  C100  1  0.40811000  0.44432000  0.58561000  1.0
  C  C101  1  0.09189000  0.55568000  0.58561000  1.0
  C  C102  1  0.09189000  0.94432000  0.91439000  1.0
  C  C103  1  0.40810000  0.05568000  0.91439000  1.0
  C  C104  1  0.59189000  0.55568000  0.41439000  1.0
  C  C105  1  0.90811000  0.44432000  0.41439000  1.0
  C  C106  1  0.90810000  0.05568000  0.08561000  1.0
  C  C107  1  0.59189000  0.94432000  0.08561000  1.0
  C  C108  1  0.39426000  0.45829000  0.67316000  1.0
  C  C109  1  0.10575000  0.54171000  0.67316000  1.0
  C  C110  1  0.10575000  0.95829000  0.82684000  1.0
  C  C111  1  0.39425000  0.04171000  0.82684000  1.0
  C  C112  1  0.60575000  0.54171000  0.32684000  1.0
  C  C113  1  0.89426000  0.45829000  0.32684000  1.0
  C  C114  1  0.89425000  0.04171000  0.17316000  1.0
  C  C115  1  0.60575000  0.95829000  0.17316000  1.0
  C  C116  1  0.32109000  0.39859000  0.71658000  1.0
  C  C117  1  0.17892000  0.60142000  0.71659000  1.0
  C  C118  1  0.17891000  0.89859000  0.78341000  1.0
  C  C119  1  0.32109000  0.10142000  0.78342000  1.0
  C  C120  1  0.67891000  0.60141000  0.28341000  1.0
  C  C121  1  0.82109000  0.39859000  0.28342000  1.0
  C  C122  1  0.82109000  0.10141000  0.21658000  1.0
  C  C123  1  0.67891000  0.89859000  0.21658000  1.0
  C  C124  1  0.48374000  0.50824000  0.54021000  1.0
  C  C125  1  0.01627000  0.49176000  0.54021000  1.0
  C  C126  1  0.01626000  0.00824000  0.95979000  1.0
  C  C127  1  0.48373000  0.99176000  0.95979000  1.0
  C  C128  1  0.51627000  0.49176000  0.45979000  1.0
  C  C129  1  0.98374000  0.50824000  0.45979000  1.0
  C  C130  1  0.98373000  0.99176000  0.04021000  1.0
  C  C131  1  0.51626000  0.00824000  0.04021000  1.0
  N  N132  1  0.26049000  0.32802000  0.67808000  1.0
  N  N133  1  0.23951000  0.67198000  0.67808000  1.0
  N  N134  1  0.23951000  0.82802000  0.82192000  1.0
  N  N135  1  0.26049000  0.17198000  0.82192000  1.0
  N  N136  1  0.73951000  0.67198000  0.32192000  1.0
  N  N137  1  0.76049000  0.32802000  0.32192000  1.0
  N  N138  1  0.76049000  0.17198000  0.17808000  1.0
  N  N139  1  0.73951000  0.82802000  0.17808000  1.0
  O  O140  1  0.09723000  0.35777000  0.82658000  1.0
  O  O141  1  0.40277000  0.64223000  0.82658000  1.0
  O  O142  1  0.40277000  0.85777000  0.67342000  1.0
  O  O143  1  0.09723000  0.14223000  0.67342000  1.0
  O  O144  1  0.90277000  0.64223000  0.17342000  1.0
  O  O145  1  0.59723000  0.35777000  0.17342000  1.0
  O  O146  1  0.59723000  0.14223000  0.32658000  1.0
  O  O147  1  0.90277000  0.85777000  0.32658000  1.0
  O  O148  1  0.99541000  0.22605000  0.86737000  1.0
  O  O149  1  0.50459000  0.77395000  0.86737000  1.0
  O  O150  1  0.50459000  0.72605000  0.63263000  1.0
  O  O151  1  0.99541000  0.27395000  0.63263000  1.0
  O  O152  1  0.00459000  0.77396000  0.13263000  1.0
  O  O153  1  0.49541000  0.22604000  0.13263000  1.0
  O  O154  1  0.49541000  0.27395000  0.36737000  1.0
  O  O155  1  0.00459000  0.72605000  0.36737000  1.0
