# generated using pymatgen
data_AlH7C12O5
_symmetry_space_group_name_H-M   'P 1'
_cell_length_a   6.64191000
_cell_length_b   11.10733721
_cell_length_c   11.10700000
_cell_angle_alpha   87.95006863
_cell_angle_beta   73.54880000
_cell_angle_gamma   73.56682040
_symmetry_Int_Tables_number   1
_chemical_formula_structural   AlH7C12O5
_chemical_formula_sum   'Al2 H14 C24 O10'
_cell_volume   752.88303828
_cell_formula_units_Z   2
loop_
 _symmetry_equiv_pos_site_id
 _symmetry_equiv_pos_as_xyz
  1  'x, y, z'
loop_
 _atom_site_type_symbol
 _atom_site_label
 _atom_site_symmetry_multiplicity
 _atom_site_fract_x
 _atom_site_fract_y
 _atom_site_fract_z
 _atom_site_occupancy
  Al  Al0  1  0.00029000  0.50059000  0.49898000  1.0
  Al  Al1  1  0.49988000  0.50477000  0.49560000  1.0
  H  H2  1  0.35352000  0.43699000  0.34700000  1.0
  H  H3  1  0.64778000  0.65272000  0.56339000  1.0
  H  H4  1  0.53216000  0.36396000  0.76820000  1.0
  H  H5  1  0.77832000  0.23962000  0.88430000  1.0
  H  H6  1  0.25268000  0.32172000  0.22785000  1.0
  H  H7  1  0.63524000  0.21371000  0.11511000  1.0
  H  H8  1  0.63079000  0.57772000  0.11023000  1.0
  H  H9  1  0.75592000  0.57034000  0.87534000  1.0
  H  H10  1  0.46672000  0.23110000  0.63631000  1.0
  H  H11  1  0.22177000  0.11474000  0.76152000  1.0
  H  H12  1  0.74867000  0.77193000  0.67920000  1.0
  H  H13  1  0.36615000  0.88413000  0.78772000  1.0
  H  H14  1  0.36892000  0.89026000  0.42192000  1.0
  H  H15  1  0.24260000  0.12503000  0.42857000  1.0
  C  C16  1  0.84844000  0.27600000  0.51098000  1.0
  C  C17  1  0.86448000  0.49357000  0.26775000  1.0
  C  C18  1  0.13655000  0.73224000  0.50694000  1.0
  C  C19  1  0.15028000  0.48834000  0.72394000  1.0
  C  C20  1  0.09041000  0.47684000  0.86329000  1.0
  C  C21  1  0.24552000  0.41531000  0.92953000  1.0
  C  C22  1  0.87169000  0.52865000  0.92826000  1.0
  C  C23  1  0.46983000  0.35470000  0.86843000  1.0
  C  C24  1  0.60759000  0.28553000  0.93407000  1.0
  C  C25  1  0.94552000  0.47562000  0.12792000  1.0
  C  C26  1  0.80053000  0.53079000  0.05989000  1.0
  C  C27  1  0.16811000  0.40929000  0.06415000  1.0
  C  C28  1  0.31368000  0.33341000  0.12768000  1.0
  C  C29  1  0.52777000  0.27215000  0.06423000  1.0
  C  C30  1  0.90854000  0.13667000  0.52269000  1.0
  C  C31  1  0.75396000  0.07022000  0.58478000  1.0
  C  C32  1  0.12732000  0.07191000  0.47068000  1.0
  C  C33  1  0.52959000  0.13098000  0.64567000  1.0
  C  C34  1  0.39250000  0.06517000  0.71534000  1.0
  C  C35  1  0.05473000  0.87210000  0.52463000  1.0
  C  C36  1  0.19910000  0.94037000  0.46894000  1.0
  C  C37  1  0.83205000  0.93566000  0.59110000  1.0
  C  C38  1  0.68715000  0.87199000  0.66745000  1.0
  C  C39  1  0.47301000  0.93515000  0.72890000  1.0
  O  O40  1  0.99784000  0.32891000  0.50497000  1.0
  O  O41  1  0.66278000  0.50226000  0.31995000  1.0
  O  O42  1  0.33912000  0.68054000  0.49624000  1.0
  O  O43  1  0.00254000  0.49092000  0.67076000  1.0
  O  O44  1  0.99880000  0.67456000  0.50057000  1.0
  O  O45  1  0.34002000  0.49824000  0.66767000  1.0
  O  O46  1  0.65674000  0.33268000  0.50448000  1.0
  O  O47  1  0.00183000  0.50204000  0.32485000  1.0
  O  O48  1  0.30377000  0.44965000  0.43796000  1.0
  O  O49  1  0.69677000  0.56179000  0.55051000  1.0
