# generated using pymatgen
data_SrH28C16(NO4)2
_symmetry_space_group_name_H-M   'P 1'
_cell_length_a   10.32460000
_cell_length_b   13.26782809
_cell_length_c   19.60370000
_cell_angle_alpha   90.00028857
_cell_angle_beta   90.00050000
_cell_angle_gamma   67.51540625
_symmetry_Int_Tables_number   1
_chemical_formula_structural   SrH28C16(NO4)2
_chemical_formula_sum   'Sr4 H112 C64 N8 O32'
_cell_volume   2481.27452633
_cell_formula_units_Z   4
loop_
 _symmetry_equiv_pos_site_id
 _symmetry_equiv_pos_as_xyz
  1  'x, y, z'
loop_
 _atom_site_type_symbol
 _atom_site_label
 _atom_site_symmetry_multiplicity
 _atom_site_fract_x
 _atom_site_fract_y
 _atom_site_fract_z
 _atom_site_occupancy
  Sr  Sr0  1  0.40919000  0.68461000  0.77800000  1.0
  Sr  Sr1  1  0.09080000  0.81540000  0.27800000  1.0
  Sr  Sr2  1  0.59081000  0.31540000  0.22200000  1.0
  Sr  Sr3  1  0.90919000  0.18460000  0.72200000  1.0
  H  H4  1  0.32860000  0.76715000  0.96893000  1.0
  H  H5  1  0.17140000  0.73286000  0.46893000  1.0
  H  H6  1  0.67140000  0.23286000  0.03107000  1.0
  H  H7  1  0.82860000  0.26714000  0.53107000  1.0
  H  H8  1  0.47561000  0.67582000  0.01415000  1.0
  H  H9  1  0.02439000  0.82418000  0.51415000  1.0
  H  H10  1  0.52440000  0.32418000  0.98585000  1.0
  H  H11  1  0.97561000  0.17582000  0.48585000  1.0
  H  H12  1  0.46229000  0.52309000  0.93556000  1.0
  H  H13  1  0.03771000  0.97691000  0.43556000  1.0
  H  H14  1  0.53771000  0.47692000  0.06443000  1.0
  H  H15  1  0.96230000  0.02308000  0.56443000  1.0
  H  H16  1  0.31757000  0.58615000  0.99167000  1.0
  H  H17  1  0.18242000  0.91386000  0.49167000  1.0
  H  H18  1  0.68244000  0.41385000  0.00833000  1.0
  H  H19  1  0.81758000  0.08614000  0.50833000  1.0
  H  H20  1  0.16988000  0.53763000  0.91720000  1.0
  H  H21  1  0.33011000  0.96238000  0.41720000  1.0
  H  H22  1  0.83010000  0.46239000  0.08281000  1.0
  H  H23  1  0.66989000  0.03762000  0.58280000  1.0
  H  H24  1  0.30911000  0.47785000  0.85602000  1.0
  H  H25  1  0.19090000  0.02215000  0.35602000  1.0
  H  H26  1  0.69088000  0.52216000  0.14398000  1.0
  H  H27  1  0.80912000  0.97784000  0.64398000  1.0
  H  H28  1  0.07240000  0.54064000  0.80246000  1.0
  H  H29  1  0.42760000  0.95936000  0.30246000  1.0
  H  H30  1  0.92758000  0.45938000  0.19754000  1.0
  H  H31  1  0.57242000  0.04062000  0.69754000  1.0
  H  H32  1  0.03744000  0.67796000  0.83057000  1.0
  H  H33  1  0.46255000  0.82204000  0.33057000  1.0
  H  H34  1  0.96254000  0.32206000  0.16943000  1.0
  H  H35  1  0.53746000  0.17794000  0.66943000  1.0
  H  H36  1  0.02471000  0.74030000  0.71337000  1.0
  H  H37  1  0.47528000  0.75970000  0.21337000  1.0
  H  H38  1  0.97527000  0.25970000  0.28662000  1.0
  H  H39  1  0.52473000  0.24029000  0.78662000  1.0
  H  H40  1  0.05286000  0.60319000  0.68655000  1.0
  H  H41  1  0.44713000  0.89681000  0.18655000  1.0
  H  H42  1  0.94713000  0.39681000  0.31345000  1.0
  H  H43  1  0.55287000  0.10318000  0.81345000  1.0
  H  H44  1  0.27311000  0.58085000  0.63272000  1.0
  H  H45  1  0.22688000  0.91916000  0.13272000  1.0
  H  H46  1  0.72688000  0.41916000  0.36728000  1.0
  H  H47  1  0.77311000  0.08085000  0.86728000  1.0
  H  H48  1  0.12778000  0.68679000  0.59493000  1.0
  H  H49  1  0.37221000  0.81321000  0.09493000  1.0
  H  H50  1  0.87223000  0.31320000  0.40507000  1.0
  H  H51  1  0.62778000  0.18679000  0.90507000  1.0
  H  H52  1  0.39819000  0.79641000  0.59421000  1.0
  H  H53  1  0.10181000  0.70359000  0.09421000  1.0
  H  H54  1  0.60180000  0.20360000  0.40579000  1.0
  H  H55  1  0.89819000  0.29641000  0.90579000  1.0
  H  H56  1  0.32974000  0.71530000  0.54503000  1.0
  H  H57  1  0.17024000  0.78471000  0.04503000  1.0
  H  H58  1  0.67025000  0.28471000  0.45496000  1.0
  H  H59  1  0.82975000  0.21530000  0.95496000  1.0
  H  H60  1  0.49193000  0.54922000  0.61452000  1.0
  H  H61  1  0.00806000  0.95078000  0.11452000  1.0
  H  H62  1  0.50807000  0.45078000  0.38548000  1.0
  H  H63  1  0.99194000  0.04922000  0.88548000  1.0
  H  H64  1  0.57659000  0.61612000  0.56215000  1.0
  H  H65  1  0.92340000  0.88388000  0.06215000  1.0
  H  H66  1  0.42341000  0.38388000  0.43785000  1.0
  H  H67  1  0.07659000  0.11612000  0.93785000  1.0
  H  H68  1  0.77927000  0.57022000  0.63124000  1.0
  H  H69  1  0.72072000  0.92978000  0.13124000  1.0
  H  H70  1  0.22072000  0.42979000  0.36876000  1.0
  H  H71  1  0.27927000  0.07021000  0.86876000  1.0
  H  H72  1  0.71177000  0.48752000  0.68121000  1.0
  H  H73  1  0.78823000  0.01248000  0.18121000  1.0
  H  H74  1  0.28822000  0.51249000  0.31879000  1.0
  H  H75  1  0.21177000  0.98751000  0.81879000  1.0
  H  H76  1  0.88641000  0.54073000  0.74189000  1.0
  H  H77  1  0.61358000  0.95927000  0.24189000  1.0
  H  H78  1  0.11358000  0.45927000  0.25811000  1.0
  H  H79  1  0.38642000  0.04072000  0.75812000  1.0
  H  H80  1  0.77453000  0.68336000  0.73307000  1.0
  H  H81  1  0.72547000  0.81664000  0.23307000  1.0
  H  H82  1  0.22546000  0.31665000  0.26693000  1.0
  H  H83  1  0.27454000  0.18335000  0.76693000  1.0
  H  H84  1  0.75645000  0.70776000  0.84896000  1.0
  H  H85  1  0.74355000  0.79224000  0.34895000  1.0
  H  H86  1  0.24356000  0.29224000  0.15104000  1.0
  H  H87  1  0.25644000  0.20777000  0.65105000  1.0
  H  H88  1  0.85727000  0.56831000  0.86889000  1.0
  H  H89  1  0.64273000  0.93168000  0.36890000  1.0
  H  H90  1  0.14273000  0.43168000  0.13111000  1.0
  H  H91  1  0.35727000  0.06832000  0.63111000  1.0
  H  H92  1  0.70532000  0.64490000  0.96407000  1.0
  H  H93  1  0.79469000  0.85510000  0.46407000  1.0
  H  H94  1  0.29467000  0.35511000  0.03593000  1.0
  H  H95  1  0.20532000  0.14490000  0.53593000  1.0
  H  H96  1  0.65097000  0.54896000  0.92187000  1.0
  H  H97  1  0.84903000  0.95104000  0.42187000  1.0
  H  H98  1  0.34903000  0.45104000  0.07813000  1.0
  H  H99  1  0.15097000  0.04896000  0.57813000  1.0
  H  H100  1  0.08123000  0.86997000  0.61951000  1.0
  H  H101  1  0.41877000  0.63003000  0.11951000  1.0
  H  H102  1  0.91877000  0.13003000  0.38050000  1.0
  H  H103  1  0.58123000  0.36997000  0.88049000  1.0
  H  H104  1  0.22552000  0.90543000  0.64148000  1.0
  H  H105  1  0.27448000  0.59457000  0.14148000  1.0
  H  H106  1  0.77448000  0.09457000  0.35852000  1.0
  H  H107  1  0.72551000  0.40544000  0.85852000  1.0
  H  H108  1  0.58288000  0.83048000  0.95168000  1.0
  H  H109  1  0.91714000  0.66951000  0.45168000  1.0
  H  H110  1  0.41713000  0.16952000  0.04832000  1.0
  H  H111  1  0.08286000  0.33049000  0.54832000  1.0
  H  H112  1  0.40266000  0.87732000  0.93056000  1.0
  H  H113  1  0.09736000  0.62268000  0.43056000  1.0
  H  H114  1  0.59735000  0.12269000  0.06944000  1.0
  H  H115  1  0.90264000  0.37732000  0.56944000  1.0
  C  C116  1  0.42270000  0.69203000  0.96371000  1.0
  C  C117  1  0.07731000  0.80797000  0.46371000  1.0
  C  C118  1  0.57731000  0.30797000  0.03629000  1.0
  C  C119  1  0.92269000  0.19203000  0.53629000  1.0
  C  C120  1  0.37402000  0.60057000  0.94712000  1.0
  C  C121  1  0.12598000  0.89944000  0.44711000  1.0
  C  C122  1  0.62597000  0.39944000  0.05288000  1.0
  C  C123  1  0.87403000  0.10056000  0.55288000  1.0
  C  C124  1  0.22406000  0.55411000  0.87243000  1.0
  C  C125  1  0.27593000  0.94590000  0.37243000  1.0
  C  C126  1  0.77592000  0.44591000  0.12757000  1.0
  C  C127  1  0.72408000  0.05409000  0.62757000  1.0
  C  C128  1  0.12064000  0.59964000  0.81517000  1.0
  C  C129  1  0.37936000  0.90036000  0.31518000  1.0
  C  C130  1  0.87934000  0.40038000  0.18483000  1.0
  C  C131  1  0.62066000  0.09962000  0.68482000  1.0
  C  C132  1  0.10453000  0.65917000  0.70044000  1.0
  C  C133  1  0.39546000  0.84083000  0.20044000  1.0
  C  C134  1  0.89546000  0.34083000  0.29956000  1.0
  C  C135  1  0.60455000  0.15916000  0.79956000  1.0
  C  C136  1  0.19523000  0.66377000  0.64099000  1.0
  C  C137  1  0.30476000  0.83623000  0.14099000  1.0
  C  C138  1  0.80476000  0.33623000  0.35901000  1.0
  C  C139  1  0.69523000  0.16377000  0.85900000  1.0
  C  C140  1  0.37236000  0.72335000  0.59574000  1.0
  C  C141  1  0.12764000  0.77665000  0.09574000  1.0
  C  C142  1  0.62764000  0.27665000  0.40426000  1.0
  C  C143  1  0.87236000  0.22335000  0.90426000  1.0
  C  C144  1  0.50826000  0.62615000  0.60722000  1.0
  C  C145  1  0.99173000  0.87385000  0.10722000  1.0
  C  C146  1  0.49174000  0.37385000  0.39278000  1.0
  C  C147  1  0.00826000  0.12615000  0.89278000  1.0
  C  C148  1  0.71404000  0.56949000  0.67578000  1.0
  C  C149  1  0.78595000  0.93051000  0.17578000  1.0
  C  C150  1  0.28595000  0.43052000  0.32422000  1.0
  C  C151  1  0.21405000  0.06948000  0.82422000  1.0
  C  C152  1  0.77719000  0.59961000  0.73778000  1.0
  C  C153  1  0.72281000  0.90039000  0.23778000  1.0
  C  C154  1  0.22281000  0.40039000  0.26222000  1.0
  C  C155  1  0.27719000  0.09961000  0.76222000  1.0
  C  C156  1  0.75016000  0.62738000  0.85713000  1.0
  C  C157  1  0.74984000  0.87262000  0.35714000  1.0
  C  C158  1  0.24984000  0.37262000  0.14286000  1.0
  C  C159  1  0.25017000  0.12738000  0.64287000  1.0
  C  C160  1  0.65544000  0.63007000  0.91682000  1.0
  C  C161  1  0.84456000  0.86993000  0.41682000  1.0
  C  C162  1  0.34457000  0.36993000  0.08317000  1.0
  C  C163  1  0.15544000  0.13007000  0.58318000  1.0
  C  C164  1  0.17008000  0.85220000  0.65542000  1.0
  C  C165  1  0.32992000  0.64780000  0.15542000  1.0
  C  C166  1  0.82992000  0.14780000  0.34458000  1.0
  C  C167  1  0.67008000  0.35220000  0.84458000  1.0
  C  C168  1  0.10983000  0.89406000  0.72668000  1.0
  C  C169  1  0.39017000  0.60594000  0.22668000  1.0
  C  C170  1  0.89018000  0.10594000  0.27332000  1.0
  C  C171  1  0.60982000  0.39406000  0.77332000  1.0
  C  C172  1  0.50791000  0.82288000  0.91365000  1.0
  C  C173  1  0.99210000  0.67712000  0.41365000  1.0
  C  C174  1  0.49209000  0.17713000  0.08635000  1.0
  C  C175  1  0.00790000  0.32288000  0.58635000  1.0
  C  C176  1  0.53096000  0.87153000  0.84491000  1.0
  C  C177  1  0.96907000  0.62845000  0.34491000  1.0
  C  C178  1  0.46905000  0.12847000  0.15510000  1.0
  C  C179  1  0.03095000  0.37153000  0.65510000  1.0
  N  N180  1  0.51131000  0.71090000  0.91068000  1.0
  N  N181  1  0.98870000  0.78910000  0.41068000  1.0
  N  N182  1  0.48870000  0.28910000  0.08932000  1.0
  N  N183  1  0.01130000  0.21090000  0.58932000  1.0
  N  N184  1  0.26895000  0.73862000  0.65056000  1.0
  N  N185  1  0.23104000  0.76138000  0.15056000  1.0
  N  N186  1  0.73104000  0.26138000  0.34944000  1.0
  N  N187  1  0.76895000  0.23862000  0.84944000  1.0
  O  O188  1  0.28201000  0.63326000  0.89001000  1.0
  O  O189  1  0.21799000  0.86674000  0.39001000  1.0
  O  O190  1  0.71798000  0.36675000  0.10999000  1.0
  O  O191  1  0.78202000  0.13325000  0.60999000  1.0
  O  O192  1  0.19444000  0.61585000  0.75781000  1.0
  O  O193  1  0.30556000  0.88415000  0.25781000  1.0
  O  O194  1  0.80555000  0.38416000  0.24219000  1.0
  O  O195  1  0.69444000  0.11584000  0.74218000  1.0
  O  O196  1  0.57377000  0.64887000  0.66618000  1.0
  O  O197  1  0.92623000  0.85112000  0.16618000  1.0
  O  O198  1  0.42623000  0.35113000  0.33382000  1.0
  O  O199  1  0.07377000  0.14887000  0.83382000  1.0
  O  O200  1  0.69891000  0.59401000  0.79742000  1.0
  O  O201  1  0.80109000  0.90599000  0.29742000  1.0
  O  O202  1  0.30109000  0.40599000  0.20258000  1.0
  O  O203  1  0.19891000  0.09401000  0.70258000  1.0
  O  O204  1  0.17560000  0.84397000  0.77870000  1.0
  O  O205  1  0.32440000  0.65603000  0.27871000  1.0
  O  O206  1  0.82441000  0.15602000  0.22130000  1.0
  O  O207  1  0.67558000  0.34398000  0.72130000  1.0
  O  O208  1  0.00110000  0.98120000  0.72618000  1.0
  O  O209  1  0.49889000  0.51881000  0.22618000  1.0
  O  O210  1  0.99889000  0.01880000  0.27382000  1.0
  O  O211  1  0.50110000  0.48120000  0.77382000  1.0
  O  O212  1  0.49857000  0.83364000  0.79056000  1.0
  O  O213  1  0.00141000  0.66637000  0.29056000  1.0
  O  O214  1  0.50142000  0.16637000  0.20944000  1.0
  O  O215  1  0.99858000  0.33363000  0.70944000  1.0
  O  O216  1  0.57246000  0.94865000  0.84969000  1.0
  O  O217  1  0.92760000  0.55132000  0.34969000  1.0
  O  O218  1  0.42756000  0.05135000  0.15031000  1.0
  O  O219  1  0.07244000  0.44865000  0.65032000  1.0
