# generated using pymatgen
data_ZnH20C16N6(ClO)2
_symmetry_space_group_name_H-M   'P 1'
_cell_length_a   8.88037000
_cell_length_b   8.88034000
_cell_length_c   13.75280000
_cell_angle_alpha   98.76780000
_cell_angle_beta   98.76780000
_cell_angle_gamma   106.18600000
_symmetry_Int_Tables_number   1
_chemical_formula_structural   ZnH20C16N6(ClO)2
_chemical_formula_sum   'Zn2 H40 C32 N12 Cl4 O4'
_cell_volume   1007.45278569
_cell_formula_units_Z   2
loop_
 _symmetry_equiv_pos_site_id
 _symmetry_equiv_pos_as_xyz
  1  'x, y, z'
loop_
 _atom_site_type_symbol
 _atom_site_label
 _atom_site_symmetry_multiplicity
 _atom_site_fract_x
 _atom_site_fract_y
 _atom_site_fract_z
 _atom_site_occupancy
  Zn  Zn0  1  0.37214000  0.62786000  0.25000000  1.0
  Zn  Zn1  1  0.62786000  0.37214000  0.75000000  1.0
  H  H2  1  0.73744000  0.60753000  0.39417000  1.0
  H  H3  1  0.39247000  0.26256000  0.10583000  1.0
  H  H4  1  0.26256000  0.39247000  0.60583000  1.0
  H  H5  1  0.60753000  0.73744000  0.89417000  1.0
  H  H6  1  0.17027000  0.67034000  0.39001000  1.0
  H  H7  1  0.32966000  0.82973000  0.10999000  1.0
  H  H8  1  0.82973000  0.32966000  0.60999000  1.0
  H  H9  1  0.67034000  0.17027000  0.89001000  1.0
  H  H10  1  0.73202000  0.66999000  0.54796000  1.0
  H  H11  1  0.33001000  0.26798000  0.95204000  1.0
  H  H12  1  0.26798000  0.33001000  0.45204000  1.0
  H  H13  1  0.66999000  0.73202000  0.04796000  1.0
  H  H14  1  0.78000000  0.40302000  0.07344000  1.0
  H  H15  1  0.59698000  0.22000000  0.42656000  1.0
  H  H16  1  0.22000000  0.59699000  0.92656000  1.0
  H  H17  1  0.40302000  0.78000000  0.57344000  1.0
  H  H18  1  0.07798000  0.45286000  0.08759000  1.0
  H  H19  1  0.54714000  0.92202000  0.41241000  1.0
  H  H20  1  0.92202000  0.54714000  0.91241000  1.0
  H  H21  1  0.45286000  0.07798000  0.58759000  1.0
  H  H22  1  0.68131000  0.49690000  0.22369000  1.0
  H  H23  1  0.50310000  0.31869000  0.27630000  1.0
  H  H24  1  0.31869000  0.50310000  0.77631000  1.0
  H  H25  1  0.49690000  0.68131000  0.72370000  1.0
  H  H26  1  0.03552000  0.77060000  0.69482000  1.0
  H  H27  1  0.22940000  0.96448000  0.80518000  1.0
  H  H28  1  0.96448000  0.22941000  0.30518000  1.0
  H  H29  1  0.77060000  0.03552000  0.19482000  1.0
  H  H30  1  0.84013000  0.73613000  0.71998000  1.0
  H  H31  1  0.26387000  0.15987000  0.78002000  1.0
  H  H32  1  0.15987000  0.26387000  0.28002000  1.0
  H  H33  1  0.73613000  0.84013000  0.21998000  1.0
  H  H34  1  0.82841000  0.99456000  0.67601000  1.0
  H  H35  1  0.00544000  0.17160000  0.82400000  1.0
  H  H36  1  0.17159000  0.00544000  0.32400000  1.0
  H  H37  1  0.99456000  0.82840000  0.17601000  1.0
  H  H38  1  0.01869000  0.02996000  0.64443000  1.0
  H  H39  1  0.97004000  0.98131000  0.85557000  1.0
  H  H40  1  0.98131000  0.97004000  0.35557000  1.0
  H  H41  1  0.02996000  0.01869000  0.14443000  1.0
  C  C42  1  0.91751000  0.58771000  0.32087000  1.0
  C  C43  1  0.41229000  0.08249000  0.17913000  1.0
  C  C44  1  0.08249000  0.41229000  0.67913000  1.0
  C  C45  1  0.58770000  0.91751000  0.82087000  1.0
  C  C46  1  0.08098000  0.61213000  0.32147000  1.0
  C  C47  1  0.38787000  0.91902000  0.17853000  1.0
  C  C48  1  0.91902000  0.38787000  0.67853000  1.0
  C  C49  1  0.61213000  0.08098000  0.82147000  1.0
  C  C50  1  0.94768000  0.70327000  0.50201000  1.0
  C  C51  1  0.29673000  0.05232000  0.99799000  1.0
  C  C52  1  0.05232000  0.29673000  0.49799000  1.0
  C  C53  1  0.70327000  0.94768000  0.00201000  1.0
  C  C54  1  0.86363000  0.46364000  0.14415000  1.0
  C  C55  1  0.53636000  0.13637000  0.35585000  1.0
  C  C56  1  0.13637000  0.53636000  0.85585000  1.0
  C  C57  1  0.46364000  0.86363000  0.64415000  1.0
  C  C58  1  0.02731000  0.49027000  0.15096000  1.0
  C  C59  1  0.50973000  0.97269000  0.34904000  1.0
  C  C60  1  0.97269000  0.50973000  0.84904000  1.0
  C  C61  1  0.49027000  0.02731000  0.65096000  1.0
  C  C62  1  0.80884000  0.51364000  0.22879000  1.0
  C  C63  1  0.48636000  0.19116000  0.27121000  1.0
  C  C64  1  0.19116000  0.48636000  0.77121000  1.0
  C  C65  1  0.51364000  0.80884000  0.72879000  1.0
  C  C66  1  0.92114000  0.79445000  0.67431000  1.0
  C  C67  1  0.20555000  0.07886000  0.82569000  1.0
  C  C68  1  0.07886000  0.20555000  0.32569000  1.0
  C  C69  1  0.79445000  0.92114000  0.17431000  1.0
  C  C70  1  0.94539000  0.97502000  0.69523000  1.0
  C  C71  1  0.02498000  0.05461000  0.80477000  1.0
  C  C72  1  0.05461000  0.02498000  0.30477000  1.0
  C  C73  1  0.97502000  0.94539000  0.19523000  1.0
  N  N74  1  0.13157000  0.56442000  0.23821000  1.0
  N  N75  1  0.43558000  0.86843000  0.26179000  1.0
  N  N76  1  0.86843000  0.43558000  0.76179000  1.0
  N  N77  1  0.56442000  0.13157000  0.73821000  1.0
  N  N78  1  0.85956000  0.63289000  0.40442000  1.0
  N  N79  1  0.36711000  0.14044000  0.09558000  1.0
  N  N80  1  0.14044000  0.36711000  0.59558000  1.0
  N  N81  1  0.63289000  0.85956000  0.90442000  1.0
  N  N82  1  0.85309000  0.71719000  0.56985000  1.0
  N  N83  1  0.28281000  0.14691000  0.93015000  1.0
  N  N84  1  0.14691000  0.28281000  0.43015000  1.0
  N  N85  1  0.71719000  0.85309000  0.06985000  1.0
  Cl  Cl86  1  0.41976000  0.51832000  0.10428000  1.0
  Cl  Cl87  1  0.48168000  0.58024000  0.39572000  1.0
  Cl  Cl88  1  0.58025000  0.48168000  0.89572000  1.0
  Cl  Cl89  1  0.51832000  0.41976000  0.60428000  1.0
  O  O90  1  0.09626000  0.74858000  0.52433000  1.0
  O  O91  1  0.25141000  0.90375000  0.97567000  1.0
  O  O92  1  0.90375000  0.25142000  0.47567000  1.0
  O  O93  1  0.74858000  0.09626000  0.02433000  1.0
