# generated using pymatgen
data_Cu3H14C12N4(ClO3)2
_symmetry_space_group_name_H-M   'P 1'
_cell_length_a   4.95419000
_cell_length_b   7.86583039
_cell_length_c   11.44723887
_cell_angle_alpha   75.32531869
_cell_angle_beta   87.40599285
_cell_angle_gamma   81.29761152
_symmetry_Int_Tables_number   1
_chemical_formula_structural   Cu3H14C12N4(ClO3)2
_chemical_formula_sum   'Cu3 H14 C12 N4 Cl2 O6'
_cell_volume   426.55477490
_cell_formula_units_Z   1
loop_
 _symmetry_equiv_pos_site_id
 _symmetry_equiv_pos_as_xyz
  1  'x, y, z'
loop_
 _atom_site_type_symbol
 _atom_site_label
 _atom_site_symmetry_multiplicity
 _atom_site_fract_x
 _atom_site_fract_y
 _atom_site_fract_z
 _atom_site_occupancy
  Cu  Cu0  1  0.99964000  0.49990000  0.00004000  1.0
  Cu  Cu1  1  0.79703000  0.00931000  0.38975000  1.0
  Cu  Cu2  1  0.20393000  0.99039000  0.61033000  1.0
  H  H3  1  0.48854000  0.94234000  0.19508000  1.0
  H  H4  1  0.51160000  0.05776000  0.80502000  1.0
  H  H5  1  0.24508000  0.45851000  0.24785000  1.0
  H  H6  1  0.75491000  0.54151000  0.75197000  1.0
  H  H7  1  0.37351000  0.71894000  0.40944000  1.0
  H  H8  1  0.62677000  0.28123000  0.59034000  1.0
  H  H9  1  0.30496000  0.49538000  0.44897000  1.0
  H  H10  1  0.69573000  0.50470000  0.55073000  1.0
  H  H11  1  0.09445000  0.66570000  0.50445000  1.0
  H  H12  1  0.90618000  0.33416000  0.49542000  1.0
  H  H13  1  0.90346000  0.21839000  0.18863000  1.0
  H  H14  1  0.09611000  0.78179000  0.81134000  1.0
  H  H15  1  0.58411000  0.24741000  0.18313000  1.0
  H  H16  1  0.41552000  0.75237000  0.81714000  1.0
  C  C17  1  0.71383000  0.73602000  0.12180000  1.0
  C  C18  1  0.28589000  0.26397000  0.87826000  1.0
  C  C19  1  0.66225000  0.83684000  0.20609000  1.0
  C  C20  1  0.33777000  0.16320000  0.79395000  1.0
  C  C21  1  0.03303000  0.67324000  0.31913000  1.0
  C  C22  1  0.96721000  0.32681000  0.68076000  1.0
  C  C23  1  0.08064000  0.57024000  0.23506000  1.0
  C  C24  1  0.91937000  0.42979000  0.76482000  1.0
  C  C25  1  0.54108000  0.76853000  0.01115000  1.0
  C  C26  1  0.45829000  0.23147000  0.98901000  1.0
  C  C27  1  0.21077000  0.63480000  0.42681000  1.0
  C  C28  1  0.78973000  0.36523000  0.57298000  1.0
  N  N29  1  0.92707000  0.60430000  0.13629000  1.0
  N  N30  1  0.07264000  0.39568000  0.86369000  1.0
  N  N31  1  0.82414000  0.81012000  0.30236000  1.0
  N  N32  1  0.17618000  0.18997000  0.69759000  1.0
  Cl  Cl33  1  0.75145000  0.91319000  0.59700000  1.0
  Cl  Cl34  1  0.24865000  0.08686000  0.40311000  1.0
  O  O35  1  0.65673000  0.70175000  0.92500000  1.0
  O  O36  1  0.34237000  0.29791000  0.07524000  1.0
  O  O37  1  0.30615000  0.85136000  0.00932000  1.0
  O  O38  1  0.69345000  0.14885000  0.99083000  1.0
  O  O39  1  0.74148000  0.23022000  0.23966000  1.0
  O  O40  1  0.25830000  0.76984000  0.76046000  1.0
