# generated using pymatgen
data_Ag2H10C13I(NO2)2
_symmetry_space_group_name_H-M   'P 1'
_cell_length_a   8.73071000
_cell_length_b   13.57350000
_cell_length_c   15.08390000
_cell_angle_alpha   115.37200000
_cell_angle_beta   90.00000000
_cell_angle_gamma   108.76100000
_symmetry_Int_Tables_number   1
_chemical_formula_structural   Ag2H10C13I(NO2)2
_chemical_formula_sum   'Ag8 H40 C52 I4 N8 O16'
_cell_volume   1509.33449611
_cell_formula_units_Z   4
loop_
 _symmetry_equiv_pos_site_id
 _symmetry_equiv_pos_as_xyz
  1  'x, y, z'
loop_
 _atom_site_type_symbol
 _atom_site_label
 _atom_site_symmetry_multiplicity
 _atom_site_fract_x
 _atom_site_fract_y
 _atom_site_fract_z
 _atom_site_occupancy
  Ag  Ag0  1  0.97056000  0.30393000  0.78029000  1.0
  Ag  Ag1  1  0.66658000  0.69590000  0.71962000  1.0
  Ag  Ag2  1  0.02944000  0.69607000  0.21971000  1.0
  Ag  Ag3  1  0.33342000  0.30410000  0.28038000  1.0
  Ag  Ag4  1  0.00174000  0.01285000  0.91134000  1.0
  Ag  Ag5  1  0.98905000  0.98730000  0.58873000  1.0
  Ag  Ag6  1  0.99826000  0.98715000  0.08866000  1.0
  Ag  Ag7  1  0.01095000  0.01270000  0.41127000  1.0
  H  H8  1  0.04427000  0.28971000  0.55766000  1.0
  H  H9  1  0.75464000  0.71018000  0.94230000  1.0
  H  H10  1  0.95573000  0.71029000  0.44234000  1.0
  H  H11  1  0.24536000  0.28982000  0.05770000  1.0
  H  H12  1  0.53453000  0.17096000  0.93116000  1.0
  H  H13  1  0.36381000  0.82929000  0.56898000  1.0
  H  H14  1  0.46547000  0.82904000  0.06885000  1.0
  H  H15  1  0.63618000  0.17071000  0.43102000  1.0
  H  H16  1  0.33366000  0.64867000  0.70598000  1.0
  H  H17  1  0.68497000  0.35122000  0.79395000  1.0
  H  H18  1  0.66634000  0.35133000  0.29402000  1.0
  H  H19  1  0.31503000  0.64879000  0.20605000  1.0
  H  H20  1  0.22873000  0.57068000  0.84661000  1.0
  H  H21  1  0.65821000  0.42926000  0.65332000  1.0
  H  H22  1  0.77127000  0.42932000  0.15339000  1.0
  H  H23  1  0.34180000  0.57074000  0.34668000  1.0
  H  H24  1  0.98684000  0.21412000  0.08282000  1.0
  H  H25  1  0.77289000  0.78603000  0.41724000  1.0
  H  H26  1  0.01316000  0.78588000  0.91718000  1.0
  H  H27  1  0.22711000  0.21397000  0.58276000  1.0
  H  H28  1  0.13354000  0.62265000  0.54691000  1.0
  H  H29  1  0.51073000  0.37730000  0.95308000  1.0
  H  H30  1  0.86646000  0.37734000  0.45309000  1.0
  H  H31  1  0.48927000  0.62270000  0.04692000  1.0
  H  H32  1  0.09203000  0.52229000  0.41933000  1.0
  H  H33  1  0.56972000  0.47768000  0.08065000  1.0
  H  H34  1  0.90797000  0.47771000  0.58067000  1.0
  H  H35  1  0.43028000  0.52232000  0.91935000  1.0
  H  H36  1  0.53313000  0.12155000  0.19464000  1.0
  H  H37  1  0.41163000  0.87851000  0.30541000  1.0
  H  H38  1  0.46687000  0.87845000  0.80536000  1.0
  H  H39  1  0.58837000  0.12149000  0.69459000  1.0
  H  H40  1  0.17453000  0.38322000  0.45266000  1.0
  H  H41  1  0.79141000  0.61661000  0.04728000  1.0
  H  H42  1  0.82548000  0.61677000  0.54734000  1.0
  H  H43  1  0.20859000  0.38339000  0.95272000  1.0
  H  H44  1  0.33219000  0.52398000  0.51081000  1.0
  H  H45  1  0.80810000  0.47579000  0.98912000  1.0
  H  H46  1  0.66781000  0.47602000  0.48919000  1.0
  H  H47  1  0.19190000  0.52421000  0.01088000  1.0
  C  C48  1  0.10916000  0.37528000  0.61885000  1.0
  C  C49  1  0.73401000  0.62463000  0.88110000  1.0
  C  C50  1  0.89084000  0.62472000  0.38115000  1.0
  C  C51  1  0.26599000  0.37537000  0.11890000  1.0
  C  C52  1  0.60209000  0.17215000  0.99251000  1.0
  C  C53  1  0.43021000  0.82816000  0.50766000  1.0
  C  C54  1  0.39791000  0.82785000  0.00749000  1.0
  C  C55  1  0.56979000  0.17184000  0.49234000  1.0
  C  C56  1  0.51764000  0.14560000  0.06296000  1.0
  C  C57  1  0.37218000  0.85461000  0.43718000  1.0
  C  C58  1  0.48236000  0.85440000  0.93704000  1.0
  C  C59  1  0.62782000  0.14539000  0.56282000  1.0
  C  C60  1  0.33437000  0.11105000  0.05087000  1.0
  C  C61  1  0.22328000  0.88897000  0.44921000  1.0
  C  C62  1  0.66563000  0.88895000  0.94913000  1.0
  C  C63  1  0.77672000  0.11103000  0.55079000  1.0
  C  C64  1  0.26046000  0.56333000  0.69817000  1.0
  C  C65  1  0.69719000  0.43656000  0.80176000  1.0
  C  C66  1  0.73954000  0.43667000  0.30183000  1.0
  C  C67  1  0.30281000  0.56344000  0.19825000  1.0
  C  C68  1  0.20682000  0.52314000  0.76623000  1.0
  C  C69  1  0.68380000  0.47677000  0.73369000  1.0
  C  C70  1  0.79318000  0.47686000  0.23377000  1.0
  C  C71  1  0.31621000  0.52323000  0.26630000  1.0
  C  C72  1  0.77076000  0.19537000  0.99894000  1.0
  C  C73  1  0.57563000  0.80488000  0.50118000  1.0
  C  C74  1  0.22925000  0.80463000  0.00106000  1.0
  C  C75  1  0.42437000  0.19512000  0.49882000  1.0
  C  C76  1  0.85536000  0.19497000  0.07765000  1.0
  C  C77  1  0.66063000  0.80527000  0.42246000  1.0
  C  C78  1  0.14465000  0.80503000  0.92235000  1.0
  C  C79  1  0.33937000  0.19473000  0.57753000  1.0
  C  C80  1  0.08792000  0.52895000  0.49459000  1.0
  C  C81  1  0.55892000  0.47101000  0.00539000  1.0
  C  C82  1  0.91208000  0.47105000  0.50541000  1.0
  C  C83  1  0.44108000  0.52899000  0.99461000  1.0
  C  C84  1  0.60178000  0.14392000  0.14144000  1.0
  C  C85  1  0.45797000  0.85627000  0.35869000  1.0
  C  C86  1  0.39822000  0.85608000  0.85857000  1.0
  C  C87  1  0.54202000  0.14374000  0.64131000  1.0
  C  C88  1  0.20544000  0.47340000  0.51085000  1.0
  C  C89  1  0.73206000  0.52645000  0.98908000  1.0
  C  C90  1  0.79457000  0.52660000  0.48915000  1.0
  C  C91  1  0.26794000  0.47355000  0.01092000  1.0
  C  C92  1  0.77058000  0.17008000  0.14819000  1.0
  C  C93  1  0.60063000  0.83010000  0.35191000  1.0
  C  C94  1  0.22942000  0.82992000  0.85181000  1.0
  C  C95  1  0.39936000  0.16990000  0.64809000  1.0
  C  C96  1  0.86434000  0.21774000  0.92180000  1.0
  C  C97  1  0.64676000  0.78238000  0.57826000  1.0
  C  C98  1  0.13566000  0.78225000  0.07820000  1.0
  C  C99  1  0.35324000  0.21762000  0.42174000  1.0
  I  I100  1  0.90651000  0.16936000  0.26378000  1.0
  I  I101  1  0.73692000  0.83054000  0.23612000  1.0
  I  I102  1  0.09349000  0.83064000  0.73622000  1.0
  I  I103  1  0.26308000  0.16946000  0.76388000  1.0
  N  N104  1  0.11269000  0.40558000  0.71584000  1.0
  N  N105  1  0.70728000  0.59435000  0.78412000  1.0
  N  N106  1  0.88730000  0.59442000  0.28416000  1.0
  N  N107  1  0.29273000  0.40565000  0.21588000  1.0
  N  N108  1  0.19890000  0.46877000  0.60580000  1.0
  N  N109  1  0.73020000  0.53111000  0.89414000  1.0
  N  N110  1  0.80111000  0.53123000  0.39420000  1.0
  N  N111  1  0.26980000  0.46889000  0.10586000  1.0
  O  O112  1  0.26485000  0.10987000  0.97609000  1.0
  O  O113  1  0.15500000  0.89017000  0.52400000  1.0
  O  O114  1  0.73515000  0.89013000  0.02391000  1.0
  O  O115  1  0.84499000  0.10983000  0.47599000  1.0
  O  O116  1  0.99672000  0.19777000  0.90981000  1.0
  O  O117  1  0.79917000  0.80263000  0.59041000  1.0
  O  O118  1  0.00328000  0.80223000  0.09019000  1.0
  O  O119  1  0.20083000  0.19738000  0.40959000  1.0
  O  O120  1  0.26411000  0.08517000  0.11631000  1.0
  O  O121  1  0.17871000  0.91464000  0.38367000  1.0
  O  O122  1  0.73589000  0.91483000  0.88369000  1.0
  O  O123  1  0.82129000  0.08536000  0.61633000  1.0
  O  O124  1  0.80406000  0.25870000  0.87345000  1.0
  O  O125  1  0.54539000  0.74097000  0.62630000  1.0
  O  O126  1  0.19594000  0.74130000  0.12655000  1.0
  O  O127  1  0.45460000  0.25903000  0.37370000  1.0
