# generated using pymatgen
data_Tb2H19C33N5O13
_symmetry_space_group_name_H-M   'P 1'
_cell_length_a   7.50247000
_cell_length_b   12.42700000
_cell_length_c   18.17700000
_cell_angle_alpha   70.88950000
_cell_angle_beta   78.48700000
_cell_angle_gamma   74.77230000
_symmetry_Int_Tables_number   1
_chemical_formula_structural   Tb2H19C33N5O13
_chemical_formula_sum   'Tb4 H38 C66 N10 O26'
_cell_volume   1533.04005959
_cell_formula_units_Z   2
loop_
 _symmetry_equiv_pos_site_id
 _symmetry_equiv_pos_as_xyz
  1  'x, y, z'
loop_
 _atom_site_type_symbol
 _atom_site_label
 _atom_site_symmetry_multiplicity
 _atom_site_fract_x
 _atom_site_fract_y
 _atom_site_fract_z
 _atom_site_occupancy
  Tb  Tb0  1  0.31055000  0.54174000  0.91308000  1.0
  Tb  Tb1  1  0.68945000  0.45825000  0.08692000  1.0
  Tb  Tb2  1  0.37777000  0.26373000  0.26323000  1.0
  Tb  Tb3  1  0.62224000  0.73626000  0.73676000  1.0
  H  H4  1  0.53391000  0.34078000  0.99948000  1.0
  H  H5  1  0.46609000  0.65922000  0.00052000  1.0
  H  H6  1  0.38236000  0.34659000  0.07442000  1.0
  H  H7  1  0.61764000  0.65341000  0.92558000  1.0
  H  H8  1  0.68760000  0.72224000  0.13823000  1.0
  H  H9  1  0.31241000  0.27776000  0.86177000  1.0
  H  H10  1  0.66714000  0.78926000  0.25650000  1.0
  H  H11  1  0.33286000  0.21074000  0.74350000  1.0
  H  H12  1  0.22952000  0.65566000  0.27262000  1.0
  H  H13  1  0.77048000  0.34434000  0.72738000  1.0
  H  H14  1  0.21022000  0.02789000  0.84665000  1.0
  H  H15  1  0.78977000  0.97211000  0.15335000  1.0
  H  H16  1  0.94001000  0.12032000  0.92629000  1.0
  H  H17  1  0.05999000  0.87968000  0.07371000  1.0
  H  H18  1  0.65458000  0.86372000  0.95404000  1.0
  H  H19  1  0.34541000  0.13628000  0.04596000  1.0
  H  H20  1  0.58964000  0.46374000  0.63597000  1.0
  H  H21  1  0.41036000  0.53626000  0.36403000  1.0
  H  H22  1  0.53546000  0.36488000  0.54507000  1.0
  H  H23  1  0.46454000  0.63512000  0.45492000  1.0
  H  H24  1  0.97012000  0.51021000  0.56503000  1.0
  H  H25  1  0.02988000  0.48979000  0.43496000  1.0
  H  H26  1  0.36848000  0.04366000  0.19281000  1.0
  H  H27  1  0.63152000  0.95633000  0.80720000  1.0
  H  H28  1  0.27325000  0.85338000  0.22809000  1.0
  H  H29  1  0.72675000  0.14661000  0.77191000  1.0
  H  H30  1  0.16865000  0.75775000  0.36976000  1.0
  H  H31  1  0.83134000  0.24225000  0.63025000  1.0
  H  H32  1  0.14150000  0.75418000  0.51077000  1.0
  H  H33  1  0.85848000  0.24582000  0.48923000  1.0
  H  H34  1  0.16545000  0.84815000  0.60793000  1.0
  H  H35  1  0.83454000  0.15185000  0.39207000  1.0
  H  H36  1  0.22876000  0.01808000  0.63688000  1.0
  H  H37  1  0.77123000  0.98194000  0.36312000  1.0
  H  H38  1  0.30841000  0.21571000  0.58472000  1.0
  H  H39  1  0.69158000  0.78430000  0.41528000  1.0
  H  H40  1  0.38317000  0.29945000  0.44027000  1.0
  H  H41  1  0.61683000  0.70056000  0.55973000  1.0
  C  C42  1  0.00235000  0.61578000  0.06313000  1.0
  C  C43  1  0.99765000  0.38422000  0.93687000  1.0
  C  C44  1  0.98344000  0.65163000  0.13621000  1.0
  C  C45  1  0.01656000  0.34836000  0.86379000  1.0
  C  C46  1  0.81077000  0.70799000  0.16627000  1.0
  C  C47  1  0.18923000  0.29201000  0.83373000  1.0
  C  C48  1  0.80003000  0.74428000  0.23218000  1.0
  C  C49  1  0.19998000  0.25572000  0.76782000  1.0
  C  C50  1  0.11095000  0.67128000  0.24126000  1.0
  C  C51  1  0.88906000  0.32873000  0.75874000  1.0
  C  C52  1  0.13745000  0.63144000  0.17538000  1.0
  C  C53  1  0.86256000  0.36856000  0.82462000  1.0
  C  C54  1  0.32754000  0.56990000  0.14947000  1.0
  C  C55  1  0.67247000  0.43010000  0.85053000  1.0
  C  C56  1  0.25774000  0.83268000  0.81082000  1.0
  C  C57  1  0.74225000  0.16731000  0.18919000  1.0
  C  C58  1  0.08557000  0.88517000  0.85590000  1.0
  C  C59  1  0.91442000  0.11483000  0.14410000  1.0
  C  C60  1  0.08943000  0.98847000  0.87017000  1.0
  C  C61  1  0.91056000  0.01153000  0.12982000  1.0
  C  C62  1  0.93855000  0.03974000  0.91473000  1.0
  C  C63  1  0.06145000  0.96026000  0.08527000  1.0
  C  C64  1  0.78080000  0.89806000  0.92975000  1.0
  C  C65  1  0.21920000  0.10194000  0.07025000  1.0
  C  C66  1  0.92452000  0.83907000  0.88519000  1.0
  C  C67  1  0.07548000  0.16093000  0.11481000  1.0
  C  C68  1  0.89262000  0.73505000  0.86865000  1.0
  C  C69  1  0.10738000  0.26494000  0.13135000  1.0
  C  C70  1  0.33036000  0.59030000  0.71755000  1.0
  C  C71  1  0.66965000  0.40970000  0.28245000  1.0
  C  C72  1  0.29732000  0.54079000  0.65733000  1.0
  C  C73  1  0.70269000  0.45921000  0.34267000  1.0
  C  C74  1  0.44953000  0.47309000  0.62307000  1.0
  C  C75  1  0.55047000  0.52691000  0.37693000  1.0
  C  C76  1  0.41913000  0.42011000  0.57134000  1.0
  C  C77  1  0.58088000  0.57989000  0.42866000  1.0
  C  C78  1  0.10670000  0.49854000  0.58257000  1.0
  C  C79  1  0.89330000  0.50146000  0.41742000  1.0
  C  C80  1  0.12077000  0.55247000  0.63732000  1.0
  C  C81  1  0.87924000  0.44752000  0.36267000  1.0
  C  C82  1  0.94822000  0.61892000  0.67214000  1.0
  C  C83  1  0.05179000  0.38108000  0.32786000  1.0
  C  C84  1  0.32482000  0.99952000  0.25364000  1.0
  C  C85  1  0.67517000  0.00047000  0.74636000  1.0
  C  C86  1  0.27290000  0.89178000  0.27405000  1.0
  C  C87  1  0.72710000  0.10821000  0.72595000  1.0
  C  C88  1  0.21771000  0.83889000  0.35199000  1.0
  C  C89  1  0.78228000  0.16111000  0.64801000  1.0
  C  C90  1  0.22412000  0.89126000  0.40935000  1.0
  C  C91  1  0.77587000  0.10874000  0.59066000  1.0
  C  C92  1  0.18291000  0.83796000  0.49162000  1.0
  C  C93  1  0.81709000  0.16204000  0.50838000  1.0
  C  C94  1  0.19467000  0.89038000  0.54532000  1.0
  C  C95  1  0.80532000  0.10962000  0.45469000  1.0
  C  C96  1  0.24605000  0.00115000  0.52042000  1.0
  C  C97  1  0.75394000  0.99885000  0.47958000  1.0
  C  C98  1  0.25679000  0.05906000  0.57399000  1.0
  C  C99  1  0.74320000  0.94095000  0.42601000  1.0
  C  C100  1  0.30401000  0.16673000  0.54553000  1.0
  C  C101  1  0.69599000  0.83328000  0.45447000  1.0
  C  C102  1  0.34440000  0.21507000  0.46415000  1.0
  C  C103  1  0.65560000  0.78493000  0.53585000  1.0
  C  C104  1  0.28594000  0.05751000  0.43913000  1.0
  C  C105  1  0.71406000  0.94249000  0.56088000  1.0
  C  C106  1  0.27550000  0.00148000  0.38273000  1.0
  C  C107  1  0.72450000  0.99852000  0.61727000  1.0
  N  N108  1  0.94740000  0.72735000  0.26941000  1.0
  N  N109  1  0.05260000  0.27265000  0.73059000  1.0
  N  N110  1  0.78602000  0.99500000  0.94548000  1.0
  N  N111  1  0.21397000  0.00500000  0.05451000  1.0
  N  N112  1  0.25176000  0.43381000  0.54948000  1.0
  N  N113  1  0.74825000  0.56619000  0.45052000  1.0
  N  N114  1  0.31975000  0.05547000  0.30547000  1.0
  N  N115  1  0.68025000  0.94453000  0.69453000  1.0
  N  N116  1  0.33647000  0.16249000  0.41186000  1.0
  N  N117  1  0.66353000  0.83751000  0.58814000  1.0
  O  O118  1  0.16155000  0.60628000  0.02278000  1.0
  O  O119  1  0.83845000  0.39372000  0.97722000  1.0
  O  O120  1  0.85767000  0.59998000  0.04553000  1.0
  O  O121  1  0.14234000  0.40002000  0.95447000  1.0
  O  O122  1  0.44749000  0.63001000  0.11175000  1.0
  O  O123  1  0.55252000  0.36999000  0.88825000  1.0
  O  O124  1  0.36863000  0.45838000  0.16711000  1.0
  O  O125  1  0.63137000  0.54162000  0.83289000  1.0
  O  O126  1  0.34830000  0.73000000  0.84402000  1.0
  O  O127  1  0.65170000  0.27000000  0.15598000  1.0
  O  O128  1  0.32232000  0.89180000  0.74519000  1.0
  O  O129  1  0.67767000  0.10819000  0.25481000  1.0
  O  O130  1  0.01679000  0.64431000  0.87423000  1.0
  O  O131  1  0.98321000  0.35568000  0.12577000  1.0
  O  O132  1  0.72862000  0.74616000  0.85071000  1.0
  O  O133  1  0.27138000  0.25384000  0.14930000  1.0
  O  O134  1  0.29224000  0.53405000  0.78817000  1.0
  O  O135  1  0.70777000  0.46595000  0.21182000  1.0
  O  O136  1  0.40570000  0.67804000  0.69231000  1.0
  O  O137  1  0.59431000  0.32195000  0.30769000  1.0
  O  O138  1  0.95518000  0.69992000  0.69972000  1.0
  O  O139  1  0.04483000  0.30008000  0.30028000  1.0
  O  O140  1  0.79341000  0.59342000  0.67290000  1.0
  O  O141  1  0.20660000  0.40659000  0.32709000  1.0
  O  O142  1  0.45944000  0.39316000  0.03013000  1.0
  O  O143  1  0.54056000  0.60684000  0.96987000  1.0
