# generated using pymatgen
data_H12PbC20(N3O4)2
_symmetry_space_group_name_H-M   'P 1'
_cell_length_a   7.37702000
_cell_length_b   8.52965000
_cell_length_c   18.20620000
_cell_angle_alpha   86.35170000
_cell_angle_beta   81.56510000
_cell_angle_gamma   64.43430000
_symmetry_Int_Tables_number   1
_chemical_formula_structural   H12PbC20(N3O4)2
_chemical_formula_sum   'H24 Pb2 C40 N12 O16'
_cell_volume   1022.25333073
_cell_formula_units_Z   2
loop_
 _symmetry_equiv_pos_site_id
 _symmetry_equiv_pos_as_xyz
  1  'x, y, z'
loop_
 _atom_site_type_symbol
 _atom_site_label
 _atom_site_symmetry_multiplicity
 _atom_site_fract_x
 _atom_site_fract_y
 _atom_site_fract_z
 _atom_site_occupancy
  H  H0  1  0.93660000  0.90443000  0.41920000  1.0
  H  H1  1  0.15884000  0.90459000  0.08093000  1.0
  H  H2  1  0.06342000  0.09555000  0.58080000  1.0
  H  H3  1  0.84110000  0.09544000  0.91909000  1.0
  H  H4  1  0.69222000  0.57268000  0.95944000  1.0
  H  H5  1  0.73550000  0.57250000  0.54056000  1.0
  H  H6  1  0.30777000  0.42734000  0.04056000  1.0
  H  H7  1  0.26453000  0.42750000  0.45944000  1.0
  H  H8  1  0.70798000  0.95333000  0.09180000  1.0
  H  H9  1  0.33845000  0.95343000  0.40858000  1.0
  H  H10  1  0.29197000  0.04669000  0.90822000  1.0
  H  H11  1  0.66151000  0.04657000  0.59144000  1.0
  H  H12  1  0.63509000  0.86000000  0.97444000  1.0
  H  H13  1  0.50563000  0.85969000  0.52572000  1.0
  H  H14  1  0.36486000  0.14004000  0.02557000  1.0
  H  H15  1  0.49438000  0.14029000  0.47428000  1.0
  H  H16  1  0.81785000  0.35214000  0.04763000  1.0
  H  H17  1  0.82897000  0.35199000  0.45241000  1.0
  H  H18  1  0.18215000  0.64788000  0.95236000  1.0
  H  H19  1  0.17106000  0.64802000  0.54757000  1.0
  H  H20  1  0.89629000  0.42258000  0.16793000  1.0
  H  H21  1  0.67925000  0.42277000  0.33236000  1.0
  H  H22  1  0.10373000  0.57741000  0.83206000  1.0
  H  H23  1  0.32076000  0.57723000  0.66764000  1.0
  Pb  Pb24  1  0.33192000  0.33528000  0.25015000  1.0
  Pb  Pb25  1  0.66817000  0.66473000  0.74985000  1.0
  C  C26  1  0.06252000  0.63592000  0.37864000  1.0
  C  C27  1  0.30088000  0.63607000  0.12153000  1.0
  C  C28  1  0.93751000  0.36408000  0.62135000  1.0
  C  C29  1  0.69913000  0.36393000  0.87847000  1.0
  C  C30  1  0.95720000  0.71783000  0.31411000  1.0
  C  C31  1  0.32389000  0.71800000  0.18616000  1.0
  C  C32  1  0.04282000  0.28216000  0.68588000  1.0
  C  C33  1  0.67611000  0.28200000  0.81384000  1.0
  C  C34  1  0.83344000  0.89553000  0.29920000  1.0
  C  C35  1  0.26983000  0.89574000  0.20115000  1.0
  C  C36  1  0.16655000  0.10445000  0.70080000  1.0
  C  C37  1  0.73015000  0.10426000  0.79886000  1.0
  C  C38  1  0.76719000  0.05197000  0.34447000  1.0
  C  C39  1  0.17971000  0.05224000  0.15591000  1.0
  C  C40  1  0.23283000  0.94801000  0.65553000  1.0
  C  C41  1  0.82024000  0.94778000  0.84410000  1.0
  C  C42  1  0.85026000  0.74061000  0.20820000  1.0
  C  C43  1  0.40787000  0.74075000  0.29214000  1.0
  C  C44  1  0.14975000  0.25938000  0.79180000  1.0
  C  C45  1  0.59211000  0.25925000  0.70787000  1.0
  C  C46  1  0.80710000  0.69462000  0.13963000  1.0
  C  C47  1  0.49722000  0.69475000  0.36068000  1.0
  C  C48  1  0.19290000  0.30536000  0.86036000  1.0
  C  C49  1  0.50276000  0.30525000  0.63933000  1.0
  C  C50  1  0.72994000  0.82045000  0.08439000  1.0
  C  C51  1  0.44919000  0.82050000  0.41589000  1.0
  C  C52  1  0.27003000  0.17955000  0.91562000  1.0
  C  C53  1  0.55079000  0.17950000  0.58412000  1.0
  C  C54  1  0.68886000  0.77198000  0.02027000  1.0
  C  C55  1  0.53927000  0.77181000  0.47990000  1.0
  C  C56  1  0.31109000  0.22806000  0.97974000  1.0
  C  C57  1  0.46074000  0.22819000  0.52010000  1.0
  C  C58  1  0.79536000  0.48196000  0.06156000  1.0
  C  C59  1  0.72190000  0.48189000  0.43857000  1.0
  C  C60  1  0.20465000  0.51804000  0.93843000  1.0
  C  C61  1  0.27812000  0.51811000  0.56143000  1.0
  C  C62  1  0.83757000  0.52363000  0.12702000  1.0
  C  C63  1  0.63747000  0.52375000  0.37323000  1.0
  C  C64  1  0.16245000  0.47636000  0.87297000  1.0
  C  C65  1  0.36253000  0.47625000  0.62677000  1.0
  N  N66  1  0.96626000  0.62106000  0.25599000  1.0
  N  N67  1  0.41156000  0.62116000  0.24428000  1.0
  N  N68  1  0.03376000  0.37894000  0.74400000  1.0
  N  N69  1  0.58846000  0.37883000  0.75571000  1.0
  N  N70  1  0.76904000  0.90712000  0.23211000  1.0
  N  N71  1  0.32259000  0.90728000  0.26826000  1.0
  N  N72  1  0.23096000  0.09286000  0.76789000  1.0
  N  N73  1  0.67737000  0.09271000  0.73175000  1.0
  N  N74  1  0.72231000  0.60585000  0.00996000  1.0
  N  N75  1  0.67180000  0.60569000  0.49012000  1.0
  N  N76  1  0.27767000  0.39417000  0.99004000  1.0
  N  N77  1  0.32823000  0.39431000  0.50987000  1.0
  O  O78  1  0.17131000  0.47069000  0.37850000  1.0
  O  O79  1  0.35724000  0.47081000  0.12169000  1.0
  O  O80  1  0.82876000  0.52931000  0.62148000  1.0
  O  O81  1  0.64280000  0.52919000  0.87830000  1.0
  O  O82  1  0.04295000  0.72962000  0.43395000  1.0
  O  O83  1  0.22733000  0.72973000  0.06612000  1.0
  O  O84  1  0.95708000  0.27036000  0.56604000  1.0
  O  O85  1  0.77266000  0.27028000  0.93387000  1.0
  O  O86  1  0.84441000  0.03837000  0.40682000  1.0
  O  O87  1  0.11689000  0.03855000  0.09340000  1.0
  O  O88  1  0.15562000  0.96160000  0.59318000  1.0
  O  O89  1  0.88304000  0.96148000  0.90662000  1.0
  O  O90  1  0.63827000  0.19611000  0.32603000  1.0
  O  O91  1  0.16397000  0.19654000  0.17447000  1.0
  O  O92  1  0.36177000  0.80389000  0.67396000  1.0
  O  O93  1  0.83600000  0.80346000  0.82554000  1.0
