# generated using pymatgen
data_NiH36C28N4O5
_symmetry_space_group_name_H-M   'P 1'
_cell_length_a   10.20140000
_cell_length_b   17.19490000
_cell_length_c   19.80940000
_cell_angle_alpha   66.02020000
_cell_angle_beta   85.52130000
_cell_angle_gamma   87.47820000
_symmetry_Int_Tables_number   1
_chemical_formula_structural   NiH36C28N4O5
_chemical_formula_sum   'Ni4 H144 C112 N16 O20'
_cell_volume   3164.91110601
_cell_formula_units_Z   4
loop_
 _symmetry_equiv_pos_site_id
 _symmetry_equiv_pos_as_xyz
  1  'x, y, z'
loop_
 _atom_site_type_symbol
 _atom_site_label
 _atom_site_symmetry_multiplicity
 _atom_site_fract_x
 _atom_site_fract_y
 _atom_site_fract_z
 _atom_site_occupancy
  Ni  Ni0  1  0.00504000  0.79141000  0.21586000  1.0
  Ni  Ni1  1  0.99516000  0.20794000  0.78419000  1.0
  Ni  Ni2  1  0.98821000  0.22723000  0.28144000  1.0
  Ni  Ni3  1  0.01138000  0.77309000  0.71301000  1.0
  H  H4  1  0.05148000  0.30831000  0.40780000  1.0
  H  H5  1  0.96201000  0.70412000  0.61897000  1.0
  H  H6  1  0.14929000  0.24779000  0.38717000  1.0
  H  H7  1  0.84441000  0.75942000  0.63798000  1.0
  H  H8  1  0.94818000  0.80568000  0.08332000  1.0
  H  H9  1  0.05150000  0.19307000  0.91704000  1.0
  H  H10  1  0.83857000  0.76048000  0.14975000  1.0
  H  H11  1  0.16180000  0.23791000  0.85069000  1.0
  H  H12  1  0.08713000  0.35038000  0.13955000  1.0
  H  H13  1  0.91693000  0.64152000  0.86034000  1.0
  H  H14  1  0.03841000  0.50571000  0.06529000  1.0
  H  H15  1  0.96969000  0.48719000  0.93725000  1.0
  H  H16  1  0.88703000  0.58428000  0.12380000  1.0
  H  H17  1  0.12120000  0.40741000  0.87995000  1.0
  H  H18  1  0.85929000  0.35166000  0.32115000  1.0
  H  H19  1  0.14455000  0.63673000  0.68020000  1.0
  H  H20  1  0.78396000  0.49185000  0.32480000  1.0
  H  H21  1  0.22175000  0.49809000  0.67813000  1.0
  H  H22  1  0.79281000  0.58619000  0.24176000  1.0
  H  H23  1  0.21809000  0.40439000  0.76178000  1.0
  H  H24  1  0.58803000  0.63918000  0.23105000  1.0
  H  H25  1  0.42252000  0.35661000  0.76946000  1.0
  H  H26  1  0.54880000  0.56629000  0.32458000  1.0
  H  H27  1  0.45939000  0.43025000  0.67593000  1.0
  H  H28  1  0.58268000  0.41028000  0.35504000  1.0
  H  H29  1  0.41965000  0.58534000  0.64628000  1.0
  H  H30  1  0.63818000  0.37974000  0.28146000  1.0
  H  H31  1  0.36290000  0.61515000  0.72006000  1.0
  H  H32  1  0.09261000  0.07581000  0.26297000  1.0
  H  H33  1  0.90879000  0.93405000  0.72911000  1.0
  H  H34  1  0.04042000  0.91940000  0.32958000  1.0
  H  H35  1  0.96559000  0.08992000  0.66489000  1.0
  H  H36  1  0.89061000  0.87269000  0.44549000  1.0
  H  H37  1  0.11746000  0.13717000  0.54950000  1.0
  H  H38  1  0.87678000  0.13291000  0.42312000  1.0
  H  H39  1  0.12858000  0.87774000  0.57024000  1.0
  H  H40  1  0.80142000  0.90986000  0.55076000  1.0
  H  H41  1  0.21154000  0.09899000  0.44510000  1.0
  H  H42  1  0.79306000  0.01792000  0.53986000  1.0
  H  H43  1  0.21602000  0.99083000  0.45600000  1.0
  H  H44  1  0.56852000  0.97362000  0.59840000  1.0
  H  H45  1  0.44071000  0.03204000  0.39840000  1.0
  H  H46  1  0.58895000  0.87332000  0.59205000  1.0
  H  H47  1  0.42051000  0.13254000  0.40466000  1.0
  H  H48  1  0.65536000  0.08925000  0.39644000  1.0
  H  H49  1  0.35374000  0.91641000  0.59963000  1.0
  H  H50  1  0.61162000  0.10645000  0.47790000  1.0
  H  H51  1  0.39794000  0.90024000  0.51785000  1.0
  H  H52  1  0.43634000  0.43264000  0.21832000  1.0
  H  H53  1  0.56662000  0.56540000  0.78226000  1.0
  H  H54  1  0.39804000  0.35925000  0.31140000  1.0
  H  H55  1  0.60239000  0.63934000  0.68920000  1.0
  H  H56  1  0.34706000  0.61932000  0.25983000  1.0
  H  H57  1  0.66259000  0.37996000  0.73955000  1.0
  H  H58  1  0.40434000  0.58741000  0.18751000  1.0
  H  H59  1  0.60415000  0.41058000  0.81245000  1.0
  H  H60  1  0.19233000  0.41153000  0.30440000  1.0
  H  H61  1  0.81105000  0.58926000  0.69441000  1.0
  H  H62  1  0.20696000  0.49904000  0.21676000  1.0
  H  H63  1  0.79810000  0.50264000  0.78254000  1.0
  H  H64  1  0.12542000  0.64154000  0.20047000  1.0
  H  H65  1  0.87820000  0.35911000  0.79965000  1.0
  H  H66  1  0.89403000  0.67811000  0.36579000  1.0
  H  H67  1  0.10516000  0.31998000  0.63414000  1.0
  H  H68  1  0.93589000  0.52802000  0.45657000  1.0
  H  H69  1  0.06690000  0.47046000  0.54341000  1.0
  H  H70  1  0.09613000  0.43590000  0.41733000  1.0
  H  H71  1  0.91026000  0.56439000  0.58271000  1.0
  H  H72  1  0.15791000  0.89343000  0.07649000  1.0
  H  H73  1  0.84505000  0.10533000  0.92432000  1.0
  H  H74  1  0.09993000  0.15639000  0.04123000  1.0
  H  H75  1  0.89477000  0.84294000  0.95633000  1.0
  H  H76  1  0.88822000  0.95192000  0.21686000  1.0
  H  H77  1  0.10725000  0.04717000  0.78062000  1.0
  H  H78  1  0.19356000  0.03944000  0.93817000  1.0
  H  H79  1  0.80689000  0.96029000  0.06108000  1.0
  H  H80  1  0.25259000  0.12226000  0.95873000  1.0
  H  H81  1  0.74745000  0.87701000  0.04122000  1.0
  H  H82  1  0.46229000  0.09170000  0.90395000  1.0
  H  H83  1  0.53885000  0.90824000  0.09644000  1.0
  H  H84  1  0.38928000  0.00489000  0.89412000  1.0
  H  H85  1  0.61087000  0.99629000  0.10487000  1.0
  H  H86  1  0.36683000  0.00991000  0.10288000  1.0
  H  H87  1  0.63286000  0.98901000  0.89675000  1.0
  H  H88  1  0.44758000  0.09534000  0.02751000  1.0
  H  H89  1  0.55134000  0.90410000  0.97220000  1.0
  H  H90  1  0.47679000  0.69668000  0.46689000  1.0
  H  H91  1  0.52309000  0.30294000  0.53327000  1.0
  H  H92  1  0.56635000  0.84125000  0.43805000  1.0
  H  H93  1  0.43466000  0.15820000  0.56178000  1.0
  H  H94  1  0.39238000  0.84315000  0.44552000  1.0
  H  H95  1  0.60868000  0.15670000  0.55463000  1.0
  H  H96  1  0.26084000  0.74651000  0.40984000  1.0
  H  H97  1  0.73923000  0.25351000  0.59031000  1.0
  H  H98  1  0.34241000  0.67538000  0.37533000  1.0
  H  H99  1  0.65706000  0.32432000  0.62501000  1.0
  H  H100  1  0.59551000  0.67092000  0.36270000  1.0
  H  H101  1  0.40392000  0.32833000  0.63747000  1.0
  H  H102  1  0.68620000  0.74070000  0.38706000  1.0
  H  H103  1  0.31382000  0.25838000  0.61302000  1.0
  H  H104  1  0.68829000  0.89723000  0.30972000  1.0
  H  H105  1  0.31229000  0.10216000  0.68991000  1.0
  H  H106  1  0.59775000  0.94198000  0.22946000  1.0
  H  H107  1  0.40239000  0.05720000  0.77034000  1.0
  H  H108  1  0.48086000  0.96669000  0.33428000  1.0
  H  H109  1  0.52008000  0.03289000  0.66566000  1.0
  H  H110  1  0.46136000  0.73385000  0.24727000  1.0
  H  H111  1  0.53856000  0.26508000  0.75326000  1.0
  H  H112  1  0.46213000  0.84337000  0.19293000  1.0
  H  H113  1  0.53796000  0.15549000  0.80714000  1.0
  H  H114  1  0.26384000  0.90600000  0.33178000  1.0
  H  H115  1  0.73698000  0.09367000  0.66839000  1.0
  H  H116  1  0.34608000  0.94656000  0.24230000  1.0
  H  H117  1  0.65441000  0.05308000  0.75778000  1.0
  H  H118  1  0.39029000  0.36192000  0.15203000  1.0
  H  H119  1  0.59961000  0.63844000  0.85264000  1.0
  H  H120  1  0.28982000  0.30056000  0.12335000  1.0
  H  H121  1  0.69218000  0.69879000  0.88631000  1.0
  H  H122  1  0.38284000  0.08741000  0.26353000  1.0
  H  H123  1  0.60781000  0.91282000  0.74238000  1.0
  H  H124  1  0.28541000  0.14277000  0.18751000  1.0
  H  H125  1  0.69718000  0.85843000  0.82202000  1.0
  H  H126  1  0.53666000  0.28373000  0.26203000  1.0
  H  H127  1  0.46871000  0.71673000  0.73744000  1.0
  H  H128  1  0.53388000  0.17205000  0.30635000  1.0
  H  H129  1  0.47210000  0.82813000  0.69341000  1.0
  H  H130  1  0.48402000  0.07627000  0.14990000  1.0
  H  H131  1  0.48975000  0.92339000  0.85290000  1.0
  H  H132  1  0.71203000  0.29245000  0.08481000  1.0
  H  H133  1  0.26651000  0.70743000  0.90769000  1.0
  H  H134  1  0.64044000  0.35568000  0.13042000  1.0
  H  H135  1  0.34784000  0.64416000  0.86479000  1.0
  H  H136  1  0.39256000  0.21192000  0.05701000  1.0
  H  H137  1  0.57616000  0.78758000  0.94832000  1.0
  H  H138  1  0.56594000  0.20738000  0.04223000  1.0
  H  H139  1  0.40208000  0.79217000  0.95758000  1.0
  H  H140  1  0.49154000  0.35016000  0.03794000  1.0
  H  H141  1  0.48117000  0.64953000  0.96367000  1.0
  H  H142  1  0.70659000  0.13038000  0.15018000  1.0
  H  H143  1  0.27258000  0.86848000  0.84365000  1.0
  H  H144  1  0.63305000  0.08123000  0.24153000  1.0
  H  H145  1  0.35572000  0.91875000  0.75502000  1.0
  H  H146  1  0.93465000  0.10955000  0.14985000  1.0
  H  H147  1  0.05630000  0.89035000  0.84547000  1.0
  C  C148  1  0.02464000  0.38817000  0.16211000  1.0
  C  C149  1  0.98065000  0.60339000  0.83853000  1.0
  C  C150  1  0.99577000  0.47390000  0.12179000  1.0
  C  C151  1  0.01148000  0.51824000  0.88045000  1.0
  C  C152  1  0.91208000  0.51722000  0.15424000  1.0
  C  C153  1  0.09526000  0.47416000  0.84873000  1.0
  C  C154  1  0.86100000  0.47435000  0.22741000  1.0
  C  C155  1  0.14478000  0.51596000  0.77519000  1.0
  C  C156  1  0.89604000  0.38892000  0.26429000  1.0
  C  C157  1  0.10725000  0.60076000  0.73735000  1.0
  C  C158  1  0.76868000  0.51830000  0.26452000  1.0
  C  C159  1  0.23843000  0.47289000  0.73827000  1.0
  C  C160  1  0.54846000  0.57583000  0.26545000  1.0
  C  C161  1  0.46019000  0.42048000  0.73511000  1.0
  C  C162  1  0.57857000  0.42727000  0.29457000  1.0
  C  C163  1  0.42420000  0.56842000  0.70672000  1.0
  C  C164  1  0.03136000  0.05111000  0.31450000  1.0
  C  C165  1  0.97259000  0.95859000  0.67837000  1.0
  C  C166  1  0.00128000  0.96517000  0.35157000  1.0
  C  C167  1  0.00533000  0.04433000  0.64283000  1.0
  C  C168  1  0.91841000  0.93923000  0.41605000  1.0
  C  C169  1  0.09013000  0.07052000  0.57905000  1.0
  C  C170  1  0.87148000  0.99896000  0.44373000  1.0
  C  C171  1  0.13714000  0.01066000  0.55151000  1.0
  C  C172  1  0.90853000  0.08337000  0.40418000  1.0
  C  C173  1  0.09652000  0.92682000  0.58971000  1.0
  C  C174  1  0.77847000  0.97487000  0.51169000  1.0
  C  C175  1  0.23166000  0.03360000  0.48444000  1.0
  C  C176  1  0.55706000  0.93960000  0.56193000  1.0
  C  C177  1  0.45257000  0.06633000  0.43468000  1.0
  C  C178  1  0.59662000  0.06377000  0.44958000  1.0
  C  C179  1  0.41283000  0.94241000  0.54665000  1.0
  C  C180  1  0.43726000  0.42276000  0.27749000  1.0
  C  C181  1  0.56537000  0.57516000  0.72313000  1.0
  C  C182  1  0.40726000  0.57124000  0.24786000  1.0
  C  C183  1  0.60081000  0.42701000  0.75208000  1.0
  C  C184  1  0.21788000  0.47929000  0.27707000  1.0
  C  C185  1  0.78673000  0.52137000  0.72243000  1.0
  C  C186  1  0.12359000  0.53104000  0.30518000  1.0
  C  C187  1  0.88109000  0.46937000  0.69469000  1.0
  C  C188  1  0.08847000  0.61378000  0.25835000  1.0
  C  C189  1  0.91491000  0.38640000  0.74168000  1.0
  C  C190  1  0.95748000  0.63401000  0.35092000  1.0
  C  C191  1  0.04367000  0.36479000  0.64907000  1.0
  C  C192  1  0.98335000  0.55125000  0.40089000  1.0
  C  C193  1  0.01958000  0.44779000  0.59909000  1.0
  C  C194  1  0.06994000  0.49993000  0.37838000  1.0
  C  C195  1  0.93484000  0.50001000  0.62156000  1.0
  C  C196  1  0.10691000  0.94322000  0.08958000  1.0
  C  C197  1  0.89397000  0.05561000  0.91029000  1.0
  C  C198  1  0.13745000  0.02875000  0.04797000  1.0
  C  C199  1  0.86196000  0.97023000  0.95131000  1.0
  C  C200  1  0.07520000  0.08912000  0.07042000  1.0
  C  C201  1  0.92101000  0.91000000  0.92758000  1.0
  C  C202  1  0.95796000  0.97672000  0.16872000  1.0
  C  C203  1  0.03860000  0.02236000  0.82924000  1.0
  C  C204  1  0.23525000  0.05256000  0.98209000  1.0
  C  C205  1  0.76485000  0.94671000  0.01749000  1.0
  C  C206  1  0.44214000  0.02261000  0.93198000  1.0
  C  C207  1  0.55821000  0.97738000  0.06762000  1.0
  C  C208  1  0.42851000  0.02596000  0.05106000  1.0
  C  C209  1  0.57123000  0.97340000  0.94853000  1.0
  C  C210  1  0.71553000  0.79124000  0.23832000  1.0
  C  C211  1  0.28455000  0.20764000  0.76191000  1.0
  C  C212  1  0.47475000  0.74633000  0.41013000  1.0
  C  C213  1  0.52531000  0.25323000  0.59001000  1.0
  C  C214  1  0.47851000  0.83459000  0.41196000  1.0
  C  C215  1  0.52212000  0.16503000  0.58805000  1.0
  C  C216  1  0.34777000  0.73877000  0.37645000  1.0
  C  C217  1  0.65214000  0.26098000  0.62373000  1.0
  C  C218  1  0.59507000  0.73475000  0.36329000  1.0
  C  C219  1  0.40475000  0.26452000  0.63684000  1.0
  C  C220  1  0.59299000  0.80356000  0.28305000  1.0
  C  C221  1  0.40708000  0.19564000  0.71705000  1.0
  C  C222  1  0.59688000  0.89182000  0.28607000  1.0
  C  C223  1  0.40348000  0.10750000  0.71379000  1.0
  C  C224  1  0.47698000  0.90347000  0.33280000  1.0
  C  C225  1  0.52373000  0.09607000  0.66717000  1.0
  C  C226  1  0.46525000  0.79597000  0.25014000  1.0
  C  C227  1  0.53473000  0.20317000  0.75005000  1.0
  C  C228  1  0.34478000  0.80810000  0.29656000  1.0
  C  C229  1  0.65535000  0.19153000  0.70356000  1.0
  C  C230  1  0.35023000  0.89670000  0.29893000  1.0
  C  C231  1  0.65038000  0.10292000  0.70114000  1.0
  C  C232  1  0.38509000  0.30155000  0.14542000  1.0
  C  C233  1  0.60086000  0.69843000  0.86029000  1.0
  C  C234  1  0.39262000  0.22556000  0.22164000  1.0
  C  C235  1  0.60066000  0.77484000  0.78404000  1.0
  C  C236  1  0.38073000  0.14267000  0.20988000  1.0
  C  C237  1  0.60566000  0.85778000  0.79632000  1.0
  C  C238  1  0.52729000  0.22576000  0.25253000  1.0
  C  C239  1  0.47332000  0.77453000  0.74767000  1.0
  C  C240  1  0.63990000  0.21940000  0.19838000  1.0
  C  C241  1  0.35250000  0.78051000  0.79675000  1.0
  C  C242  1  0.49308000  0.13617000  0.15651000  1.0
  C  C243  1  0.48554000  0.86367000  0.84547000  1.0
  C  C244  1  0.62999000  0.29617000  0.12285000  1.0
  C  C245  1  0.35387000  0.70375000  0.87276000  1.0
  C  C246  1  0.48611000  0.21219000  0.08122000  1.0
  C  C247  1  0.48623000  0.78743000  0.92097000  1.0
  C  C248  1  0.49762000  0.29535000  0.09166000  1.0
  C  C249  1  0.48044000  0.70441000  0.90966000  1.0
  C  C250  1  0.62534000  0.13599000  0.18783000  1.0
  C  C251  1  0.35894000  0.86354000  0.80871000  1.0
  C  C252  1  0.27464000  0.23152000  0.27330000  1.0
  C  C253  1  0.72366000  0.77004000  0.73637000  1.0
  C  C254  1  0.77996000  0.21881000  0.22132000  1.0
  C  C255  1  0.22524000  0.77978000  0.76189000  1.0
  C  C256  1  0.21770000  0.80145000  0.26408000  1.0
  C  C257  1  0.78219000  0.19856000  0.73607000  1.0
  C  C258  1  0.98337000  0.06318000  0.13124000  1.0
  C  C259  1  0.01101000  0.93610000  0.86589000  1.0
  N  N260  1  0.97463000  0.34639000  0.23215000  1.0
  N  N261  1  0.02820000  0.64407000  0.76797000  1.0
  N  N262  1  0.63144000  0.51193000  0.25113000  1.0
  N  N263  1  0.37514000  0.48272000  0.75029000  1.0
  N  N264  1  0.98376000  0.10927000  0.33990000  1.0
  N  N265  1  0.01826000  0.90060000  0.65247000  1.0
  N  N266  1  0.64126000  0.97711000  0.49365000  1.0
  N  N267  1  0.36898000  0.02936000  0.50291000  1.0
  N  N268  1  0.35418000  0.48658000  0.29178000  1.0
  N  N269  1  0.65075000  0.51258000  0.70826000  1.0
  N  N270  1  0.01008000  0.66476000  0.28089000  1.0
  N  N271  1  0.99155000  0.33466000  0.71921000  1.0
  N  N272  1  0.01968000  0.91756000  0.14858000  1.0
  N  N273  1  0.97999000  0.08132000  0.85078000  1.0
  N  N274  1  0.35823000  0.00415000  0.99974000  1.0
  N  N275  1  0.64186000  0.99517000  0.99982000  1.0
  O  O276  1  0.28803000  0.24178000  0.33148000  1.0
  O  O277  1  0.71290000  0.76156000  0.67611000  1.0
  O  O278  1  0.16357000  0.22479000  0.24868000  1.0
  O  O279  1  0.83250000  0.77570000  0.76179000  1.0
  O  O280  1  0.82457000  0.80702000  0.25784000  1.0
  O  O281  1  0.17555000  0.19183000  0.74245000  1.0
  O  O282  1  0.70495000  0.76607000  0.18687000  1.0
  O  O283  1  0.29514000  0.23262000  0.81352000  1.0
  O  O284  1  0.10770000  0.81372000  0.29472000  1.0
  O  O285  1  0.89230000  0.18706000  0.70514000  1.0
  O  O286  1  0.21848000  0.78386000  0.20729000  1.0
  O  O287  1  0.78132000  0.21564000  0.79316000  1.0
  O  O288  1  0.87334000  0.21190000  0.17902000  1.0
  O  O289  1  0.11564000  0.78764000  0.79517000  1.0
  O  O290  1  0.79821000  0.22621000  0.28307000  1.0
  O  O291  1  0.22596000  0.77035000  0.70113000  1.0
  O  O292  1  0.07305000  0.24845000  0.42184000  1.0
  O  O293  1  0.94257000  0.76062000  0.61756000  1.0
  O  O294  1  0.93692000  0.75808000  0.13136000  1.0
  O  O295  1  0.06335000  0.24055000  0.86898000  1.0
