# generated using pymatgen
data_Zn4H30C48O13
_symmetry_space_group_name_H-M   'P 1'
_cell_length_a   19.69690000
_cell_length_b   24.13060000
_cell_length_c   30.84320000
_cell_angle_alpha   89.99980000
_cell_angle_beta   89.99980000
_cell_angle_gamma   89.99970000
_symmetry_Int_Tables_number   1
_chemical_formula_structural   Zn4H30C48O13
_chemical_formula_sum   'Zn16 H120 C192 O52'
_cell_volume   14659.71174019
_cell_formula_units_Z   4
loop_
 _symmetry_equiv_pos_site_id
 _symmetry_equiv_pos_as_xyz
  1  'x, y, z'
loop_
 _atom_site_type_symbol
 _atom_site_label
 _atom_site_symmetry_multiplicity
 _atom_site_fract_x
 _atom_site_fract_y
 _atom_site_fract_z
 _atom_site_occupancy
  Zn  Zn0  1  0.30345000  0.06742000  0.10737000  1.0
  Zn  Zn1  1  0.69655000  0.06742000  0.89263000  1.0
  Zn  Zn2  1  0.80346000  0.43258000  0.39263000  1.0
  Zn  Zn3  1  0.19655000  0.43258000  0.60737000  1.0
  Zn  Zn4  1  0.69654000  0.93258000  0.89263000  1.0
  Zn  Zn5  1  0.30345000  0.93258000  0.10737000  1.0
  Zn  Zn6  1  0.19654000  0.56742000  0.60737000  1.0
  Zn  Zn7  1  0.80346000  0.56742000  0.39263000  1.0
  Zn  Zn8  1  0.18588000  0.00000000  0.05826000  1.0
  Zn  Zn9  1  0.81412000  0.00000000  0.94174000  1.0
  Zn  Zn10  1  0.68589000  0.50000000  0.44174000  1.0
  Zn  Zn11  1  0.31412000  0.50000000  0.55826000  1.0
  Zn  Zn12  1  0.18786000  0.00000000  0.15908000  1.0
  Zn  Zn13  1  0.81213000  0.00000000  0.84092000  1.0
  Zn  Zn14  1  0.68787000  0.50000000  0.34092000  1.0
  Zn  Zn15  1  0.31214000  0.50000000  0.65908000  1.0
  H  H16  1  0.33937000  0.18387000  0.00841000  1.0
  H  H17  1  0.66063000  0.18387000  0.99159000  1.0
  H  H18  1  0.83937000  0.31614000  0.49159000  1.0
  H  H19  1  0.16063000  0.31613000  0.50841000  1.0
  H  H20  1  0.66062000  0.81614000  0.99159000  1.0
  H  H21  1  0.33938000  0.81614000  0.00841000  1.0
  H  H22  1  0.16062000  0.68387000  0.50841000  1.0
  H  H23  1  0.83938000  0.68387000  0.49159000  1.0
  H  H24  1  0.34711000  0.24565000  0.94379000  1.0
  H  H25  1  0.65289000  0.24565000  0.05620000  1.0
  H  H26  1  0.84711000  0.25435000  0.55620000  1.0
  H  H27  1  0.15289000  0.25435000  0.44379000  1.0
  H  H28  1  0.65288000  0.75435000  0.05620000  1.0
  H  H29  1  0.34711000  0.75435000  0.94380000  1.0
  H  H30  1  0.15288000  0.74565000  0.44379000  1.0
  H  H31  1  0.84711000  0.74565000  0.55621000  1.0
  H  H32  1  0.17093000  0.16521000  0.88901000  1.0
  H  H33  1  0.82907000  0.16521000  0.11099000  1.0
  H  H34  1  0.67093000  0.33479000  0.61099000  1.0
  H  H35  1  0.32907000  0.33479000  0.38901000  1.0
  H  H36  1  0.82906000  0.83479000  0.11099000  1.0
  H  H37  1  0.17093000  0.83479000  0.88901000  1.0
  H  H38  1  0.32907000  0.66521000  0.38901000  1.0
  H  H39  1  0.67093000  0.66521000  0.61099000  1.0
  H  H40  1  0.16451000  0.10433000  0.95297000  1.0
  H  H41  1  0.83549000  0.10433000  0.04702000  1.0
  H  H42  1  0.66451000  0.39568000  0.54703000  1.0
  H  H43  1  0.33549000  0.39567000  0.45297000  1.0
  H  H44  1  0.83548000  0.89568000  0.04703000  1.0
  H  H45  1  0.16451000  0.89568000  0.95297000  1.0
  H  H46  1  0.33549000  0.60433000  0.45298000  1.0
  H  H47  1  0.66451000  0.60433000  0.54702000  1.0
  H  H48  1  0.30910000  0.27682000  0.87739000  1.0
  H  H49  1  0.69090000  0.27682000  0.12261000  1.0
  H  H50  1  0.80910000  0.22317000  0.62261000  1.0
  H  H51  1  0.19091000  0.22318000  0.37739000  1.0
  H  H52  1  0.69090000  0.72317000  0.12261000  1.0
  H  H53  1  0.30910000  0.72318000  0.87739000  1.0
  H  H54  1  0.19090000  0.77682000  0.37739000  1.0
  H  H55  1  0.80910000  0.77682000  0.62261000  1.0
  H  H56  1  0.97366000  0.99999000  0.03978000  1.0
  H  H57  1  0.02634000  0.00000000  0.96023000  1.0
  H  H58  1  0.47366000  0.50000000  0.46023000  1.0
  H  H59  1  0.52634000  0.49999000  0.53978000  1.0
  H  H60  1  0.84811000  0.99999000  0.04159000  1.0
  H  H61  1  0.15189000  0.00000000  0.95841000  1.0
  H  H62  1  0.34812000  0.50000000  0.45841000  1.0
  H  H63  1  0.65188000  0.50000000  0.54159000  1.0
  H  H64  1  0.85388000  0.99999000  0.18150000  1.0
  H  H65  1  0.14611000  0.00000000  0.81850000  1.0
  H  H66  1  0.35389000  0.49999000  0.31851000  1.0
  H  H67  1  0.64612000  0.49999000  0.68150000  1.0
  H  H68  1  0.98044000  0.99999000  0.17905000  1.0
  H  H69  1  0.01954000  0.99999000  0.82095000  1.0
  H  H70  1  0.48046000  0.49999000  0.32095000  1.0
  H  H71  1  0.51955000  0.49998000  0.67905000  1.0
  H  H72  1  0.75004000  0.00000000  0.14938000  1.0
  H  H73  1  0.24995000  0.00000000  0.85062000  1.0
  H  H74  1  0.25005000  0.50000000  0.35062000  1.0
  H  H75  1  0.74996000  0.50000000  0.64938000  1.0
  H  H76  1  0.32808000  0.39594000  0.76375000  1.0
  H  H77  1  0.67192000  0.39594000  0.23625000  1.0
  H  H78  1  0.82809000  0.10407000  0.73625000  1.0
  H  H79  1  0.17192000  0.10406000  0.26375000  1.0
  H  H80  1  0.67192000  0.60407000  0.23625000  1.0
  H  H81  1  0.32808000  0.60407000  0.76376000  1.0
  H  H82  1  0.17192000  0.89593000  0.26375000  1.0
  H  H83  1  0.82808000  0.89594000  0.73625000  1.0
  H  H84  1  0.32072000  0.33359000  0.82715000  1.0
  H  H85  1  0.67928000  0.33359000  0.17285000  1.0
  H  H86  1  0.82071000  0.16641000  0.67284000  1.0
  H  H87  1  0.17929000  0.16641000  0.32715000  1.0
  H  H88  1  0.67929000  0.66642000  0.17284000  1.0
  H  H89  1  0.32071000  0.66641000  0.82716000  1.0
  H  H90  1  0.17928000  0.83359000  0.32715000  1.0
  H  H91  1  0.82071000  0.83359000  0.67284000  1.0
  H  H92  1  0.15175000  0.24897000  0.76735000  1.0
  H  H93  1  0.84825000  0.24897000  0.23265000  1.0
  H  H94  1  0.65175000  0.25103000  0.73265000  1.0
  H  H95  1  0.34825000  0.25103000  0.26735000  1.0
  H  H96  1  0.84825000  0.75103000  0.23265000  1.0
  H  H97  1  0.15175000  0.75103000  0.76735000  1.0
  H  H98  1  0.34825000  0.74897000  0.26735000  1.0
  H  H99  1  0.65175000  0.74897000  0.73265000  1.0
  H  H100  1  0.16057000  0.31198000  0.70351000  1.0
  H  H101  1  0.83943000  0.31198000  0.29649000  1.0
  H  H102  1  0.66057000  0.18802000  0.79649000  1.0
  H  H103  1  0.33943000  0.18802000  0.20351000  1.0
  H  H104  1  0.83943000  0.68802000  0.29649000  1.0
  H  H105  1  0.16058000  0.68803000  0.70351000  1.0
  H  H106  1  0.33943000  0.81198000  0.20351000  1.0
  H  H107  1  0.66058000  0.81198000  0.79649000  1.0
  H  H108  1  0.18578000  0.21927000  0.83573000  1.0
  H  H109  1  0.81422000  0.21927000  0.16427000  1.0
  H  H110  1  0.68578000  0.28073000  0.66427000  1.0
  H  H111  1  0.31422000  0.28073000  0.33572000  1.0
  H  H112  1  0.81422000  0.78073000  0.16427000  1.0
  H  H113  1  0.18578000  0.78074000  0.83573000  1.0
  H  H114  1  0.31422000  0.71927000  0.33573000  1.0
  H  H115  1  0.68578000  0.71927000  0.66427000  1.0
  H  H116  1  0.52526000  0.00000000  0.16857000  1.0
  H  H117  1  0.47472000  0.00000000  0.83143000  1.0
  H  H118  1  0.02528000  0.50000000  0.33143000  1.0
  H  H119  1  0.97473000  0.50000000  0.66857000  1.0
  H  H120  1  0.64922000  0.99999000  0.16034000  1.0
  H  H121  1  0.35077000  0.00000000  0.83966000  1.0
  H  H122  1  0.14923000  0.50000000  0.33966000  1.0
  H  H123  1  0.85077000  0.50000000  0.66034000  1.0
  H  H124  1  0.62735000  0.99999000  0.02110000  1.0
  H  H125  1  0.37265000  0.00001000  0.97890000  1.0
  H  H126  1  0.12735000  0.50000000  0.47890000  1.0
  H  H127  1  0.87265000  0.49999000  0.52110000  1.0
  H  H128  1  0.50182000  0.99999000  0.03003000  1.0
  H  H129  1  0.49818000  0.00001000  0.96996000  1.0
  H  H130  1  0.00182000  0.50000000  0.46996000  1.0
  H  H131  1  0.99818000  0.49999000  0.53004000  1.0
  H  H132  1  0.73869000  0.00000000  0.04984000  1.0
  H  H133  1  0.26130000  0.00000000  0.95016000  1.0
  H  H134  1  0.23870000  0.50000000  0.45017000  1.0
  H  H135  1  0.76131000  0.50000000  0.54984000  1.0
  C  C136  1  0.24725000  0.10256000  0.02270000  1.0
  C  C137  1  0.75274000  0.10257000  0.97730000  1.0
  C  C138  1  0.74726000  0.39744000  0.47730000  1.0
  C  C139  1  0.25275000  0.39744000  0.52269000  1.0
  C  C140  1  0.75274000  0.89744000  0.97731000  1.0
  C  C141  1  0.24726000  0.89744000  0.02270000  1.0
  C  C142  1  0.25274000  0.60256000  0.52270000  1.0
  C  C143  1  0.74726000  0.60257000  0.47730000  1.0
  C  C144  1  0.25147000  0.14042000  0.98473000  1.0
  C  C145  1  0.74853000  0.14042000  0.01527000  1.0
  C  C146  1  0.75147000  0.35958000  0.51527000  1.0
  C  C147  1  0.24853000  0.35958000  0.48473000  1.0
  C  C148  1  0.74852000  0.85958000  0.01527000  1.0
  C  C149  1  0.25148000  0.85959000  0.98473000  1.0
  C  C150  1  0.24852000  0.64042000  0.48473000  1.0
  C  C151  1  0.75148000  0.64042000  0.51527000  1.0
  C  C152  1  0.30287000  0.18045000  0.98200000  1.0
  C  C153  1  0.69713000  0.18045000  0.01800000  1.0
  C  C154  1  0.80287000  0.31955000  0.51800000  1.0
  C  C155  1  0.19714000  0.31955000  0.48200000  1.0
  C  C156  1  0.69713000  0.81955000  0.01800000  1.0
  C  C157  1  0.30287000  0.81956000  0.98200000  1.0
  C  C158  1  0.19712000  0.68045000  0.48200000  1.0
  C  C159  1  0.80287000  0.68045000  0.51800000  1.0
  C  C160  1  0.30684000  0.21469000  0.94591000  1.0
  C  C161  1  0.69316000  0.21469000  0.05409000  1.0
  C  C162  1  0.80684000  0.28531000  0.55409000  1.0
  C  C163  1  0.19317000  0.28531000  0.44591000  1.0
  C  C164  1  0.69316000  0.78531000  0.05409000  1.0
  C  C165  1  0.30684000  0.78531000  0.94591000  1.0
  C  C166  1  0.19316000  0.71469000  0.44591000  1.0
  C  C167  1  0.80684000  0.71469000  0.55409000  1.0
  C  C168  1  0.25985000  0.21032000  0.91152000  1.0
  C  C169  1  0.74015000  0.21032000  0.08848000  1.0
  C  C170  1  0.75984000  0.28968000  0.58848000  1.0
  C  C171  1  0.24016000  0.28969000  0.41152000  1.0
  C  C172  1  0.74015000  0.78969000  0.08848000  1.0
  C  C173  1  0.25984000  0.78969000  0.91152000  1.0
  C  C174  1  0.24015000  0.71031000  0.41152000  1.0
  C  C175  1  0.75985000  0.71032000  0.58848000  1.0
  C  C176  1  0.20829000  0.16989000  0.91483000  1.0
  C  C177  1  0.79171000  0.16989000  0.08516000  1.0
  C  C178  1  0.70829000  0.33011000  0.58516000  1.0
  C  C179  1  0.29171000  0.33011000  0.41483000  1.0
  C  C180  1  0.79170000  0.83011000  0.08517000  1.0
  C  C181  1  0.20829000  0.83011000  0.91484000  1.0
  C  C182  1  0.29171000  0.66989000  0.41484000  1.0
  C  C183  1  0.70829000  0.66989000  0.58516000  1.0
  C  C184  1  0.20427000  0.13555000  0.95073000  1.0
  C  C185  1  0.79574000  0.13555000  0.04927000  1.0
  C  C186  1  0.70427000  0.36445000  0.54927000  1.0
  C  C187  1  0.29574000  0.36445000  0.45073000  1.0
  C  C188  1  0.79573000  0.86445000  0.04927000  1.0
  C  C189  1  0.20427000  0.86446000  0.95073000  1.0
  C  C190  1  0.29573000  0.63555000  0.45074000  1.0
  C  C191  1  0.70427000  0.63555000  0.54927000  1.0
  C  C192  1  0.26701000  0.24746000  0.87468000  1.0
  C  C193  1  0.73300000  0.24746000  0.12531000  1.0
  C  C194  1  0.76700000  0.25254000  0.62531000  1.0
  C  C195  1  0.23300000  0.25254000  0.37468000  1.0
  C  C196  1  0.73300000  0.75254000  0.12531000  1.0
  C  C197  1  0.26700000  0.75254000  0.87469000  1.0
  C  C198  1  0.23300000  0.74746000  0.37469000  1.0
  C  C199  1  0.76700000  0.74746000  0.62531000  1.0
  C  C200  1  0.06017000  0.99999000  0.10836000  1.0
  C  C201  1  0.93982000  0.99999000  0.89165000  1.0
  C  C202  1  0.56018000  0.50000000  0.39165000  1.0
  C  C203  1  0.43983000  0.49999000  0.60836000  1.0
  C  C204  1  0.98479000  0.99999000  0.10934000  1.0
  C  C205  1  0.01520000  0.99999000  0.89066000  1.0
  C  C206  1  0.48480000  0.50000000  0.39067000  1.0
  C  C207  1  0.51521000  0.49999000  0.60934000  1.0
  C  C208  1  0.94687000  0.99999000  0.07069000  1.0
  C  C209  1  0.05313000  0.00000000  0.92931000  1.0
  C  C210  1  0.44687000  0.50000000  0.42931000  1.0
  C  C211  1  0.55313000  0.49999000  0.57069000  1.0
  C  C212  1  0.87646000  0.99999000  0.07190000  1.0
  C  C213  1  0.12354000  0.99999000  0.92810000  1.0
  C  C214  1  0.37646000  0.49999000  0.42810000  1.0
  C  C215  1  0.62354000  0.50000000  0.57190000  1.0
  C  C216  1  0.84151000  0.00000000  0.11192000  1.0
  C  C217  1  0.15849000  0.00000000  0.88808000  1.0
  C  C218  1  0.34151000  0.50000000  0.38808000  1.0
  C  C219  1  0.65849000  0.50000000  0.61192000  1.0
  C  C220  1  0.88033000  0.99999000  0.15040000  1.0
  C  C221  1  0.11966000  0.00000000  0.84960000  1.0
  C  C222  1  0.38034000  0.49999000  0.34960000  1.0
  C  C223  1  0.61966000  0.49999000  0.65040000  1.0
  C  C224  1  0.95071000  0.99999000  0.14928000  1.0
  C  C225  1  0.04928000  0.99999000  0.85072000  1.0
  C  C226  1  0.45072000  0.49999000  0.35072000  1.0
  C  C227  1  0.54929000  0.49999000  0.64928000  1.0
  C  C228  1  0.76811000  0.00000000  0.11586000  1.0
  C  C229  1  0.23188000  0.00000000  0.88414000  1.0
  C  C230  1  0.26812000  0.50000000  0.38414000  1.0
  C  C231  1  0.73188000  0.50000000  0.61586000  1.0
  C  C232  1  0.24990000  0.39641000  0.69220000  1.0
  C  C233  1  0.75009000  0.39641000  0.30779000  1.0
  C  C234  1  0.74991000  0.10360000  0.80779000  1.0
  C  C235  1  0.25009000  0.10360000  0.19221000  1.0
  C  C236  1  0.75009000  0.60360000  0.30779000  1.0
  C  C237  1  0.24991000  0.60360000  0.69221000  1.0
  C  C238  1  0.25009000  0.89640000  0.19221000  1.0
  C  C239  1  0.74991000  0.89641000  0.80779000  1.0
  C  C240  1  0.24499000  0.35769000  0.72967000  1.0
  C  C241  1  0.75501000  0.35769000  0.27032000  1.0
  C  C242  1  0.74499000  0.14231000  0.77032000  1.0
  C  C243  1  0.25501000  0.14231000  0.22968000  1.0
  C  C244  1  0.75501000  0.64231000  0.27032000  1.0
  C  C245  1  0.24499000  0.64231000  0.72968000  1.0
  C  C246  1  0.25501000  0.85769000  0.22968000  1.0
  C  C247  1  0.74499000  0.85769000  0.77032000  1.0
  C  C248  1  0.28988000  0.36333000  0.76486000  1.0
  C  C249  1  0.71012000  0.36333000  0.23514000  1.0
  C  C250  1  0.78988000  0.13667000  0.73513000  1.0
  C  C251  1  0.21012000  0.13667000  0.26487000  1.0
  C  C252  1  0.71012000  0.63667000  0.23513000  1.0
  C  C253  1  0.28988000  0.63667000  0.76487000  1.0
  C  C254  1  0.21012000  0.86333000  0.26486000  1.0
  C  C255  1  0.78988000  0.86333000  0.73513000  1.0
  C  C256  1  0.28532000  0.32824000  0.80030000  1.0
  C  C257  1  0.71468000  0.32824000  0.19970000  1.0
  C  C258  1  0.78532000  0.17176000  0.69970000  1.0
  C  C259  1  0.21468000  0.17176000  0.30030000  1.0
  C  C260  1  0.71468000  0.67176000  0.19970000  1.0
  C  C261  1  0.28532000  0.67176000  0.80030000  1.0
  C  C262  1  0.21468000  0.82824000  0.30030000  1.0
  C  C263  1  0.78532000  0.82824000  0.69970000  1.0
  C  C264  1  0.23543000  0.28626000  0.80205000  1.0
  C  C265  1  0.76457000  0.28626000  0.19795000  1.0
  C  C266  1  0.73543000  0.21374000  0.69795000  1.0
  C  C267  1  0.26457000  0.21374000  0.30205000  1.0
  C  C268  1  0.76457000  0.71374000  0.19795000  1.0
  C  C269  1  0.23543000  0.71374000  0.80205000  1.0
  C  C270  1  0.26457000  0.78626000  0.30205000  1.0
  C  C271  1  0.73543000  0.78626000  0.69795000  1.0
  C  C272  1  0.19077000  0.28110000  0.76649000  1.0
  C  C273  1  0.80923000  0.28110000  0.23351000  1.0
  C  C274  1  0.69077000  0.21891000  0.73351000  1.0
  C  C275  1  0.30923000  0.21890000  0.26649000  1.0
  C  C276  1  0.80923000  0.71891000  0.23351000  1.0
  C  C277  1  0.19077000  0.71891000  0.76649000  1.0
  C  C278  1  0.30923000  0.78109000  0.26649000  1.0
  C  C279  1  0.69077000  0.78110000  0.73351000  1.0
  C  C280  1  0.19536000  0.31607000  0.73079000  1.0
  C  C281  1  0.80464000  0.31607000  0.26920000  1.0
  C  C282  1  0.69536000  0.18393000  0.76920000  1.0
  C  C283  1  0.30464000  0.18393000  0.23080000  1.0
  C  C284  1  0.80464000  0.68393000  0.26920000  1.0
  C  C285  1  0.19536000  0.68394000  0.73080000  1.0
  C  C286  1  0.30464000  0.81607000  0.23080000  1.0
  C  C287  1  0.69536000  0.81607000  0.76920000  1.0
  C  C288  1  0.22776000  0.24872000  0.83864000  1.0
  C  C289  1  0.77224000  0.24872000  0.16136000  1.0
  C  C290  1  0.72776000  0.25129000  0.66135000  1.0
  C  C291  1  0.27225000  0.25128000  0.33864000  1.0
  C  C292  1  0.77224000  0.75129000  0.16135000  1.0
  C  C293  1  0.22776000  0.75129000  0.83864000  1.0
  C  C294  1  0.27224000  0.74871000  0.33865000  1.0
  C  C295  1  0.72776000  0.74872000  0.66136000  1.0
  C  C296  1  0.42961000  0.00000000  0.10387000  1.0
  C  C297  1  0.57039000  0.00000000  0.89613000  1.0
  C  C298  1  0.92961000  0.50001000  0.39613000  1.0
  C  C299  1  0.07039000  0.50000000  0.60387000  1.0
  C  C300  1  0.50551000  0.00000000  0.09958000  1.0
  C  C301  1  0.49449000  0.00000000  0.90042000  1.0
  C  C302  1  0.00551000  0.50000000  0.40042000  1.0
  C  C303  1  0.99449000  0.50000000  0.59958000  1.0
  C  C304  1  0.54759000  0.00000000  0.13620000  1.0
  C  C305  1  0.45241000  0.00000000  0.86380000  1.0
  C  C306  1  0.04759000  0.50000000  0.36380000  1.0
  C  C307  1  0.95241000  0.50000000  0.63620000  1.0
  C  C308  1  0.61766000  0.99999000  0.13132000  1.0
  C  C309  1  0.38234000  0.00001000  0.86867000  1.0
  C  C310  1  0.11766000  0.50000000  0.36867000  1.0
  C  C311  1  0.88234000  0.50000000  0.63133000  1.0
  C  C312  1  0.64826000  0.99999000  0.08994000  1.0
  C  C313  1  0.35173000  0.00001000  0.91006000  1.0
  C  C314  1  0.14827000  0.50000000  0.41006000  1.0
  C  C315  1  0.85173000  0.49999000  0.58994000  1.0
  C  C316  1  0.60509000  0.99999000  0.05354000  1.0
  C  C317  1  0.39491000  0.00001000  0.94646000  1.0
  C  C318  1  0.10509000  0.50000000  0.44646000  1.0
  C  C319  1  0.89491000  0.49999000  0.55354000  1.0
  C  C320  1  0.53483000  0.99999000  0.05833000  1.0
  C  C321  1  0.46516000  0.00001000  0.94166000  1.0
  C  C322  1  0.03484000  0.50000000  0.44167000  1.0
  C  C323  1  0.96517000  0.49999000  0.55834000  1.0
  C  C324  1  0.72158000  0.99999000  0.08358000  1.0
  C  C325  1  0.27842000  0.00000000  0.91642000  1.0
  C  C326  1  0.22158000  0.49999000  0.41642000  1.0
  C  C327  1  0.77842000  0.50000000  0.58358000  1.0
  O  O328  1  0.24725000  0.00000000  0.10802000  1.0
  O  O329  1  0.75274000  0.00000000  0.89198000  1.0
  O  O330  1  0.74726000  0.50000000  0.39198000  1.0
  O  O331  1  0.25274000  0.50000000  0.60802000  1.0
  O  O332  1  0.28793000  0.11112000  0.05434000  1.0
  O  O333  1  0.71207000  0.11112000  0.94566000  1.0
  O  O334  1  0.78793000  0.38889000  0.44566000  1.0
  O  O335  1  0.21207000  0.38889000  0.55434000  1.0
  O  O336  1  0.71207000  0.88889000  0.94566000  1.0
  O  O337  1  0.28793000  0.88889000  0.05434000  1.0
  O  O338  1  0.21206000  0.61112000  0.55434000  1.0
  O  O339  1  0.78793000  0.61112000  0.44566000  1.0
  O  O340  1  0.20307000  0.06380000  0.02046000  1.0
  O  O341  1  0.79693000  0.06381000  0.97954000  1.0
  O  O342  1  0.70307000  0.43620000  0.47954000  1.0
  O  O343  1  0.29694000  0.43620000  0.52046000  1.0
  O  O344  1  0.79692000  0.93620000  0.97954000  1.0
  O  O345  1  0.20307000  0.93620000  0.02046000  1.0
  O  O346  1  0.29693000  0.56380000  0.52046000  1.0
  O  O347  1  0.70307000  0.56381000  0.47954000  1.0
  O  O348  1  0.08877000  0.99999000  0.07108000  1.0
  O  O349  1  0.91122000  0.00000000  0.92893000  1.0
  O  O350  1  0.58878000  0.50000000  0.42893000  1.0
  O  O351  1  0.41123000  0.49999000  0.57108000  1.0
  O  O352  1  0.09096000  0.00000000  0.14490000  1.0
  O  O353  1  0.90904000  0.00000000  0.85511000  1.0
  O  O354  1  0.59096000  0.50000000  0.35511000  1.0
  O  O355  1  0.40904000  0.49999000  0.64490000  1.0
  O  O356  1  0.29454000  0.43467000  0.69500000  1.0
  O  O357  1  0.70545000  0.43467000  0.30500000  1.0
  O  O358  1  0.79455000  0.06533000  0.80500000  1.0
  O  O359  1  0.20546000  0.06533000  0.19500000  1.0
  O  O360  1  0.70546000  0.56533000  0.30500000  1.0
  O  O361  1  0.29455000  0.56534000  0.69500000  1.0
  O  O362  1  0.20546000  0.93467000  0.19500000  1.0
  O  O363  1  0.79455000  0.93467000  0.80500000  1.0
  O  O364  1  0.20929000  0.38860000  0.66037000  1.0
  O  O365  1  0.79071000  0.38860000  0.33962000  1.0
  O  O366  1  0.70929000  0.11139000  0.83962000  1.0
  O  O367  1  0.29071000  0.11140000  0.16038000  1.0
  O  O368  1  0.79071000  0.61140000  0.33962000  1.0
  O  O369  1  0.20929000  0.61140000  0.66038000  1.0
  O  O370  1  0.29071000  0.88860000  0.16038000  1.0
  O  O371  1  0.70929000  0.88861000  0.83962000  1.0
  O  O372  1  0.40093000  0.04726000  0.10523000  1.0
  O  O373  1  0.59907000  0.04726000  0.89477000  1.0
  O  O374  1  0.90093000  0.45274000  0.39476000  1.0
  O  O375  1  0.09907000  0.45274000  0.60523000  1.0
  O  O376  1  0.59907000  0.95274000  0.89476000  1.0
  O  O377  1  0.40093000  0.95274000  0.10524000  1.0
  O  O378  1  0.09907000  0.54726000  0.60524000  1.0
  O  O379  1  0.90093000  0.54727000  0.39476000  1.0
