# generated using pymatgen
data_ZnH13C29N(ClO8)2
_symmetry_space_group_name_H-M   'P 1'
_cell_length_a   10.78460000
_cell_length_b   18.21210000
_cell_length_c   19.64150000
_cell_angle_alpha   90.15710000
_cell_angle_beta   91.06690000
_cell_angle_gamma   90.58210000
_symmetry_Int_Tables_number   1
_chemical_formula_structural   ZnH13C29N(ClO8)2
_chemical_formula_sum   'Zn2 H26 C58 N2 Cl4 O32'
_cell_volume   3856.90677512
_cell_formula_units_Z   2
loop_
 _symmetry_equiv_pos_site_id
 _symmetry_equiv_pos_as_xyz
  1  'x, y, z'
loop_
 _atom_site_type_symbol
 _atom_site_label
 _atom_site_symmetry_multiplicity
 _atom_site_fract_x
 _atom_site_fract_y
 _atom_site_fract_z
 _atom_site_occupancy
  Zn  Zn0  1  0.50019000  0.42160000  0.49763000  1.0
  Zn  Zn1  1  0.49201000  0.57595000  0.49906000  1.0
  H  H2  1  0.09710000  0.54779000  0.60667000  1.0
  H  H3  1  0.34993000  0.69150000  0.56799000  1.0
  H  H4  1  0.43943000  0.16633000  0.39627000  1.0
  H  H5  1  0.64713000  0.82812000  0.42786000  1.0
  H  H6  1  0.55764000  0.17007000  0.60813000  1.0
  H  H7  1  0.35112000  0.82945000  0.57367000  1.0
  H  H8  1  0.46406000  0.72998000  0.30151000  1.0
  H  H9  1  0.27267000  0.31439000  0.67793000  1.0
  H  H10  1  0.68889000  0.70345000  0.69260000  1.0
  H  H11  1  0.64049000  0.28066000  0.31234000  1.0
  H  H12  1  0.52406000  0.69508000  0.07299000  1.0
  H  H13  1  0.89446000  0.44101000  0.40390000  1.0
  H  H14  1  0.36097000  0.31094000  0.91012000  1.0
  H  H15  1  0.66725000  0.67536000  0.91971000  1.0
  H  H16  1  0.56854000  0.29351000  0.09069000  1.0
  H  H17  1  0.84872000  0.10656000  0.59722000  1.0
  H  H18  1  0.11914000  0.89762000  0.44546000  1.0
  H  H19  1  0.15041000  0.09907000  0.40487000  1.0
  H  H20  1  0.88742000  0.90928000  0.54964000  1.0
  H  H21  1  0.33574000  0.51446000  0.06532000  1.0
  H  H22  1  0.71486000  0.47063000  0.93121000  1.0
  H  H23  1  0.32257000  0.51255000  0.93900000  1.0
  H  H24  1  0.72827000  0.47314000  0.05756000  1.0
  H  H25  1  0.44400000  0.30405000  0.39922000  1.0
  H  H26  1  0.63350000  0.69027000  0.42889000  1.0
  H  H27  1  0.56002000  0.30784000  0.60129000  1.0
  C  C28  1  0.49082000  0.50486000  0.63208000  1.0
  C  C29  1  0.57326000  0.72391000  0.45989000  1.0
  C  C30  1  0.53467000  0.27367000  0.55736000  1.0
  C  C31  1  0.41317000  0.72458000  0.53773000  1.0
  C  C32  1  0.46580000  0.19534000  0.44301000  1.0
  C  C33  1  0.58045000  0.80010000  0.46002000  1.0
  C  C34  1  0.53330000  0.19742000  0.56053000  1.0
  C  C35  1  0.41434000  0.80079000  0.54038000  1.0
  C  C36  1  0.49903000  0.15703000  0.50225000  1.0
  C  C37  1  0.49920000  0.83956000  0.50073000  1.0
  C  C38  1  0.60754000  0.03762000  0.52055000  1.0
  C  C39  1  0.51582000  0.50197000  0.36462000  1.0
  C  C40  1  0.39450000  0.95898000  0.47901000  1.0
  C  C41  1  0.39141000  0.03588000  0.48339000  1.0
  C  C42  1  0.60634000  0.96053000  0.52343000  1.0
  C  C43  1  0.50055000  0.92091000  0.50125000  1.0
  C  C44  1  0.49898000  0.07569000  0.50255000  1.0
  C  C45  1  0.73328000  0.50390000  0.50674000  1.0
  C  C46  1  0.25917000  0.48693000  0.49744000  1.0
  C  C47  1  0.95456000  0.46064000  0.56120000  1.0
  C  C48  1  0.03739000  0.52932000  0.44845000  1.0
  C  C49  1  0.02467000  0.42241000  0.50105000  1.0
  C  C50  1  0.41879000  0.50491000  0.03580000  1.0
  C  C51  1  0.96813000  0.56760000  0.50889000  1.0
  C  C52  1  0.05096000  0.52519000  0.56126000  1.0
  C  C53  1  0.94182000  0.46467000  0.44858000  1.0
  C  C54  1  0.12184000  0.48715000  0.50163000  1.0
  C  C55  1  0.87086000  0.50313000  0.50795000  1.0
  C  C56  1  0.49228000  0.56377000  0.25011000  1.0
  C  C57  1  0.42101000  0.45249000  0.74310000  1.0
  C  C58  1  0.57567000  0.55039000  0.74483000  1.0
  C  C59  1  0.57950000  0.44165000  0.25542000  1.0
  C  C60  1  0.50113000  0.56238000  0.17884000  1.0
  C  C61  1  0.63177000  0.48021000  0.96071000  1.0
  C  C62  1  0.43106000  0.44674000  0.81419000  1.0
  C  C63  1  0.58053000  0.54751000  0.81623000  1.0
  C  C64  1  0.57850000  0.43801000  0.18406000  1.0
  C  C65  1  0.53869000  0.49827000  0.14496000  1.0
  C  C66  1  0.51049000  0.49466000  0.85153000  1.0
  C  C67  1  0.53058000  0.50302000  0.28852000  1.0
  C  C68  1  0.49577000  0.50292000  0.70856000  1.0
  C  C69  1  0.43493000  0.62957000  0.28367000  1.0
  C  C70  1  0.32568000  0.40973000  0.70199000  1.0
  C  C71  1  0.65825000  0.60227000  0.70625000  1.0
  C  C72  1  0.41127000  0.50330000  0.96504000  1.0
  C  C73  1  0.64203000  0.38234000  0.29619000  1.0
  C  C74  1  0.46576000  0.62962000  0.13930000  1.0
  C  C75  1  0.35251000  0.39061000  0.84936000  1.0
  C  C76  1  0.66476000  0.60081000  0.85336000  1.0
  C  C77  1  0.62243000  0.36944000  0.14990000  1.0
  C  C78  1  0.72642000  0.08069000  0.53084000  1.0
  C  C79  1  0.29118000  0.91628000  0.44451000  1.0
  C  C80  1  0.27181000  0.07653000  0.47235000  1.0
  C  C81  1  0.71357000  0.91927000  0.55397000  1.0
  C  C82  1  0.63916000  0.48118000  0.03155000  1.0
  C  C83  1  0.51795000  0.49178000  0.92687000  1.0
  C  C84  1  0.53294000  0.49440000  0.06963000  1.0
  C  C85  1  0.46857000  0.27157000  0.44400000  1.0
  N  N86  1  0.50329000  0.30960000  0.50002000  1.0
  N  N87  1  0.49078000  0.68742000  0.49793000  1.0
  Cl  Cl88  1  0.90132000  0.41641000  0.63291000  1.0
  Cl  Cl89  1  0.09080000  0.57239000  0.37648000  1.0
  Cl  Cl90  1  0.05571000  0.32914000  0.49740000  1.0
  Cl  Cl91  1  0.93728000  0.66103000  0.51304000  1.0
  O  O92  1  0.49856000  0.44296000  0.60276000  1.0
  O  O93  1  0.51241000  0.68920000  0.28336000  1.0
  O  O94  1  0.24290000  0.43907000  0.66946000  1.0
  O  O95  1  0.34134000  0.33589000  0.70505000  1.0
  O  O96  1  0.74054000  0.58255000  0.66923000  1.0
  O  O97  1  0.63025000  0.67371000  0.71872000  1.0
  O  O98  1  0.73786000  0.39219000  0.32871000  1.0
  O  O99  1  0.58568000  0.31542000  0.28881000  1.0
  O  O100  1  0.36796000  0.66194000  0.14480000  1.0
  O  O101  1  0.55720000  0.65226000  0.09712000  1.0
  O  O102  1  0.24007000  0.38565000  0.84271000  1.0
  O  O103  1  0.51977000  0.56354000  0.39482000  1.0
  O  O104  1  0.42082000  0.34416000  0.88877000  1.0
  O  O105  1  0.77572000  0.60664000  0.84353000  1.0
  O  O106  1  0.60354000  0.64373000  0.89821000  1.0
  O  O107  1  0.72687000  0.34498000  0.15600000  1.0
  O  O108  1  0.53101000  0.33654000  0.11186000  1.0
  O  O109  1  0.77604000  0.11391000  0.48496000  1.0
  O  O110  1  0.77066000  0.07825000  0.59589000  1.0
  O  O111  1  0.30681000  0.87804000  0.39457000  1.0
  O  O112  1  0.17912000  0.92537000  0.47392000  1.0
  O  O113  1  0.21976000  0.10874000  0.51783000  1.0
  O  O114  1  0.49911000  0.43930000  0.39135000  1.0
  O  O115  1  0.22946000  0.07275000  0.40695000  1.0
  O  O116  1  0.70371000  0.87631000  0.60096000  1.0
  O  O117  1  0.82304000  0.93556000  0.52380000  1.0
  O  O118  1  0.48017000  0.56746000  0.60492000  1.0
  O  O119  1  0.68339000  0.44052000  0.50089000  1.0
  O  O120  1  0.30953000  0.55035000  0.49473000  1.0
  O  O121  1  0.31337000  0.42555000  0.49609000  1.0
  O  O122  1  0.67891000  0.56505000  0.50977000  1.0
  O  O123  1  0.32996000  0.63048000  0.30474000  1.0
