# generated using pymatgen
data_CdH20C22(NO)6
_symmetry_space_group_name_H-M   'P 1'
_cell_length_a   7.33045000
_cell_length_b   9.51780000
_cell_length_c   16.76060000
_cell_angle_alpha   90.00010000
_cell_angle_beta   90.00010000
_cell_angle_gamma   71.26400000
_symmetry_Int_Tables_number   1
_chemical_formula_structural   CdH20C22(NO)6
_chemical_formula_sum   'Cd2 H40 C44 N12 O12'
_cell_volume   1107.41579870
_cell_formula_units_Z   2
loop_
 _symmetry_equiv_pos_site_id
 _symmetry_equiv_pos_as_xyz
  1  'x, y, z'
loop_
 _atom_site_type_symbol
 _atom_site_label
 _atom_site_symmetry_multiplicity
 _atom_site_fract_x
 _atom_site_fract_y
 _atom_site_fract_z
 _atom_site_occupancy
  Cd  Cd0  1  0.00000000  0.50000000  0.50000000  1.0
  Cd  Cd1  1  0.00000000  0.00000000  0.00000000  1.0
  H  H2  1  0.92331000  0.46222000  0.68729000  1.0
  H  H3  1  0.92331000  0.96222000  0.81271000  1.0
  H  H4  1  0.07669000  0.53778000  0.31271000  1.0
  H  H5  1  0.07669000  0.03778000  0.18729000  1.0
  H  H6  1  0.03540000  0.52016000  0.82086000  1.0
  H  H7  1  0.03540000  0.02016000  0.67914000  1.0
  H  H8  1  0.96460000  0.47984000  0.17914000  1.0
  H  H9  1  0.96460000  0.97983000  0.32086000  1.0
  H  H10  1  0.50341000  0.61429000  0.70061000  1.0
  H  H11  1  0.50341000  0.11429000  0.79940000  1.0
  H  H12  1  0.49659000  0.38571000  0.29939000  1.0
  H  H13  1  0.49658000  0.88571000  0.20060000  1.0
  H  H14  1  0.37432000  0.55359000  0.57299000  1.0
  H  H15  1  0.37432000  0.05359000  0.92701000  1.0
  H  H16  1  0.62568000  0.44641000  0.42701000  1.0
  H  H17  1  0.62568000  0.94641000  0.07299000  1.0
  H  H18  1  0.22561000  0.64994000  0.89173000  1.0
  H  H19  1  0.22561000  0.14994000  0.60827000  1.0
  H  H20  1  0.77439000  0.35006000  0.10827000  1.0
  H  H21  1  0.77439000  0.85006000  0.39173000  1.0
  H  H22  1  0.41753000  0.69425000  0.84326000  1.0
  H  H23  1  0.41753000  0.19425000  0.65674000  1.0
  H  H24  1  0.58247000  0.30575000  0.15674000  1.0
  H  H25  1  0.58247000  0.80576000  0.34326000  1.0
  H  H26  1  0.74123000  0.52068000  0.84036000  1.0
  H  H27  1  0.74123000  0.02068000  0.65964000  1.0
  H  H28  1  0.25877000  0.47932000  0.15964000  1.0
  H  H29  1  0.25877000  0.97932000  0.34036000  1.0
  H  H30  1  0.02328000  0.20211000  0.40354000  1.0
  H  H31  1  0.02328000  0.70211000  0.09646000  1.0
  H  H32  1  0.97672000  0.79789000  0.59646000  1.0
  H  H33  1  0.97672000  0.29789000  0.90354000  1.0
  H  H34  1  0.46157000  0.32579000  0.50694000  1.0
  H  H35  1  0.46157000  0.82579000  0.99306000  1.0
  H  H36  1  0.53843000  0.67421000  0.49306000  1.0
  H  H37  1  0.53843000  0.17421000  0.00694000  1.0
  H  H38  1  0.28626000  0.39138000  0.94965000  1.0
  H  H39  1  0.28626000  0.89139000  0.55035000  1.0
  H  H40  1  0.71374000  0.60861000  0.05035000  1.0
  H  H41  1  0.71374000  0.10861000  0.44964000  1.0
  C  C42  1  0.05318000  0.49392000  0.69310000  1.0
  C  C43  1  0.05317000  0.99392000  0.80690000  1.0
  C  C44  1  0.94682000  0.50607000  0.30690000  1.0
  C  C45  1  0.94682000  0.00607000  0.19310000  1.0
  C  C46  1  0.11601000  0.52564000  0.76703000  1.0
  C  C47  1  0.11601000  0.02564000  0.73297000  1.0
  C  C48  1  0.88399000  0.47436000  0.23297000  1.0
  C  C49  1  0.88399000  0.97436000  0.26703000  1.0
  C  C50  1  0.27896000  0.57164000  0.77187000  1.0
  C  C51  1  0.27896000  0.07164000  0.72813000  1.0
  C  C52  1  0.72104000  0.42836000  0.22813000  1.0
  C  C53  1  0.72104000  0.92836000  0.27187000  1.0
  C  C54  1  0.37474000  0.58049000  0.70090000  1.0
  C  C55  1  0.37474000  0.08049000  0.79910000  1.0
  C  C56  1  0.62526000  0.41951000  0.29910000  1.0
  C  C57  1  0.62526000  0.91951000  0.20090000  1.0
  C  C58  1  0.30391000  0.54599000  0.62924000  1.0
  C  C59  1  0.30391000  0.04598000  0.87076000  1.0
  C  C60  1  0.69609000  0.45401000  0.37076000  1.0
  C  C61  1  0.69608000  0.95402000  0.12924000  1.0
  C  C62  1  0.34910000  0.60810000  0.85133000  1.0
  C  C63  1  0.34910000  0.10810000  0.64867000  1.0
  C  C64  1  0.65090000  0.39190000  0.14867000  1.0
  C  C65  1  0.65090000  0.89190000  0.35133000  1.0
  C  C66  1  0.49394000  0.47260000  0.88774000  1.0
  C  C67  1  0.49394000  0.97260000  0.61227000  1.0
  C  C68  1  0.50606000  0.52740000  0.11226000  1.0
  C  C69  1  0.50606000  0.02740000  0.38773000  1.0
  C  C70  1  0.69110000  0.44345000  0.87497000  1.0
  C  C71  1  0.69110000  0.94345000  0.62503000  1.0
  C  C72  1  0.30890000  0.55655000  0.12503000  1.0
  C  C73  1  0.30890000  0.05655000  0.37497000  1.0
  C  C74  1  0.82221000  0.32052000  0.91059000  1.0
  C  C75  1  0.82221000  0.82052000  0.58941000  1.0
  C  C76  1  0.17779000  0.67948000  0.08941000  1.0
  C  C77  1  0.17779000  0.17948000  0.41059000  1.0
  C  C78  1  0.42193000  0.24777000  0.46861000  1.0
  C  C79  1  0.42193000  0.74777000  0.03139000  1.0
  C  C80  1  0.57807000  0.75223000  0.53139000  1.0
  C  C81  1  0.57807000  0.25223000  0.96861000  1.0
  C  C82  1  0.43738000  0.37342000  0.93564000  1.0
  C  C83  1  0.43738000  0.87342000  0.56436000  1.0
  C  C84  1  0.56263000  0.62658000  0.06436000  1.0
  C  C85  1  0.56263000  0.12658000  0.43564000  1.0
  N  N86  1  0.14546000  0.50398000  0.62476000  1.0
  N  N87  1  0.14546000  0.00399000  0.87524000  1.0
  N  N88  1  0.85454000  0.49602000  0.37524000  1.0
  N  N89  1  0.85454000  0.99602000  0.12476000  1.0
  N  N90  1  0.76780000  0.22520000  0.95660000  1.0
  N  N91  1  0.76780000  0.72520000  0.54340000  1.0
  N  N92  1  0.23220000  0.77480000  0.04340000  1.0
  N  N93  1  0.23220000  0.27480000  0.45660000  1.0
  N  N94  1  0.20195000  0.71628000  0.40353000  1.0
  N  N95  1  0.20195000  0.21628000  0.09647000  1.0
  N  N96  1  0.79805000  0.28372000  0.59647000  1.0
  N  N97  1  0.79804000  0.78372000  0.90353000  1.0
  O  O98  1  0.24279000  0.58434000  0.43398000  1.0
  O  O99  1  0.24278000  0.08434000  0.06602000  1.0
  O  O100  1  0.75722000  0.41566000  0.56602000  1.0
  O  O101  1  0.75721000  0.91566000  0.93398000  1.0
  O  O102  1  0.08876000  0.82529000  0.44007000  1.0
  O  O103  1  0.08876000  0.32529000  0.05993000  1.0
  O  O104  1  0.91124000  0.17471000  0.55993000  1.0
  O  O105  1  0.91124000  0.67471000  0.94007000  1.0
  O  O106  1  0.27757000  0.73053000  0.33803000  1.0
  O  O107  1  0.27757000  0.23053000  0.16197000  1.0
  O  O108  1  0.72243000  0.26947000  0.66197000  1.0
  O  O109  1  0.72243000  0.76947000  0.83803000  1.0
