# generated using pymatgen
data_ZnH12C20(NO2)2
_symmetry_space_group_name_H-M   'P 1'
_cell_length_a   15.35090000
_cell_length_b   17.27700000
_cell_length_c   17.27700000
_cell_angle_alpha   90.00010000
_cell_angle_beta   90.00000000
_cell_angle_gamma   89.99990000
_symmetry_Int_Tables_number   1
_chemical_formula_structural   ZnH12C20(NO2)2
_chemical_formula_sum   'Zn8 H96 C160 N16 O32'
_cell_volume   4582.16273539
_cell_formula_units_Z   8
loop_
 _symmetry_equiv_pos_site_id
 _symmetry_equiv_pos_as_xyz
  1  'x, y, z'
loop_
 _atom_site_type_symbol
 _atom_site_label
 _atom_site_symmetry_multiplicity
 _atom_site_fract_x
 _atom_site_fract_y
 _atom_site_fract_z
 _atom_site_occupancy
  Zn  Zn0  1  0.98482000  0.75272000  0.25115000  1.0
  Zn  Zn1  1  0.23482000  0.24885000  0.25272000  1.0
  Zn  Zn2  1  0.48482000  0.24728000  0.74886000  1.0
  Zn  Zn3  1  0.73482000  0.75115000  0.74728000  1.0
  Zn  Zn4  1  0.76518000  0.25272000  0.24885000  1.0
  Zn  Zn5  1  0.26518000  0.74728000  0.75115000  1.0
  Zn  Zn6  1  0.01518000  0.25115000  0.75272000  1.0
  Zn  Zn7  1  0.51518000  0.74886000  0.24728000  1.0
  H  H8  1  0.94725000  0.35708000  0.15909000  1.0
  H  H9  1  0.19725000  0.34091000  0.85708000  1.0
  H  H10  1  0.44725000  0.64292000  0.84090000  1.0
  H  H11  1  0.69725000  0.65910000  0.14292000  1.0
  H  H12  1  0.80275000  0.85708000  0.34091000  1.0
  H  H13  1  0.30275000  0.14292000  0.65909000  1.0
  H  H14  1  0.05275000  0.15909000  0.35708000  1.0
  H  H15  1  0.55275000  0.84091000  0.64292000  1.0
  H  H16  1  0.30242000  0.39143000  0.27945000  1.0
  H  H17  1  0.55242000  0.22055000  0.89142000  1.0
  H  H18  1  0.80242000  0.60858000  0.72055000  1.0
  H  H19  1  0.05242000  0.77945000  0.10858000  1.0
  H  H20  1  0.44758000  0.89142000  0.22055000  1.0
  H  H21  1  0.94758000  0.10858000  0.77945000  1.0
  H  H22  1  0.69758000  0.27945000  0.39143000  1.0
  H  H23  1  0.19758000  0.72055000  0.60858000  1.0
  H  H24  1  0.88897000  0.02760000  0.18443000  1.0
  H  H25  1  0.13897000  0.31557000  0.52760000  1.0
  H  H26  1  0.38897000  0.97240000  0.81557000  1.0
  H  H27  1  0.63897000  0.68443000  0.47240000  1.0
  H  H28  1  0.86103000  0.52760000  0.31557000  1.0
  H  H29  1  0.36103000  0.47240000  0.68443000  1.0
  H  H30  1  0.11103000  0.18443000  0.02760000  1.0
  H  H31  1  0.61103000  0.81557000  0.97240000  1.0
  H  H32  1  0.03308000  0.09306000  0.20876000  1.0
  H  H33  1  0.28308000  0.29124000  0.59306000  1.0
  H  H34  1  0.53308000  0.90694000  0.79124000  1.0
  H  H35  1  0.78308000  0.70876000  0.40694000  1.0
  H  H36  1  0.71692000  0.59306000  0.29124000  1.0
  H  H37  1  0.21692000  0.40694000  0.70876000  1.0
  H  H38  1  0.96692000  0.20876000  0.09306000  1.0
  H  H39  1  0.46692000  0.79124000  0.90694000  1.0
  H  H40  1  0.14712000  0.79516000  0.27603000  1.0
  H  H41  1  0.39712000  0.22397000  0.29516000  1.0
  H  H42  1  0.64712000  0.20484000  0.72397000  1.0
  H  H43  1  0.89712000  0.77603000  0.70484000  1.0
  H  H44  1  0.60288000  0.29516000  0.22397000  1.0
  H  H45  1  0.10288000  0.70484000  0.77603000  1.0
  H  H46  1  0.85288000  0.27603000  0.79516000  1.0
  H  H47  1  0.35288000  0.72397000  0.20484000  1.0
  H  H48  1  0.29192000  0.85346000  0.30486000  1.0
  H  H49  1  0.54192000  0.19514000  0.35346000  1.0
  H  H50  1  0.79192000  0.14654000  0.69514000  1.0
  H  H51  1  0.04192000  0.80486000  0.64654000  1.0
  H  H52  1  0.45808000  0.35346000  0.19514000  1.0
  H  H53  1  0.95808000  0.64654000  0.80486000  1.0
  H  H54  1  0.70808000  0.30486000  0.85346000  1.0
  H  H55  1  0.20808000  0.69514000  0.14654000  1.0
  H  H56  1  0.34028000  0.52989000  0.30300000  1.0
  H  H57  1  0.59028000  0.19700000  0.02989000  1.0
  H  H58  1  0.84028000  0.47011000  0.69700000  1.0
  H  H59  1  0.09028000  0.80300000  0.97011000  1.0
  H  H60  1  0.40972000  0.02989000  0.19700000  1.0
  H  H61  1  0.90972000  0.97011000  0.80300000  1.0
  H  H62  1  0.65972000  0.30300000  0.52989000  1.0
  H  H63  1  0.15972000  0.69700000  0.47011000  1.0
  H  H64  1  0.97596000  0.49820000  0.18904000  1.0
  H  H65  1  0.22596000  0.31096000  0.99820000  1.0
  H  H66  1  0.47596000  0.50180000  0.81096000  1.0
  H  H67  1  0.72596000  0.68904000  0.00180000  1.0
  H  H68  1  0.77404000  0.99820000  0.31096000  1.0
  H  H69  1  0.27404000  0.00180000  0.68904000  1.0
  H  H70  1  0.02404000  0.18904000  0.49820000  1.0
  H  H71  1  0.52404000  0.81096000  0.50180000  1.0
  H  H72  1  0.22915000  0.63219000  0.28318000  1.0
  H  H73  1  0.47915000  0.21682000  0.13219000  1.0
  H  H74  1  0.72915000  0.36781000  0.71682000  1.0
  H  H75  1  0.97915000  0.78318000  0.86781000  1.0
  H  H76  1  0.52085000  0.13219000  0.21682000  1.0
  H  H77  1  0.02085000  0.86781000  0.78318000  1.0
  H  H78  1  0.77085000  0.28318000  0.63219000  1.0
  H  H79  1  0.27085000  0.71682000  0.36781000  1.0
  H  H80  1  0.06236000  0.26042000  0.19067000  1.0
  H  H81  1  0.31236000  0.30933000  0.76042000  1.0
  H  H82  1  0.56236000  0.73958000  0.80933000  1.0
  H  H83  1  0.81236000  0.69067000  0.23958000  1.0
  H  H84  1  0.68764000  0.76042000  0.30933000  1.0
  H  H85  1  0.18764000  0.23958000  0.69067000  1.0
  H  H86  1  0.93764000  0.19067000  0.26042000  1.0
  H  H87  1  0.43764000  0.80933000  0.73958000  1.0
  H  H88  1  0.87992000  0.88384000  0.19980000  1.0
  H  H89  1  0.12992000  0.30020000  0.38384000  1.0
  H  H90  1  0.37992000  0.11616000  0.80020000  1.0
  H  H91  1  0.62992000  0.69980000  0.61616000  1.0
  H  H92  1  0.87008000  0.38384000  0.30020000  1.0
  H  H93  1  0.37008000  0.61616000  0.69980000  1.0
  H  H94  1  0.12008000  0.19980000  0.88384000  1.0
  H  H95  1  0.62008000  0.80020000  0.11616000  1.0
  H  H96  1  0.31154000  0.99648000  0.29487000  1.0
  H  H97  1  0.56154000  0.20513000  0.49648000  1.0
  H  H98  1  0.81154000  0.00352000  0.70513000  1.0
  H  H99  1  0.06154000  0.79487000  0.50352000  1.0
  H  H100  1  0.43846000  0.49648000  0.20513000  1.0
  H  H101  1  0.93846000  0.50352000  0.79487000  1.0
  H  H102  1  0.68846000  0.29487000  0.99648000  1.0
  H  H103  1  0.18846000  0.70513000  0.00352000  1.0
  C  C104  1  0.20372000  0.10407000  0.25452000  1.0
  C  C105  1  0.45372000  0.24548000  0.60407000  1.0
  C  C106  1  0.70372000  0.89593000  0.74548000  1.0
  C  C107  1  0.95372000  0.75452000  0.39593000  1.0
  C  C108  1  0.54628000  0.60407000  0.24548000  1.0
  C  C109  1  0.04628000  0.39593000  0.75452000  1.0
  C  C110  1  0.79628000  0.25452000  0.10407000  1.0
  C  C111  1  0.29628000  0.74548000  0.89593000  1.0
  C  C112  1  0.16991000  0.41677000  0.24440000  1.0
  C  C113  1  0.41991000  0.25560000  0.91678000  1.0
  C  C114  1  0.66990000  0.58323000  0.75560000  1.0
  C  C115  1  0.91991000  0.74440000  0.08322000  1.0
  C  C116  1  0.58009000  0.91677000  0.25560000  1.0
  C  C117  1  0.08009000  0.08323000  0.74440000  1.0
  C  C118  1  0.83009000  0.24440000  0.41677000  1.0
  C  C119  1  0.33009000  0.75560000  0.58323000  1.0
  C  C120  1  0.12863000  0.55448000  0.24842000  1.0
  C  C121  1  0.37862000  0.25158000  0.05448000  1.0
  C  C122  1  0.62862000  0.44552000  0.75158000  1.0
  C  C123  1  0.87862000  0.74842000  0.94552000  1.0
  C  C124  1  0.62138000  0.05448000  0.25158000  1.0
  C  C125  1  0.12137000  0.94552000  0.74842000  1.0
  C  C126  1  0.87137000  0.24842000  0.55448000  1.0
  C  C127  1  0.37137000  0.75158000  0.44552000  1.0
  C  C128  1  0.08697000  0.90490000  0.24820000  1.0
  C  C129  1  0.33697000  0.25180000  0.40490000  1.0
  C  C130  1  0.58697000  0.09510000  0.75180000  1.0
  C  C131  1  0.83697000  0.74820000  0.59510000  1.0
  C  C132  1  0.66303000  0.40490000  0.25180000  1.0
  C  C133  1  0.16303000  0.59510000  0.74820000  1.0
  C  C134  1  0.91303000  0.24820000  0.90490000  1.0
  C  C135  1  0.41303000  0.75180000  0.09510000  1.0
  C  C136  1  0.00863000  0.37705000  0.18364000  1.0
  C  C137  1  0.25863000  0.31636000  0.87705000  1.0
  C  C138  1  0.50863000  0.62295000  0.81636000  1.0
  C  C139  1  0.75863000  0.68364000  0.12295000  1.0
  C  C140  1  0.74137000  0.87705000  0.31636000  1.0
  C  C141  1  0.24137000  0.12295000  0.68364000  1.0
  C  C142  1  0.99137000  0.18364000  0.37705000  1.0
  C  C143  1  0.49137000  0.81636000  0.62295000  1.0
  C  C144  1  0.06186000  0.61783000  0.24583000  1.0
  C  C145  1  0.31186000  0.25417000  0.11783000  1.0
  C  C146  1  0.56186000  0.38217000  0.75417000  1.0
  C  C147  1  0.81186000  0.74583000  0.88217000  1.0
  C  C148  1  0.68814000  0.11783000  0.25417000  1.0
  C  C149  1  0.18814000  0.88217000  0.74583000  1.0
  C  C150  1  0.93814000  0.24583000  0.61783000  1.0
  C  C151  1  0.43814000  0.75417000  0.38217000  1.0
  C  C152  1  0.25422000  0.43690000  0.27109000  1.0
  C  C153  1  0.50422000  0.22891000  0.93690000  1.0
  C  C154  1  0.75421000  0.56310000  0.72891000  1.0
  C  C155  1  0.00422000  0.77109000  0.06310000  1.0
  C  C156  1  0.49578000  0.93690000  0.22891000  1.0
  C  C157  1  0.99578000  0.06310000  0.77109000  1.0
  C  C158  1  0.74578000  0.27109000  0.43690000  1.0
  C  C159  1  0.24578000  0.72891000  0.56310000  1.0
  C  C160  1  0.94667000  0.99482000  0.20127000  1.0
  C  C161  1  0.19667000  0.29873000  0.49482000  1.0
  C  C162  1  0.44667000  0.00518000  0.79873000  1.0
  C  C163  1  0.69667000  0.70127000  0.50518000  1.0
  C  C164  1  0.80334000  0.49482000  0.29873000  1.0
  C  C165  1  0.30334000  0.50518000  0.70127000  1.0
  C  C166  1  0.05333000  0.20127000  0.99482000  1.0
  C  C167  1  0.55333000  0.79873000  0.00518000  1.0
  C  C168  1  0.09822000  0.98721000  0.24071000  1.0
  C  C169  1  0.34822000  0.25929000  0.48721000  1.0
  C  C170  1  0.59822000  0.01279000  0.75929000  1.0
  C  C171  1  0.84822000  0.74071000  0.51279000  1.0
  C  C172  1  0.65178000  0.48721000  0.25929000  1.0
  C  C173  1  0.15178000  0.51279000  0.74071000  1.0
  C  C174  1  0.90178000  0.24071000  0.98721000  1.0
  C  C175  1  0.40178000  0.75929000  0.01279000  1.0
  C  C176  1  0.02527000  0.03087000  0.21558000  1.0
  C  C177  1  0.27527000  0.28442000  0.53087000  1.0
  C  C178  1  0.52527000  0.96913000  0.78442000  1.0
  C  C179  1  0.77527000  0.71558000  0.46913000  1.0
  C  C180  1  0.72473000  0.53087000  0.28442000  1.0
  C  C181  1  0.22473000  0.46913000  0.71558000  1.0
  C  C182  1  0.97473000  0.21558000  0.03087000  1.0
  C  C183  1  0.47473000  0.78442000  0.96913000  1.0
  C  C184  1  0.15740000  0.85732000  0.27115000  1.0
  C  C185  1  0.40740000  0.22885000  0.35732000  1.0
  C  C186  1  0.65740000  0.14269000  0.72885000  1.0
  C  C187  1  0.90740000  0.77115000  0.64268000  1.0
  C  C188  1  0.59260000  0.35731000  0.22885000  1.0
  C  C189  1  0.09260000  0.64269000  0.77115000  1.0
  C  C190  1  0.84260000  0.27115000  0.85732000  1.0
  C  C191  1  0.34260000  0.72885000  0.14268000  1.0
  C  C192  1  0.23727000  0.88991000  0.28737000  1.0
  C  C193  1  0.48727000  0.21263000  0.38991000  1.0
  C  C194  1  0.73727000  0.11009000  0.71263000  1.0
  C  C195  1  0.98727000  0.78737000  0.61009000  1.0
  C  C196  1  0.51273000  0.38991000  0.21263000  1.0
  C  C197  1  0.01273000  0.61009000  0.78737000  1.0
  C  C198  1  0.76273000  0.28737000  0.88991000  1.0
  C  C199  1  0.26273000  0.71263000  0.11009000  1.0
  C  C200  1  0.27508000  0.51348000  0.28404000  1.0
  C  C201  1  0.52508000  0.21596000  0.01348000  1.0
  C  C202  1  0.77508000  0.48652000  0.71596000  1.0
  C  C203  1  0.02508000  0.78404000  0.98652000  1.0
  C  C204  1  0.47492000  0.01348000  0.21596000  1.0
  C  C205  1  0.97492000  0.98652000  0.78404000  1.0
  C  C206  1  0.72492000  0.28404000  0.51348000  1.0
  C  C207  1  0.22492000  0.71596000  0.48652000  1.0
  C  C208  1  0.02479000  0.45381000  0.19985000  1.0
  C  C209  1  0.27479000  0.30015000  0.95381000  1.0
  C  C210  1  0.52479000  0.54619000  0.80015000  1.0
  C  C211  1  0.77479000  0.69985000  0.04619000  1.0
  C  C212  1  0.72520000  0.95381000  0.30015000  1.0
  C  C213  1  0.22521000  0.04619000  0.69985000  1.0
  C  C214  1  0.97521000  0.19985000  0.45381000  1.0
  C  C215  1  0.47521000  0.80015000  0.54619000  1.0
  C  C216  1  0.21234000  0.57197000  0.27235000  1.0
  C  C217  1  0.46234000  0.22765000  0.07197000  1.0
  C  C218  1  0.71234000  0.42803000  0.72764000  1.0
  C  C219  1  0.96234000  0.77236000  0.92803000  1.0
  C  C220  1  0.53766000  0.07197000  0.22765000  1.0
  C  C221  1  0.03766000  0.92803000  0.77235000  1.0
  C  C222  1  0.78766000  0.27236000  0.57197000  1.0
  C  C223  1  0.28766000  0.72764000  0.42803000  1.0
  C  C224  1  0.10619000  0.47605000  0.23155000  1.0
  C  C225  1  0.35619000  0.26845000  0.97605000  1.0
  C  C226  1  0.60619000  0.52395000  0.76845000  1.0
  C  C227  1  0.85619000  0.73155000  0.02395000  1.0
  C  C228  1  0.64381000  0.97605000  0.26845000  1.0
  C  C229  1  0.14381000  0.02395000  0.73155000  1.0
  C  C230  1  0.89381000  0.23155000  0.47605000  1.0
  C  C231  1  0.39381000  0.76845000  0.52395000  1.0
  C  C232  1  0.07299000  0.32191000  0.20111000  1.0
  C  C233  1  0.32299000  0.29889000  0.82191000  1.0
  C  C234  1  0.57299000  0.67809000  0.79889000  1.0
  C  C235  1  0.82299000  0.70111000  0.17809000  1.0
  C  C236  1  0.67701000  0.82191000  0.29889000  1.0
  C  C237  1  0.17701000  0.17809000  0.70111000  1.0
  C  C238  1  0.92701000  0.20111000  0.32191000  1.0
  C  C239  1  0.42701000  0.79889000  0.67809000  1.0
  C  C240  1  0.94107000  0.91417000  0.21071000  1.0
  C  C241  1  0.19107000  0.28929000  0.41417000  1.0
  C  C242  1  0.44107000  0.08583000  0.78929000  1.0
  C  C243  1  0.69107000  0.71071000  0.58583000  1.0
  C  C244  1  0.80893000  0.41417000  0.28929000  1.0
  C  C245  1  0.30893000  0.58583000  0.71071000  1.0
  C  C246  1  0.05893000  0.21071000  0.91417000  1.0
  C  C247  1  0.55893000  0.78929000  0.08583000  1.0
  C  C248  1  0.24879000  0.97049000  0.28119000  1.0
  C  C249  1  0.49879000  0.21881000  0.47049000  1.0
  C  C250  1  0.74879000  0.02951000  0.71881000  1.0
  C  C251  1  0.99879000  0.78119000  0.52951000  1.0
  C  C252  1  0.50121000  0.47049000  0.21881000  1.0
  C  C253  1  0.00121000  0.52951000  0.78119000  1.0
  C  C254  1  0.75121000  0.28119000  0.97049000  1.0
  C  C255  1  0.25121000  0.71881000  0.02951000  1.0
  C  C256  1  0.18195000  0.01944000  0.25827000  1.0
  C  C257  1  0.43195000  0.24173000  0.51944000  1.0
  C  C258  1  0.68195000  0.98056000  0.74173000  1.0
  C  C259  1  0.93195000  0.75827000  0.48056000  1.0
  C  C260  1  0.56805000  0.51944000  0.24173000  1.0
  C  C261  1  0.06805000  0.48056000  0.75827000  1.0
  C  C262  1  0.81805000  0.25827000  0.01944000  1.0
  C  C263  1  0.31805000  0.74173000  0.98056000  1.0
  N  N264  1  0.00800000  0.87059000  0.23290000  1.0
  N  N265  1  0.25800000  0.26710000  0.37059000  1.0
  N  N266  1  0.50800000  0.12941000  0.76710000  1.0
  N  N267  1  0.75800000  0.73290000  0.62941000  1.0
  N  N268  1  0.74200000  0.37059000  0.26710000  1.0
  N  N269  1  0.24200000  0.62941000  0.73290000  1.0
  N  N270  1  0.99200000  0.23290000  0.87059000  1.0
  N  N271  1  0.49200000  0.76710000  0.12941000  1.0
  N  N272  1  0.15016000  0.34037000  0.23067000  1.0
  N  N273  1  0.40016000  0.26933000  0.84037000  1.0
  N  N274  1  0.65016000  0.65963000  0.76933000  1.0
  N  N275  1  0.90016000  0.73067000  0.15963000  1.0
  N  N276  1  0.59984000  0.84037000  0.26933000  1.0
  N  N277  1  0.09984000  0.15963000  0.73067000  1.0
  N  N278  1  0.84984000  0.23067000  0.34037000  1.0
  N  N279  1  0.34984000  0.76933000  0.65963000  1.0
  O  O280  1  0.28316000  0.12348000  0.25200000  1.0
  O  O281  1  0.53316000  0.24800000  0.62348000  1.0
  O  O282  1  0.78316000  0.87652000  0.74800000  1.0
  O  O283  1  0.03316000  0.75200000  0.37652000  1.0
  O  O284  1  0.46684000  0.62348000  0.24800000  1.0
  O  O285  1  0.96684000  0.37652000  0.75200000  1.0
  O  O286  1  0.71684000  0.25200000  0.12348000  1.0
  O  O287  1  0.21684000  0.74800000  0.87652000  1.0
  O  O288  1  0.98499000  0.60488000  0.26708000  1.0
  O  O289  1  0.23499000  0.23292000  0.10488000  1.0
  O  O290  1  0.48498000  0.39511000  0.73292000  1.0
  O  O291  1  0.73499000  0.76709000  0.89512000  1.0
  O  O292  1  0.76502000  0.10489000  0.23292000  1.0
  O  O293  1  0.26501000  0.89511000  0.76709000  1.0
  O  O294  1  0.01501000  0.26708000  0.60489000  1.0
  O  O295  1  0.51502000  0.73292000  0.39511000  1.0
  O  O296  1  0.14309000  0.15596000  0.25606000  1.0
  O  O297  1  0.39309000  0.24394000  0.65596000  1.0
  O  O298  1  0.64309000  0.84404000  0.74394000  1.0
  O  O299  1  0.89309000  0.75606000  0.34404000  1.0
  O  O300  1  0.60691000  0.65596000  0.24394000  1.0
  O  O301  1  0.10691000  0.34404000  0.75606000  1.0
  O  O302  1  0.85691000  0.25606000  0.15596000  1.0
  O  O303  1  0.35691000  0.74394000  0.84404000  1.0
  O  O304  1  0.08928000  0.68543000  0.22417000  1.0
  O  O305  1  0.33928000  0.27583000  0.18543000  1.0
  O  O306  1  0.58929000  0.31457000  0.77583000  1.0
  O  O307  1  0.83928000  0.72417000  0.81457000  1.0
  O  O308  1  0.66072000  0.18543000  0.27583000  1.0
  O  O309  1  0.16072000  0.81457000  0.72417000  1.0
  O  O310  1  0.91072000  0.22417000  0.68543000  1.0
  O  O311  1  0.41072000  0.77583000  0.31457000  1.0
