# generated using pymatgen
data_MnH8C10N2F3
_symmetry_space_group_name_H-M   'P 1'
_cell_length_a   7.97039000
_cell_length_b   10.49750000
_cell_length_c   11.32680000
_cell_angle_alpha   89.98510000
_cell_angle_beta   89.99850000
_cell_angle_gamma   89.99920000
_symmetry_Int_Tables_number   1
_chemical_formula_structural   MnH8C10N2F3
_chemical_formula_sum   'Mn4 H32 C40 N8 F12'
_cell_volume   947.70391125
_cell_formula_units_Z   4
loop_
 _symmetry_equiv_pos_site_id
 _symmetry_equiv_pos_as_xyz
  1  'x, y, z'
loop_
 _atom_site_type_symbol
 _atom_site_label
 _atom_site_symmetry_multiplicity
 _atom_site_fract_x
 _atom_site_fract_y
 _atom_site_fract_z
 _atom_site_occupancy
  Mn  Mn0  1  0.37498000  0.24686000  0.99702000  1.0
  Mn  Mn1  1  0.87498000  0.25313000  0.00298000  1.0
  Mn  Mn2  1  0.62530000  0.74737000  0.50418000  1.0
  Mn  Mn3  1  0.12529000  0.75264000  0.49583000  1.0
  H  H4  1  0.47179000  0.42580000  0.19341000  1.0
  H  H5  1  0.97187000  0.07420000  0.80656000  1.0
  H  H6  1  0.52694000  0.92667000  0.30865000  1.0
  H  H7  1  0.02691000  0.57334000  0.69134000  1.0
  H  H8  1  0.27125000  0.06349000  0.19110000  1.0
  H  H9  1  0.77130000  0.43652000  0.80891000  1.0
  H  H10  1  0.72896000  0.56491000  0.31031000  1.0
  H  H11  1  0.22896000  0.93509000  0.68968000  1.0
  H  H12  1  0.47349000  0.43423000  0.41543000  1.0
  H  H13  1  0.97348000  0.06576000  0.58454000  1.0
  H  H14  1  0.52380000  0.93529000  0.08680000  1.0
  H  H15  1  0.02379000  0.56470000  0.91318000  1.0
  H  H16  1  0.26902000  0.05148000  0.41304000  1.0
  H  H17  1  0.76907000  0.44852000  0.58697000  1.0
  H  H18  1  0.73171000  0.55375000  0.08862000  1.0
  H  H19  1  0.23171000  0.94625000  0.91137000  1.0
  H  H20  1  0.49211000  0.05568000  0.58062000  1.0
  H  H21  1  0.99219000  0.44432000  0.41938000  1.0
  H  H22  1  0.50721000  0.55775000  0.91989000  1.0
  H  H23  1  0.00718000  0.94223000  0.08014000  1.0
  H  H24  1  0.26128000  0.42992000  0.57883000  1.0
  H  H25  1  0.76126000  0.07009000  0.42119000  1.0
  H  H26  1  0.74047000  0.93108000  0.92116000  1.0
  H  H27  1  0.24048000  0.56892000  0.07886000  1.0
  H  H28  1  0.49204000  0.06833000  0.80235000  1.0
  H  H29  1  0.99213000  0.43167000  0.19765000  1.0
  H  H30  1  0.50833000  0.56966000  0.69839000  1.0
  H  H31  1  0.00831000  0.93032000  0.30162000  1.0
  H  H32  1  0.26327000  0.42083000  0.80069000  1.0
  H  H33  1  0.76337000  0.07916000  0.19931000  1.0
  H  H34  1  0.73772000  0.92174000  0.69950000  1.0
  H  H35  1  0.23778000  0.57826000  0.30051000  1.0
  C  C36  1  0.42737000  0.34615000  0.24659000  1.0
  C  C37  1  0.92743000  0.15385000  0.75340000  1.0
  C  C38  1  0.57179000  0.84726000  0.25543000  1.0
  C  C39  1  0.07178000  0.65275000  0.74457000  1.0
  C  C40  1  0.31612000  0.14213000  0.24530000  1.0
  C  C41  1  0.81617000  0.35788000  0.75471000  1.0
  C  C42  1  0.68367000  0.64363000  0.25640000  1.0
  C  C43  1  0.18365000  0.85636000  0.74359000  1.0
  C  C44  1  0.42798000  0.34977000  0.36914000  1.0
  C  C45  1  0.92799000  0.15024000  0.63086000  1.0
  C  C46  1  0.57079000  0.85105000  0.13277000  1.0
  C  C47  1  0.07077000  0.64894000  0.86722000  1.0
  C  C48  1  0.31652000  0.13611000  0.36793000  1.0
  C  C49  1  0.81657000  0.36391000  0.63206000  1.0
  C  C50  1  0.68339000  0.63810000  0.13365000  1.0
  C  C51  1  0.18339000  0.86189000  0.86634000  1.0
  C  C52  1  0.37306000  0.24228000  0.43169000  1.0
  C  C53  1  0.87309000  0.25773000  0.56831000  1.0
  C  C54  1  0.62643000  0.74407000  0.06967000  1.0
  C  C55  1  0.12642000  0.75593000  0.93033000  1.0
  C  C56  1  0.37468000  0.24214000  0.56196000  1.0
  C  C57  1  0.87471000  0.25787000  0.43803000  1.0
  C  C58  1  0.62525000  0.74395000  0.93899000  1.0
  C  C59  1  0.12526000  0.75604000  0.06102000  1.0
  C  C60  1  0.43937000  0.13858000  0.62557000  1.0
  C  C61  1  0.93944000  0.36141000  0.37442000  1.0
  C  C62  1  0.56049000  0.64056000  0.87512000  1.0
  C  C63  1  0.06048000  0.85943000  0.12489000  1.0
  C  C64  1  0.31203000  0.34699000  0.62476000  1.0
  C  C65  1  0.81205000  0.15303000  0.37524000  1.0
  C  C66  1  0.68847000  0.84827000  0.87566000  1.0
  C  C67  1  0.18849000  0.65173000  0.12435000  1.0
  C  C68  1  0.44067000  0.14475000  0.74820000  1.0
  C  C69  1  0.94075000  0.35525000  0.25181000  1.0
  C  C70  1  0.55968000  0.64618000  0.75239000  1.0
  C  C71  1  0.05968000  0.85381000  0.24764000  1.0
  C  C72  1  0.31334000  0.34334000  0.74728000  1.0
  C  C73  1  0.81342000  0.15665000  0.25273000  1.0
  C  C74  1  0.68735000  0.84446000  0.75304000  1.0
  C  C75  1  0.18738000  0.65554000  0.24698000  1.0
  N  N76  1  0.37175000  0.24461000  0.18588000  1.0
  N  N77  1  0.87184000  0.25539000  0.81411000  1.0
  N  N78  1  0.62783000  0.74582000  0.31631000  1.0
  N  N79  1  0.12782000  0.75419000  0.68367000  1.0
  N  N80  1  0.37750000  0.24455000  0.80792000  1.0
  N  N81  1  0.87759000  0.25545000  0.19208000  1.0
  N  N82  1  0.62309000  0.74575000  0.69216000  1.0
  N  N83  1  0.12311000  0.75425000  0.30785000  1.0
  F  F84  1  0.35156000  0.42111000  0.99602000  1.0
  F  F85  1  0.85156000  0.07893000  0.00398000  1.0
  F  F86  1  0.66653000  0.91906000  0.50561000  1.0
  F  F87  1  0.16646000  0.58093000  0.49438000  1.0
  F  F88  1  0.39791000  0.07278000  0.99657000  1.0
  F  F89  1  0.89790000  0.42718000  0.00343000  1.0
  F  F90  1  0.58476000  0.57581000  0.50503000  1.0
  F  F91  1  0.08482000  0.92420000  0.49494000  1.0
  F  F92  1  0.62447000  0.27348000  0.00281000  1.0
  F  F93  1  0.12448000  0.22653000  0.99719000  1.0
  F  F94  1  0.37599000  0.79270000  0.49733000  1.0
  F  F95  1  0.87594000  0.70730000  0.50271000  1.0
