# generated using pymatgen
data_CdH16C26S(NO)4
_symmetry_space_group_name_H-M   'P 1'
_cell_length_a   8.72161000
_cell_length_b   10.85980000
_cell_length_c   13.26540000
_cell_angle_alpha   83.44960000
_cell_angle_beta   74.96190000
_cell_angle_gamma   69.83110000
_symmetry_Int_Tables_number   1
_chemical_formula_structural   CdH16C26S(NO)4
_chemical_formula_sum   'Cd2 H32 C52 S2 N8 O8'
_cell_volume   1138.57763314
_cell_formula_units_Z   2
loop_
 _symmetry_equiv_pos_site_id
 _symmetry_equiv_pos_as_xyz
  1  'x, y, z'
loop_
 _atom_site_type_symbol
 _atom_site_label
 _atom_site_symmetry_multiplicity
 _atom_site_fract_x
 _atom_site_fract_y
 _atom_site_fract_z
 _atom_site_occupancy
  Cd  Cd0  1  0.65795000  0.75760000  0.74914000  1.0
  Cd  Cd1  1  0.34205000  0.24240000  0.25086000  1.0
  H  H2  1  0.99811000  0.66970000  0.83539000  1.0
  H  H3  1  0.00189000  0.33030000  0.16461000  1.0
  H  H4  1  0.54029000  0.83569000  0.36508000  1.0
  H  H5  1  0.45971000  0.16430000  0.63492000  1.0
  H  H6  1  0.30919000  0.57002000  0.77071000  1.0
  H  H7  1  0.69081000  0.42997000  0.22929000  1.0
  H  H8  1  0.06352000  0.64879000  0.36886000  1.0
  H  H9  1  0.93649000  0.35121000  0.63114000  1.0
  H  H10  1  0.42835000  0.52673000  0.58050000  1.0
  H  H11  1  0.57165000  0.47327000  0.41950000  1.0
  H  H12  1  0.07124000  0.55782000  0.23099000  1.0
  H  H13  1  0.92877000  0.44218000  0.76901000  1.0
  H  H14  1  0.23411000  0.58418000  0.45996000  1.0
  H  H15  1  0.76589000  0.41582000  0.54004000  1.0
  H  H16  1  0.01625000  0.99854000  0.57684000  1.0
  H  H17  1  0.98375000  0.00146000  0.42316000  1.0
  H  H18  1  0.30053000  0.92088000  0.45552000  1.0
  H  H19  1  0.69947000  0.07912000  0.54448000  1.0
  H  H20  1  0.99045000  0.97684000  0.76942000  1.0
  H  H21  1  0.00955000  0.02315000  0.23058000  1.0
  H  H22  1  0.64938000  0.90445000  0.20674000  1.0
  H  H23  1  0.35062000  0.09555000  0.79326000  1.0
  H  H24  1  0.56424000  0.12840000  0.99588000  1.0
  H  H25  1  0.43576000  0.87160000  0.00412000  1.0
  H  H26  1  0.25320000  0.87457000  0.83462000  1.0
  H  H27  1  0.74680000  0.12543000  0.16538000  1.0
  H  H28  1  0.54160000  0.37855000  0.99178000  1.0
  H  H29  1  0.45839000  0.62145000  0.00822000  1.0
  H  H30  1  0.73292000  0.87626000  0.01450000  1.0
  H  H31  1  0.26708000  0.12374000  0.98550000  1.0
  H  H32  1  0.14335000  0.54744000  0.03859000  1.0
  H  H33  1  0.85666000  0.45256000  0.96141000  1.0
  C  C34  1  0.65649000  0.00630000  0.79158000  1.0
  C  C35  1  0.34351000  0.99370000  0.20842000  1.0
  C  C36  1  0.88694000  0.70414000  0.51773000  1.0
  C  C37  1  0.11306000  0.29586000  0.48227000  1.0
  C  C38  1  0.62616000  0.50062000  0.78213000  1.0
  C  C39  1  0.37385000  0.49938000  0.21787000  1.0
  C  C40  1  0.60296000  0.80204000  0.51607000  1.0
  C  C41  1  0.39704000  0.19796000  0.48393000  1.0
  C  C42  1  0.05465000  0.64941000  0.75243000  1.0
  C  C43  1  0.94535000  0.35059000  0.24757000  1.0
  C  C44  1  0.64012000  0.79779000  0.40689000  1.0
  C  C45  1  0.35988000  0.20221000  0.59311000  1.0
  C  C46  1  0.42843000  0.85412000  0.58228000  1.0
  C  C47  1  0.57158000  0.14588000  0.41772000  1.0
  C  C48  1  0.22811000  0.59418000  0.71624000  1.0
  C  C49  1  0.77189000  0.40582000  0.28376000  1.0
  C  C50  1  0.80779000  0.74187000  0.35198000  1.0
  C  C51  1  0.19221000  0.25813000  0.64802000  1.0
  C  C52  1  0.93250000  0.69350000  0.40903000  1.0
  C  C53  1  0.06750000  0.30650000  0.59097000  1.0
  C  C54  1  0.29307000  0.57048000  0.61009000  1.0
  C  C55  1  0.70693000  0.42952000  0.38991000  1.0
  C  C56  1  0.99427000  0.63233000  0.18623000  1.0
  C  C57  1  0.00573000  0.36767000  0.81377000  1.0
  C  C58  1  0.18436000  0.60405000  0.54300000  1.0
  C  C59  1  0.81564000  0.39595000  0.45700000  1.0
  C  C60  1  0.12851000  0.95479000  0.60717000  1.0
  C  C61  1  0.87150000  0.04521000  0.39283000  1.0
  C  C62  1  0.28740000  0.90996000  0.53982000  1.0
  C  C63  1  0.71260000  0.09005000  0.46018000  1.0
  C  C64  1  0.11257000  0.94310000  0.71475000  1.0
  C  C65  1  0.88743000  0.05690000  0.28525000  1.0
  C  C66  1  0.01143000  0.66077000  0.58447000  1.0
  C  C67  1  0.98857000  0.33923000  0.41553000  1.0
  C  C68  1  0.64066000  0.13563000  0.82618000  1.0
  C  C69  1  0.35934000  0.86437000  0.17382000  1.0
  C  C70  1  0.75879000  0.82266000  0.17310000  1.0
  C  C71  1  0.24121000  0.17733000  0.82690000  1.0
  C  C72  1  0.59314000  0.18615000  0.92522000  1.0
  C  C73  1  0.40685000  0.81385000  0.07478000  1.0
  C  C74  1  0.25836000  0.88683000  0.75106000  1.0
  C  C75  1  0.74164000  0.11317000  0.24894000  1.0
  C  C76  1  0.57926000  0.32013000  0.92252000  1.0
  C  C77  1  0.42074000  0.67987000  0.07748000  1.0
  C  C78  1  0.80700000  0.80830000  0.06506000  1.0
  C  C79  1  0.19300000  0.19170000  0.93493000  1.0
  C  C80  1  0.61554000  0.36996000  0.82144000  1.0
  C  C81  1  0.38447000  0.63004000  0.17856000  1.0
  C  C82  1  0.85335000  0.73272000  0.23678000  1.0
  C  C83  1  0.14665000  0.26728000  0.76322000  1.0
  C  C84  1  0.03351000  0.62595000  0.07781000  1.0
  C  C85  1  0.96649000  0.37405000  0.92219000  1.0
  S  S86  1  0.66712000  0.25256000  0.73033000  1.0
  S  S87  1  0.33288000  0.74745000  0.26967000  1.0
  N  N88  1  0.72566000  0.75682000  0.56744000  1.0
  N  N89  1  0.27434000  0.24319000  0.43256000  1.0
  N  N90  1  0.95001000  0.68042000  0.68825000  1.0
  N  N91  1  0.04999000  0.31958000  0.31175000  1.0
  N  N92  1  0.41121000  0.84438000  0.68693000  1.0
  N  N93  1  0.58879000  0.15562000  0.31307000  1.0
  N  N94  1  0.94234000  0.71172000  0.01682000  1.0
  N  N95  1  0.05766000  0.28827000  0.98318000  1.0
  O  O96  1  0.66825000  0.51887000  0.68427000  1.0
  O  O97  1  0.33178000  0.48112000  0.31573000  1.0
  O  O98  1  0.62452000  0.91924000  0.86055000  1.0
  O  O99  1  0.37548000  0.08076000  0.13945000  1.0
  O  O100  1  0.59693000  0.58769000  0.84945000  1.0
  O  O101  1  0.40306000  0.41231000  0.15054000  1.0
  O  O102  1  0.69679000  0.98866000  0.69393000  1.0
  O  O103  1  0.30321000  0.01134000  0.30607000  1.0
