# generated using pymatgen
data_ZnH12C18(NO)4
_symmetry_space_group_name_H-M   'P 1'
_cell_length_a   11.43120000
_cell_length_b   12.78140000
_cell_length_c   14.86640000
_cell_angle_alpha   89.99890000
_cell_angle_beta   89.99990000
_cell_angle_gamma   113.70700000
_symmetry_Int_Tables_number   1
_chemical_formula_structural   ZnH12C18(NO)4
_chemical_formula_sum   'Zn4 H48 C72 N16 O16'
_cell_volume   1988.78685627
_cell_formula_units_Z   4
loop_
 _symmetry_equiv_pos_site_id
 _symmetry_equiv_pos_as_xyz
  1  'x, y, z'
loop_
 _atom_site_type_symbol
 _atom_site_label
 _atom_site_symmetry_multiplicity
 _atom_site_fract_x
 _atom_site_fract_y
 _atom_site_fract_z
 _atom_site_occupancy
  Zn  Zn0  1  0.41743000  0.06920000  0.59254000  1.0
  Zn  Zn1  1  0.08257000  0.43080000  0.09255000  1.0
  Zn  Zn2  1  0.58256000  0.93079000  0.40746000  1.0
  Zn  Zn3  1  0.91744000  0.56920000  0.90746000  1.0
  H  H4  1  0.31915000  0.82549000  0.65764000  1.0
  H  H5  1  0.18083000  0.67451000  0.15764000  1.0
  H  H6  1  0.68084000  0.17450000  0.34235000  1.0
  H  H7  1  0.81916000  0.32550000  0.84236000  1.0
  H  H8  1  0.11936000  0.64337000  0.65039000  1.0
  H  H9  1  0.38062000  0.85663000  0.15038000  1.0
  H  H10  1  0.88063000  0.35662000  0.34961000  1.0
  H  H11  1  0.61938000  0.14338000  0.84961000  1.0
  H  H12  1  0.94968000  0.82437000  0.48693000  1.0
  H  H13  1  0.55030000  0.67564000  0.98691000  1.0
  H  H14  1  0.05031000  0.17562000  0.51307000  1.0
  H  H15  1  0.44969000  0.32438000  0.01308000  1.0
  H  H16  1  0.15925000  0.99918000  0.49972000  1.0
  H  H17  1  0.34073000  0.50083000  0.99971000  1.0
  H  H18  1  0.84075000  0.00082000  0.50028000  1.0
  H  H19  1  0.65927000  0.49918000  0.00028000  1.0
  H  H20  1  0.69854000  0.48406000  0.47653000  1.0
  H  H21  1  0.80147000  0.01596000  0.97653000  1.0
  H  H22  1  0.30145000  0.51594000  0.52347000  1.0
  H  H23  1  0.19853000  0.98404000  0.02347000  1.0
  H  H24  1  0.50936000  0.29372000  0.48120000  1.0
  H  H25  1  0.99066000  0.20628000  0.98120000  1.0
  H  H26  1  0.49064000  0.70627000  0.51881000  1.0
  H  H27  1  0.00935000  0.79371000  0.01880000  1.0
  H  H28  1  0.67306000  0.17234000  0.68091000  1.0
  H  H29  1  0.82695000  0.32766000  0.18091000  1.0
  H  H30  1  0.32695000  0.82766000  0.31909000  1.0
  H  H31  1  0.17306000  0.67235000  0.81909000  1.0
  H  H32  1  0.87240000  0.35680000  0.68296000  1.0
  H  H33  1  0.62761000  0.14322000  0.18296000  1.0
  H  H34  1  0.12761000  0.64321000  0.31703000  1.0
  H  H35  1  0.37240000  0.85680000  0.81704000  1.0
  H  H36  1  0.27886000  0.19896000  0.83176000  1.0
  H  H37  1  0.22113000  0.30102000  0.33177000  1.0
  H  H38  1  0.72112000  0.80102000  0.16824000  1.0
  H  H39  1  0.77889000  0.69898000  0.66825000  1.0
  H  H40  1  0.18678000  0.30939000  0.92580000  1.0
  H  H41  1  0.31322000  0.19060000  0.42581000  1.0
  H  H42  1  0.81321000  0.69060000  0.07420000  1.0
  H  H43  1  0.68679000  0.80938000  0.57420000  1.0
  H  H44  1  0.18271000  0.33392000  0.59187000  1.0
  H  H45  1  0.31729000  0.16609000  0.09188000  1.0
  H  H46  1  0.81728000  0.66608000  0.40813000  1.0
  H  H47  1  0.68273000  0.83394000  0.90813000  1.0
  H  H48  1  0.08680000  0.44300000  0.68557000  1.0
  H  H49  1  0.41321000  0.05700000  0.18557000  1.0
  H  H50  1  0.91321000  0.55700000  0.31444000  1.0
  H  H51  1  0.58680000  0.94301000  0.81443000  1.0
  C  C52  1  0.23570000  0.82043000  0.61956000  1.0
  C  C53  1  0.26429000  0.67957000  0.11956000  1.0
  C  C54  1  0.76429000  0.17956000  0.38044000  1.0
  C  C55  1  0.73572000  0.32044000  0.88044000  1.0
  C  C56  1  0.12646000  0.72038000  0.61526000  1.0
  C  C57  1  0.37353000  0.77962000  0.11526000  1.0
  C  C58  1  0.87353000  0.27960000  0.38473000  1.0
  C  C59  1  0.62647000  0.22039000  0.88473000  1.0
  C  C60  1  0.03106000  0.82169000  0.52379000  1.0
  C  C61  1  0.46892000  0.67832000  0.02378000  1.0
  C  C62  1  0.96894000  0.17830000  0.47621000  1.0
  C  C63  1  0.53107000  0.32169000  0.97621000  1.0
  C  C64  1  0.14566000  0.91789000  0.53096000  1.0
  C  C65  1  0.35433000  0.58212000  0.03095000  1.0
  C  C66  1  0.85434000  0.08210000  0.46904000  1.0
  C  C67  1  0.64567000  0.41789000  0.96904000  1.0
  C  C68  1  0.02225000  0.72078000  0.56583000  1.0
  C  C69  1  0.47774000  0.77923000  0.06583000  1.0
  C  C70  1  0.97775000  0.27922000  0.43416000  1.0
  C  C71  1  0.52226000  0.22078000  0.93417000  1.0
  C  C72  1  0.79874000  0.43334000  0.58047000  1.0
  C  C73  1  0.70126000  0.06667000  0.08047000  1.0
  C  C74  1  0.20125000  0.56666000  0.41953000  1.0
  C  C75  1  0.29874000  0.93334000  0.91953000  1.0
  C  C76  1  0.69576000  0.41692000  0.52271000  1.0
  C  C77  1  0.80424000  0.08309000  0.02271000  1.0
  C  C78  1  0.30422000  0.58308000  0.47729000  1.0
  C  C79  1  0.19576000  0.91692000  0.97728000  1.0
  C  C80  1  0.59167000  0.31201000  0.52502000  1.0
  C  C81  1  0.90834000  0.18800000  0.02502000  1.0
  C  C82  1  0.40832000  0.68799000  0.47499000  1.0
  C  C83  1  0.09167000  0.81201000  0.97498000  1.0
  C  C84  1  0.68387000  0.24372000  0.63676000  1.0
  C  C85  1  0.81614000  0.25628000  0.13676000  1.0
  C  C86  1  0.31613000  0.75628000  0.36324000  1.0
  C  C87  1  0.18387000  0.74372000  0.86324000  1.0
  C  C88  1  0.28797000  0.19166000  0.64968000  1.0
  C  C89  1  0.21204000  0.30834000  0.14969000  1.0
  C  C90  1  0.71202000  0.80833000  0.35031000  1.0
  C  C91  1  0.78798000  0.69168000  0.85032000  1.0
  C  C92  1  0.23473000  0.25912000  0.70639000  1.0
  C  C93  1  0.26526000  0.24087000  0.20640000  1.0
  C  C94  1  0.76525000  0.74086000  0.29361000  1.0
  C  C95  1  0.73475000  0.75914000  0.79362000  1.0
  C  C96  1  0.79303000  0.34462000  0.63779000  1.0
  C  C97  1  0.70698000  0.15539000  0.13779000  1.0
  C  C98  1  0.20698000  0.65538000  0.36221000  1.0
  C  C99  1  0.29302000  0.84462000  0.86221000  1.0
  C  C100  1  0.23670000  0.25268000  0.80039000  1.0
  C  C101  1  0.26329000  0.24731000  0.30039000  1.0
  C  C102  1  0.76329000  0.74731000  0.19961000  1.0
  C  C103  1  0.73672000  0.75270000  0.69962000  1.0
  C  C104  1  0.18448000  0.31344000  0.85260000  1.0
  C  C105  1  0.31551000  0.18655000  0.35260000  1.0
  C  C106  1  0.81551000  0.68655000  0.14740000  1.0
  C  C107  1  0.68449000  0.81345000  0.64740000  1.0
  C  C108  1  0.18188000  0.32878000  0.66509000  1.0
  C  C109  1  0.31812000  0.17122000  0.16510000  1.0
  C  C110  1  0.81812000  0.67121000  0.33491000  1.0
  C  C111  1  0.68190000  0.82880000  0.83491000  1.0
  C  C112  1  0.12898000  0.38924000  0.71705000  1.0
  C  C113  1  0.37102000  0.11076000  0.21705000  1.0
  C  C114  1  0.87102000  0.61076000  0.28295000  1.0
  C  C115  1  0.62899000  0.88925000  0.78295000  1.0
  C  C116  1  0.12879000  0.38089000  0.81118000  1.0
  C  C117  1  0.37121000  0.11910000  0.31118000  1.0
  C  C118  1  0.87121000  0.61910000  0.18883000  1.0
  C  C119  1  0.62879000  0.88090000  0.68882000  1.0
  C  C120  1  0.06719000  0.44086000  0.86809000  1.0
  C  C121  1  0.43281000  0.05913000  0.36809000  1.0
  C  C122  1  0.93281000  0.55913000  0.13192000  1.0
  C  C123  1  0.56719000  0.94086000  0.63191000  1.0
  N  N124  1  0.24604000  0.91748000  0.57806000  1.0
  N  N125  1  0.25395000  0.58253000  0.07806000  1.0
  N  N126  1  0.75396000  0.08251000  0.42193000  1.0
  N  N127  1  0.74605000  0.41748000  0.92194000  1.0
  N  N128  1  0.90450000  0.62345000  0.55896000  1.0
  N  N129  1  0.59549000  0.87656000  0.05895000  1.0
  N  N130  1  0.09549000  0.37655000  0.44104000  1.0
  N  N131  1  0.40451000  0.12345000  0.94104000  1.0
  N  N132  1  0.91341000  0.53254000  0.58381000  1.0
  N  N133  1  0.58659000  0.96747000  0.08381000  1.0
  N  N134  1  0.08659000  0.46746000  0.41618000  1.0
  N  N135  1  0.41340000  0.03254000  0.91618000  1.0
  N  N136  1  0.58541000  0.22688000  0.58099000  1.0
  N  N137  1  0.91460000  0.27312000  0.08099000  1.0
  N  N138  1  0.41459000  0.77312000  0.41902000  1.0
  N  N139  1  0.08541000  0.72688000  0.91901000  1.0
  O  O140  1  0.34845000  0.14003000  0.69122000  1.0
  O  O141  1  0.15154000  0.35996000  0.19122000  1.0
  O  O142  1  0.65153000  0.85995000  0.30878000  1.0
  O  O143  1  0.84847000  0.64005000  0.80879000  1.0
  O  O144  1  0.27191000  0.18804000  0.56553000  1.0
  O  O145  1  0.22812000  0.31198000  0.06554000  1.0
  O  O146  1  0.72808000  0.81195000  0.43447000  1.0
  O  O147  1  0.77192000  0.68805000  0.93448000  1.0
  O  O148  1  0.00771000  0.49376000  0.82715000  1.0
  O  O149  1  0.49230000  0.00623000  0.32715000  1.0
  O  O150  1  0.99230000  0.50624000  0.17286000  1.0
  O  O151  1  0.50770000  0.99375000  0.67285000  1.0
  O  O152  1  0.07368000  0.43532000  0.95241000  1.0
  O  O153  1  0.42633000  0.06466000  0.45241000  1.0
  O  O154  1  0.92632000  0.56466000  0.04760000  1.0
  O  O155  1  0.57368000  0.93534000  0.54760000  1.0
