# generated using pymatgen
data_KBH31(C8N3)3
_symmetry_space_group_name_H-M   'P 1'
_cell_length_a   10.40120000
_cell_length_b   12.14770000
_cell_length_c   13.23050000
_cell_angle_alpha   65.29930000
_cell_angle_beta   67.51970000
_cell_angle_gamma   89.43470000
_symmetry_Int_Tables_number   1
_chemical_formula_structural   KBH31(C8N3)3
_chemical_formula_sum   'K2 B2 H62 C48 N18'
_cell_volume   1380.76289292
_cell_formula_units_Z   2
loop_
 _symmetry_equiv_pos_site_id
 _symmetry_equiv_pos_as_xyz
  1  'x, y, z'
loop_
 _atom_site_type_symbol
 _atom_site_label
 _atom_site_symmetry_multiplicity
 _atom_site_fract_x
 _atom_site_fract_y
 _atom_site_fract_z
 _atom_site_occupancy
  K  K0  1  0.18776000  0.19260000  0.38889000  1.0
  K  K1  1  0.81224000  0.80739000  0.61111000  1.0
  B  B2  1  0.88269000  0.08764000  0.62999000  1.0
  B  B3  1  0.11731000  0.91236000  0.37001000  1.0
  H  H4  1  0.04572000  0.38461000  0.83085000  1.0
  H  H5  1  0.95428000  0.61539000  0.16914000  1.0
  H  H6  1  0.21934000  0.36679000  0.82193000  1.0
  H  H7  1  0.78066000  0.63321000  0.17807000  1.0
  H  H8  1  0.09793000  0.23799000  0.86150000  1.0
  H  H9  1  0.90207000  0.76201000  0.13850000  1.0
  H  H10  1  0.28016000  0.20109000  0.68772000  1.0
  H  H11  1  0.71984000  0.79891000  0.31229000  1.0
  H  H12  1  0.39848000  0.33073000  0.64934000  1.0
  H  H13  1  0.60152000  0.66927000  0.35066000  1.0
  H  H14  1  0.35226000  0.32124000  0.53625000  1.0
  H  H15  1  0.64774000  0.67876000  0.46375000  1.0
  H  H16  1  0.28563000  0.53066000  0.49038000  1.0
  H  H17  1  0.71437000  0.46934000  0.50962000  1.0
  H  H18  1  0.32836000  0.53730000  0.60566000  1.0
  H  H19  1  0.67164000  0.46270000  0.39434000  1.0
  H  H20  1  0.15956000  0.56256000  0.60669000  1.0
  H  H21  1  0.84044000  0.43744000  0.39331000  1.0
  H  H22  1  0.75473000  0.29540000  0.64086000  1.0
  H  H23  1  0.24528000  0.70460000  0.35913000  1.0
  H  H24  1  0.06653000  0.33366000  0.17965000  1.0
  H  H25  1  0.93347000  0.66634000  0.82035000  1.0
  H  H26  1  0.06700000  0.29152000  0.06562000  1.0
  H  H27  1  0.93300000  0.70848000  0.93439000  1.0
  H  H28  1  0.07531000  0.17951000  0.20110000  1.0
  H  H29  1  0.92469000  0.82049000  0.79891000  1.0
  H  H30  1  0.86126000  0.04075000  0.24191000  1.0
  H  H31  1  0.13874000  0.95925000  0.75809000  1.0
  H  H32  1  0.85707000  0.15305000  0.10367000  1.0
  H  H33  1  0.14293000  0.84695000  0.89633000  1.0
  H  H34  1  0.70295000  0.09830000  0.24374000  1.0
  H  H35  1  0.29705000  0.90170000  0.75626000  1.0
  H  H36  1  0.69168000  0.32656000  0.20568000  1.0
  H  H37  1  0.30832000  0.67345000  0.79432000  1.0
  H  H38  1  0.84759000  0.37553000  0.06821000  1.0
  H  H39  1  0.15241000  0.62447000  0.93179000  1.0
  H  H40  1  0.84124000  0.41925000  0.18253000  1.0
  H  H41  1  0.15876000  0.58075000  0.81747000  1.0
  H  H42  1  0.58849000  0.08654000  0.65313000  1.0
  H  H43  1  0.41151000  0.91346000  0.34687000  1.0
  H  H44  1  0.81131000  0.09754000  0.85860000  1.0
  H  H45  1  0.18869000  0.90246000  0.14140000  1.0
  H  H46  1  0.51555000  0.73192000  0.81630000  1.0
  H  H47  1  0.48445000  0.26808000  0.18370000  1.0
  H  H48  1  0.44663000  0.58550000  0.94590000  1.0
  H  H49  1  0.55337000  0.41450000  0.05410000  1.0
  H  H50  1  0.63213000  0.63732000  0.86700000  1.0
  H  H51  1  0.36787000  0.36268000  0.13300000  1.0
  H  H52  1  0.35772000  0.78782000  0.09846000  1.0
  H  H53  1  0.64228000  0.21218000  0.90154000  1.0
  H  H54  1  0.29145000  0.66768000  0.07827000  1.0
  H  H55  1  0.70855000  0.33232000  0.92173000  1.0
  H  H56  1  0.34830000  0.82112000  0.95721000  1.0
  H  H57  1  0.65170000  0.17888000  0.04279000  1.0
  H  H58  1  0.65333000  0.60649000  0.05899000  1.0
  H  H59  1  0.34667000  0.39351000  0.94101000  1.0
  H  H60  1  0.46814000  0.54908000  0.14517000  1.0
  H  H61  1  0.53186000  0.45091000  0.85483000  1.0
  H  H62  1  0.54717000  0.67232000  0.15294000  1.0
  H  H63  1  0.45283000  0.32768000  0.84706000  1.0
  H  H64  1  0.98199000  0.03829000  0.59932000  1.0
  H  H65  1  0.01802000  0.96171000  0.40068000  1.0
  C  C66  1  0.54307000  0.16670000  0.42922000  1.0
  C  C67  1  0.45693000  0.83330000  0.57078000  1.0
  C  C68  1  0.89567000  0.47778000  0.67219000  1.0
  C  C69  1  0.10434000  0.52221000  0.32780000  1.0
  C  C70  1  0.13425000  0.33768000  0.80369000  1.0
  C  C71  1  0.86575000  0.66233000  0.19631000  1.0
  C  C72  1  0.31189000  0.30115000  0.63305000  1.0
  C  C73  1  0.68811000  0.69885000  0.36696000  1.0
  C  C74  1  0.24270000  0.50823000  0.58793000  1.0
  C  C75  1  0.75730000  0.49177000  0.41207000  1.0
  C  C76  1  0.18921000  0.36873000  0.66687000  1.0
  C  C77  1  0.81079000  0.63127000  0.33313000  1.0
  C  C78  1  0.06759000  0.32664000  0.64787000  1.0
  C  C79  1  0.93241000  0.67336000  0.35213000  1.0
  C  C80  1  0.93973000  0.37531000  0.65391000  1.0
  C  C81  1  0.06027000  0.62470000  0.34609000  1.0
  C  C82  1  0.85949000  0.29545000  0.63991000  1.0
  C  C83  1  0.14051000  0.70455000  0.36009000  1.0
  C  C84  1  0.02863000  0.26002000  0.16472000  1.0
  C  C85  1  0.97137000  0.73998000  0.83528000  1.0
  C  C86  1  0.81875000  0.12360000  0.20252000  1.0
  C  C87  1  0.18124000  0.87640000  0.79748000  1.0
  C  C88  1  0.80758000  0.34413000  0.16748000  1.0
  C  C89  1  0.19242000  0.65587000  0.83252000  1.0
  C  C90  1  0.86660000  0.22838000  0.22458000  1.0
  C  C91  1  0.13340000  0.77162000  0.77542000  1.0
  C  C92  1  0.81108000  0.18443000  0.36122000  1.0
  C  C93  1  0.18893000  0.81557000  0.63878000  1.0
  C  C94  1  0.66706000  0.15752000  0.44855000  1.0
  C  C95  1  0.33294000  0.84248000  0.55145000  1.0
  C  C96  1  0.67268000  0.11493000  0.56242000  1.0
  C  C97  1  0.32731000  0.88506000  0.43758000  1.0
  C  C98  1  0.75693000  0.01887000  0.86312000  1.0
  C  C99  1  0.24306000  0.98113000  0.13688000  1.0
  C  C100  1  0.62469000  0.84305000  0.91522000  1.0
  C  C101  1  0.37531000  0.15695000  0.08478000  1.0
  C  C102  1  0.65833000  0.91794000  0.96432000  1.0
  C  C103  1  0.34168000  0.08207000  0.03567000  1.0
  C  C104  1  0.60026000  0.90286000  0.08510000  1.0
  C  C105  1  0.39974000  0.09714000  0.91489000  1.0
  C  C106  1  0.52017000  0.72406000  0.98302000  1.0
  C  C107  1  0.47983000  0.27594000  0.01698000  1.0
  C  C108  1  0.52982000  0.66701000  0.89725000  1.0
  C  C109  1  0.47018000  0.33299000  0.10275000  1.0
  C  C110  1  0.37001000  0.75231000  0.03204000  1.0
  C  C111  1  0.62999000  0.24769000  0.96796000  1.0
  C  C112  1  0.54934000  0.63276000  0.09145000  1.0
  C  C113  1  0.45066000  0.36724000  0.90855000  1.0
  N  N114  1  0.85482000  0.56152000  0.68891000  1.0
  N  N115  1  0.14518000  0.43849000  0.31109000  1.0
  N  N116  1  0.43951000  0.17457000  0.41323000  1.0
  N  N117  1  0.56049000  0.82543000  0.58677000  1.0
  N  N118  1  0.06223000  0.22615000  0.63095000  1.0
  N  N119  1  0.93777000  0.77385000  0.36905000  1.0
  N  N120  1  0.93515000  0.20815000  0.62647000  1.0
  N  N121  1  0.06485000  0.79185000  0.37353000  1.0
  N  N122  1  0.89541000  0.15927000  0.41971000  1.0
  N  N123  1  0.10459000  0.84073000  0.58029000  1.0
  N  N124  1  0.80988000  0.11640000  0.54212000  1.0
  N  N125  1  0.19012000  0.88360000  0.45788000  1.0
  N  N126  1  0.77718000  0.00417000  0.76324000  1.0
  N  N127  1  0.22282000  0.99583000  0.23676000  1.0
  N  N128  1  0.69848000  0.89646000  0.79381000  1.0
  N  N129  1  0.30152000  0.10354000  0.20619000  1.0
  N  N130  1  0.55026000  0.89244000  0.18502000  1.0
  N  N131  1  0.44974000  0.10757000  0.81498000  1.0
