# generated using pymatgen
data_CdH14C14(NO)4
_symmetry_space_group_name_H-M   'P 1'
_cell_length_a   9.08031000
_cell_length_b   10.42400000
_cell_length_c   10.42400000
_cell_angle_alpha   82.14250000
_cell_angle_beta   65.16030000
_cell_angle_gamma   65.16040000
_symmetry_Int_Tables_number   1
_chemical_formula_structural   CdH14C14(NO)4
_chemical_formula_sum   'Cd2 H28 C28 N8 O8'
_cell_volume   811.60293792
_cell_formula_units_Z   2
loop_
 _symmetry_equiv_pos_site_id
 _symmetry_equiv_pos_as_xyz
  1  'x, y, z'
loop_
 _atom_site_type_symbol
 _atom_site_label
 _atom_site_symmetry_multiplicity
 _atom_site_fract_x
 _atom_site_fract_y
 _atom_site_fract_z
 _atom_site_occupancy
  Cd  Cd0  1  0.38211000  0.06327000  0.22033000  1.0
  Cd  Cd1  1  0.61789000  0.77967000  0.93672000  1.0
  H  H2  1  0.15153000  0.61354000  0.75519000  1.0
  H  H3  1  0.84847000  0.24481000  0.38646000  1.0
  H  H4  1  0.43060000  0.62658000  0.79693000  1.0
  H  H5  1  0.56940000  0.20307000  0.37342000  1.0
  H  H6  1  0.10041000  0.94531000  0.41078000  1.0
  H  H7  1  0.89960000  0.58922000  0.05469000  1.0
  H  H8  1  0.04425000  0.77940000  0.60204000  1.0
  H  H9  1  0.95574000  0.39796000  0.22060000  1.0
  H  H10  1  0.58437000  0.65183000  0.55888000  1.0
  H  H11  1  0.41563000  0.44112000  0.34817000  1.0
  H  H12  1  0.61692000  0.82083000  0.36743000  1.0
  H  H13  1  0.38308000  0.63257000  0.17917000  1.0
  H  H14  1  0.21818000  0.19919000  0.98385000  1.0
  H  H15  1  0.78182000  0.01615000  0.80081000  1.0
  H  H16  1  0.21145000  0.39011000  0.81282000  1.0
  H  H17  1  0.78855000  0.18719000  0.60989000  1.0
  H  H18  1  0.57615000  0.46492000  0.92833000  1.0
  H  H19  1  0.42385000  0.07167000  0.53508000  1.0
  H  H20  1  0.56305000  0.27201000  0.09727000  1.0
  H  H21  1  0.43695000  0.90273000  0.72799000  1.0
  H  H22  1  0.88548000  0.47465000  0.48320000  1.0
  H  H23  1  0.11452000  0.51680000  0.52535000  1.0
  H  H24  1  0.87129000  0.35587000  0.61790000  1.0
  H  H25  1  0.12870000  0.38210000  0.64413000  1.0
  H  H26  1  0.99109000  0.94603000  0.22194000  1.0
  H  H27  1  0.00891000  0.77806000  0.05397000  1.0
  H  H28  1  0.99613000  0.07133000  0.09322000  1.0
  H  H29  1  0.00387000  0.90678000  0.92867000  1.0
  C  C30  1  0.20510000  0.87598000  0.44486000  1.0
  C  C31  1  0.79490000  0.55514000  0.12402000  1.0
  C  C32  1  0.17389000  0.78397000  0.55097000  1.0
  C  C33  1  0.82611000  0.44904000  0.21603000  1.0
  C  C34  1  0.31040000  0.69960000  0.59715000  1.0
  C  C35  1  0.68960000  0.40285000  0.30040000  1.0
  C  C36  1  0.47424000  0.71335000  0.52834000  1.0
  C  C37  1  0.52576000  0.47166000  0.28665000  1.0
  C  C38  1  0.49226000  0.80783000  0.42177000  1.0
  C  C39  1  0.50774000  0.57822000  0.19217000  1.0
  C  C40  1  0.29457000  0.26157000  0.96909000  1.0
  C  C41  1  0.70543000  0.03091000  0.73843000  1.0
  C  C42  1  0.29203000  0.36752000  0.87286000  1.0
  C  C43  1  0.70797000  0.12715000  0.63248000  1.0
  C  C44  1  0.39239000  0.44605000  0.85729000  1.0
  C  C45  1  0.60761000  0.14271000  0.55395000  1.0
  C  C46  1  0.49443000  0.40865000  0.93893000  1.0
  C  C47  1  0.50557000  0.06107000  0.59135000  1.0
  C  C48  1  0.48746000  0.30171000  0.03183000  1.0
  C  C49  1  0.51254000  0.96817000  0.69829000  1.0
  C  C50  1  0.10849000  0.27609000  0.42844000  1.0
  C  C51  1  0.89151000  0.57156000  0.72391000  1.0
  C  C52  1  0.96479000  0.39573000  0.53623000  1.0
  C  C53  1  0.03520000  0.46377000  0.60427000  1.0
  C  C54  1  0.24071000  0.88948000  0.04503000  1.0
  C  C55  1  0.75929000  0.95497000  0.11052000  1.0
  C  C56  1  0.04001000  0.95645000  0.10650000  1.0
  C  C57  1  0.96000000  0.89350000  0.04355000  1.0
  N  N58  1  0.27840000  0.61312000  0.70548000  1.0
  N  N59  1  0.72160000  0.29452000  0.38688000  1.0
  N  N60  1  0.39612000  0.55548000  0.77015000  1.0
  N  N61  1  0.60388000  0.22985000  0.44452000  1.0
  N  N62  1  0.36126000  0.89015000  0.37985000  1.0
  N  N63  1  0.63875000  0.62015000  0.10985000  1.0
  N  N64  1  0.38794000  0.22850000  0.04951000  1.0
  N  N65  1  0.61206000  0.95049000  0.77150000  1.0
  O  O66  1  0.27017000  0.24971000  0.39538000  1.0
  O  O67  1  0.72983000  0.60463000  0.75030000  1.0
  O  O68  1  0.06107000  0.20569000  0.37282000  1.0
  O  O69  1  0.93893000  0.62718000  0.79431000  1.0
  O  O70  1  0.31950000  0.94359000  0.08397000  1.0
  O  O71  1  0.68050000  0.91603000  0.05640000  1.0
  O  O72  1  0.32622000  0.78348000  0.95802000  1.0
  O  O73  1  0.67378000  0.04199000  0.21651000  1.0
