# generated using pymatgen
data_CdH28C32(NO)4
_symmetry_space_group_name_H-M   'P 1'
_cell_length_a   10.89380000
_cell_length_b   11.15540000
_cell_length_c   13.51100000
_cell_angle_alpha   84.18990000
_cell_angle_beta   78.03440000
_cell_angle_gamma   60.77270000
_symmetry_Int_Tables_number   1
_chemical_formula_structural   CdH28C32(NO)4
_chemical_formula_sum   'Cd2 H56 C64 N8 O8'
_cell_volume   1401.75314197
_cell_formula_units_Z   2
loop_
 _symmetry_equiv_pos_site_id
 _symmetry_equiv_pos_as_xyz
  1  'x, y, z'
loop_
 _atom_site_type_symbol
 _atom_site_label
 _atom_site_symmetry_multiplicity
 _atom_site_fract_x
 _atom_site_fract_y
 _atom_site_fract_z
 _atom_site_occupancy
  Cd  Cd0  1  0.77794000  0.44415000  0.24995000  1.0
  Cd  Cd1  1  0.22206000  0.55585000  0.75005000  1.0
  H  H2  1  0.70389000  0.39974000  0.50076000  1.0
  H  H3  1  0.89626000  0.40002000  0.99904000  1.0
  H  H4  1  0.29611000  0.60026000  0.49924000  1.0
  H  H5  1  0.10374000  0.59998000  0.00097000  1.0
  H  H6  1  0.73642000  0.45332000  0.66726000  1.0
  H  H7  1  0.80991000  0.45364000  0.83263000  1.0
  H  H8  1  0.26359000  0.54668000  0.33274000  1.0
  H  H9  1  0.19009000  0.54636000  0.16737000  1.0
  H  H10  1  0.82971000  0.62133000  0.66805000  1.0
  H  H11  1  0.54851000  0.62162000  0.83201000  1.0
  H  H12  1  0.17030000  0.37867000  0.33194000  1.0
  H  H13  1  0.45148000  0.37838000  0.16799000  1.0
  H  H14  1  0.90795000  0.78026000  0.57296000  1.0
  H  H15  1  0.31149000  0.78034000  0.92723000  1.0
  H  H16  1  0.09205000  0.21974000  0.42704000  1.0
  H  H17  1  0.68851000  0.21965000  0.07277000  1.0
  H  H18  1  0.94644000  0.89470000  0.40975000  1.0
  H  H19  1  0.15866000  0.89459000  0.09053000  1.0
  H  H20  1  0.05356000  0.10530000  0.59025000  1.0
  H  H21  1  0.84134000  0.10540000  0.90947000  1.0
  H  H22  1  0.94421000  0.92267000  0.22278000  1.0
  H  H23  1  0.13315000  0.92254000  0.27749000  1.0
  H  H24  1  0.05579000  0.07733000  0.77722000  1.0
  H  H25  1  0.86685000  0.07746000  0.72251000  1.0
  H  H26  1  0.92118000  0.83746000  0.06535000  1.0
  H  H27  1  0.24173000  0.83747000  0.43480000  1.0
  H  H28  1  0.07882000  0.16254000  0.93464000  1.0
  H  H29  1  0.75827000  0.16253000  0.56521000  1.0
  H  H30  1  0.85985000  0.64801000  0.08044000  1.0
  H  H31  1  0.49261000  0.64821000  0.41954000  1.0
  H  H32  1  0.14016000  0.35199000  0.91956000  1.0
  H  H33  1  0.50739000  0.35180000  0.58047000  1.0
  H  H34  1  0.28889000  0.21512000  0.20955000  1.0
  H  H35  1  0.49558000  0.21533000  0.29050000  1.0
  H  H36  1  0.71110000  0.78488000  0.79045000  1.0
  H  H37  1  0.50443000  0.78467000  0.70950000  1.0
  H  H38  1  0.25618000  0.07481000  0.22684000  1.0
  H  H39  1  0.66865000  0.07508000  0.27300000  1.0
  H  H40  1  0.74381000  0.92519000  0.77316000  1.0
  H  H41  1  0.33136000  0.92492000  0.72700000  1.0
  H  H42  1  0.29432000  0.21725000  0.02463000  1.0
  H  H43  1  0.48851000  0.21719000  0.47540000  1.0
  H  H44  1  0.70568000  0.78275000  0.97537000  1.0
  H  H45  1  0.51149000  0.78281000  0.52460000  1.0
  H  H46  1  0.25219000  0.08257000  0.03756000  1.0
  H  H47  1  0.66533000  0.08250000  0.46218000  1.0
  H  H48  1  0.74781000  0.91743000  0.96244000  1.0
  H  H49  1  0.33468000  0.91750000  0.53782000  1.0
  H  H50  1  0.48161000  0.92687000  0.10006000  1.0
  H  H51  1  0.59134000  0.92693000  0.39988000  1.0
  H  H52  1  0.51839000  0.07312000  0.89994000  1.0
  H  H53  1  0.40866000  0.07307000  0.60012000  1.0
  H  H54  1  0.52535000  0.06099000  0.08584000  1.0
  H  H55  1  0.41348000  0.06106000  0.41426000  1.0
  H  H56  1  0.47464000  0.93901000  0.91415000  1.0
  H  H57  1  0.58653000  0.93894000  0.58574000  1.0
  C  C58  1  0.74327000  0.47143000  0.50564000  1.0
  C  C59  1  0.78517000  0.47169000  0.99423000  1.0
  C  C60  1  0.25673000  0.52857000  0.49436000  1.0
  C  C61  1  0.21483000  0.52831000  0.00577000  1.0
  C  C62  1  0.76150000  0.50282000  0.59818000  1.0
  C  C63  1  0.73543000  0.50308000  0.90175000  1.0
  C  C64  1  0.23850000  0.49718000  0.40182000  1.0
  C  C65  1  0.26457000  0.49692000  0.09825000  1.0
  C  C66  1  0.81145000  0.59506000  0.59880000  1.0
  C  C67  1  0.59322000  0.59529000  0.90121000  1.0
  C  C68  1  0.18855000  0.40494000  0.40120000  1.0
  C  C69  1  0.40679000  0.40470000  0.09879000  1.0
  C  C70  1  0.84125000  0.65701000  0.50697000  1.0
  C  C71  1  0.50155000  0.65715000  0.99310000  1.0
  C  C72  1  0.15875000  0.34299000  0.49303000  1.0
  C  C73  1  0.49845000  0.34284000  0.00690000  1.0
  C  C74  1  0.88918000  0.75653000  0.50271000  1.0
  C  C75  1  0.35406000  0.75660000  0.99747000  1.0
  C  C76  1  0.11083000  0.24348000  0.49729000  1.0
  C  C77  1  0.64594000  0.24340000  0.00254000  1.0
  C  C78  1  0.91237000  0.81703000  0.41285000  1.0
  C  C79  1  0.27043000  0.81699000  0.08738000  1.0
  C  C80  1  0.08763000  0.18297000  0.58715000  1.0
  C  C81  1  0.72957000  0.18300000  0.91262000  1.0
  C  C82  1  0.89479000  0.77951000  0.32055000  1.0
  C  C83  1  0.32569000  0.77947000  0.17961000  1.0
  C  C84  1  0.10520000  0.22050000  0.67945000  1.0
  C  C85  1  0.67431000  0.22052000  0.82040000  1.0
  C  C86  1  0.91728000  0.83993000  0.22613000  1.0
  C  C87  1  0.24286000  0.83986000  0.27405000  1.0
  C  C88  1  0.08271000  0.16007000  0.77387000  1.0
  C  C89  1  0.75714000  0.16014000  0.72595000  1.0
  C  C90  1  0.90346000  0.79469000  0.13970000  1.0
  C  C91  1  0.30210000  0.79473000  0.36043000  1.0
  C  C92  1  0.09654000  0.20532000  0.86030000  1.0
  C  C93  1  0.69790000  0.20528000  0.63958000  1.0
  C  C94  1  0.86701000  0.68867000  0.14786000  1.0
  C  C95  1  0.44464000  0.68881000  0.35216000  1.0
  C  C96  1  0.13299000  0.31134000  0.85214000  1.0
  C  C97  1  0.55536000  0.31119000  0.64785000  1.0
  C  C98  1  0.85281000  0.67671000  0.32156000  1.0
  C  C99  1  0.47052000  0.67680000  0.17849000  1.0
  C  C100  1  0.14719000  0.32330000  0.67844000  1.0
  C  C101  1  0.52947000  0.32320000  0.82151000  1.0
  C  C102  1  0.82109000  0.61753000  0.41727000  1.0
  C  C103  1  0.56132000  0.61768000  0.08275000  1.0
  C  C104  1  0.17891000  0.38247000  0.58273000  1.0
  C  C105  1  0.43868000  0.38232000  0.91726000  1.0
  C  C106  1  0.07794000  0.26448000  0.19380000  1.0
  C  C107  1  0.65721000  0.26470000  0.30618000  1.0
  C  C108  1  0.92205000  0.73552000  0.80620000  1.0
  C  C109  1  0.34280000  0.73530000  0.69382000  1.0
  C  C110  1  0.23841000  0.16551000  0.17874000  1.0
  C  C111  1  0.59576000  0.16570000  0.32120000  1.0
  C  C112  1  0.76159000  0.83449000  0.82126000  1.0
  C  C113  1  0.40424000  0.83429000  0.67880000  1.0
  C  C114  1  0.30872000  0.12460000  0.06916000  1.0
  C  C115  1  0.56664000  0.12460000  0.43076000  1.0
  C  C116  1  0.69128000  0.87539000  0.93084000  1.0
  C  C117  1  0.43337000  0.87539000  0.56923000  1.0
  C  C118  1  0.46690000  0.01983000  0.05532000  1.0
  C  C119  1  0.51317000  0.01986000  0.44467000  1.0
  C  C120  1  0.53310000  0.98017000  0.94468000  1.0
  C  C121  1  0.48683000  0.98013000  0.55533000  1.0
  N  N122  1  0.77278000  0.52619000  0.41810000  1.0
  N  N123  1  0.70100000  0.52638000  0.08181000  1.0
  N  N124  1  0.22722000  0.47382000  0.58190000  1.0
  N  N125  1  0.29900000  0.47361000  0.91820000  1.0
  N  N126  1  0.84098000  0.63270000  0.23579000  1.0
  N  N127  1  0.52653000  0.63287000  0.26420000  1.0
  N  N128  1  0.15901000  0.36730000  0.76421000  1.0
  N  N129  1  0.47347000  0.36713000  0.73581000  1.0
  O  O130  1  0.02254000  0.33109000  0.11895000  1.0
  O  O131  1  0.64619000  0.33111000  0.38107000  1.0
  O  O132  1  0.97746000  0.66891000  0.88104000  1.0
  O  O133  1  0.35382000  0.66889000  0.61893000  1.0
  O  O134  1  0.00639000  0.27637000  0.28397000  1.0
  O  O135  1  0.71667000  0.27681000  0.21600000  1.0
  O  O136  1  0.99360000  0.72362000  0.71602000  1.0
  O  O137  1  0.28333000  0.72319000  0.78400000  1.0
