# generated using pymatgen
data_Zn8H35C70IO26
_symmetry_space_group_name_H-M   'P 1'
_cell_length_a   18.17680000
_cell_length_b   18.26594822
_cell_length_c   18.28240000
_cell_angle_alpha   60.33331010
_cell_angle_beta   60.29100000
_cell_angle_gamma   60.77403933
_symmetry_Int_Tables_number   1
_chemical_formula_structural   Zn8H35C70IO26
_chemical_formula_sum   'Zn8 H35 C70 I1 O26'
_cell_volume   4337.21690735
_cell_formula_units_Z   1
loop_
 _symmetry_equiv_pos_site_id
 _symmetry_equiv_pos_as_xyz
  1  'x, y, z'
loop_
 _atom_site_type_symbol
 _atom_site_label
 _atom_site_symmetry_multiplicity
 _atom_site_fract_x
 _atom_site_fract_y
 _atom_site_fract_z
 _atom_site_occupancy
  Zn  Zn0  1  0.53309000  0.54550000  0.05427000  1.0
  Zn  Zn1  1  0.54186000  0.55126000  0.86703000  1.0
  Zn  Zn2  1  0.36586000  0.54860000  0.03941000  1.0
  Zn  Zn3  1  0.54460000  0.37594000  0.03866000  1.0
  Zn  Zn4  1  0.94505000  0.96123000  0.45795000  1.0
  Zn  Zn5  1  0.12346000  0.95922000  0.45539000  1.0
  Zn  Zn6  1  0.95074000  0.96417000  0.62905000  1.0
  Zn  Zn7  1  0.95174000  0.13623000  0.45128000  1.0
  H  H8  1  0.66957000  0.28270000  0.38745000  1.0
  H  H9  1  0.11254000  0.29306000  0.24309000  1.0
  H  H10  1  0.65277000  0.40327000  0.69270000  1.0
  H  H11  1  0.60255000  0.22802000  0.31720000  1.0
  H  H12  1  0.75159000  0.25232000  0.94684000  1.0
  H  H13  1  0.87804000  0.12289000  0.98554000  1.0
  H  H14  1  0.98160000  0.03037000  0.88602000  1.0
  H  H15  1  0.95584000  0.06669000  0.75022000  1.0
  H  H16  1  0.75137000  0.30608000  0.59735000  1.0
  H  H17  1  0.19927000  0.74697000  0.89327000  1.0
  H  H18  1  0.45056000  0.55554000  0.73195000  1.0
  H  H19  1  0.23318000  0.56242000  0.55416000  1.0
  H  H20  1  0.48656000  0.52598000  0.59833000  1.0
  H  H21  1  0.38460000  0.61731000  0.50747000  1.0
  H  H22  1  0.24971000  0.73846000  0.54914000  1.0
  H  H23  1  0.77163000  0.09472000  0.27977000  1.0
  H  H24  1  0.10024000  0.84240000  0.79931000  1.0
  H  H25  1  0.62728000  0.77902000  0.87940000  1.0
  H  H26  1  0.94447000  0.45482000  0.70053000  1.0
  H  H27  1  0.02261000  0.56351000  0.57762000  1.0
  H  H28  1  0.96810000  0.71591000  0.57951000  1.0
  H  H29  1  0.72627000  0.87409000  0.77768000  1.0
  H  H30  1  0.16258000  0.72171000  0.48327000  1.0
  H  H31  1  0.82699000  0.21840000  0.10663000  1.0
  H  H32  1  0.89346000  0.27422000  0.17649000  1.0
  H  H33  1  0.72375000  0.40706000  0.21466000  1.0
  H  H34  1  0.24326000  0.80523000  0.09801000  1.0
  H  H35  1  0.36274000  0.52214000  0.29979000  1.0
  H  H36  1  0.33402000  0.46240000  0.46201000  1.0
  H  H37  1  0.14663000  0.90606000  0.18940000  1.0
  H  H38  1  0.20821000  0.39146000  0.15053000  1.0
  H  H39  1  0.44689000  0.24787000  0.26984000  1.0
  H  H40  1  0.48100000  0.11685000  0.39850000  1.0
  H  H41  1  0.38458000  0.01919000  0.49200000  1.0
  H  H42  1  0.25553000  0.05250000  0.45608000  1.0
  C  C43  1  0.64152000  0.37212000  0.85351000  1.0
  C  C44  1  0.20623000  0.67847000  0.44274000  1.0
  C  C45  1  0.22057000  0.71499000  0.34956000  1.0
  C  C46  1  0.34819000  0.63928000  0.14365000  1.0
  C  C47  1  0.27755000  0.65741000  0.29663000  1.0
  C  C48  1  0.28638000  0.69335000  0.20429000  1.0
  C  C49  1  0.23765000  0.78034000  0.16785000  1.0
  C  C50  1  0.18307000  0.83702000  0.21932000  1.0
  C  C51  1  0.17668000  0.80603000  0.30756000  1.0
  C  C52  1  0.40441000  0.20585000  0.31053000  1.0
  C  C53  1  0.42361000  0.13234000  0.38232000  1.0
  C  C54  1  0.76088000  0.16435000  0.26458000  1.0
  C  C55  1  0.36922000  0.07709000  0.43511000  1.0
  C  C56  1  0.29661000  0.09590000  0.41524000  1.0
  C  C57  1  0.27430000  0.17130000  0.34195000  1.0
  C  C58  1  0.64206000  0.63248000  0.87614000  1.0
  C  C59  1  0.32970000  0.22796000  0.28824000  1.0
  C  C60  1  0.30504000  0.30639000  0.21712000  1.0
  C  C61  1  0.22667000  0.33014000  0.20354000  1.0
  C  C62  1  0.17304000  0.27492000  0.25546000  1.0
  C  C63  1  0.19697000  0.19566000  0.32161000  1.0
  C  C64  1  0.79603000  0.21266000  0.90303000  1.0
  C  C65  1  0.79246000  0.23221000  0.16954000  1.0
  C  C66  1  0.86687000  0.13978000  0.92485000  1.0
  C  C67  1  0.92504000  0.08738000  0.86892000  1.0
  C  C68  1  0.91089000  0.10782000  0.79258000  1.0
  C  C69  1  0.83836000  0.18228000  0.76783000  1.0
  C  C70  1  0.36201000  0.36506000  0.15256000  1.0
  C  C71  1  0.77984000  0.23696000  0.82412000  1.0
  C  C72  1  0.71047000  0.31563000  0.79617000  1.0
  C  C73  1  0.70377000  0.34135000  0.71398000  1.0
  C  C74  1  0.75937000  0.28718000  0.66025000  1.0
  C  C75  1  0.82323000  0.20732000  0.68742000  1.0
  C  C76  1  0.82831000  0.26457000  0.20704000  1.0
  C  C77  1  0.40605000  0.59557000  0.69266000  1.0
  C  C78  1  0.42623000  0.57936000  0.61767000  1.0
  C  C79  1  0.36896000  0.63098000  0.56621000  1.0
  C  C80  1  0.29274000  0.69871000  0.58991000  1.0
  C  C81  1  0.26935000  0.71758000  0.66684000  1.0
  C  C82  1  0.35891000  0.63070000  0.85766000  1.0
  C  C83  1  0.32731000  0.66399000  0.72003000  1.0
  C  C84  1  0.30106000  0.67875000  0.80075000  1.0
  C  C85  1  0.21905000  0.73955000  0.82985000  1.0
  C  C86  1  0.16335000  0.79273000  0.77741000  1.0
  C  C87  1  0.73524000  0.33736000  0.22945000  1.0
  C  C88  1  0.18868000  0.78481000  0.69594000  1.0
  C  C89  1  0.83843000  0.55001000  0.76422000  1.0
  C  C90  1  0.91637000  0.52373000  0.69815000  1.0
  C  C91  1  0.96136000  0.58506000  0.62955000  1.0
  C  C92  1  0.93082000  0.67016000  0.63035000  1.0
  C  C93  1  0.85064000  0.69968000  0.69678000  1.0
  C  C94  1  0.64264000  0.36406000  0.13394000  1.0
  C  C95  1  0.79911000  0.63987000  0.76329000  1.0
  C  C96  1  0.71478000  0.67404000  0.82443000  1.0
  C  C97  1  0.69082000  0.75588000  0.83041000  1.0
  C  C98  1  0.69967000  0.30629000  0.19107000  1.0
  C  C99  1  0.74518000  0.81015000  0.77201000  1.0
  C  C100  1  0.82098000  0.78551000  0.70336000  1.0
  C  C101  1  0.13872000  0.13861000  0.36845000  1.0
  C  C102  1  0.86828000  0.85313000  0.63953000  1.0
  C  C103  1  0.12346000  0.86976000  0.35835000  1.0
  C  C104  1  0.87071000  0.14866000  0.63167000  1.0
  C  C105  1  0.13060000  0.85155000  0.63974000  1.0
  C  C106  1  0.66793000  0.23722000  0.28691000  1.0
  C  C107  1  0.84998000  0.13988000  0.36345000  1.0
  C  C108  1  0.70364000  0.26956000  0.32423000  1.0
  C  C109  1  0.31873000  0.56614000  0.33947000  1.0
  C  C110  1  0.79740000  0.19558000  0.30199000  1.0
  C  C111  1  0.30285000  0.53287000  0.43018000  1.0
  C  C112  1  0.24584000  0.58932000  0.48238000  1.0
  I  I113  1  0.79415000  0.44392000  0.87411000  1.0
  O  O114  1  0.49691000  0.50616000  0.99818000  1.0
  O  O115  1  0.89356000  0.06462000  0.67216000  1.0
  O  O116  1  0.16973000  0.87921000  0.55556000  1.0
  O  O117  1  0.61356000  0.33189000  0.93746000  1.0
  O  O118  1  0.88325000  0.18036000  0.37379000  1.0
  O  O119  1  0.04645000  0.87815000  0.68070000  1.0
  O  O120  1  0.85680000  0.05741000  0.40135000  1.0
  O  O121  1  0.04180000  0.91114000  0.36316000  1.0
  O  O122  1  0.88175000  0.18717000  0.54832000  1.0
  O  O123  1  0.17667000  0.05426000  0.38992000  1.0
  O  O124  1  0.86835000  0.89925000  0.67388000  1.0
  O  O125  1  0.60473000  0.62295000  0.95913000  1.0
  O  O126  1  0.42925000  0.60053000  0.14189000  1.0
  O  O127  1  0.61943000  0.61833000  0.82965000  1.0
  O  O128  1  0.32061000  0.44844000  0.12699000  1.0
  O  O129  1  0.44247000  0.62006000  0.81864000  1.0
  O  O130  1  0.63388000  0.32646000  0.09663000  1.0
  O  O131  1  0.31826000  0.60633000  0.94188000  1.0
  O  O132  1  0.60533000  0.44576000  0.12844000  1.0
  O  O133  1  0.44658000  0.32717000  0.12623000  1.0
  O  O134  1  0.61388000  0.45580000  0.81370000  1.0
  O  O135  1  0.31535000  0.63791000  0.09694000  1.0
  O  O136  1  0.99258000  0.00560000  0.49823000  1.0
  O  O137  1  0.05535000  0.17947000  0.38092000  1.0
  O  O138  1  0.90219000  0.86210000  0.55647000  1.0
  O  O139  1  0.16516000  0.87781000  0.39183000  1.0
