# generated using pymatgen
data_AlH13C16O9
_symmetry_space_group_name_H-M   'P 1'
_cell_length_a   6.64252000
_cell_length_b   20.80390000
_cell_length_c   23.64780000
_cell_angle_alpha   89.94740000
_cell_angle_beta   90.01480000
_cell_angle_gamma   89.56840000
_symmetry_Int_Tables_number   1
_chemical_formula_structural   AlH13C16O9
_chemical_formula_sum   'Al4 H52 C64 O36'
_cell_volume   3267.80288469
_cell_formula_units_Z   4
loop_
 _symmetry_equiv_pos_site_id
 _symmetry_equiv_pos_as_xyz
  1  'x, y, z'
loop_
 _atom_site_type_symbol
 _atom_site_label
 _atom_site_symmetry_multiplicity
 _atom_site_fract_x
 _atom_site_fract_y
 _atom_site_fract_z
 _atom_site_occupancy
  Al  Al0  1  0.23697000  0.75049000  0.25128000  1.0
  Al  Al1  1  0.76589000  0.24815000  0.74828000  1.0
  Al  Al2  1  0.73720000  0.74755000  0.25144000  1.0
  Al  Al3  1  0.26533000  0.25071000  0.74827000  1.0
  H  H4  1  0.21893000  0.67112000  0.48596000  1.0
  H  H5  1  0.37716000  0.63918000  0.43097000  1.0
  H  H6  1  0.48610000  0.66369000  0.49666000  1.0
  H  H7  1  0.62355000  0.36257000  0.57072000  1.0
  H  H8  1  0.78328000  0.33155000  0.51561000  1.0
  H  H9  1  0.51627000  0.33846000  0.50470000  1.0
  H  H10  1  0.58899000  0.40711000  0.92725000  1.0
  H  H11  1  0.46909000  0.44444000  0.98713000  1.0
  H  H12  1  0.47589000  0.35827000  0.98084000  1.0
  H  H13  1  0.15855000  0.68355000  0.03566000  1.0
  H  H14  1  0.06510000  0.67900000  0.96439000  1.0
  H  H15  1  0.32298000  0.70014000  0.97749000  1.0
  H  H16  1  0.91066000  0.90454000  0.07426000  1.0
  H  H17  1  0.03291000  0.94279000  0.01544000  1.0
  H  H18  1  0.02802000  0.85651000  0.02050000  1.0
  H  H19  1  0.34366000  0.18478000  0.96444000  1.0
  H  H20  1  0.43768000  0.17907000  0.03562000  1.0
  H  H21  1  0.17982000  0.20177000  0.02282000  1.0
  H  H22  1  0.09734000  0.09667000  0.57435000  1.0
  H  H23  1  0.96998000  0.05706000  0.51709000  1.0
  H  H24  1  0.97625000  0.14343000  0.52035000  1.0
  H  H25  1  0.65925000  0.81363000  0.46415000  1.0
  H  H26  1  0.55447000  0.81952000  0.53414000  1.0
  H  H27  1  0.81338000  0.79617000  0.52455000  1.0
  H  H28  1  0.26631000  0.53908000  0.64039000  1.0
  H  H29  1  0.46034000  0.56461000  0.59225000  1.0
  H  H30  1  0.50343000  0.49729000  0.63863000  1.0
  H  H31  1  0.53561000  0.43834000  0.41084000  1.0
  H  H32  1  0.73368000  0.46126000  0.36304000  1.0
  H  H33  1  0.49961000  0.50478000  0.36303000  1.0
  H  H34  1  0.89930000  0.45611000  0.14859000  1.0
  H  H35  1  0.75105000  0.39991000  0.10835000  1.0
  H  H36  1  0.63123000  0.45403000  0.15747000  1.0
  H  H37  1  0.20209000  0.60345000  0.87622000  1.0
  H  H38  1  0.07090000  0.53805000  0.84277000  1.0
  H  H39  1  0.33517000  0.54891000  0.83050000  1.0
  H  H40  1  0.60152000  0.95749000  0.85213000  1.0
  H  H41  1  0.74879000  0.89958000  0.89163000  1.0
  H  H42  1  0.86925000  0.95318000  0.84257000  1.0
  H  H43  1  0.29744000  0.10323000  0.12458000  1.0
  H  H44  1  0.42714000  0.03641000  0.15738000  1.0
  H  H45  1  0.16270000  0.04857000  0.16930000  1.0
  H  H46  1  0.39416000  0.04320000  0.35169000  1.0
  H  H47  1  0.24511000  0.09944000  0.39242000  1.0
  H  H48  1  0.12577000  0.04596000  0.34308000  1.0
  H  H49  1  0.68821000  0.89888000  0.62777000  1.0
  H  H50  1  0.57070000  0.96949000  0.65775000  1.0
  H  H51  1  0.83276000  0.95329000  0.67026000  1.0
  H  H52  1  0.48296000  0.67022000  0.22725000  1.0
  H  H53  1  0.51878000  0.32789000  0.77321000  1.0
  H  H54  1  0.97933000  0.82951000  0.22953000  1.0
  H  H55  1  0.02248000  0.17116000  0.77356000  1.0
  C  C56  1  0.49370000  0.82490000  0.32712000  1.0
  C  C57  1  0.50996000  0.17488000  0.67127000  1.0
  C  C58  1  0.52045000  0.17150000  0.82537000  1.0
  C  C59  1  0.48100000  0.82606000  0.17381000  1.0
  C  C60  1  0.98462000  0.67139000  0.17455000  1.0
  C  C61  1  0.01766000  0.32642000  0.82607000  1.0
  C  C62  1  0.00678000  0.32523000  0.67205000  1.0
  C  C63  1  0.99757000  0.67534000  0.32883000  1.0
  C  C64  1  0.16384000  0.49222000  0.53819000  1.0
  C  C65  1  0.83652000  0.51044000  0.46412000  1.0
  C  C66  1  0.85935000  0.49846000  0.04163000  1.0
  C  C67  1  0.13247000  0.50909000  0.95111000  1.0
  C  C68  1  0.64474000  0.99826000  0.95891000  1.0
  C  C69  1  0.36875000  0.00965000  0.04872000  1.0
  C  C70  1  0.35630000  0.00051000  0.45842000  1.0
  C  C71  1  0.63254000  0.98935000  0.54829000  1.0
  C  C72  1  0.99532000  0.45036000  0.54038000  1.0
  C  C73  1  0.00499000  0.55231000  0.46200000  1.0
  C  C74  1  0.99361000  0.55131000  0.03899000  1.0
  C  C75  1  0.00252000  0.45574000  0.95475000  1.0
  C  C76  1  0.51028000  0.05171000  0.96132000  1.0
  C  C77  1  0.49950000  0.95586000  0.04538000  1.0
  C  C78  1  0.49010000  0.94687000  0.46121000  1.0
  C  C79  1  0.50281000  0.04337000  0.54449000  1.0
  C  C80  1  0.83092000  0.45874000  0.50239000  1.0
  C  C81  1  0.16929000  0.54395000  0.50001000  1.0
  C  C82  1  0.12804000  0.55727000  0.99264000  1.0
  C  C83  1  0.86506000  0.45054000  0.00022000  1.0
  C  C84  1  0.37426000  0.05802000  0.00733000  1.0
  C  C85  1  0.63860000  0.95029000  0.00029000  1.0
  C  C86  1  0.62547000  0.94051000  0.50746000  1.0
  C  C87  1  0.36305000  0.04879000  0.49946000  1.0
  C  C88  1  0.99626000  0.40492000  0.58465000  1.0
  C  C89  1  0.00487000  0.59744000  0.41750000  1.0
  C  C90  1  0.99440000  0.59426000  0.08511000  1.0
  C  C91  1  0.00730000  0.40899000  0.91160000  1.0
  C  C92  1  0.51073000  0.09478000  0.91521000  1.0
  C  C93  1  0.49322000  0.90890000  0.08840000  1.0
  C  C94  1  0.49060000  0.90362000  0.41537000  1.0
  C  C95  1  0.50929000  0.09074000  0.58702000  1.0
  C  C96  1  0.99625000  0.63324000  0.37673000  1.0
  C  C97  1  0.00654000  0.36862000  0.62505000  1.0
  C  C98  1  0.01128000  0.37000000  0.87324000  1.0
  C  C99  1  0.99202000  0.62903000  0.12653000  1.0
  C  C100  1  0.48758000  0.86975000  0.12666000  1.0
  C  C101  1  0.51454000  0.12952000  0.87372000  1.0
  C  C102  1  0.51188000  0.13058000  0.62468000  1.0
  C  C103  1  0.49028000  0.86826000  0.37433000  1.0
  C  C104  1  0.35380000  0.64200000  0.47678000  1.0
  C  C105  1  0.64768000  0.36020000  0.52493000  1.0
  C  C106  1  0.55794000  0.40282000  0.97275000  1.0
  C  C107  1  0.19665000  0.67082000  0.99193000  1.0
  C  C108  1  0.94441000  0.90108000  0.02885000  1.0
  C  C109  1  0.30585000  0.17188000  0.00813000  1.0
  C  C110  1  0.05988000  0.09897000  0.52911000  1.0
  C  C111  1  0.69058000  0.82641000  0.50826000  1.0
  C  C112  1  0.39126000  0.52306000  0.61305000  1.0
  C  C113  1  0.60854000  0.47883000  0.38954000  1.0
  C  C114  1  0.75444000  0.44826000  0.12704000  1.0
  C  C115  1  0.21427000  0.55325000  0.86183000  1.0
  C  C116  1  0.74674000  0.94817000  0.87327000  1.0
  C  C117  1  0.28441000  0.05282000  0.13826000  1.0
  C  C118  1  0.24934000  0.05125000  0.37340000  1.0
  C  C119  1  0.71034000  0.94961000  0.63939000  1.0
  O  O120  1  0.64824000  0.81377000  0.19816000  1.0
  O  O121  1  0.35237000  0.18452000  0.80171000  1.0
  O  O122  1  0.34017000  0.19910000  0.68474000  1.0
  O  O123  1  0.66274000  0.79909000  0.31506000  1.0
  O  O124  1  0.16605000  0.70040000  0.31584000  1.0
  O  O125  1  0.83787000  0.30083000  0.68557000  1.0
  O  O126  1  0.84973000  0.31329000  0.80279000  1.0
  O  O127  1  0.15136000  0.68368000  0.19888000  1.0
  O  O128  1  0.32801000  0.81626000  0.30117000  1.0
  O  O129  1  0.67770000  0.18495000  0.69564000  1.0
  O  O130  1  0.69346000  0.19151000  0.81053000  1.0
  O  O131  1  0.30819000  0.80468000  0.18726000  1.0
  O  O132  1  0.81092000  0.69248000  0.18841000  1.0
  O  O133  1  0.19133000  0.30586000  0.81155000  1.0
  O  O134  1  0.17445000  0.31512000  0.69691000  1.0
  O  O135  1  0.83127000  0.68356000  0.30276000  1.0
  O  O136  1  0.48625000  0.70953000  0.24925000  1.0
  O  O137  1  0.51627000  0.28865000  0.75112000  1.0
  O  O138  1  0.98444000  0.78848000  0.24894000  1.0
  O  O139  1  0.01801000  0.20992000  0.75073000  1.0
  O  O140  1  0.33993000  0.57940000  0.50196000  1.0
  O  O141  1  0.66071000  0.42324000  0.50036000  1.0
  O  O142  1  0.74303000  0.39782000  0.00485000  1.0
  O  O143  1  0.26574000  0.60524000  0.98708000  1.0
  O  O144  1  0.76128000  0.89713000  0.99584000  1.0
  O  O145  1  0.23638000  0.10661000  0.01268000  1.0
  O  O146  1  0.24034000  0.10183000  0.49479000  1.0
  O  O147  1  0.76103000  0.89140000  0.51370000  1.0
  O  O148  1  0.32179000  0.47676000  0.57264000  1.0
  O  O149  1  0.67938000  0.52569000  0.42936000  1.0
  O  O150  1  0.72160000  0.49702000  0.08465000  1.0
  O  O151  1  0.26934000  0.51123000  0.90764000  1.0
  O  O152  1  0.78280000  0.99607000  0.91594000  1.0
  O  O153  1  0.23004000  0.01207000  0.09173000  1.0
  O  O154  1  0.21833000  0.00225000  0.41551000  1.0
  O  O155  1  0.77161000  0.98676000  0.59123000  1.0
