# generated using pymatgen
data_ZnH10C7(NO3)2
_symmetry_space_group_name_H-M   'P 1'
_cell_length_a   8.05189000
_cell_length_b   9.26929000
_cell_length_c   26.68900000
_cell_angle_alpha   89.99950000
_cell_angle_beta   90.00080000
_cell_angle_gamma   89.99920000
_symmetry_Int_Tables_number   1
_chemical_formula_structural   ZnH10C7(NO3)2
_chemical_formula_sum   'Zn8 H80 C56 N16 O48'
_cell_volume   1991.94161353
_cell_formula_units_Z   8
loop_
 _symmetry_equiv_pos_site_id
 _symmetry_equiv_pos_as_xyz
  1  'x, y, z'
loop_
 _atom_site_type_symbol
 _atom_site_label
 _atom_site_symmetry_multiplicity
 _atom_site_fract_x
 _atom_site_fract_y
 _atom_site_fract_z
 _atom_site_occupancy
  Zn  Zn0  1  0.49562000  0.88906000  0.63016000  1.0
  Zn  Zn1  1  0.50436000  0.61096000  0.13016000  1.0
  Zn  Zn2  1  0.00438000  0.38911000  0.36984000  1.0
  Zn  Zn3  1  0.99561000  0.11091000  0.86984000  1.0
  Zn  Zn4  1  0.50439000  0.11093000  0.36983000  1.0
  Zn  Zn5  1  0.49561000  0.38906000  0.86983000  1.0
  Zn  Zn6  1  0.99562000  0.61094000  0.63017000  1.0
  Zn  Zn7  1  0.00438000  0.88906000  0.13016000  1.0
  H  H8  1  0.65763000  0.13009000  0.51237000  1.0
  H  H9  1  0.34235000  0.36993000  0.01236000  1.0
  H  H10  1  0.84242000  0.63009000  0.48763000  1.0
  H  H11  1  0.15765000  0.86993000  0.98764000  1.0
  H  H12  1  0.34241000  0.86994000  0.48764000  1.0
  H  H13  1  0.65760000  0.63004000  0.98763000  1.0
  H  H14  1  0.15760000  0.36992000  0.51236000  1.0
  H  H15  1  0.84235000  0.13007000  0.01237000  1.0
  H  H16  1  0.81289000  0.90860000  0.51390000  1.0
  H  H17  1  0.18715000  0.59141000  0.01391000  1.0
  H  H18  1  0.68715000  0.40859000  0.48609000  1.0
  H  H19  1  0.31284000  0.09146000  0.98608000  1.0
  H  H20  1  0.18714000  0.09141000  0.48609000  1.0
  H  H21  1  0.81288000  0.40858000  0.98608000  1.0
  H  H22  1  0.31286000  0.59139000  0.51391000  1.0
  H  H23  1  0.68718000  0.90854000  0.01392000  1.0
  H  H24  1  0.92978000  0.04569000  0.54263000  1.0
  H  H25  1  0.07020000  0.45432000  0.04262000  1.0
  H  H26  1  0.57023000  0.54570000  0.45737000  1.0
  H  H27  1  0.42978000  0.95432000  0.95739000  1.0
  H  H28  1  0.07023000  0.95430000  0.45737000  1.0
  H  H29  1  0.92976000  0.54570000  0.95737000  1.0
  H  H30  1  0.42978000  0.45428000  0.54263000  1.0
  H  H31  1  0.57021000  0.04566000  0.04261000  1.0
  H  H32  1  0.66027000  0.70920000  0.72513000  1.0
  H  H33  1  0.33975000  0.79081000  0.22513000  1.0
  H  H34  1  0.83976000  0.20923000  0.27487000  1.0
  H  H35  1  0.16026000  0.29077000  0.77489000  1.0
  H  H36  1  0.33974000  0.29076000  0.27486000  1.0
  H  H37  1  0.66026000  0.20924000  0.77486000  1.0
  H  H38  1  0.16023000  0.79082000  0.72513000  1.0
  H  H39  1  0.83978000  0.70920000  0.22513000  1.0
  H  H40  1  0.35273000  0.96455000  0.81869000  1.0
  H  H41  1  0.64726000  0.53543000  0.31870000  1.0
  H  H42  1  0.14733000  0.46456000  0.18131000  1.0
  H  H43  1  0.85277000  0.03547000  0.68129000  1.0
  H  H44  1  0.64736000  0.03543000  0.18131000  1.0
  H  H45  1  0.35267000  0.46456000  0.68130000  1.0
  H  H46  1  0.85271000  0.53544000  0.81869000  1.0
  H  H47  1  0.14726000  0.96457000  0.31870000  1.0
  H  H48  1  0.30923000  0.04663000  0.71966000  1.0
  H  H49  1  0.69074000  0.45335000  0.21966000  1.0
  H  H50  1  0.19082000  0.54662000  0.28035000  1.0
  H  H51  1  0.80922000  0.95336000  0.78033000  1.0
  H  H52  1  0.69083000  0.95339000  0.28036000  1.0
  H  H53  1  0.30920000  0.54664000  0.78033000  1.0
  H  H54  1  0.80925000  0.45336000  0.71965000  1.0
  H  H55  1  0.19076000  0.04666000  0.21967000  1.0
  H  H56  1  0.56715000  0.76033000  0.81633000  1.0
  H  H57  1  0.43285000  0.73967000  0.31634000  1.0
  H  H58  1  0.93287000  0.26038000  0.18366000  1.0
  H  H59  1  0.06720000  0.23966000  0.68367000  1.0
  H  H60  1  0.43288000  0.23960000  0.18366000  1.0
  H  H61  1  0.56713000  0.26036000  0.68365000  1.0
  H  H62  1  0.06711000  0.73966000  0.81634000  1.0
  H  H63  1  0.93287000  0.76033000  0.31634000  1.0
  H  H64  1  0.24132000  0.05869000  0.61119000  1.0
  H  H65  1  0.75867000  0.44131000  0.11120000  1.0
  H  H66  1  0.25870000  0.55872000  0.38880000  1.0
  H  H67  1  0.74132000  0.94126000  0.88881000  1.0
  H  H68  1  0.75868000  0.94132000  0.38881000  1.0
  H  H69  1  0.24130000  0.55869000  0.88880000  1.0
  H  H70  1  0.74133000  0.44131000  0.61120000  1.0
  H  H71  1  0.25865000  0.05871000  0.11119000  1.0
  H  H72  1  0.16710000  0.89706000  0.61470000  1.0
  H  H73  1  0.83291000  0.60294000  0.11471000  1.0
  H  H74  1  0.33294000  0.39709000  0.38530000  1.0
  H  H75  1  0.66709000  0.10289000  0.88528000  1.0
  H  H76  1  0.83294000  0.10293000  0.38530000  1.0
  H  H77  1  0.16707000  0.39706000  0.88529000  1.0
  H  H78  1  0.66710000  0.60294000  0.61470000  1.0
  H  H79  1  0.33291000  0.89709000  0.11471000  1.0
  H  H80  1  0.42454000  0.05992000  0.55518000  1.0
  H  H81  1  0.57544000  0.44005000  0.05520000  1.0
  H  H82  1  0.07549000  0.55991000  0.44482000  1.0
  H  H83  1  0.92454000  0.94009000  0.94483000  1.0
  H  H84  1  0.57548000  0.94012000  0.44482000  1.0
  H  H85  1  0.42453000  0.55987000  0.94482000  1.0
  H  H86  1  0.92454000  0.44007000  0.55518000  1.0
  H  H87  1  0.07543000  0.05996000  0.05519000  1.0
  C  C88  1  0.66610000  0.07544000  0.54888000  1.0
  C  C89  1  0.33388000  0.42454000  0.04888000  1.0
  C  C90  1  0.83393000  0.57545000  0.45113000  1.0
  C  C91  1  0.16610000  0.92456000  0.95113000  1.0
  C  C92  1  0.33392000  0.92457000  0.45113000  1.0
  C  C93  1  0.66608000  0.57542000  0.95112000  1.0
  C  C94  1  0.16609000  0.42454000  0.54887000  1.0
  C  C95  1  0.83388000  0.07545000  0.04888000  1.0
  C  C96  1  0.67594000  0.19299000  0.58932000  1.0
  C  C97  1  0.32400000  0.30697000  0.08931000  1.0
  C  C98  1  0.82408000  0.69301000  0.41068000  1.0
  C  C99  1  0.17593000  0.80700000  0.91069000  1.0
  C  C100  1  0.32409000  0.80702000  0.41068000  1.0
  C  C101  1  0.67591000  0.69298000  0.91068000  1.0
  C  C102  1  0.17595000  0.30699000  0.58932000  1.0
  C  C103  1  0.82401000  0.19302000  0.08932000  1.0
  C  C104  1  0.81895000  0.97762000  0.54749000  1.0
  C  C105  1  0.18104000  0.52238000  0.04749000  1.0
  C  C106  1  0.68108000  0.47764000  0.45251000  1.0
  C  C107  1  0.31894000  0.02238000  0.95251000  1.0
  C  C108  1  0.18106000  0.02238000  0.45250000  1.0
  C  C109  1  0.81894000  0.47762000  0.95250000  1.0
  C  C110  1  0.31894000  0.52235000  0.54749000  1.0
  C  C111  1  0.68106000  0.97761000  0.04750000  1.0
  C  C112  1  0.85070000  0.87749000  0.59161000  1.0
  C  C113  1  0.14929000  0.62250000  0.09162000  1.0
  C  C114  1  0.64933000  0.37750000  0.40839000  1.0
  C  C115  1  0.35069000  0.12249000  0.90838000  1.0
  C  C116  1  0.14931000  0.12252000  0.40839000  1.0
  C  C117  1  0.85069000  0.37748000  0.90838000  1.0
  C  C118  1  0.35068000  0.62250000  0.59161000  1.0
  C  C119  1  0.64931000  0.87750000  0.09162000  1.0
  C  C120  1  0.57134000  0.79061000  0.73646000  1.0
  C  C121  1  0.42867000  0.70940000  0.23647000  1.0
  C  C122  1  0.92868000  0.29064000  0.26354000  1.0
  C  C123  1  0.07134000  0.20937000  0.76354000  1.0
  C  C124  1  0.42869000  0.20937000  0.26353000  1.0
  C  C125  1  0.57132000  0.29063000  0.76352000  1.0
  C  C126  1  0.07132000  0.70940000  0.73647000  1.0
  C  C127  1  0.92868000  0.79062000  0.23646000  1.0
  C  C128  1  0.41052000  0.92513000  0.78475000  1.0
  C  C129  1  0.58947000  0.57486000  0.28476000  1.0
  C  C130  1  0.08952000  0.42514000  0.21525000  1.0
  C  C131  1  0.91053000  0.07488000  0.71524000  1.0
  C  C132  1  0.58953000  0.07484000  0.21525000  1.0
  C  C133  1  0.41048000  0.42514000  0.71523000  1.0
  C  C134  1  0.91051000  0.57486000  0.78475000  1.0
  C  C135  1  0.08948000  0.92515000  0.28476000  1.0
  C  C136  1  0.38969000  0.96553000  0.73568000  1.0
  C  C137  1  0.61029000  0.53446000  0.23568000  1.0
  C  C138  1  0.11036000  0.46553000  0.26432000  1.0
  C  C139  1  0.88968000  0.03447000  0.76431000  1.0
  C  C140  1  0.61036000  0.03447000  0.26433000  1.0
  C  C141  1  0.38965000  0.46553000  0.76431000  1.0
  C  C142  1  0.88970000  0.53446000  0.73568000  1.0
  C  C143  1  0.11030000  0.96556000  0.23569000  1.0
  N  N144  1  0.49093000  0.88077000  0.70584000  1.0
  N  N145  1  0.50907000  0.61923000  0.20585000  1.0
  N  N146  1  0.00911000  0.38079000  0.29416000  1.0
  N  N147  1  0.99091000  0.11921000  0.79415000  1.0
  N  N148  1  0.50911000  0.11923000  0.29415000  1.0
  N  N149  1  0.49090000  0.38078000  0.79414000  1.0
  N  N150  1  0.99093000  0.61923000  0.70585000  1.0
  N  N151  1  0.00908000  0.88080000  0.20585000  1.0
  N  N152  1  0.52521000  0.81482000  0.78441000  1.0
  N  N153  1  0.47479000  0.68518000  0.28441000  1.0
  N  N154  1  0.97482000  0.31485000  0.21559000  1.0
  N  N155  1  0.02523000  0.18518000  0.71559000  1.0
  N  N156  1  0.47483000  0.18514000  0.21559000  1.0
  N  N157  1  0.52518000  0.31484000  0.71558000  1.0
  N  N158  1  0.02518000  0.68518000  0.78441000  1.0
  N  N159  1  0.97481000  0.81483000  0.28441000  1.0
  O  O160  1  0.51770000  0.99071000  0.55567000  1.0
  O  O161  1  0.48228000  0.50926000  0.05568000  1.0
  O  O162  1  0.98232000  0.49071000  0.44433000  1.0
  O  O163  1  0.01770000  0.00929000  0.94434000  1.0
  O  O164  1  0.48230000  0.00932000  0.44433000  1.0
  O  O165  1  0.51770000  0.49067000  0.94433000  1.0
  O  O166  1  0.01770000  0.50928000  0.55567000  1.0
  O  O167  1  0.98229000  0.99074000  0.05568000  1.0
  O  O168  1  0.60731000  0.16722000  0.63086000  1.0
  O  O169  1  0.39261000  0.33272000  0.13086000  1.0
  O  O170  1  0.89269000  0.66722000  0.36914000  1.0
  O  O171  1  0.10729000  0.83279000  0.86915000  1.0
  O  O172  1  0.39270000  0.83281000  0.36914000  1.0
  O  O173  1  0.60729000  0.66720000  0.86914000  1.0
  O  O174  1  0.10734000  0.33277000  0.63086000  1.0
  O  O175  1  0.89263000  0.16726000  0.13086000  1.0
  O  O176  1  0.75088000  0.30855000  0.57634000  1.0
  O  O177  1  0.24903000  0.19143000  0.07632000  1.0
  O  O178  1  0.74915000  0.80857000  0.42366000  1.0
  O  O179  1  0.25087000  0.69144000  0.92366000  1.0
  O  O180  1  0.24915000  0.69146000  0.42366000  1.0
  O  O181  1  0.75085000  0.80853000  0.92366000  1.0
  O  O182  1  0.25089000  0.19143000  0.57634000  1.0
  O  O183  1  0.74907000  0.30857000  0.07633000  1.0
  O  O184  1  0.74926000  0.86383000  0.62736000  1.0
  O  O185  1  0.25073000  0.63615000  0.12737000  1.0
  O  O186  1  0.75077000  0.36382000  0.37264000  1.0
  O  O187  1  0.24923000  0.13614000  0.87263000  1.0
  O  O188  1  0.25076000  0.13619000  0.37264000  1.0
  O  O189  1  0.74923000  0.36381000  0.87263000  1.0
  O  O190  1  0.24924000  0.63617000  0.62736000  1.0
  O  O191  1  0.75076000  0.86384000  0.12737000  1.0
  O  O192  1  0.98692000  0.80548000  0.58999000  1.0
  O  O193  1  0.01307000  0.69452000  0.09000000  1.0
  O  O194  1  0.51312000  0.30548000  0.41001000  1.0
  O  O195  1  0.48690000  0.19452000  0.91000000  1.0
  O  O196  1  0.01310000  0.19455000  0.41001000  1.0
  O  O197  1  0.98690000  0.30546000  0.91000000  1.0
  O  O198  1  0.48688000  0.69454000  0.58998000  1.0
  O  O199  1  0.51310000  0.80547000  0.09000000  1.0
  O  O200  1  0.25188000  0.96188000  0.62913000  1.0
  O  O201  1  0.74811000  0.53813000  0.12913000  1.0
  O  O202  1  0.24815000  0.46189000  0.37087000  1.0
  O  O203  1  0.75188000  0.03807000  0.87087000  1.0
  O  O204  1  0.74817000  0.03812000  0.37087000  1.0
  O  O205  1  0.25185000  0.46188000  0.87086000  1.0
  O  O206  1  0.75187000  0.53813000  0.62913000  1.0
  O  O207  1  0.24813000  0.96190000  0.12914000  1.0
