# generated using pymatgen
data_ZnH4C14I2NO5
_symmetry_space_group_name_H-M   'P 1'
_cell_length_a   12.03300000
_cell_length_b   12.98320000
_cell_length_c   14.58830000
_cell_angle_alpha   93.43460000
_cell_angle_beta   95.53810000
_cell_angle_gamma   90.09880000
_symmetry_Int_Tables_number   1
_chemical_formula_structural   ZnH4C14I2NO5
_chemical_formula_sum   'Zn2 H8 C28 I4 N2 O10'
_cell_volume   2264.30675080
_cell_formula_units_Z   2
loop_
 _symmetry_equiv_pos_site_id
 _symmetry_equiv_pos_as_xyz
  1  'x, y, z'
loop_
 _atom_site_type_symbol
 _atom_site_label
 _atom_site_symmetry_multiplicity
 _atom_site_fract_x
 _atom_site_fract_y
 _atom_site_fract_z
 _atom_site_occupancy
  Zn  Zn0  1  0.37492000  0.48631000  0.48137000  1.0
  Zn  Zn1  1  0.62508000  0.51369000  0.51862000  1.0
  H  H2  1  0.63447000  0.82487000  0.49653000  1.0
  H  H3  1  0.36547000  0.17513000  0.50349000  1.0
  H  H4  1  0.27828000  0.81070000  0.49641000  1.0
  H  H5  1  0.72167000  0.18929000  0.50357000  1.0
  H  H6  1  0.01939000  0.63810000  0.65415000  1.0
  H  H7  1  0.98062000  0.36191000  0.34586000  1.0
  H  H8  1  0.28521000  0.54793000  0.63124000  1.0
  H  H9  1  0.71481000  0.45209000  0.36875000  1.0
  C  C10  1  0.53705000  0.30723000  0.50472000  1.0
  C  C11  1  0.14962000  0.51741000  0.54686000  1.0
  C  C12  1  0.96987000  0.47220000  0.46276000  1.0
  C  C13  1  0.03015000  0.52780000  0.53724000  1.0
  C  C14  1  0.50215000  0.49162000  0.31647000  1.0
  C  C15  1  0.49789000  0.50838000  0.68353000  1.0
  C  C16  1  0.50654000  0.49182000  0.21820000  1.0
  C  C17  1  0.49351000  0.50817000  0.78180000  1.0
  C  C18  1  0.50512000  0.49455000  0.13416000  1.0
  C  C19  1  0.49499000  0.50547000  0.86585000  1.0
  C  C20  1  0.50209000  0.49807000  0.04229000  1.0
  C  C21  1  0.46289000  0.69276000  0.49528000  1.0
  C  C22  1  0.49800000  0.50189000  0.95771000  1.0
  C  C23  1  0.45782000  0.80794000  0.49627000  1.0
  C  C24  1  0.54213000  0.19206000  0.50375000  1.0
  C  C25  1  0.65119000  0.03614000  0.49986000  1.0
  C  C26  1  0.34877000  0.96386000  0.50015000  1.0
  C  C27  1  0.64662000  0.14223000  0.50268000  1.0
  C  C28  1  0.35333000  0.85777000  0.49733000  1.0
  C  C29  1  0.44483000  0.13501000  0.50286000  1.0
  C  C30  1  0.55511000  0.86500000  0.49715000  1.0
  C  C31  1  0.44700000  0.02624000  0.50091000  1.0
  C  C32  1  0.55294000  0.97377000  0.49909000  1.0
  C  C33  1  0.97337000  0.59244000  0.59818000  1.0
  C  C34  1  0.02664000  0.40757000  0.40181000  1.0
  C  C35  1  0.85875000  0.59628000  0.58421000  1.0
  C  C36  1  0.14127000  0.40372000  0.41578000  1.0
  C  C37  1  0.85039000  0.48259000  0.45314000  1.0
  I  I38  1  0.81033000  0.96784000  0.49623000  1.0
  I  I39  1  0.18964000  0.03216000  0.50376000  1.0
  I  I40  1  0.22211000  0.30063000  0.32812000  1.0
  I  I41  1  0.77790000  0.69935000  0.67188000  1.0
  N  N42  1  0.20338000  0.46037000  0.48508000  1.0
  N  N43  1  0.79663000  0.53962000  0.51492000  1.0
  O  O44  1  0.43981000  0.34673000  0.49877000  1.0
  O  O45  1  0.79700000  0.43274000  0.38058000  1.0
  O  O46  1  0.56015000  0.65327000  0.50130000  1.0
  O  O47  1  0.62904000  0.35692000  0.51110000  1.0
  O  O48  1  0.37092000  0.64308000  0.48882000  1.0
  O  O49  1  0.40605000  0.49450000  0.34488000  1.0
  O  O50  1  0.59400000  0.50542000  0.65513000  1.0
  O  O51  1  0.59476000  0.48950000  0.36755000  1.0
  O  O52  1  0.40531000  0.51060000  0.63244000  1.0
  O  O53  1  0.20301000  0.56726000  0.61941000  1.0
