# generated using pymatgen
data_KLiSb2H4(C2O3)4
_symmetry_space_group_name_H-M   'P 1'
_cell_length_a   6.32782000
_cell_length_b   8.15439108
_cell_length_c   8.54189865
_cell_angle_alpha   64.00505277
_cell_angle_beta   68.29906982
_cell_angle_gamma   67.21827042
_symmetry_Int_Tables_number   1
_chemical_formula_structural   KLiSb2H4(C2O3)4
_chemical_formula_sum   'K1 Li1 Sb2 H4 C8 O12'
_cell_volume   354.45946162
_cell_formula_units_Z   1
loop_
 _symmetry_equiv_pos_site_id
 _symmetry_equiv_pos_as_xyz
  1  'x, y, z'
loop_
 _atom_site_type_symbol
 _atom_site_label
 _atom_site_symmetry_multiplicity
 _atom_site_fract_x
 _atom_site_fract_y
 _atom_site_fract_z
 _atom_site_occupancy
  K  K0  1  0.52653000  0.49974000  0.50017000  1.0
  Li  Li1  1  0.52236000  0.99999000  0.99992000  1.0
  Sb  Sb2  1  0.23918000  0.28244000  0.31277000  1.0
  Sb  Sb3  1  0.83518000  0.71773000  0.68717000  1.0
  H  H4  1  0.00524000  0.03876000  0.79366000  1.0
  H  H5  1  0.83740000  0.96135000  0.20642000  1.0
  H  H6  1  0.18295000  0.78532000  0.05099000  1.0
  H  H7  1  0.02022000  0.21469000  0.94900000  1.0
  C  C8  1  0.06605000  0.16786000  0.70786000  1.0
  C  C9  1  0.94138000  0.83220000  0.29214000  1.0
  C  C10  1  0.33440000  0.11182000  0.67594000  1.0
  C  C11  1  0.12235000  0.88819000  0.32374000  1.0
  C  C12  1  0.08840000  0.69971000  0.18021000  1.0
  C  C13  1  0.96897000  0.30044000  0.81989000  1.0
  C  C14  1  0.91605000  0.64325000  0.13886000  1.0
  C  C15  1  0.69901000  0.35664000  0.86137000  1.0
  O  O16  1  0.98661000  0.25544000  0.54857000  1.0
  O  O17  1  0.79073000  0.74463000  0.45156000  1.0
  O  O18  1  0.45354000  0.17506000  0.51203000  1.0
  O  O19  1  0.14134000  0.82501000  0.48756000  1.0
  O  O20  1  0.25229000  0.54388000  0.27035000  1.0
  O  O21  1  0.06721000  0.45635000  0.72978000  1.0
  O  O22  1  0.93197000  0.46332000  0.19814000  1.0
  O  O23  1  0.59450000  0.53650000  0.80207000  1.0
  O  O24  1  0.42696000  0.01289000  0.80588000  1.0
  O  O25  1  0.24578000  0.98704000  0.19363000  1.0
  O  O26  1  0.76731000  0.76736000  0.05434000  1.0
  O  O27  1  0.59001000  0.23238000  0.94599000  1.0
