# generated using pymatgen
data_Cu3H32C16S4(Cl3O2)2
_symmetry_space_group_name_H-M   'P 1'
_cell_length_a   7.91130000
_cell_length_b   9.18893000
_cell_length_c   11.02050000
_cell_angle_alpha   69.10760000
_cell_angle_beta   73.66590000
_cell_angle_gamma   75.25950000
_symmetry_Int_Tables_number   1
_chemical_formula_structural   Cu3H32C16S4(Cl3O2)2
_chemical_formula_sum   'Cu3 H32 C16 S4 Cl6 O4'
_cell_volume   707.56997807
_cell_formula_units_Z   1
loop_
 _symmetry_equiv_pos_site_id
 _symmetry_equiv_pos_as_xyz
  1  'x, y, z'
loop_
 _atom_site_type_symbol
 _atom_site_label
 _atom_site_symmetry_multiplicity
 _atom_site_fract_x
 _atom_site_fract_y
 _atom_site_fract_z
 _atom_site_occupancy
  Cu  Cu0  1  0.02076000  0.39115000  0.65733000  1.0
  Cu  Cu1  1  0.97923000  0.60884000  0.34268000  1.0
  Cu  Cu2  1  0.00000000  0.50000000  0.00000000  1.0
  H  H3  1  0.65042000  0.21724000  0.14439000  1.0
  H  H4  1  0.34958000  0.78276000  0.85561000  1.0
  H  H5  1  0.41999000  0.30898000  0.16546000  1.0
  H  H6  1  0.58002000  0.69102000  0.83453000  1.0
  H  H7  1  0.59764000  0.08684000  0.37838000  1.0
  H  H8  1  0.40235000  0.91315000  0.62162000  1.0
  H  H9  1  0.37611000  0.19480000  0.39609000  1.0
  H  H10  1  0.62388000  0.80520000  0.60391000  1.0
  H  H11  1  0.49033000  0.29760000  0.51745000  1.0
  H  H12  1  0.50967000  0.70239000  0.48255000  1.0
  H  H13  1  0.70909000  0.28546000  0.41629000  1.0
  H  H14  1  0.29091000  0.71454000  0.58371000  1.0
  H  H15  1  0.37785000  0.52493000  0.33338000  1.0
  H  H16  1  0.62215000  0.47507000  0.66666667  1.0
  H  H17  1  0.58440000  0.57015000  0.33744000  1.0
  H  H18  1  0.41560000  0.42984000  0.66256000  1.0
  H  H19  1  0.27627000  0.01943000  0.96877000  1.0
  H  H20  1  0.72375000  0.98056000  0.03124000  1.0
  H  H21  1  0.15623000  0.88184000  0.10515000  1.0
  H  H22  1  0.84379000  0.11816000  0.89485000  1.0
  H  H23  1  0.42613000  0.05940000  0.12351000  1.0
  H  H24  1  0.57387000  0.94060000  0.87650000  1.0
  H  H25  1  0.44872000  0.85141000  0.16765000  1.0
  H  H26  1  0.55129000  0.14859000  0.83236000  1.0
  H  H27  1  0.20541000  0.83971000  0.35840000  1.0
  H  H28  1  0.79458000  0.16030000  0.64159000  1.0
  H  H29  1  0.30331000  0.99170000  0.35992000  1.0
  H  H30  1  0.69668000  0.00830000  0.64009000  1.0
  H  H31  1  0.93928000  0.01692000  0.33706000  1.0
  H  H32  1  0.06071000  0.98309000  0.66293000  1.0
  H  H33  1  0.04094000  0.18197000  0.30993000  1.0
  H  H34  1  0.95906000  0.81804000  0.69006000  1.0
  C  C35  1  0.54299000  0.28280000  0.20253000  1.0
  C  C36  1  0.45701000  0.71720000  0.79747000  1.0
  C  C37  1  0.51721000  0.20591000  0.35436000  1.0
  C  C38  1  0.48278000  0.79409000  0.64563000  1.0
  C  C39  1  0.56617000  0.31303000  0.41488000  1.0
  C  C40  1  0.43383000  0.68696000  0.58512000  1.0
  C  C41  1  0.52213000  0.48250000  0.32700000  1.0
  C  C42  1  0.47786000  0.51750000  0.67300000  1.0
  C  C43  1  0.22278000  0.98451000  0.07618000  1.0
  C  C44  1  0.77724000  0.01549000  0.92382000  1.0
  C  C45  1  0.35113000  0.96097000  0.16428000  1.0
  C  C46  1  0.64887000  0.03903000  0.83573000  1.0
  C  C47  1  0.23451000  0.95922000  0.30219000  1.0
  C  C48  1  0.76548000  0.04079000  0.69781000  1.0
  C  C49  1  0.05711000  0.07370000  0.28433000  1.0
  C  C50  1  0.94289000  0.92631000  0.71567000  1.0
  S  S51  1  0.04927000  0.14448000  0.10847000  1.0
  S  S52  1  0.95074000  0.85552000  0.89152000  1.0
  S  S53  1  0.61414000  0.47192000  0.15953000  1.0
  S  S54  1  0.38586000  0.52809000  0.84046000  1.0
  Cl  Cl55  1  0.83489000  0.40655000  0.84828000  1.0
  Cl  Cl56  1  0.16510000  0.59344000  0.15172000  1.0
  Cl  Cl57  1  0.21647000  0.17964000  0.73020000  1.0
  Cl  Cl58  1  0.78354000  0.82036000  0.26980000  1.0
  Cl  Cl59  1  0.95911000  0.65350000  0.54143000  1.0
  Cl  Cl60  1  0.04089000  0.34650000  0.45857000  1.0
  O  O61  1  0.14935000  0.28762000  0.04840000  1.0
  O  O62  1  0.85066000  0.71238000  0.95159000  1.0
  O  O63  1  0.81686000  0.42355000  0.15984000  1.0
  O  O64  1  0.18314000  0.57644000  0.84016000  1.0
