# generated using pymatgen
data_Cu3P4H18C16(NO9)2
_symmetry_space_group_name_H-M   'P 1'
_cell_length_a   8.59926000
_cell_length_b   9.10230000
_cell_length_c   9.50240000
_cell_angle_alpha   110.25900000
_cell_angle_beta   101.64600000
_cell_angle_gamma   109.72100000
_symmetry_Int_Tables_number   1
_chemical_formula_structural   Cu3P4H18C16(NO9)2
_chemical_formula_sum   'Cu3 P4 H18 C16 N2 O18'
_cell_volume   612.57674615
_cell_formula_units_Z   1
loop_
 _symmetry_equiv_pos_site_id
 _symmetry_equiv_pos_as_xyz
  1  'x, y, z'
loop_
 _atom_site_type_symbol
 _atom_site_label
 _atom_site_symmetry_multiplicity
 _atom_site_fract_x
 _atom_site_fract_y
 _atom_site_fract_z
 _atom_site_occupancy
  Cu  Cu0  1  0.27017000  0.74964000  0.02696000  1.0
  Cu  Cu1  1  0.72930000  0.25006000  0.97294000  1.0
  Cu  Cu2  1  0.00048000  0.50043000  0.50001000  1.0
  P  P3  1  0.95345000  0.77769000  0.79539000  1.0
  P  P4  1  0.04649000  0.22233000  0.20434000  1.0
  P  P5  1  0.89371000  0.42344000  0.76488000  1.0
  P  P6  1  0.10626000  0.57620000  0.23484000  1.0
  H  H7  1  0.86646000  0.98122000  0.89200000  1.0
  H  H8  1  0.13275000  0.01828000  0.10754000  1.0
  H  H9  1  0.84497000  0.59595000  0.02657000  1.0
  H  H10  1  0.15538000  0.40423000  0.97337000  1.0
  H  H11  1  0.27826000  0.92639000  0.38373000  1.0
  H  H12  1  0.72177000  0.07375000  0.61641000  1.0
  H  H13  1  0.64360000  0.50221000  0.56194000  1.0
  H  H14  1  0.35624000  0.49754000  0.43798000  1.0
  H  H15  1  0.57612000  0.61677000  0.71133000  1.0
  H  H16  1  0.42404000  0.38317000  0.28875000  1.0
  H  H17  1  0.41402000  0.45414000  0.85333000  1.0
  H  H18  1  0.58654000  0.54578000  0.14719000  1.0
  H  H19  1  0.18673000  0.16387000  0.80295000  1.0
  H  H20  1  0.81352000  0.83610000  0.19730000  1.0
  H  H21  1  0.12440000  0.89468000  0.55671000  1.0
  H  H22  1  0.87530000  0.10548000  0.44321000  1.0
  H  H23  1  0.49961000  0.18497000  0.42393000  1.0
  H  H24  1  0.50073000  0.81510000  0.57639000  1.0
  C  C25  1  0.80109000  0.58419000  0.80721000  1.0
  C  C26  1  0.19919000  0.41575000  0.19259000  1.0
  C  C27  1  0.62054000  0.51422000  0.67388000  1.0
  C  C28  1  0.37959000  0.48572000  0.32618000  1.0
  C  C29  1  0.47959000  0.34507000  0.64620000  1.0
  C  C30  1  0.52064000  0.65496000  0.35404000  1.0
  C  C31  1  0.38588000  0.33504000  0.75015000  1.0
  C  C32  1  0.61449000  0.66494000  0.25019000  1.0
  C  C33  1  0.25733000  0.17427000  0.72118000  1.0
  C  C34  1  0.74287000  0.82573000  0.27904000  1.0
  C  C35  1  0.22058000  0.02530000  0.58681000  1.0
  C  C36  1  0.77937000  0.97476000  0.41321000  1.0
  C  C37  1  0.43658000  0.19144000  0.51294000  1.0
  C  C38  1  0.56365000  0.80859000  0.48728000  1.0
  C  C39  1  0.52242000  0.06188000  0.08769000  1.0
  C  C40  1  0.47678000  0.93787000  0.91203000  1.0
  N  N41  1  0.31028000  0.03907000  0.48743000  1.0
  N  N42  1  0.68976000  0.96100000  0.51268000  1.0
  O  O43  1  0.85030000  0.88949000  0.78204000  1.0
  O  O44  1  0.14885000  0.10995000  0.21768000  1.0
  O  O45  1  0.11677000  0.88478000  0.94959000  1.0
  O  O46  1  0.88309000  0.11563000  0.05022000  1.0
  O  O47  1  0.98417000  0.71043000  0.63716000  1.0
  O  O48  1  0.01626000  0.29028000  0.36272000  1.0
  O  O49  1  0.78000000  0.26398000  0.78442000  1.0
  O  O50  1  0.21987000  0.73593000  0.21546000  1.0
  O  O51  1  0.08861000  0.51004000  0.87943000  1.0
  O  O52  1  0.91119000  0.48975000  0.12104000  1.0
  O  O53  1  0.87220000  0.35854000  0.58679000  1.0
  O  O54  1  0.12854000  0.64197000  0.41328000  1.0
  O  O55  1  0.77976000  0.63426000  0.95867000  1.0
  O  O56  1  0.22083000  0.36608000  0.04134000  1.0
  O  O57  1  0.45969000  0.99340000  0.17186000  1.0
  O  O58  1  0.53960000  0.00647000  0.82793000  1.0
  O  O59  1  0.61881000  0.22297000  0.13677000  1.0
  O  O60  1  0.38051000  0.77681000  0.86288000  1.0
