# generated using pymatgen
data_ZnSiH4C8S4(N2F3)2
_symmetry_space_group_name_H-M   'P 1'
_cell_length_a   7.62855000
_cell_length_b   8.81209000
_cell_length_c   8.81215000
_cell_angle_alpha   91.42730000
_cell_angle_beta   93.45970000
_cell_angle_gamma   93.46060000
_symmetry_Int_Tables_number   1
_chemical_formula_structural   ZnSiH4C8S4(N2F3)2
_chemical_formula_sum   'Zn1 Si1 H4 C8 S4 N4 F6'
_cell_volume   589.98307472
_cell_formula_units_Z   1
loop_
 _symmetry_equiv_pos_site_id
 _symmetry_equiv_pos_as_xyz
  1  'x, y, z'
loop_
 _atom_site_type_symbol
 _atom_site_label
 _atom_site_symmetry_multiplicity
 _atom_site_fract_x
 _atom_site_fract_y
 _atom_site_fract_z
 _atom_site_occupancy
  Zn  Zn0  1  0.50000000  0.50000000  0.50000000  1.0
  Si  Si1  1  0.00000000  0.50000000  0.50000000  1.0
  H  H2  1  0.23304000  0.49106000  0.76908000  1.0
  H  H3  1  0.76697000  0.50894000  0.23093000  1.0
  H  H4  1  0.23303000  0.76906000  0.49105000  1.0
  H  H5  1  0.76696000  0.23093000  0.50895000  1.0
  C  C6  1  0.36422000  0.49536000  0.82608000  1.0
  C  C7  1  0.63580000  0.50465000  0.17392000  1.0
  C  C8  1  0.59190000  0.50384000  0.01575000  1.0
  C  C9  1  0.40811000  0.49617000  0.98425000  1.0
  C  C10  1  0.36420000  0.82607000  0.49535000  1.0
  C  C11  1  0.63577000  0.17392000  0.50465000  1.0
  C  C12  1  0.59189000  0.01575000  0.50384000  1.0
  C  C13  1  0.40810000  0.98424000  0.49617000  1.0
  S  S14  1  0.69586000  0.50933000  0.84881000  1.0
  S  S15  1  0.30415000  0.49068000  0.15119000  1.0
  S  S16  1  0.69585000  0.84882000  0.50933000  1.0
  S  S17  1  0.30413000  0.15118000  0.49068000  1.0
  N  N18  1  0.50450000  0.50201000  0.74351000  1.0
  N  N19  1  0.49551000  0.49800000  0.25649000  1.0
  N  N20  1  0.50448000  0.74351000  0.50201000  1.0
  N  N21  1  0.49550000  0.25648000  0.49800000  1.0
  F  F22  1  0.22503000  0.47326000  0.47327000  1.0
  F  F23  1  0.77497000  0.52673000  0.52672000  1.0
  F  F24  1  0.00001000  0.63444000  0.36556000  1.0
  F  F25  1  0.99998000  0.36555000  0.63444000  1.0
  F  F26  1  0.94115000  0.36400000  0.36399000  1.0
  F  F27  1  0.05887000  0.63600000  0.63600000  1.0
