# generated using pymatgen
data_Cd2H8C19(O3F2)3
_symmetry_space_group_name_H-M   'P 1'
_cell_length_a   7.86330000
_cell_length_b   22.93060000
_cell_length_c   22.93190000
_cell_angle_alpha   118.70300000
_cell_angle_beta   96.55440000
_cell_angle_gamma   96.58060000
_symmetry_Int_Tables_number   1
_chemical_formula_structural   Cd2H8C19(O3F2)3
_chemical_formula_sum   'Cd12 H48 C114 O54 F36'
_cell_volume   3534.30584524
_cell_formula_units_Z   6
loop_
 _symmetry_equiv_pos_site_id
 _symmetry_equiv_pos_as_xyz
  1  'x, y, z'
loop_
 _atom_site_type_symbol
 _atom_site_label
 _atom_site_symmetry_multiplicity
 _atom_site_fract_x
 _atom_site_fract_y
 _atom_site_fract_z
 _atom_site_occupancy
  Cd  Cd0  1  0.18420000  0.96380000  0.43696000  1.0
  Cd  Cd1  1  0.22043000  0.47305000  0.03609000  1.0
  Cd  Cd2  1  0.74719000  0.56306000  0.52686000  1.0
  Cd  Cd3  1  0.81583000  0.03621000  0.56303000  1.0
  Cd  Cd4  1  0.77955000  0.52695000  0.96390000  1.0
  Cd  Cd5  1  0.25282000  0.43694000  0.47315000  1.0
  Cd  Cd6  1  0.57428000  0.87394000  0.39716000  1.0
  Cd  Cd7  1  0.70077000  0.52327000  0.12610000  1.0
  Cd  Cd8  1  0.17690000  0.60288000  0.47680000  1.0
  Cd  Cd9  1  0.42573000  0.12606000  0.60284000  1.0
  Cd  Cd10  1  0.29923000  0.47673000  0.87389000  1.0
  Cd  Cd11  1  0.82309000  0.39712000  0.52320000  1.0
  H  H12  1  0.85348000  0.00171000  0.29461000  1.0
  H  H13  1  0.85111000  0.29290000  0.99840000  1.0
  H  H14  1  0.55901000  0.70532000  0.70713000  1.0
  H  H15  1  0.14651000  0.99828000  0.70537000  1.0
  H  H16  1  0.14889000  0.70711000  0.00161000  1.0
  H  H17  1  0.44100000  0.29468000  0.29287000  1.0
  H  H18  1  0.64495000  0.03250000  0.23080000  1.0
  H  H19  1  0.61173000  0.19831000  0.96763000  1.0
  H  H20  1  0.41426000  0.76916000  0.80172000  1.0
  H  H21  1  0.35503000  0.96750000  0.76919000  1.0
  H  H22  1  0.38827000  0.80170000  0.03238000  1.0
  H  H23  1  0.58575000  0.23084000  0.19828000  1.0
  H  H24  1  0.34593000  0.09200000  0.38991000  1.0
  H  H25  1  0.25349000  0.29778000  0.90781000  1.0
  H  H26  1  0.95615000  0.60994000  0.70224000  1.0
  H  H27  1  0.65409000  0.90800000  0.61009000  1.0
  H  H28  1  0.74650000  0.70222000  0.09219000  1.0
  H  H29  1  0.04385000  0.39006000  0.29776000  1.0
  H  H30  1  0.50756000  0.20694000  0.37550000  1.0
  H  H31  1  0.30011000  0.16836000  0.79306000  1.0
  H  H32  1  0.13167000  0.62437000  0.83143000  1.0
  H  H33  1  0.49242000  0.79305000  0.62449000  1.0
  H  H34  1  0.69990000  0.83163000  0.20694000  1.0
  H  H35  1  0.86833000  0.37563000  0.16858000  1.0
  H  H36  1  0.86868000  0.18575000  0.35292000  1.0
  H  H37  1  0.68225000  0.16701000  0.81408000  1.0
  H  H38  1  0.51570000  0.64739000  0.83321000  1.0
  H  H39  1  0.13130000  0.81424000  0.64711000  1.0
  H  H40  1  0.31775000  0.83297000  0.18591000  1.0
  H  H41  1  0.48431000  0.35261000  0.16679000  1.0
  H  H42  1  0.98617000  0.09284000  0.27149000  1.0
  H  H43  1  0.89252000  0.17853000  0.90706000  1.0
  H  H44  1  0.71492000  0.72871000  0.82167000  1.0
  H  H45  1  0.01380000  0.90715000  0.72853000  1.0
  H  H46  1  0.10748000  0.82147000  0.09294000  1.0
  H  H47  1  0.28510000  0.27129000  0.17833000  1.0
  H  H48  1  0.87006000  0.83049000  0.41083000  1.0
  H  H49  1  0.04018000  0.58041000  0.16951000  1.0
  H  H50  1  0.45912000  0.58926000  0.41970000  1.0
  H  H51  1  0.12995000  0.16951000  0.58917000  1.0
  H  H52  1  0.95982000  0.41959000  0.83048000  1.0
  H  H53  1  0.54088000  0.41074000  0.58030000  1.0
  H  H54  1  0.80480000  0.83358000  0.47496000  1.0
  H  H55  1  0.97194000  0.64153000  0.16657000  1.0
  H  H56  1  0.32977000  0.52517000  0.35859000  1.0
  H  H57  1  0.19519000  0.16641000  0.52504000  1.0
  H  H58  1  0.02806000  0.35846000  0.83343000  1.0
  H  H59  1  0.67023000  0.47482000  0.64141000  1.0
  C  C60  1  0.72448000  0.03203000  0.37926000  1.0
  C  C61  1  0.69199000  0.34720000  0.96797000  1.0
  C  C62  1  0.34526000  0.62067000  0.65282000  1.0
  C  C63  1  0.27554000  0.96797000  0.62074000  1.0
  C  C64  1  0.30800000  0.65280000  0.03203000  1.0
  C  C65  1  0.65475000  0.37933000  0.34718000  1.0
  C  C66  1  0.74352000  0.02281000  0.31580000  1.0
  C  C67  1  0.72011000  0.29297000  0.97724000  1.0
  C  C68  1  0.42788000  0.68411000  0.70707000  1.0
  C  C69  1  0.25648000  0.97719000  0.68419000  1.0
  C  C70  1  0.27989000  0.70704000  0.02277000  1.0
  C  C71  1  0.57213000  0.31588000  0.29293000  1.0
  C  C72  1  0.62446000  0.04000000  0.27979000  1.0
  C  C73  1  0.58380000  0.23976000  0.96005000  1.0
  C  C74  1  0.34480000  0.72014000  0.76026000  1.0
  C  C75  1  0.37553000  0.96000000  0.72020000  1.0
  C  C76  1  0.41620000  0.76024000  0.03996000  1.0
  C  C77  1  0.65521000  0.27986000  0.23974000  1.0
  C  C78  1  0.57933000  0.05731000  0.40565000  1.0
  C  C79  1  0.52157000  0.34826000  0.94258000  1.0
  C  C80  1  0.17371000  0.59425000  0.65172000  1.0
  C  C81  1  0.42070000  0.94270000  0.59434000  1.0
  C  C82  1  0.47843000  0.65174000  0.05741000  1.0
  C  C83  1  0.82630000  0.40575000  0.34828000  1.0
  C  C84  1  0.45769000  0.07291000  0.36849000  1.0
  C  C85  1  0.38427000  0.29547000  0.92696000  1.0
  C  C86  1  0.08932000  0.63137000  0.70454000  1.0
  C  C87  1  0.54232000  0.92709000  0.63151000  1.0
  C  C88  1  0.61572000  0.70453000  0.07303000  1.0
  C  C89  1  0.91068000  0.36863000  0.29546000  1.0
  C  C90  1  0.48117000  0.06622000  0.30616000  1.0
  C  C91  1  0.41432000  0.23987000  0.93373000  1.0
  C  C92  1  0.17511000  0.69373000  0.76014000  1.0
  C  C93  1  0.51883000  0.93378000  0.69384000  1.0
  C  C94  1  0.58568000  0.76013000  0.06627000  1.0
  C  C95  1  0.82490000  0.30627000  0.23986000  1.0
  C  C96  1  0.85579000  0.01063000  0.41389000  1.0
  C  C97  1  0.84482000  0.40326000  0.98941000  1.0
  C  C98  1  0.44179000  0.58606000  0.59673000  1.0
  C  C99  1  0.14424000  0.98938000  0.58610000  1.0
  C  C100  1  0.15517000  0.59674000  0.01058000  1.0
  C  C101  1  0.55822000  0.41394000  0.40328000  1.0
  C  C102  1  0.55904000  0.07482000  0.47581000  1.0
  C  C103  1  0.48393000  0.40095000  0.92512000  1.0
  C  C104  1  0.08312000  0.52413000  0.59899000  1.0
  C  C105  1  0.44101000  0.92518000  0.52418000  1.0
  C  C106  1  0.51606000  0.59905000  0.07488000  1.0
  C  C107  1  0.91688000  0.47587000  0.40101000  1.0
  C  C108  1  0.34805000  0.08597000  0.26745000  1.0
  C  C109  1  0.26136000  0.18143000  0.91406000  1.0
  C  C110  1  0.08061000  0.73251000  0.81857000  1.0
  C  C111  1  0.65193000  0.91403000  0.73255000  1.0
  C  C112  1  0.73865000  0.81857000  0.08594000  1.0
  C  C113  1  0.91939000  0.26749000  0.18143000  1.0
  C  C114  1  0.44116000  0.11478000  0.22714000  1.0
  C  C115  1  0.32558000  0.11232000  0.88544000  1.0
  C  C116  1  0.21399000  0.77297000  0.88768000  1.0
  C  C117  1  0.55881000  0.88522000  0.77286000  1.0
  C  C118  1  0.67444000  0.88768000  0.11456000  1.0
  C  C119  1  0.78602000  0.22703000  0.11232000  1.0
  C  C120  1  0.21458000  0.02037000  0.21585000  1.0
  C  C121  1  0.19344000  0.19556000  0.97968000  1.0
  C  C122  1  0.99868000  0.78399000  0.80439000  1.0
  C  C123  1  0.78540000  0.97963000  0.78415000  1.0
  C  C124  1  0.80657000  0.80444000  0.02033000  1.0
  C  C125  1  0.00133000  0.21601000  0.19561000  1.0
  C  C126  1  0.25838000  0.14156000  0.31596000  1.0
  C  C127  1  0.11611000  0.17423000  0.85837000  1.0
  C  C128  1  0.94236000  0.68406000  0.82573000  1.0
  C  C129  1  0.74159000  0.85844000  0.68404000  1.0
  C  C130  1  0.88389000  0.82576000  0.14162000  1.0
  C  C131  1  0.05765000  0.31594000  0.17427000  1.0
  C  C132  1  0.36623000  0.20097000  0.36812000  1.0
  C  C133  1  0.16471000  0.16696000  0.79897000  1.0
  C  C134  1  0.99779000  0.63183000  0.83292000  1.0
  C  C135  1  0.63376000  0.79903000  0.63188000  1.0
  C  C136  1  0.83530000  0.83304000  0.20103000  1.0
  C  C137  1  0.00221000  0.36817000  0.16708000  1.0
  C  C138  1  0.29977000  0.25576000  0.41367000  1.0
  C  C139  1  0.04357000  0.15775000  0.74417000  1.0
  C  C140  1  0.88558000  0.58630000  0.84214000  1.0
  C  C141  1  0.70022000  0.74424000  0.58634000  1.0
  C  C142  1  0.95644000  0.84224000  0.25583000  1.0
  C  C143  1  0.11442000  0.41370000  0.15785000  1.0
  C  C144  1  0.11819000  0.25104000  0.40882000  1.0
  C  C145  1  0.86667000  0.15765000  0.74888000  1.0
  C  C146  1  0.70895000  0.59129000  0.84240000  1.0
  C  C147  1  0.88179000  0.74896000  0.59119000  1.0
  C  C148  1  0.13334000  0.84234000  0.25112000  1.0
  C  C149  1  0.29105000  0.40871000  0.15760000  1.0
  C  C150  1  0.00974000  0.19081000  0.35757000  1.0
  C  C151  1  0.81825000  0.16659000  0.80905000  1.0
  C  C152  1  0.65198000  0.64261000  0.83350000  1.0
  C  C153  1  0.99024000  0.80918000  0.64244000  1.0
  C  C154  1  0.18176000  0.83341000  0.19094000  1.0
  C  C155  1  0.34802000  0.35739000  0.16650000  1.0
  C  C156  1  0.07769000  0.13734000  0.31121000  1.0
  C  C157  1  0.93959000  0.17372000  0.86256000  1.0
  C  C158  1  0.76652000  0.68893000  0.82638000  1.0
  C  C159  1  0.92229000  0.86266000  0.68880000  1.0
  C  C160  1  0.06042000  0.82628000  0.13744000  1.0
  C  C161  1  0.23349000  0.31108000  0.17363000  1.0
  C  C162  1  0.43090000  0.31690000  0.46620000  1.0
  C  C163  1  0.11368000  0.14922000  0.68306000  1.0
  C  C164  1  0.96394000  0.53367000  0.85065000  1.0
  C  C165  1  0.56909000  0.68310000  0.53379000  1.0
  C  C166  1  0.88634000  0.85078000  0.31694000  1.0
  C  C167  1  0.03605000  0.46633000  0.14935000  1.0
  C  C168  1  0.03064000  0.30689000  0.45383000  1.0
  C  C169  1  0.72336000  0.14687000  0.69304000  1.0
  C  C170  1  0.57630000  0.54632000  0.85328000  1.0
  C  C171  1  0.96935000  0.69311000  0.54618000  1.0
  C  C172  1  0.27664000  0.85313000  0.30696000  1.0
  C  C173  1  0.42368000  0.45368000  0.14671000  1.0
  O  O174  1  0.01215000  0.02010000  0.40626000  1.0
  O  O175  1  0.99166000  0.38614000  0.97990000  1.0
  O  O176  1  0.60575000  0.59360000  0.61381000  1.0
  O  O177  1  0.98788000  0.97991000  0.59373000  1.0
  O  O178  1  0.00833000  0.61386000  0.02010000  1.0
  O  O179  1  0.39425000  0.40639000  0.38619000  1.0
  O  O180  1  0.80575000  0.98117000  0.44625000  1.0
  O  O181  1  0.82438000  0.46509000  0.01890000  1.0
  O  O182  1  0.35936000  0.55379000  0.53494000  1.0
  O  O183  1  0.19428000  0.01883000  0.55374000  1.0
  O  O184  1  0.17560000  0.53491000  0.98110000  1.0
  O  O185  1  0.64065000  0.44622000  0.46507000  1.0
  O  O186  1  0.69062000  0.10301000  0.52354000  1.0
  O  O187  1  0.58764000  0.42063000  0.89712000  1.0
  O  O188  1  0.16690000  0.47637000  0.57937000  1.0
  O  O189  1  0.30943000  0.89700000  0.47645000  1.0
  O  O190  1  0.41232000  0.57937000  0.10287000  1.0
  O  O191  1  0.83310000  0.52363000  0.42063000  1.0
  O  O192  1  0.40326000  0.06424000  0.48625000  1.0
  O  O193  1  0.33858000  0.42187000  0.93558000  1.0
  O  O194  1  0.91695000  0.51376000  0.57802000  1.0
  O  O195  1  0.59680000  0.93577000  0.51376000  1.0
  O  O196  1  0.66139000  0.57813000  0.06442000  1.0
  O  O197  1  0.08304000  0.48624000  0.42198000  1.0
  O  O198  1  0.37713000  0.36895000  0.50902000  1.0
  O  O199  1  0.00790000  0.14009000  0.63104000  1.0
  O  O200  1  0.86722000  0.49089000  0.85994000  1.0
  O  O201  1  0.62287000  0.63105000  0.49097000  1.0
  O  O202  1  0.99212000  0.85992000  0.36897000  1.0
  O  O203  1  0.13278000  0.50911000  0.14006000  1.0
  O  O204  1  0.58970000  0.31256000  0.46481000  1.0
  O  O205  1  0.27679000  0.15212000  0.68739000  1.0
  O  O206  1  0.12406000  0.53496000  0.84758000  1.0
  O  O207  1  0.41028000  0.68744000  0.53517000  1.0
  O  O208  1  0.72323000  0.84788000  0.31261000  1.0
  O  O209  1  0.87593000  0.46504000  0.15241000  1.0
  O  O210  1  0.96609000  0.30403000  0.50011000  1.0
  O  O211  1  0.66168000  0.19603000  0.69597000  1.0
  O  O212  1  0.46538000  0.50005000  0.80415000  1.0
  O  O213  1  0.03392000  0.69599000  0.49990000  1.0
  O  O214  1  0.33832000  0.80397000  0.30403000  1.0
  O  O215  1  0.53462000  0.49995000  0.19585000  1.0
  O  O216  1  0.01002000  0.35363000  0.43828000  1.0
  O  O217  1  0.65615000  0.08461000  0.64623000  1.0
  O  O218  1  0.57142000  0.56181000  0.91555000  1.0
  O  O219  1  0.98997000  0.64637000  0.56172000  1.0
  O  O220  1  0.34387000  0.91539000  0.35377000  1.0
  O  O221  1  0.42856000  0.43819000  0.08445000  1.0
  O  O222  1  0.76673000  0.81737000  0.42692000  1.0
  O  O223  1  0.94998000  0.60960000  0.18265000  1.0
  O  O224  1  0.33975000  0.57320000  0.39047000  1.0
  O  O225  1  0.23328000  0.18263000  0.57308000  1.0
  O  O226  1  0.05002000  0.39040000  0.81734000  1.0
  O  O227  1  0.66025000  0.42679000  0.60953000  1.0
  F  F228  1  0.33934000  0.14828000  0.20702000  1.0
  F  F229  1  0.19022000  0.05869000  0.85203000  1.0
  F  F230  1  0.13223000  0.79330000  0.94129000  1.0
  F  F231  1  0.66063000  0.85173000  0.79299000  1.0
  F  F232  1  0.80979000  0.94131000  0.14796000  1.0
  F  F233  1  0.86778000  0.20671000  0.05871000  1.0
  F  F234  1  0.48574000  0.06667000  0.17014000  1.0
  F  F235  1  0.41822000  0.10354000  0.93365000  1.0
  F  F236  1  0.31578000  0.82987000  0.89640000  1.0
  F  F237  1  0.51422000  0.93333000  0.82987000  1.0
  F  F238  1  0.58178000  0.89646000  0.06636000  1.0
  F  F239  1  0.68423000  0.17012000  0.10360000  1.0
  F  F240  1  0.59133000  0.15988000  0.26679000  1.0
  F  F241  1  0.43068000  0.10674000  0.84032000  1.0
  F  F242  1  0.32435000  0.73335000  0.89328000  1.0
  F  F243  1  0.40865000  0.84012000  0.73321000  1.0
  F  F244  1  0.56934000  0.89326000  0.15968000  1.0
  F  F245  1  0.67564000  0.26665000  0.10673000  1.0
  F  F246  1  0.10171000  0.03084000  0.17372000  1.0
  F  F247  1  0.07000000  0.14302000  0.96931000  1.0
  F  F248  1  0.92766000  0.82617000  0.85687000  1.0
  F  F249  1  0.89826000  0.96916000  0.82628000  1.0
  F  F250  1  0.93001000  0.85697000  0.03069000  1.0
  F  F251  1  0.07233000  0.17383000  0.14313000  1.0
  F  F252  1  0.29238000  0.96935000  0.17604000  1.0
  F  F253  1  0.32225000  0.20684000  0.03073000  1.0
  F  F254  1  0.11630000  0.82379000  0.79314000  1.0
  F  F255  1  0.70761000  0.03065000  0.82396000  1.0
  F  F256  1  0.67776000  0.79316000  0.96927000  1.0
  F  F257  1  0.88370000  0.17622000  0.20686000  1.0
  F  F258  1  0.11992000  0.99716000  0.24936000  1.0
  F  F259  1  0.12214000  0.25227000  0.00277000  1.0
  F  F260  1  0.87070000  0.75036000  0.74765000  1.0
  F  F261  1  0.88006000  0.00283000  0.75064000  1.0
  F  F262  1  0.87786000  0.74772000  0.99724000  1.0
  F  F263  1  0.12931000  0.24964000  0.25235000  1.0
