# generated using pymatgen
data_CuPH10C7S2NO2
_symmetry_space_group_name_H-M   'P 1'
_cell_length_a   5.67965000
_cell_length_b   9.37617000
_cell_length_c   20.36850000
_cell_angle_alpha   78.06100000
_cell_angle_beta   89.99970000
_cell_angle_gamma   89.99960000
_symmetry_Int_Tables_number   1
_chemical_formula_structural   CuPH10C7S2NO2
_chemical_formula_sum   'Cu4 P4 H40 C28 S8 N4 O8'
_cell_volume   1061.22753812
_cell_formula_units_Z   4
loop_
 _symmetry_equiv_pos_site_id
 _symmetry_equiv_pos_as_xyz
  1  'x, y, z'
loop_
 _atom_site_type_symbol
 _atom_site_label
 _atom_site_symmetry_multiplicity
 _atom_site_fract_x
 _atom_site_fract_y
 _atom_site_fract_z
 _atom_site_occupancy
  Cu  Cu0  1  0.95945000  0.27550000  0.18272000  1.0
  Cu  Cu1  1  0.45946000  0.22449000  0.31728000  1.0
  Cu  Cu2  1  0.04054000  0.72451000  0.81728000  1.0
  Cu  Cu3  1  0.54055000  0.77550000  0.68271000  1.0
  P  P4  1  0.44203000  0.50417000  0.17644000  1.0
  P  P5  1  0.94204000  0.99583000  0.32355000  1.0
  P  P6  1  0.55795000  0.49583000  0.82355000  1.0
  P  P7  1  0.05796000  0.00417000  0.67644000  1.0
  H  H8  1  0.03215000  0.40441000  0.31633000  1.0
  H  H9  1  0.53214000  0.09559000  0.18366000  1.0
  H  H10  1  0.96785000  0.59559000  0.68367000  1.0
  H  H11  1  0.46785000  0.90440000  0.81633000  1.0
  H  H12  1  0.81323000  0.52455000  0.39304000  1.0
  H  H13  1  0.31323000  0.97545000  0.10696000  1.0
  H  H14  1  0.18677000  0.47545000  0.60696000  1.0
  H  H15  1  0.68678000  0.02453000  0.89305000  1.0
  H  H16  1  0.35022000  0.37277000  0.54253000  1.0
  H  H17  1  0.85022000  0.12721000  0.95747000  1.0
  H  H18  1  0.64978000  0.62722000  0.45747000  1.0
  H  H19  1  0.14977000  0.87277000  0.04253000  1.0
  H  H20  1  0.54705000  0.26001000  0.45826000  1.0
  H  H21  1  0.04705000  0.23999000  0.04174000  1.0
  H  H22  1  0.45295000  0.73998000  0.54174000  1.0
  H  H23  1  0.95295000  0.76002000  0.95826000  1.0
  H  H24  1  0.07076000  0.73554000  0.24659000  1.0
  H  H25  1  0.57077000  0.76444000  0.25341000  1.0
  H  H26  1  0.92924000  0.26445000  0.75341000  1.0
  H  H27  1  0.42924000  0.23555000  0.74659000  1.0
  H  H28  1  0.96964000  0.63649000  0.18535000  1.0
  H  H29  1  0.46963000  0.86352000  0.31464000  1.0
  H  H30  1  0.03037000  0.36352000  0.81464000  1.0
  H  H31  1  0.53037000  0.13649000  0.68535000  1.0
  H  H32  1  0.19170000  0.77606000  0.16393000  1.0
  H  H33  1  0.69169000  0.72393000  0.33607000  1.0
  H  H34  1  0.80833000  0.22394000  0.83607000  1.0
  H  H35  1  0.30830000  0.27607000  0.66393000  1.0
  H  H36  1  0.74397000  0.74606000  0.04705000  1.0
  H  H37  1  0.24398000  0.75394000  0.45295000  1.0
  H  H38  1  0.25602000  0.25396000  0.95295000  1.0
  H  H39  1  0.75601000  0.24606000  0.54706000  1.0
  H  H40  1  0.54306000  0.60699000  0.03399000  1.0
  H  H41  1  0.04301000  0.89300000  0.46601000  1.0
  H  H42  1  0.45699000  0.39300000  0.96601000  1.0
  H  H43  1  0.95695000  0.10700000  0.53399000  1.0
  H  H44  1  0.82435000  0.55772000  0.07340000  1.0
  H  H45  1  0.32433000  0.94229000  0.42661000  1.0
  H  H46  1  0.17569000  0.44231000  0.92661000  1.0
  H  H47  1  0.67565000  0.05772000  0.57341000  1.0
  C  C48  1  0.09826000  0.40104000  0.36682000  1.0
  C  C49  1  0.59824000  0.09896000  0.13318000  1.0
  C  C50  1  0.90174000  0.59897000  0.63318000  1.0
  C  C51  1  0.40172000  0.90103000  0.86682000  1.0
  C  C52  1  0.97669000  0.46934000  0.41073000  1.0
  C  C53  1  0.47666000  0.03067000  0.08927000  1.0
  C  C54  1  0.02332000  0.53066000  0.58927000  1.0
  C  C55  1  0.52330000  0.96934000  0.91073000  1.0
  C  C56  1  0.06199000  0.46429000  0.47595000  1.0
  C  C57  1  0.56198000  0.03570000  0.02405000  1.0
  C  C58  1  0.93801000  0.53572000  0.52404000  1.0
  C  C59  1  0.43802000  0.96427000  0.97596000  1.0
  C  C60  1  0.27197000  0.38543000  0.49293000  1.0
  C  C61  1  0.77196000  0.11458000  0.00707000  1.0
  C  C62  1  0.72805000  0.61456000  0.50708000  1.0
  C  C63  1  0.22805000  0.88544000  0.99293000  1.0
  C  C64  1  0.38356000  0.32065000  0.44608000  1.0
  C  C65  1  0.88351000  0.17933000  0.05391000  1.0
  C  C66  1  0.61646000  0.67933000  0.55391000  1.0
  C  C67  1  0.11642000  0.82066000  0.94608000  1.0
  C  C68  1  0.12111000  0.68924000  0.20362000  1.0
  C  C69  1  0.62111000  0.81075000  0.29638000  1.0
  C  C70  1  0.87889000  0.31076000  0.79638000  1.0
  C  C71  1  0.37889000  0.18924000  0.70362000  1.0
  C  C72  1  0.67815000  0.63609000  0.06746000  1.0
  C  C73  1  0.17815000  0.86391000  0.43255000  1.0
  C  C74  1  0.32186000  0.36392000  0.93255000  1.0
  C  C75  1  0.82184000  0.13610000  0.56746000  1.0
  S  S76  1  0.67577000  0.37990000  0.23810000  1.0
  S  S77  1  0.17575000  0.12011000  0.26190000  1.0
  S  S78  1  0.32425000  0.62011000  0.76190000  1.0
  S  S79  1  0.82424000  0.87990000  0.73810000  1.0
  S  S80  1  0.23563000  0.41868000  0.11594000  1.0
  S  S81  1  0.73564000  0.08131000  0.38406000  1.0
  S  S82  1  0.76436000  0.58133000  0.88406000  1.0
  S  S83  1  0.26437000  0.91868000  0.61594000  1.0
  N  N84  1  0.30098000  0.32765000  0.38342000  1.0
  N  N85  1  0.80099000  0.17235000  0.11657000  1.0
  N  N86  1  0.69902000  0.67237000  0.61658000  1.0
  N  N87  1  0.19903000  0.82764000  0.88342000  1.0
  O  O88  1  0.30296000  0.58305000  0.22763000  1.0
  O  O89  1  0.80296000  0.91693000  0.27237000  1.0
  O  O90  1  0.69704000  0.41694000  0.77237000  1.0
  O  O91  1  0.19705000  0.08305000  0.72763000  1.0
  O  O92  1  0.57787000  0.64305000  0.13181000  1.0
  O  O93  1  0.07791000  0.85695000  0.36818000  1.0
  O  O94  1  0.42211000  0.35695000  0.86819000  1.0
  O  O95  1  0.92214000  0.14306000  0.63181000  1.0
