# generated using pymatgen
data_Cd2H5C2S2N5O8
_symmetry_space_group_name_H-M   'P 1'
_cell_length_a   6.76102000
_cell_length_b   9.22280000
_cell_length_c   9.79637000
_cell_angle_alpha   65.09130000
_cell_angle_beta   72.32180000
_cell_angle_gamma   71.19650000
_symmetry_Int_Tables_number   1
_chemical_formula_structural   Cd2H5C2S2N5O8
_chemical_formula_sum   'Cd4 H10 C4 S4 N10 O16'
_cell_volume   514.33859559
_cell_formula_units_Z   2
loop_
 _symmetry_equiv_pos_site_id
 _symmetry_equiv_pos_as_xyz
  1  'x, y, z'
loop_
 _atom_site_type_symbol
 _atom_site_label
 _atom_site_symmetry_multiplicity
 _atom_site_fract_x
 _atom_site_fract_y
 _atom_site_fract_z
 _atom_site_occupancy
  Cd  Cd0  1  0.86723000  0.78043000  0.60664000  1.0
  Cd  Cd1  1  0.13277000  0.21957000  0.39336000  1.0
  Cd  Cd2  1  0.32330000  0.39876000  0.65828000  1.0
  Cd  Cd3  1  0.67671000  0.60123000  0.34172000  1.0
  H  H4  1  0.74395000  0.49234000  0.92655000  1.0
  H  H5  1  0.25605000  0.50767000  0.07345000  1.0
  H  H6  1  0.68459000  0.46320000  0.11864000  1.0
  H  H7  1  0.31538000  0.53680000  0.88136000  1.0
  H  H8  1  0.74492000  0.12040000  0.02208000  1.0
  H  H9  1  0.25508000  0.87960000  0.97793000  1.0
  H  H10  1  0.67791000  0.97325000  0.20264000  1.0
  H  H11  1  0.32210000  0.02675000  0.79736000  1.0
  H  H12  1  0.87283000  0.02517000  0.78381000  1.0
  H  H13  1  0.12718000  0.97483000  0.21619000  1.0
  C  C14  1  0.75883000  0.68390000  0.97948000  1.0
  C  C15  1  0.24118000  0.31610000  0.02052000  1.0
  C  C16  1  0.76033000  0.89768000  0.02123000  1.0
  C  C17  1  0.23967000  0.10232000  0.97877000  1.0
  S  S18  1  0.63871000  0.19016000  0.42635000  1.0
  S  S19  1  0.36129000  0.80984000  0.57364000  1.0
  S  S20  1  0.17246000  0.62748000  0.30309000  1.0
  S  S21  1  0.82755000  0.37252000  0.69692000  1.0
  N  N22  1  0.81230000  0.79360000  0.84049000  1.0
  N  N23  1  0.18770000  0.20640000  0.15951000  1.0
  N  N24  1  0.72649000  0.74358000  0.09359000  1.0
  N  N25  1  0.27351000  0.25642000  0.90641000  1.0
  N  N26  1  0.81082000  0.92979000  0.86897000  1.0
  N  N27  1  0.18918000  0.07021000  0.13103000  1.0
  N  N28  1  0.74096000  0.53218000  0.00954000  1.0
  N  N29  1  0.25904000  0.46782000  0.99046000  1.0
  N  N30  1  0.74760000  0.00004000  0.08971000  1.0
  N  N31  1  0.25240000  0.99996000  0.91029000  1.0
  O  O32  1  0.80027000  0.03452000  0.43209000  1.0
  O  O33  1  0.19972000  0.96547000  0.56790000  1.0
  O  O34  1  0.49582000  0.22879000  0.32116000  1.0
  O  O35  1  0.50418000  0.77123000  0.67883000  1.0
  O  O36  1  0.02956000  0.76651000  0.34932000  1.0
  O  O37  1  0.97044000  0.23349000  0.65069000  1.0
  O  O38  1  0.04409000  0.50454000  0.33781000  1.0
  O  O39  1  0.95591000  0.49546000  0.66219000  1.0
  O  O40  1  0.76416000  0.32161000  0.36145000  1.0
  O  O41  1  0.23584000  0.67839000  0.63856000  1.0
  O  O42  1  0.51502000  0.17781000  0.58405000  1.0
  O  O43  1  0.48498000  0.82219000  0.41595000  1.0
  O  O44  1  0.26898000  0.68243000  0.13971000  1.0
  O  O45  1  0.73102000  0.31757000  0.86030000  1.0
  O  O46  1  0.34525000  0.53934000  0.39590000  1.0
  O  O47  1  0.65476000  0.46066000  0.60411000  1.0
