# generated using pymatgen
data_KZnH7(C3O4)2
_symmetry_space_group_name_H-M   'P 1'
_cell_length_a   7.33562000
_cell_length_b   7.49133000
_cell_length_c   9.73500000
_cell_angle_alpha   77.46840000
_cell_angle_beta   68.69570000
_cell_angle_gamma   65.06480000
_symmetry_Int_Tables_number   1
_chemical_formula_structural   KZnH7(C3O4)2
_chemical_formula_sum   'K2 Zn2 H14 C12 O16'
_cell_volume   450.66443164
_cell_formula_units_Z   2
loop_
 _symmetry_equiv_pos_site_id
 _symmetry_equiv_pos_as_xyz
  1  'x, y, z'
loop_
 _atom_site_type_symbol
 _atom_site_label
 _atom_site_symmetry_multiplicity
 _atom_site_fract_x
 _atom_site_fract_y
 _atom_site_fract_z
 _atom_site_occupancy
  K  K0  1  0.76410000  0.25602000  0.96458000  1.0
  K  K1  1  0.23590000  0.74399000  0.03542000  1.0
  Zn  Zn2  1  0.60227000  0.86673000  0.26643000  1.0
  Zn  Zn3  1  0.39773000  0.13327000  0.73357000  1.0
  H  H4  1  0.61856000  0.50388000  0.40190000  1.0
  H  H5  1  0.38143000  0.49612000  0.59811000  1.0
  H  H6  1  0.45956000  0.55085000  0.30905000  1.0
  H  H7  1  0.54044000  0.44915000  0.69095000  1.0
  H  H8  1  0.17091000  0.94784000  0.30474000  1.0
  H  H9  1  0.82909000  0.05216000  0.69526000  1.0
  H  H10  1  0.93654000  0.42432000  0.45351000  1.0
  H  H11  1  0.06346000  0.57568000  0.54649000  1.0
  H  H12  1  0.89582000  0.20513000  0.46179000  1.0
  H  H13  1  0.10417000  0.79487000  0.53821000  1.0
  H  H14  1  0.95139000  0.24494000  0.20081000  1.0
  H  H15  1  0.04861000  0.75506000  0.79919000  1.0
  H  H16  1  0.99315000  0.46596000  0.18803000  1.0
  H  H17  1  0.00685000  0.53404000  0.81197000  1.0
  C  C18  1  0.09835000  0.18744000  0.58214000  1.0
  C  C19  1  0.90165000  0.81256000  0.41786000  1.0
  C  C20  1  0.01607000  0.26305000  0.44976000  1.0
  C  C21  1  0.98393000  0.73695000  0.55024000  1.0
  C  C22  1  0.18481000  0.21437000  0.29828000  1.0
  C  C23  1  0.81519000  0.78563000  0.70172000  1.0
  C  C24  1  0.36054000  0.29198000  0.27303000  1.0
  C  C25  1  0.63946000  0.70802000  0.72697000  1.0
  C  C26  1  0.07272000  0.30585000  0.17813000  1.0
  C  C27  1  0.92728000  0.69415000  0.82187000  1.0
  C  C28  1  0.22397000  0.27063000  0.02173000  1.0
  C  C29  1  0.77603000  0.72938000  0.97827000  1.0
  O  O30  1  0.00587000  0.09980000  0.69422000  1.0
  O  O31  1  0.99413000  0.90020000  0.30578000  1.0
  O  O32  1  0.52531000  0.61084000  0.35296000  1.0
  O  O33  1  0.47469000  0.38916000  0.64704000  1.0
  O  O34  1  0.25695000  0.22367000  0.57475000  1.0
  O  O35  1  0.74305000  0.77633000  0.42525000  1.0
  O  O36  1  0.28427000  0.00464000  0.29044000  1.0
  O  O37  1  0.71573000  0.99536000  0.70956000  1.0
  O  O38  1  0.30479000  0.47591000  0.27383000  1.0
  O  O39  1  0.69521000  0.52409000  0.72617000  1.0
  O  O40  1  0.55011000  0.16721000  0.25026000  1.0
  O  O41  1  0.44989000  0.83279000  0.74975000  1.0
  O  O42  1  0.36973000  0.33444000  0.97682000  1.0
  O  O43  1  0.63027000  0.66556000  0.02318000  1.0
  O  O44  1  0.18992000  0.17686000  0.94152000  1.0
  O  O45  1  0.81008000  0.82314000  0.05848000  1.0
