# generated using pymatgen
data_CuH2C3SN2
_symmetry_space_group_name_H-M   'P 1'
_cell_length_a   5.90648000
_cell_length_b   6.20244024
_cell_length_c   14.14740000
_cell_angle_alpha   90.00630360
_cell_angle_beta   90.00480000
_cell_angle_gamma   62.88440266
_symmetry_Int_Tables_number   1
_chemical_formula_structural   CuH2C3SN2
_chemical_formula_sum   'Cu4 H8 C12 S4 N8'
_cell_volume   461.31892702
_cell_formula_units_Z   4
loop_
 _symmetry_equiv_pos_site_id
 _symmetry_equiv_pos_as_xyz
  1  'x, y, z'
loop_
 _atom_site_type_symbol
 _atom_site_label
 _atom_site_symmetry_multiplicity
 _atom_site_fract_x
 _atom_site_fract_y
 _atom_site_fract_z
 _atom_site_occupancy
  Cu  Cu0  1  0.02353000  0.60459000  0.82867000  1.0
  Cu  Cu1  1  0.52355000  0.10461000  0.67131000  1.0
  Cu  Cu2  1  0.97643000  0.39542000  0.17133000  1.0
  Cu  Cu3  1  0.47648000  0.89537000  0.32869000  1.0
  H  H4  1  0.78240000  0.68686000  0.49838000  1.0
  H  H5  1  0.28243000  0.18685000  0.00161000  1.0
  H  H6  1  0.21761000  0.31312000  0.50162000  1.0
  H  H7  1  0.71760000  0.81315000  0.99839000  1.0
  H  H8  1  0.18954000  0.60374000  0.37327000  1.0
  H  H9  1  0.68959000  0.10380000  0.12674000  1.0
  H  H10  1  0.81045000  0.39625000  0.62673000  1.0
  H  H11  1  0.31043000  0.89622000  0.87326000  1.0
  C  C12  1  0.12834000  0.91039000  0.66905000  1.0
  C  C13  1  0.62833000  0.41040000  0.83094000  1.0
  C  C14  1  0.87167000  0.08960000  0.33096000  1.0
  C  C15  1  0.37168000  0.58958000  0.16904000  1.0
  C  C16  1  0.65711000  0.60152000  0.49872000  1.0
  C  C17  1  0.15715000  0.10151000  0.00128000  1.0
  C  C18  1  0.34286000  0.39850000  0.50129000  1.0
  C  C19  1  0.84286000  0.89851000  0.99871000  1.0
  C  C20  1  0.32819000  0.55823000  0.43010000  1.0
  C  C21  1  0.82822000  0.05826000  0.06991000  1.0
  C  C22  1  0.67179000  0.44178000  0.56991000  1.0
  C  C23  1  0.17179000  0.94176000  0.93008000  1.0
  S  S24  1  0.43138000  0.29156000  0.81976000  1.0
  S  S25  1  0.93138000  0.79157000  0.68022000  1.0
  S  S26  1  0.56861000  0.70840000  0.18024000  1.0
  S  S27  1  0.06863000  0.20842000  0.31978000  1.0
  N  N28  1  0.27602000  0.98885000  0.66087000  1.0
  N  N29  1  0.77601000  0.48886000  0.83911000  1.0
  N  N30  1  0.72398000  0.01115000  0.33913000  1.0
  N  N31  1  0.22400000  0.51112000  0.16087000  1.0
  N  N32  1  0.48564000  0.66175000  0.42819000  1.0
  N  N33  1  0.98569000  0.16176000  0.07181000  1.0
  N  N34  1  0.51434000  0.33826000  0.57181000  1.0
  N  N35  1  0.01433000  0.83825000  0.92819000  1.0
