# generated using pymatgen
data_MnH8(CO)8
_symmetry_space_group_name_H-M   'P 1'
_cell_length_a   7.00938000
_cell_length_b   8.18190000
_cell_length_c   9.37865000
_cell_angle_alpha   64.17020000
_cell_angle_beta   82.91720000
_cell_angle_gamma   73.51840000
_symmetry_Int_Tables_number   1
_chemical_formula_structural   MnH8(CO)8
_chemical_formula_sum   'Mn2 H16 C16 O16'
_cell_volume   464.23658647
_cell_formula_units_Z   2
loop_
 _symmetry_equiv_pos_site_id
 _symmetry_equiv_pos_as_xyz
  1  'x, y, z'
loop_
 _atom_site_type_symbol
 _atom_site_label
 _atom_site_symmetry_multiplicity
 _atom_site_fract_x
 _atom_site_fract_y
 _atom_site_fract_z
 _atom_site_occupancy
  Mn  Mn0  1  0.24998000  0.18946000  0.62082000  1.0
  Mn  Mn1  1  0.75002000  0.81053000  0.37918000  1.0
  H  H2  1  0.29667000  0.82957000  0.92223000  1.0
  H  H3  1  0.20363000  0.24791000  0.92260000  1.0
  H  H4  1  0.70333000  0.17043000  0.07778000  1.0
  H  H5  1  0.79638000  0.75209000  0.07740000  1.0
  H  H6  1  0.53823000  0.20665000  0.78061000  1.0
  H  H7  1  0.96174000  0.01252000  0.78062000  1.0
  H  H8  1  0.46177000  0.79334000  0.21940000  1.0
  H  H9  1  0.03826000  0.98748000  0.21938000  1.0
  H  H10  1  0.63464000  0.49158000  0.66580000  1.0
  H  H11  1  0.86580000  0.84215000  0.66572000  1.0
  H  H12  1  0.36535000  0.50842000  0.33420000  1.0
  H  H13  1  0.13420000  0.15785000  0.33427000  1.0
  H  H14  1  0.59740000  0.00163000  0.79245000  1.0
  H  H15  1  0.90265000  0.20563000  0.79256000  1.0
  H  H16  1  0.40259000  0.99837000  0.20755000  1.0
  H  H17  1  0.09734000  0.79437000  0.20744000  1.0
  C  C18  1  0.47145000  0.62492000  0.83842000  1.0
  C  C19  1  0.02863000  0.53643000  0.83841000  1.0
  C  C20  1  0.52856000  0.37508000  0.16158000  1.0
  C  C21  1  0.97138000  0.46358000  0.16159000  1.0
  C  C22  1  0.38567000  0.68555000  0.95554000  1.0
  C  C23  1  0.11448000  0.35883000  0.95562000  1.0
  C  C24  1  0.61433000  0.31446000  0.04446000  1.0
  C  C25  1  0.88552000  0.64118000  0.04438000  1.0
  C  C26  1  0.58594000  0.43668000  0.88508000  1.0
  C  C27  1  0.91403000  0.67802000  0.88502000  1.0
  C  C28  1  0.41407000  0.56331000  0.11493000  1.0
  C  C29  1  0.08597000  0.32199000  0.11497000  1.0
  C  C30  1  0.44553000  0.75677000  0.66726000  1.0
  C  C31  1  0.05489000  0.57569000  0.66727000  1.0
  C  C32  1  0.55447000  0.24323000  0.33274000  1.0
  C  C33  1  0.94511000  0.42432000  0.33273000  1.0
  O  O34  1  0.33094000  0.91973000  0.62334000  1.0
  O  O35  1  0.16955000  0.45660000  0.62340000  1.0
  O  O36  1  0.66906000  0.08027000  0.37666000  1.0
  O  O37  1  0.83044000  0.54340000  0.37660000  1.0
  O  O38  1  0.54663000  0.69293000  0.56835000  1.0
  O  O39  1  0.95410000  0.73853000  0.56820000  1.0
  O  O40  1  0.45337000  0.30707000  0.43166000  1.0
  O  O41  1  0.04590000  0.26148000  0.43180000  1.0
  O  O42  1  0.66767000  0.37139000  0.77280000  1.0
  O  O43  1  0.83231000  0.85545000  0.77271000  1.0
  O  O44  1  0.33233000  0.62861000  0.22720000  1.0
  O  O45  1  0.16769000  0.14455000  0.22729000  1.0
  O  O46  1  0.48114000  0.10312000  0.79426000  1.0
  O  O47  1  0.01890000  0.10237000  0.79429000  1.0
  O  O48  1  0.51886000  0.89687000  0.20574000  1.0
  O  O49  1  0.98110000  0.89763000  0.20572000  1.0
