# generated using pymatgen
data_BaH10C8N2O7
_symmetry_space_group_name_H-M   'P 1'
_cell_length_a   4.59246000
_cell_length_b   7.03935183
_cell_length_c   17.94260000
_cell_angle_alpha   88.60152337
_cell_angle_beta   85.85060000
_cell_angle_gamma   71.16640787
_symmetry_Int_Tables_number   1
_chemical_formula_structural   BaH10C8N2O7
_chemical_formula_sum   'Ba2 H20 C16 N4 O14'
_cell_volume   547.55231168
_cell_formula_units_Z   2
loop_
 _symmetry_equiv_pos_site_id
 _symmetry_equiv_pos_as_xyz
  1  'x, y, z'
loop_
 _atom_site_type_symbol
 _atom_site_label
 _atom_site_symmetry_multiplicity
 _atom_site_fract_x
 _atom_site_fract_y
 _atom_site_fract_z
 _atom_site_occupancy
  Ba  Ba0  1  0.41936000  0.15863000  0.74986000  1.0
  Ba  Ba1  1  0.58064000  0.84137000  0.25014000  1.0
  H  H2  1  0.30207000  0.85419000  0.54638000  1.0
  H  H3  1  0.85224000  0.86607000  0.95902000  1.0
  H  H4  1  0.69793000  0.14582000  0.45362000  1.0
  H  H5  1  0.14776000  0.13392000  0.04098000  1.0
  H  H6  1  0.44561000  0.66073000  0.61233000  1.0
  H  H7  1  0.87394000  0.67599000  0.89394000  1.0
  H  H8  1  0.55439000  0.33928000  0.38767000  1.0
  H  H9  1  0.12606000  0.32399000  0.10606000  1.0
  H  H10  1  0.07049000  0.76933000  0.43867000  1.0
  H  H11  1  0.16470000  0.76033000  0.06629000  1.0
  H  H12  1  0.92951000  0.23068000  0.56133000  1.0
  H  H13  1  0.83531000  0.23966000  0.93371000  1.0
  H  H14  1  0.74923000  0.83742000  0.50500000  1.0
  H  H15  1  0.41361000  0.83708000  0.00111000  1.0
  H  H16  1  0.25077000  0.16259000  0.49500000  1.0
  H  H17  1  0.58640000  0.16291000  0.99889000  1.0
  H  H18  1  0.78590000  0.56217000  0.71094000  1.0
  H  H19  1  0.65288000  0.55887000  0.79081000  1.0
  H  H20  1  0.21410000  0.43783000  0.28906000  1.0
  H  H21  1  0.34710000  0.44114000  0.20919000  1.0
  C  C22  1  0.99535000  0.86561000  0.64405000  1.0
  C  C23  1  0.13577000  0.86919000  0.85800000  1.0
  C  C24  1  0.00467000  0.13440000  0.35595000  1.0
  C  C25  1  0.86422000  0.13080000  0.14200000  1.0
  C  C26  1  0.23938000  0.74704000  0.58429000  1.0
  C  C27  1  0.00882000  0.75617000  0.91998000  1.0
  C  C28  1  0.76062000  0.25297000  0.41570000  1.0
  C  C29  1  0.99117000  0.24382000  0.08002000  1.0
  C  C30  1  0.93910000  0.70904000  0.48147000  1.0
  C  C31  1  0.35263000  0.70574000  0.02235000  1.0
  C  C32  1  0.06090000  0.29097000  0.51853000  1.0
  C  C33  1  0.64738000  0.29425000  0.97765000  1.0
  C  C34  1  0.20244000  0.41922000  0.55970000  1.0
  C  C35  1  0.37489000  0.42700000  0.93879000  1.0
  C  C36  1  0.79757000  0.58079000  0.44030000  1.0
  C  C37  1  0.62512000  0.57299000  0.06121000  1.0
  N  N38  1  0.13480000  0.61361000  0.54085000  1.0
  N  N39  1  0.24740000  0.61784000  0.96156000  1.0
  N  N40  1  0.86520000  0.38640000  0.45915000  1.0
  N  N41  1  0.75260000  0.38215000  0.03844000  1.0
  O  O42  1  0.02301000  0.02880000  0.66543000  1.0
  O  O43  1  0.94551000  0.02938000  0.83440000  1.0
  O  O44  1  0.97700000  0.97120000  0.33457000  1.0
  O  O45  1  0.05448000  0.97061000  0.16560000  1.0
  O  O46  1  0.76512000  0.46522000  0.75031000  1.0
  O  O47  1  0.23488000  0.53478000  0.24969000  1.0
  O  O48  1  0.78250000  0.79626000  0.66750000  1.0
  O  O49  1  0.41754000  0.79929000  0.83519000  1.0
  O  O50  1  0.21750000  0.20374000  0.33251000  1.0
  O  O51  1  0.58246000  0.20069000  0.16481000  1.0
  O  O52  1  0.37710000  0.34055000  0.61015000  1.0
  O  O53  1  0.27640000  0.35519000  0.88675000  1.0
  O  O54  1  0.62290000  0.65946000  0.38985000  1.0
  O  O55  1  0.72360000  0.64480000  0.11325000  1.0
