# generated using pymatgen
data_ZnH11C19NO5
_symmetry_space_group_name_H-M   'P 1'
_cell_length_a   11.76320000
_cell_length_b   13.15430000
_cell_length_c   16.92820000
_cell_angle_alpha   88.30990000
_cell_angle_beta   76.59520000
_cell_angle_gamma   86.22010000
_symmetry_Int_Tables_number   1
_chemical_formula_structural   ZnH11C19NO5
_chemical_formula_sum   'Zn2 H22 C38 N2 O10'
_cell_volume   2542.23569170
_cell_formula_units_Z   2
loop_
 _symmetry_equiv_pos_site_id
 _symmetry_equiv_pos_as_xyz
  1  'x, y, z'
loop_
 _atom_site_type_symbol
 _atom_site_label
 _atom_site_symmetry_multiplicity
 _atom_site_fract_x
 _atom_site_fract_y
 _atom_site_fract_z
 _atom_site_occupancy
  Zn  Zn0  1  0.61775000  0.51062000  0.49102000  1.0
  Zn  Zn1  1  0.38046000  0.50454000  0.50760000  1.0
  H  H2  1  0.39481000  0.55069000  0.23858000  1.0
  H  H3  1  0.36666000  0.25573000  0.87370000  1.0
  H  H4  1  0.58437000  0.49848000  0.90000000  1.0
  H  H5  1  0.41283000  0.48970000  0.09807000  1.0
  H  H6  1  0.35681000  0.18403000  0.49790000  1.0
  H  H7  1  0.64649000  0.83064000  0.49862000  1.0
  H  H8  1  0.71938000  0.18609000  0.50352000  1.0
  H  H9  1  0.28024000  0.82810000  0.50356000  1.0
  H  H10  1  0.26307000  0.01834000  0.50129000  1.0
  H  H11  1  0.73759000  0.99580000  0.50277000  1.0
  H  H12  1  0.79440000  0.41208000  0.57098000  1.0
  H  H13  1  0.58408000  0.55846000  0.75911000  1.0
  H  H14  1  0.20391000  0.60284000  0.42661000  1.0
  H  H15  1  0.28526000  0.32367000  0.99789000  1.0
  H  H16  1  0.75773000  0.35111000  0.00237000  1.0
  H  H17  1  0.79892000  0.63910000  0.39607000  1.0
  H  H18  1  0.19778000  0.38064000  0.60526000  1.0
  H  H19  1  0.98299000  0.35647000  0.61964000  1.0
  H  H20  1  0.01406000  0.66173000  0.38057000  1.0
  H  H21  1  0.35666000  0.32405000  0.73695000  1.0
  H  H22  1  0.68556000  0.34736000  0.26320000  1.0
  H  H23  1  0.69696000  0.27741000  0.12658000  1.0
  C  C24  1  0.47623000  0.70502000  0.49900000  1.0
  C  C25  1  0.43913000  0.14174000  0.49968000  1.0
  C  C26  1  0.55583000  0.98029000  0.50098000  1.0
  C  C27  1  0.44555000  0.03404000  0.50068000  1.0
  C  C28  1  0.02843000  0.41182000  0.57647000  1.0
  C  C29  1  0.96887000  0.60580000  0.42328000  1.0
  C  C30  1  0.14565000  0.42410000  0.56903000  1.0
  C  C31  1  0.85160000  0.59376000  0.43089000  1.0
  C  C32  1  0.15084000  0.55038000  0.46858000  1.0
  C  C33  1  0.84702000  0.46587000  0.53008000  1.0
  C  C34  1  0.03007000  0.54442000  0.47180000  1.0
  C  C35  1  0.52667000  0.30914000  0.49975000  1.0
  C  C36  1  0.96758000  0.47255000  0.52738000  1.0
  C  C37  1  0.52884000  0.48987000  0.34343000  1.0
  C  C38  1  0.46971000  0.48251000  0.65542000  1.0
  C  C39  1  0.53969000  0.45308000  0.25900000  1.0
  C  C40  1  0.46948000  0.44535000  0.73989000  1.0
  C  C41  1  0.46126000  0.49159000  0.21285000  1.0
  C  C42  1  0.53584000  0.49296000  0.78546000  1.0
  C  C43  1  0.47039000  0.45627000  0.13524000  1.0
  C  C44  1  0.53735000  0.45831000  0.86325000  1.0
  C  C45  1  0.55533000  0.37864000  0.10195000  1.0
  C  C46  1  0.53632000  0.19520000  0.50061000  1.0
  C  C47  1  0.47660000  0.37235000  0.89720000  1.0
  C  C48  1  0.63270000  0.33949000  0.14940000  1.0
  C  C49  1  0.41168000  0.32405000  0.85029000  1.0
  C  C50  1  0.62565000  0.37717000  0.22651000  1.0
  C  C51  1  0.40718000  0.36105000  0.77306000  1.0
  C  C52  1  0.56769000  0.35134000  0.01697000  1.0
  C  C53  1  0.47255000  0.34516000  0.98228000  1.0
  C  C54  1  0.35721000  0.31332000  0.03096000  1.0
  C  C55  1  0.69043000  0.33361000  0.96861000  1.0
  C  C56  1  0.46552000  0.81900000  0.50017000  1.0
  C  C57  1  0.34673000  0.97706000  0.50130000  1.0
  C  C58  1  0.65416000  0.03709000  0.50211000  1.0
  C  C59  1  0.35592000  0.87222000  0.50204000  1.0
  C  C60  1  0.64467000  0.14189000  0.50242000  1.0
  C  C61  1  0.56306000  0.87263000  0.49966000  1.0
  N  N62  1  0.79260000  0.52404000  0.48353000  1.0
  N  N63  1  0.20511000  0.49271000  0.51552000  1.0
  O  O64  1  0.57920000  0.66288000  0.47734000  1.0
  O  O65  1  0.72045000  0.29820000  0.90025000  1.0
  O  O66  1  0.43227000  0.35250000  0.48700000  1.0
  O  O67  1  0.38189000  0.65832000  0.51979000  1.0
  O  O68  1  0.61348000  0.35493000  0.51167000  1.0
  O  O69  1  0.62059000  0.48106000  0.37164000  1.0
  O  O70  1  0.37990000  0.46836000  0.62800000  1.0
  O  O71  1  0.42792000  0.52477000  0.38147000  1.0
  O  O72  1  0.56165000  0.52385000  0.61657000  1.0
  O  O73  1  0.33926000  0.27384000  0.09879000  1.0
