# generated using pymatgen
data_UH22C21(NO3)2
_symmetry_space_group_name_H-M   'P 1'
_cell_length_a   8.87365000
_cell_length_b   10.17520000
_cell_length_c   12.31300000
_cell_angle_alpha   74.62940000
_cell_angle_beta   69.65600000
_cell_angle_gamma   74.83120000
_symmetry_Int_Tables_number   1
_chemical_formula_structural   UH22C21(NO3)2
_chemical_formula_sum   'U2 H44 C42 N4 O12'
_cell_volume   987.29531561
_cell_formula_units_Z   2
loop_
 _symmetry_equiv_pos_site_id
 _symmetry_equiv_pos_as_xyz
  1  'x, y, z'
loop_
 _atom_site_type_symbol
 _atom_site_label
 _atom_site_symmetry_multiplicity
 _atom_site_fract_x
 _atom_site_fract_y
 _atom_site_fract_z
 _atom_site_occupancy
  U  U0  1  0.23360000  0.11970000  0.66679000  1.0
  U  U1  1  0.76639000  0.88030000  0.33321000  1.0
  H  H2  1  0.07185000  0.06231000  0.35160000  1.0
  H  H3  1  0.92815000  0.93769000  0.64840000  1.0
  H  H4  1  0.27039000  0.96391000  0.32910000  1.0
  H  H5  1  0.72961000  0.03609000  0.67090000  1.0
  H  H6  1  0.27331000  0.12676000  0.14846000  1.0
  H  H7  1  0.72669000  0.87324000  0.85154000  1.0
  H  H8  1  0.38267000  0.18632000  0.21539000  1.0
  H  H9  1  0.61733000  0.81368000  0.78461000  1.0
  H  H10  1  0.02046000  0.29654000  0.22993000  1.0
  H  H11  1  0.97954000  0.70346000  0.77007000  1.0
  H  H12  1  0.13621000  0.36474000  0.28524000  1.0
  H  H13  1  0.86379000  0.63526000  0.71476000  1.0
  H  H14  1  0.32982000  0.41309000  0.07473000  1.0
  H  H15  1  0.67018000  0.58691000  0.92527000  1.0
  H  H16  1  0.19661000  0.36119000  0.02453000  1.0
  H  H17  1  0.80339000  0.63880000  0.97547000  1.0
  H  H18  1  0.09612000  0.59751000  0.16281000  1.0
  H  H19  1  0.90388000  0.40250000  0.83719000  1.0
  H  H20  1  0.97057000  0.55288000  0.10114000  1.0
  H  H21  1  0.02943000  0.44712000  0.89886000  1.0
  H  H22  1  0.29817000  0.64231000  0.95269000  1.0
  H  H23  1  0.70183000  0.35769000  0.04730000  1.0
  H  H24  1  0.14951000  0.62231000  0.89804000  1.0
  H  H25  1  0.85049000  0.37769000  0.10196000  1.0
  H  H26  1  0.95043000  0.81661000  0.99088000  1.0
  H  H27  1  0.04957000  0.18339000  0.00912000  1.0
  H  H28  1  0.09306000  0.83329000  0.05380000  1.0
  H  H29  1  0.90694000  0.16670000  0.94620000  1.0
  H  H30  1  0.44671000  0.03436000  0.86800000  1.0
  H  H31  1  0.55328000  0.96564000  0.13200000  1.0
  H  H32  1  0.63190000  0.11032000  0.94445000  1.0
  H  H33  1  0.36810000  0.88968000  0.05555000  1.0
  H  H34  1  0.65928000  0.36043000  0.88688000  1.0
  H  H35  1  0.34072000  0.63957000  0.11312000  1.0
  H  H36  1  0.43918000  0.75413000  0.63441000  1.0
  H  H37  1  0.56083000  0.24586000  0.36559000  1.0
  H  H38  1  0.58695000  0.59810000  0.77147000  1.0
  H  H39  1  0.41305000  0.40190000  0.22853000  1.0
  H  H40  1  0.25925000  0.78741000  0.50905000  1.0
  H  H41  1  0.74075000  0.21259000  0.49095000  1.0
  H  H42  1  0.12480000  0.67617000  0.41528000  1.0
  H  H43  1  0.87520000  0.32383000  0.58472000  1.0
  H  H44  1  0.13839000  0.41948000  0.47246000  1.0
  H  H45  1  0.86161000  0.58052000  0.52755000  1.0
  C  C46  1  0.20737000  0.09523000  0.44884000  1.0
  C  C47  1  0.79262000  0.90477000  0.55116000  1.0
  C  C48  1  0.19966000  0.06924000  0.33655000  1.0
  C  C49  1  0.80034000  0.93076000  0.66345000  1.0
  C  C50  1  0.25954000  0.17264000  0.22386000  1.0
  C  C51  1  0.74046000  0.82736000  0.77614000  1.0
  C  C52  1  0.14458000  0.31335000  0.21446000  1.0
  C  C53  1  0.85542000  0.68665000  0.78554000  1.0
  C  C54  1  0.19973000  0.40792000  0.09484000  1.0
  C  C55  1  0.80027000  0.59207000  0.90516000  1.0
  C  C56  1  0.09934000  0.55492000  0.08827000  1.0
  C  C57  1  0.90066000  0.44508000  0.91173000  1.0
  C  C58  1  0.16496000  0.65243000  0.97240000  1.0
  C  C59  1  0.83504000  0.34757000  0.02760000  1.0
  C  C60  1  0.08234000  0.80364000  0.97776000  1.0
  C  C61  1  0.91766000  0.19636000  0.02224000  1.0
  C  C62  1  0.14939000  0.90421000  0.86795000  1.0
  C  C63  1  0.85061000  0.09578000  0.13205000  1.0
  C  C64  1  0.46449000  0.14131000  0.84341000  1.0
  C  C65  1  0.53551000  0.85869000  0.15659000  1.0
  C  C66  1  0.56629000  0.18495000  0.88688000  1.0
  C  C67  1  0.43371000  0.81504000  0.11312000  1.0
  C  C68  1  0.58174000  0.32259000  0.85491000  1.0
  C  C69  1  0.41826000  0.67741000  0.14509000  1.0
  C  C70  1  0.49852000  0.41543000  0.77781000  1.0
  C  C71  1  0.50148000  0.58457000  0.22220000  1.0
  C  C72  1  0.40301000  0.36054000  0.73485000  1.0
  C  C73  1  0.59699000  0.63946000  0.26515000  1.0
  C  C74  1  0.32833000  0.44851000  0.64787000  1.0
  C  C75  1  0.67167000  0.55149000  0.35212000  1.0
  C  C76  1  0.33798000  0.59173000  0.61507000  1.0
  C  C77  1  0.66203000  0.40827000  0.38493000  1.0
  C  C78  1  0.43019000  0.64482000  0.66309000  1.0
  C  C79  1  0.56981000  0.35518000  0.33691000  1.0
  C  C80  1  0.51052000  0.55880000  0.73946000  1.0
  C  C81  1  0.48948000  0.44119000  0.26054000  1.0
  C  C82  1  0.25977000  0.67606000  0.53148000  1.0
  C  C83  1  0.74023000  0.32394000  0.46852000  1.0
  C  C84  1  0.18465000  0.61539000  0.48144000  1.0
  C  C85  1  0.81535000  0.38461000  0.51856000  1.0
  C  C86  1  0.18870000  0.47148000  0.51487000  1.0
  C  C87  1  0.81130000  0.52852000  0.48513000  1.0
  N  N88  1  0.38413000  0.22595000  0.77001000  1.0
  N  N89  1  0.61587000  0.77405000  0.22999000  1.0
  N  N90  1  0.25627000  0.38949000  0.59651000  1.0
  N  N91  1  0.74373000  0.61051000  0.40349000  1.0
  O  O92  1  0.02098000  0.20387000  0.71723000  1.0
  O  O93  1  0.97902000  0.79613000  0.28277000  1.0
  O  O94  1  0.44555000  0.03669000  0.61946000  1.0
  O  O95  1  0.55446000  0.96331000  0.38054000  1.0
  O  O96  1  0.24887000  0.20366000  0.45561000  1.0
  O  O97  1  0.75113000  0.79635000  0.54439000  1.0
  O  O98  1  0.16999000  0.00451000  0.54383000  1.0
  O  O99  1  0.83001000  0.99549000  0.45617000  1.0
  O  O100  1  0.14668000  0.89465000  0.76741000  1.0
  O  O101  1  0.85332000  0.10535000  0.23259000  1.0
  O  O102  1  0.20861000  0.00394000  0.87380000  1.0
  O  O103  1  0.79139000  0.99606000  0.12620000  1.0
