# generated using pymatgen
data_CaH8C15SO8
_symmetry_space_group_name_H-M   'P 1'
_cell_length_a   5.53229000
_cell_length_b   12.05150000
_cell_length_c   22.66380000
_cell_angle_alpha   96.40590000
_cell_angle_beta   89.99910000
_cell_angle_gamma   89.99950000
_symmetry_Int_Tables_number   1
_chemical_formula_structural   CaH8C15SO8
_chemical_formula_sum   'Ca4 H32 C60 S4 O32'
_cell_volume   1501.61544189
_cell_formula_units_Z   4
loop_
 _symmetry_equiv_pos_site_id
 _symmetry_equiv_pos_as_xyz
  1  'x, y, z'
loop_
 _atom_site_type_symbol
 _atom_site_label
 _atom_site_symmetry_multiplicity
 _atom_site_fract_x
 _atom_site_fract_y
 _atom_site_fract_z
 _atom_site_occupancy
  Ca  Ca0  1  0.79622000  0.60576000  0.04269000  1.0
  Ca  Ca1  1  0.29623000  0.89425000  0.45731000  1.0
  Ca  Ca2  1  0.20376000  0.39425000  0.95731000  1.0
  Ca  Ca3  1  0.70379000  0.10575000  0.54269000  1.0
  H  H4  1  0.26822000  0.10456000  0.12076000  1.0
  H  H5  1  0.76823000  0.39545000  0.37924000  1.0
  H  H6  1  0.73178000  0.89543000  0.87923000  1.0
  H  H7  1  0.23178000  0.60456000  0.62076000  1.0
  H  H8  1  0.29797000  0.96800000  0.20638000  1.0
  H  H9  1  0.79794000  0.53200000  0.29362000  1.0
  H  H10  1  0.70205000  0.03199000  0.79362000  1.0
  H  H11  1  0.20204000  0.46801000  0.70638000  1.0
  H  H12  1  0.61726000  0.80484000  0.16192000  1.0
  H  H13  1  0.11724000  0.69518000  0.33808000  1.0
  H  H14  1  0.38274000  0.19517000  0.83808000  1.0
  H  H15  1  0.88274000  0.30483000  0.66192000  1.0
  H  H16  1  0.13783000  0.28892000  0.09216000  1.0
  H  H17  1  0.63787000  0.21109000  0.40784000  1.0
  H  H18  1  0.86219000  0.71108000  0.90784000  1.0
  H  H19  1  0.36216000  0.78892000  0.59216000  1.0
  H  H20  1  0.51611000  0.81712000  0.27036000  1.0
  H  H21  1  0.01609000  0.68289000  0.22964000  1.0
  H  H22  1  0.48389000  0.18288000  0.72964000  1.0
  H  H23  1  0.98388000  0.31710000  0.77036000  1.0
  H  H24  1  0.20061000  0.97273000  0.31449000  1.0
  H  H25  1  0.70059000  0.52726000  0.18551000  1.0
  H  H26  1  0.79942000  0.02725000  0.68551000  1.0
  H  H27  1  0.29940000  0.47275000  0.81449000  1.0
  H  H28  1  0.60133000  0.95740000  0.05158000  1.0
  H  H29  1  0.10133000  0.54260000  0.44843000  1.0
  H  H30  1  0.39865000  0.04262000  0.94843000  1.0
  H  H31  1  0.89867000  0.45739000  0.55157000  1.0
  H  H32  1  0.47012000  0.14452000  0.02466000  1.0
  H  H33  1  0.97013000  0.35548000  0.47534000  1.0
  H  H34  1  0.52988000  0.85550000  0.97534000  1.0
  H  H35  1  0.02988000  0.64452000  0.52466000  1.0
  C  C36  1  0.78900000  0.90130000  0.36400000  1.0
  C  C37  1  0.28899000  0.59871000  0.13600000  1.0
  C  C38  1  0.21100000  0.09869000  0.63600000  1.0
  C  C39  1  0.71098000  0.40130000  0.86400000  1.0
  C  C40  1  0.71022000  0.33586000  0.03601000  1.0
  C  C41  1  0.21025000  0.16414000  0.46399000  1.0
  C  C42  1  0.28978000  0.66414000  0.96399000  1.0
  C  C43  1  0.78977000  0.83586000  0.53601000  1.0
  C  C44  1  0.09410000  0.11298000  0.09931000  1.0
  C  C45  1  0.59410000  0.38703000  0.40069000  1.0
  C  C46  1  0.90590000  0.88703000  0.90069000  1.0
  C  C47  1  0.40590000  0.61297000  0.59931000  1.0
  C  C48  1  0.12700000  0.93540000  0.22076000  1.0
  C  C49  1  0.62698000  0.56460000  0.27924000  1.0
  C  C50  1  0.87301000  0.06459000  0.77924000  1.0
  C  C51  1  0.37301000  0.43541000  0.72076000  1.0
  C  C52  1  0.74235000  0.84250000  0.19547000  1.0
  C  C53  1  0.24232000  0.65751000  0.30454000  1.0
  C  C54  1  0.25766000  0.15750000  0.80453000  1.0
  C  C55  1  0.75766000  0.34250000  0.69547000  1.0
  C  C56  1  0.96216000  0.88644000  0.17880000  1.0
  C  C57  1  0.46214000  0.61357000  0.32120000  1.0
  C  C58  1  0.03785000  0.11356000  0.82120000  1.0
  C  C59  1  0.53785000  0.38644000  0.67880000  1.0
  C  C60  1  0.01933000  0.21662000  0.08387000  1.0
  C  C61  1  0.51935000  0.28339000  0.41613000  1.0
  C  C62  1  0.98068000  0.78339000  0.91612000  1.0
  C  C63  1  0.48066000  0.71661000  0.58387000  1.0
  C  C64  1  0.68681000  0.84950000  0.25576000  1.0
  C  C65  1  0.18679000  0.65050000  0.24424000  1.0
  C  C66  1  0.31320000  0.15049000  0.74423000  1.0
  C  C67  1  0.81319000  0.34950000  0.75576000  1.0
  C  C68  1  0.84931000  0.89740000  0.29866000  1.0
  C  C69  1  0.34929000  0.60260000  0.20134000  1.0
  C  C70  1  0.15070000  0.10259000  0.70134000  1.0
  C  C71  1  0.65069000  0.39741000  0.79866000  1.0
  C  C72  1  0.79500000  0.22720000  0.05614000  1.0
  C  C73  1  0.29503000  0.27281000  0.44387000  1.0
  C  C74  1  0.20501000  0.77281000  0.94386000  1.0
  C  C75  1  0.70499000  0.72719000  0.55613000  1.0
  C  C76  1  0.07124000  0.93916000  0.28083000  1.0
  C  C77  1  0.57122000  0.56084000  0.21917000  1.0
  C  C78  1  0.92878000  0.06083000  0.71917000  1.0
  C  C79  1  0.42876000  0.43917000  0.78083000  1.0
  C  C80  1  0.94458000  0.02000000  0.08550000  1.0
  C  C81  1  0.44459000  0.48001000  0.41450000  1.0
  C  C82  1  0.05540000  0.98002000  0.91450000  1.0
  C  C83  1  0.55541000  0.51999000  0.58549000  1.0
  C  C84  1  0.71853000  0.02982000  0.05933000  1.0
  C  C85  1  0.21854000  0.47019000  0.44067000  1.0
  C  C86  1  0.28146000  0.97020000  0.94067000  1.0
  C  C87  1  0.78147000  0.52981000  0.55933000  1.0
  C  C88  1  0.64499000  0.13385000  0.04512000  1.0
  C  C89  1  0.14501000  0.36616000  0.45488000  1.0
  C  C90  1  0.35501000  0.86617000  0.95488000  1.0
  C  C91  1  0.85501000  0.63384000  0.54512000  1.0
  C  C92  1  0.22232000  0.35126000  0.25755000  1.0
  C  C93  1  0.72237000  0.14870000  0.24248000  1.0
  C  C94  1  0.77763000  0.64875000  0.74242000  1.0
  C  C95  1  0.27767000  0.85124000  0.75757000  1.0
  S  S96  1  0.03552000  0.88575000  0.10278000  1.0
  S  S97  1  0.53551000  0.61426000  0.39722000  1.0
  S  S98  1  0.96447000  0.11426000  0.89722000  1.0
  S  S99  1  0.46449000  0.38575000  0.60278000  1.0
  O  O100  1  0.48687000  0.34878000  0.02839000  1.0
  O  O101  1  0.98690000  0.15122000  0.47161000  1.0
  O  O102  1  0.51313000  0.65122000  0.97161000  1.0
  O  O103  1  0.01313000  0.84878000  0.52839000  1.0
  O  O104  1  0.29569000  0.87562000  0.09693000  1.0
  O  O105  1  0.79569000  0.62437000  0.40306000  1.0
  O  O106  1  0.70430000  0.12439000  0.90307000  1.0
  O  O107  1  0.20431000  0.37562000  0.59694000  1.0
  O  O108  1  0.87981000  0.80478000  0.06821000  1.0
  O  O109  1  0.37982000  0.69523000  0.43180000  1.0
  O  O110  1  0.12020000  0.19522000  0.93179000  1.0
  O  O111  1  0.62019000  0.30478000  0.56821000  1.0
  O  O112  1  0.56716000  0.89955000  0.37792000  1.0
  O  O113  1  0.06715000  0.60046000  0.12208000  1.0
  O  O114  1  0.43284000  0.10045000  0.62207000  1.0
  O  O115  1  0.93281000  0.39955000  0.87792000  1.0
  O  O116  1  0.87291000  0.40886000  0.02744000  1.0
  O  O117  1  0.37294000  0.09115000  0.47256000  1.0
  O  O118  1  0.12709000  0.59116000  0.97257000  1.0
  O  O119  1  0.62709000  0.90885000  0.52743000  1.0
  O  O120  1  0.96619000  0.90493000  0.39957000  1.0
  O  O121  1  0.46620000  0.59507000  0.10044000  1.0
  O  O122  1  0.03380000  0.09505000  0.60043000  1.0
  O  O123  1  0.53377000  0.40494000  0.89956000  1.0
  O  O124  1  0.12109000  0.40070000  0.29774000  1.0
  O  O125  1  0.62103000  0.09924000  0.20230000  1.0
  O  O126  1  0.87891000  0.59932000  0.70223000  1.0
  O  O127  1  0.37894000  0.90070000  0.79776000  1.0
  O  O128  1  0.32273000  0.30096000  0.21730000  1.0
  O  O129  1  0.82287000  0.19897000  0.28271000  1.0
  O  O130  1  0.67720000  0.69902000  0.78268000  1.0
  O  O131  1  0.17728000  0.80095000  0.71733000  1.0
