# generated using pymatgen
data_Zn2H26C31(N2O9)2
_symmetry_space_group_name_H-M   'P 1'
_cell_length_a   9.68787000
_cell_length_b   10.87570000
_cell_length_c   11.06230000
_cell_angle_alpha   90.80430000
_cell_angle_beta   91.23240000
_cell_angle_gamma   92.69720000
_symmetry_Int_Tables_number   1
_chemical_formula_structural   Zn2H26C31(N2O9)2
_chemical_formula_sum   'Zn2 H26 C31 N4 O18'
_cell_volume   1163.85740834
_cell_formula_units_Z   1
loop_
 _symmetry_equiv_pos_site_id
 _symmetry_equiv_pos_as_xyz
  1  'x, y, z'
loop_
 _atom_site_type_symbol
 _atom_site_label
 _atom_site_symmetry_multiplicity
 _atom_site_fract_x
 _atom_site_fract_y
 _atom_site_fract_z
 _atom_site_occupancy
  Zn  Zn0  1  0.63695000  0.50833000  0.50418000  1.0
  Zn  Zn1  1  0.35095000  0.49571000  0.49891000  1.0
  H  H2  1  0.33387000  0.10292000  0.35281000  1.0
  H  H3  1  0.16510000  0.75080000  0.63253000  1.0
  H  H4  1  0.13983000  0.64267000  0.75039000  1.0
  H  H5  1  0.44329000  0.10355000  0.67951000  1.0
  H  H6  1  0.62276000  0.11356000  0.65467000  1.0
  H  H7  1  0.71145000  0.09760000  0.46762000  1.0
  H  H8  1  0.32328000  0.88653000  0.35573000  1.0
  H  H9  1  0.27826000  0.88778000  0.50674000  1.0
  H  H10  1  0.27420000  0.10305000  0.50144000  1.0
  H  H11  1  0.73555000  0.93673000  0.64115000  1.0
  H  H12  1  0.66100000  0.80165000  0.66735000  1.0
  H  H13  1  0.27182000  0.49133000  0.87787000  1.0
  H  H14  1  0.59058000  0.92414000  0.09515000  1.0
  H  H15  1  0.55249000  0.24923000  0.17995000  1.0
  H  H16  1  0.04668000  0.52343000  0.12780000  1.0
  H  H17  1  0.99271000  0.34256000  0.80446000  1.0
  H  H18  1  0.44907000  0.87965000  0.78039000  1.0
  H  H19  1  0.32640000  0.92000000  0.68634000  1.0
  H  H20  1  0.88352000  0.79002000  0.33313000  1.0
  H  H21  1  0.80861000  0.56289000  0.13828000  1.0
  H  H22  1  0.79898000  0.39754000  0.12222000  1.0
  H  H23  1  0.81872000  0.58385000  0.91505000  1.0
  H  H24  1  0.10516000  0.34934000  0.37375000  1.0
  H  H25  1  0.84684000  0.35834000  0.37564000  1.0
  H  H26  1  0.90572000  0.77325000  0.61588000  1.0
  H  H27  1  0.88167000  0.67058000  0.73999000  1.0
  C  C28  1  0.49664000  0.51101000  0.73771000  1.0
  C  C29  1  0.60547000  0.48558000  0.06977000  1.0
  C  C30  1  0.76112000  0.48403000  0.08684000  1.0
  C  C31  1  0.49565000  0.74127000  0.48467000  1.0
  C  C32  1  0.76792000  0.49683000  0.94296000  1.0
  C  C33  1  0.07550000  0.56995000  0.57065000  1.0
  C  C34  1  0.05579000  0.41519000  0.43196000  1.0
  C  C35  1  0.91226000  0.42196000  0.43132000  1.0
  C  C36  1  0.93260000  0.57936000  0.56747000  1.0
  C  C37  1  0.93702000  0.68683000  0.65593000  1.0
  C  C38  1  0.09966000  0.67270000  0.66277000  1.0
  C  C39  1  0.49513000  0.12180000  0.49091000  1.0
  C  C40  1  0.47919000  0.48396000  0.26589000  1.0
  C  C41  1  0.49678000  0.26221000  0.50227000  1.0
  C  C42  1  0.52521000  0.93026000  0.61993000  1.0
  C  C43  1  0.52378000  0.07320000  0.61875000  1.0
  C  C44  1  0.60524000  0.93670000  0.38947000  1.0
  C  C45  1  0.35385000  0.92672000  0.44403000  1.0
  C  C46  1  0.49678000  0.88158000  0.48242000  1.0
  C  C47  1  0.55892000  0.89221000  0.26012000  1.0
  C  C48  1  0.64333000  0.16146000  0.30289000  1.0
  C  C49  1  0.21819000  0.45271000  0.10663000  1.0
  C  C50  1  0.61669000  0.08102000  0.41262000  1.0
  C  C51  1  0.82840000  0.38929000  0.87861000  1.0
  C  C52  1  0.75421000  0.89043000  0.40479000  1.0
  C  C53  1  0.35467000  0.06813000  0.44358000  1.0
  C  C54  1  0.61142000  0.49517000  0.94478000  1.0
  C  C55  1  0.49338000  0.50038000  0.87186000  1.0
  C  C56  1  0.36698000  0.49075000  0.93216000  1.0
  C  C57  1  0.35998000  0.47854000  0.05766000  1.0
  C  C58  1  0.48145000  0.47999000  0.13133000  1.0
  N  N59  1  0.14042000  0.49031000  0.50301000  1.0
  N  N60  1  0.84793000  0.50652000  0.49944000  1.0
  N  N61  1  0.65172000  0.89430000  0.67968000  1.0
  N  N62  1  0.41448000  0.87248000  0.69259000  1.0
  O  O63  1  0.61554000  0.51703000  0.69015000  1.0
  O  O64  1  0.61913000  0.96167000  0.17334000  1.0
  O  O65  1  0.75836000  0.19755000  0.27173000  1.0
  O  O66  1  0.52564000  0.19512000  0.24659000  1.0
  O  O67  1  0.17237000  0.35053000  0.13344000  1.0
  O  O68  1  0.13956000  0.55332000  0.10486000  1.0
  O  O69  1  0.77355000  0.28687000  0.86575000  1.0
  O  O70  1  0.95862000  0.41896000  0.83835000  1.0
  O  O71  1  0.83934000  0.92848000  0.48129000  1.0
  O  O72  1  0.78691000  0.80896000  0.31770000  1.0
  O  O73  1  0.38055000  0.51169000  0.68228000  1.0
  O  O74  1  0.61397000  0.69471000  0.49765000  1.0
  O  O75  1  0.38054000  0.68179000  0.48000000  1.0
  O  O76  1  0.59674000  0.49250000  0.32002000  1.0
  O  O77  1  0.36176000  0.48013000  0.31454000  1.0
  O  O78  1  0.61484000  0.31891000  0.50653000  1.0
  O  O79  1  0.38109000  0.31125000  0.51026000  1.0
  O  O80  1  0.48403000  0.80166000  0.23678000  1.0
