# generated using pymatgen
data_ZnH14C16Cl2O7
_symmetry_space_group_name_H-M   'P 1'
_cell_length_a   4.89464000
_cell_length_b   6.65296000
_cell_length_c   27.72670000
_cell_angle_alpha   89.99990000
_cell_angle_beta   90.91470000
_cell_angle_gamma   89.99990000
_symmetry_Int_Tables_number   1
_chemical_formula_structural   ZnH14C16Cl2O7
_chemical_formula_sum   'Zn2 H28 C32 Cl4 O14'
_cell_volume   902.77288183
_cell_formula_units_Z   2
loop_
 _symmetry_equiv_pos_site_id
 _symmetry_equiv_pos_as_xyz
  1  'x, y, z'
loop_
 _atom_site_type_symbol
 _atom_site_label
 _atom_site_symmetry_multiplicity
 _atom_site_fract_x
 _atom_site_fract_y
 _atom_site_fract_z
 _atom_site_occupancy
  Zn  Zn0  1  0.49027000  0.87178000  0.50147000  1.0
  Zn  Zn1  1  0.49026000  0.12822000  0.00147000  1.0
  H  H2  1  0.83725000  0.58090000  0.49346000  1.0
  H  H3  1  0.83725000  0.41910000  0.99345000  1.0
  H  H4  1  0.54443000  0.46368000  0.48383000  1.0
  H  H5  1  0.54442000  0.53631000  0.98383000  1.0
  H  H6  1  0.60332000  0.76836000  0.68012000  1.0
  H  H7  1  0.60333000  0.23164000  0.18012000  1.0
  H  H8  1  0.47905000  0.06796000  0.72656000  1.0
  H  H9  1  0.47904000  0.93204000  0.22656000  1.0
  H  H10  1  0.88938000  0.23054000  0.61620000  1.0
  H  H11  1  0.88939000  0.76947000  0.11620000  1.0
  H  H12  1  0.58368000  0.40958000  0.58317000  1.0
  H  H13  1  0.58367000  0.59042000  0.08317000  1.0
  H  H14  1  0.52591000  0.46285000  0.64581000  1.0
  H  H15  1  0.52591000  0.53715000  0.14580000  1.0
  H  H16  1  0.77709000  0.60322000  0.61327000  1.0
  H  H17  1  0.77710000  0.39678000  0.11326000  1.0
  H  H18  1  0.28218000  0.66231000  0.31668000  1.0
  H  H19  1  0.28217000  0.33769000  0.81667000  1.0
  H  H20  1  0.59963000  0.50759000  0.26015000  1.0
  H  H21  1  0.59963000  0.49240000  0.76014000  1.0
  H  H22  1  0.78319000  0.04423000  0.36422000  1.0
  H  H23  1  0.78316000  0.95577000  0.86422000  1.0
  H  H24  1  0.88314000  0.73052000  0.41979000  1.0
  H  H25  1  0.88311000  0.26949000  0.91979000  1.0
  H  H26  1  0.90088000  0.66037000  0.35772000  1.0
  H  H27  1  0.90087000  0.33963000  0.85771000  1.0
  H  H28  1  0.15717000  0.82464000  0.38431000  1.0
  H  H29  1  0.15715000  0.17536000  0.88431000  1.0
  C  C30  1  0.12285000  0.96531000  0.60231000  1.0
  C  C31  1  0.12286000  0.03469000  0.10231000  1.0
  C  C32  1  0.32099000  0.82996000  0.62084000  1.0
  C  C33  1  0.32100000  0.17004000  0.12084000  1.0
  C  C34  1  0.44790000  0.86927000  0.66554000  1.0
  C  C35  1  0.44790000  0.13074000  0.16554000  1.0
  C  C36  1  0.37672000  0.03845000  0.69211000  1.0
  C  C37  1  0.37672000  0.96155000  0.19211000  1.0
  C  C38  1  0.17435000  0.16787000  0.67439000  1.0
  C  C39  1  0.17434000  0.83214000  0.17439000  1.0
  C  C40  1  0.04775000  0.13116000  0.63008000  1.0
  C  C41  1  0.04775000  0.86885000  0.13007000  1.0
  C  C42  1  0.97933000  0.93291000  0.55503000  1.0
  C  C43  1  0.97934000  0.06710000  0.05503000  1.0
  C  C44  1  0.57767000  0.52748000  0.61063000  1.0
  C  C45  1  0.57767000  0.47252000  0.11063000  1.0
  C  C46  1  0.49864000  0.26865000  0.38711000  1.0
  C  C47  1  0.49863000  0.73135000  0.88711000  1.0
  C  C48  1  0.35421000  0.44546000  0.37386000  1.0
  C  C49  1  0.35419000  0.55454000  0.87386000  1.0
  C  C50  1  0.39307000  0.52822000  0.32784000  1.0
  C  C51  1  0.39305000  0.47178000  0.82784000  1.0
  C  C52  1  0.57301000  0.44082000  0.29562000  1.0
  C  C53  1  0.57299000  0.55917000  0.79561000  1.0
  C  C54  1  0.71524000  0.26734000  0.30892000  1.0
  C  C55  1  0.71522000  0.73264000  0.80892000  1.0
  C  C56  1  0.67602000  0.18118000  0.35394000  1.0
  C  C57  1  0.67599000  0.81882000  0.85394000  1.0
  C  C58  1  0.47067000  0.16705000  0.43484000  1.0
  C  C59  1  0.47064000  0.83294000  0.93483000  1.0
  C  C60  1  0.02132000  0.69588000  0.39041000  1.0
  C  C61  1  0.02130000  0.30412000  0.89040000  1.0
  Cl  Cl62  1  0.08164000  0.37797000  0.70770000  1.0
  Cl  Cl63  1  0.08164000  0.62203000  0.20769000  1.0
  Cl  Cl64  1  0.93847000  0.15549000  0.26878000  1.0
  Cl  Cl65  1  0.93847000  0.84450000  0.76879000  1.0
  O  O66  1  0.64010000  0.59212000  0.49618000  1.0
  O  O67  1  0.64010000  0.40788000  0.99618000  1.0
  O  O68  1  0.72763000  0.98291000  0.55339000  1.0
  O  O69  1  0.72764000  0.01709000  0.05339000  1.0
  O  O70  1  0.09930000  0.85678000  0.51863000  1.0
  O  O71  1  0.09931000  0.14323000  0.01864000  1.0
  O  O72  1  0.36978000  0.66340000  0.59410000  1.0
  O  O73  1  0.36978000  0.33660000  0.09410000  1.0
  O  O74  1  0.50503000  0.97444000  0.43465000  1.0
  O  O75  1  0.50501000  0.02555000  0.93465000  1.0
  O  O76  1  0.42134000  0.26184000  0.47324000  1.0
  O  O77  1  0.42132000  0.73815000  0.97324000  1.0
  O  O78  1  0.17777000  0.52423000  0.40599000  1.0
  O  O79  1  0.17776000  0.47577000  0.90599000  1.0
