# generated using pymatgen
data_ZnH19C25(NO2)3
_symmetry_space_group_name_H-M   'P 1'
_cell_length_a   8.62956000
_cell_length_b   10.17430000
_cell_length_c   14.04210000
_cell_angle_alpha   72.74900000
_cell_angle_beta   72.30460000
_cell_angle_gamma   89.26560000
_symmetry_Int_Tables_number   1
_chemical_formula_structural   ZnH19C25(NO2)3
_chemical_formula_sum   'Zn2 H38 C50 N6 O12'
_cell_volume   1117.66327065
_cell_formula_units_Z   2
loop_
 _symmetry_equiv_pos_site_id
 _symmetry_equiv_pos_as_xyz
  1  'x, y, z'
loop_
 _atom_site_type_symbol
 _atom_site_label
 _atom_site_symmetry_multiplicity
 _atom_site_fract_x
 _atom_site_fract_y
 _atom_site_fract_z
 _atom_site_occupancy
  Zn  Zn0  1  0.53453000  0.73260000  0.50835000  1.0
  Zn  Zn1  1  0.46547000  0.26740000  0.49165000  1.0
  H  H2  1  0.63770000  0.97276000  0.54934000  1.0
  H  H3  1  0.36230000  0.02724000  0.45066000  1.0
  H  H4  1  0.62906000  0.83518000  0.64264000  1.0
  H  H5  1  0.37094000  0.16482000  0.35736000  1.0
  H  H6  1  0.04243000  0.36332000  0.65872000  1.0
  H  H7  1  0.95757000  0.63668000  0.34128000  1.0
  H  H8  1  0.74994000  0.68275000  0.74504000  1.0
  H  H9  1  0.25006000  0.31725000  0.25496000  1.0
  H  H10  1  0.94473000  0.85911000  0.59756000  1.0
  H  H11  1  0.05527000  0.14090000  0.40244000  1.0
  H  H12  1  0.74693000  0.53901000  0.89509000  1.0
  H  H13  1  0.25307000  0.46099000  0.10491000  1.0
  H  H14  1  0.53925000  0.37967000  0.04825000  1.0
  H  H15  1  0.46074000  0.62032000  0.95175000  1.0
  H  H16  1  0.59810000  0.08671000  0.87159000  1.0
  H  H17  1  0.40190000  0.91330000  0.12841000  1.0
  H  H18  1  0.79394000  0.26176000  0.72178000  1.0
  H  H19  1  0.20606000  0.73825000  0.27822000  1.0
  H  H20  1  0.30474000  0.83100000  0.66943000  1.0
  H  H21  1  0.69526000  0.16901000  0.33058000  1.0
  H  H22  1  0.10801000  0.74355000  0.84887000  1.0
  H  H23  1  0.89199000  0.25645000  0.15113000  1.0
  H  H24  1  0.28492000  0.33984000  0.86318000  1.0
  H  H25  1  0.71508000  0.66016000  0.13682000  1.0
  H  H26  1  0.47438000  0.44666000  0.67972000  1.0
  H  H27  1  0.52562000  0.55334000  0.32028000  1.0
  H  H28  1  0.06492000  0.35638000  0.00709000  1.0
  H  H29  1  0.93508000  0.64362000  0.99291000  1.0
  H  H30  1  0.49777000  0.84018000  0.28931000  1.0
  H  H31  1  0.50222000  0.15982000  0.71069000  1.0
  H  H32  1  0.67888000  0.93214000  0.10460000  1.0
  H  H33  1  0.32112000  0.06786000  0.89540000  1.0
  H  H34  1  0.07394000  0.96924000  0.22871000  1.0
  H  H35  1  0.92605000  0.03077000  0.77129000  1.0
  H  H36  1  0.87726000  0.87011000  0.40709000  1.0
  H  H37  1  0.12274000  0.12989000  0.59291000  1.0
  H  H38  1  0.13692000  0.03454000  0.04125000  1.0
  H  H39  1  0.86308000  0.96546000  0.95875000  1.0
  C  C40  1  0.22194000  0.82797000  0.46223000  1.0
  C  C41  1  0.77806000  0.17203000  0.53777000  1.0
  C  C42  1  0.28168000  0.52484000  0.49872000  1.0
  C  C43  1  0.71832000  0.47516000  0.50128000  1.0
  C  C44  1  0.10619000  0.71194000  0.54661000  1.0
  C  C45  1  0.89381000  0.28806000  0.45339000  1.0
  C  C46  1  0.13105000  0.57117000  0.56375000  1.0
  C  C47  1  0.86895000  0.42883000  0.43625000  1.0
  C  C48  1  0.01876000  0.47148000  0.64646000  1.0
  C  C49  1  0.98124000  0.52852000  0.35353000  1.0
  C  C50  1  0.88401000  0.51135000  0.71286000  1.0
  C  C51  1  0.11600000  0.48865000  0.28714000  1.0
  C  C52  1  0.85732000  0.65135000  0.69471000  1.0
  C  C53  1  0.14268000  0.34865000  0.30529000  1.0
  C  C54  1  0.96737000  0.75035000  0.61184000  1.0
  C  C55  1  0.03263000  0.24965000  0.38816000  1.0
  C  C56  1  0.70323000  0.44043000  0.89305000  1.0
  C  C57  1  0.29677000  0.55957000  0.10695000  1.0
  C  C58  1  0.58921000  0.35141000  0.97661000  1.0
  C  C59  1  0.41079000  0.64858000  0.02339000  1.0
  C  C60  1  0.53000000  0.22181000  0.97148000  1.0
  C  C61  1  0.47000000  0.77819000  0.02851000  1.0
  C  C62  1  0.62168000  0.18869000  0.87732000  1.0
  C  C63  1  0.37832000  0.81131000  0.12268000  1.0
  C  C64  1  0.73359000  0.28261000  0.79554000  1.0
  C  C65  1  0.26641000  0.71739000  0.20446000  1.0
  C  C66  1  0.29660000  0.72316000  0.71616000  1.0
  C  C67  1  0.70341000  0.27685000  0.28384000  1.0
  C  C68  1  0.18654000  0.67273000  0.81607000  1.0
  C  C69  1  0.81346000  0.32727000  0.18393000  1.0
  C  C70  1  0.17642000  0.53130000  0.87148000  1.0
  C  C71  1  0.82359000  0.46870000  0.12852000  1.0
  C  C72  1  0.28578000  0.44954000  0.82301000  1.0
  C  C73  1  0.71422000  0.55046000  0.17699000  1.0
  C  C74  1  0.39264000  0.50781000  0.72221000  1.0
  C  C75  1  0.60736000  0.49219000  0.27779000  1.0
  C  C76  1  0.05772000  0.46705000  0.97357000  1.0
  C  C77  1  0.94228000  0.53295000  0.02643000  1.0
  C  C78  1  0.62688000  0.86894000  0.27170000  1.0
  C  C79  1  0.37312000  0.13106000  0.72830000  1.0
  C  C80  1  0.72908000  0.92035000  0.16889000  1.0
  C  C81  1  0.27091000  0.07965000  0.83111000  1.0
  C  C82  1  0.89582000  0.95525000  0.14938000  1.0
  C  C83  1  0.10417000  0.04475000  0.85062000  1.0
  C  C84  1  0.94761000  0.94161000  0.23749000  1.0
  C  C85  1  0.05238000  0.05840000  0.76250000  1.0
  C  C86  1  0.83783000  0.88715000  0.33804000  1.0
  C  C87  1  0.16217000  0.11285000  0.66196000  1.0
  C  C88  1  0.01495000  0.00056000  0.04453000  1.0
  C  C89  1  0.98504000  0.99944000  0.95547000  1.0
  N  N90  1  0.77272000  0.41052000  0.80076000  1.0
  N  N91  1  0.22728000  0.58948000  0.19924000  1.0
  N  N92  1  0.39631000  0.64206000  0.66880000  1.0
  N  N93  1  0.60369000  0.35794000  0.33120000  1.0
  N  N94  1  0.68011000  0.84946000  0.35543000  1.0
  N  N95  1  0.31989000  0.15053000  0.64457000  1.0
  O  O96  1  0.34009000  0.87042000  0.48829000  1.0
  O  O97  1  0.65991000  0.12958000  0.51171000  1.0
  O  O98  1  0.19147000  0.88362000  0.37873000  1.0
  O  O99  1  0.80854000  0.11638000  0.62127000  1.0
  O  O100  1  0.40487000  0.61300000  0.44751000  1.0
  O  O101  1  0.59513000  0.38700000  0.55249000  1.0
  O  O102  1  0.27642000  0.40000000  0.49899000  1.0
  O  O103  1  0.72358000  0.60000000  0.50101000  1.0
  O  O104  1  0.40843000  0.14708000  0.04150000  1.0
  O  O105  1  0.59157000  0.85291000  0.95849000  1.0
  O  O106  1  0.63961000  0.86761000  0.56853000  1.0
  O  O107  1  0.36039000  0.13239000  0.43147000  1.0
