# generated using pymatgen
data_SrSi4H44C16(NO)2
_symmetry_space_group_name_H-M   'P 1'
_cell_length_a   7.47062000
_cell_length_b   8.31729000
_cell_length_c   12.12740000
_cell_angle_alpha   99.55650000
_cell_angle_beta   99.38460000
_cell_angle_gamma   113.82500000
_symmetry_Int_Tables_number   1
_chemical_formula_structural   SrSi4H44C16(NO)2
_chemical_formula_sum   'Sr1 Si4 H44 C16 N2 O2'
_cell_volume   657.26931222
_cell_formula_units_Z   1
loop_
 _symmetry_equiv_pos_site_id
 _symmetry_equiv_pos_as_xyz
  1  'x, y, z'
loop_
 _atom_site_type_symbol
 _atom_site_label
 _atom_site_symmetry_multiplicity
 _atom_site_fract_x
 _atom_site_fract_y
 _atom_site_fract_z
 _atom_site_occupancy
  Sr  Sr0  1  0.99998000  0.99999000  0.00000000  1.0
  Si  Si1  1  0.78968000  0.76621000  0.71781000  1.0
  Si  Si2  1  0.21032000  0.23379000  0.28219000  1.0
  Si  Si3  1  0.02184000  0.17113000  0.73610000  1.0
  Si  Si4  1  0.97817000  0.82887000  0.26390000  1.0
  H  H5  1  0.64864000  0.47942000  0.78123000  1.0
  H  H6  1  0.35136000  0.52058000  0.21876000  1.0
  H  H7  1  0.65285000  0.65436000  0.88586000  1.0
  H  H8  1  0.34715000  0.34562000  0.11414000  1.0
  H  H9  1  0.88002000  0.62935000  0.88079000  1.0
  H  H10  1  0.11997000  0.37065000  0.11921000  1.0
  H  H11  1  0.44055000  0.56394000  0.59252000  1.0
  H  H12  1  0.55944000  0.43606000  0.40747000  1.0
  H  H13  1  0.53959000  0.77494000  0.55601000  1.0
  H  H14  1  0.46040000  0.22505000  0.44399000  1.0
  H  H15  1  0.44409000  0.75915000  0.68003000  1.0
  H  H16  1  0.55592000  0.24086000  0.31997000  1.0
  H  H17  1  0.81199000  0.52857000  0.57134000  1.0
  H  H18  1  0.18799000  0.47142000  0.42866000  1.0
  H  H19  1  0.05408000  0.67405000  0.66600000  1.0
  H  H20  1  0.94590000  0.32593000  0.33398000  1.0
  H  H21  1  0.95113000  0.74924000  0.55470000  1.0
  H  H22  1  0.04885000  0.25075000  0.44529000  1.0
  H  H23  1  0.18940000  0.50645000  0.81932000  1.0
  H  H24  1  0.81064000  0.49355000  0.18068000  1.0
  H  H25  1  0.27522000  0.40253000  0.91826000  1.0
  H  H26  1  0.72482000  0.59748000  0.08174000  1.0
  H  H27  1  0.03294000  0.40044000  0.90644000  1.0
  H  H28  1  0.96711000  0.59958000  0.09356000  1.0
  H  H29  1  0.28881000  0.30179000  0.63010000  1.0
  H  H30  1  0.71119000  0.69819000  0.36989000  1.0
  H  H31  1  0.17280000  0.06030000  0.58795000  1.0
  H  H32  1  0.82720000  0.93969000  0.41205000  1.0
  H  H33  1  0.35621000  0.17870000  0.72172000  1.0
  H  H34  1  0.64379000  0.82128000  0.27827000  1.0
  H  H35  1  0.88485000  0.30863000  0.59545000  1.0
  H  H36  1  0.11514000  0.69137000  0.40456000  1.0
  H  H37  1  0.70403000  0.20385000  0.67135000  1.0
  H  H38  1  0.29599000  0.79615000  0.32867000  1.0
  H  H39  1  0.74160000  0.06886000  0.55689000  1.0
  H  H40  1  0.25839000  0.93115000  0.44312000  1.0
  H  H41  1  0.43201000  0.78596000  0.06548000  1.0
  H  H42  1  0.56798000  0.21407000  0.93452000  1.0
  H  H43  1  0.35289000  0.92361000  0.15835000  1.0
  H  H44  1  0.64711000  0.07641000  0.84166000  1.0
  H  H45  1  0.26142000  0.93300000  0.81900000  1.0
  H  H46  1  0.73858000  0.06702000  0.18101000  1.0
  H  H47  1  0.38037000  0.79491000  0.86182000  1.0
  H  H48  1  0.61961000  0.20511000  0.13818000  1.0
  C  C49  1  0.74116000  0.62325000  0.82808000  1.0
  C  C50  1  0.25884000  0.37674000  0.17192000  1.0
  C  C51  1  0.53005000  0.71150000  0.62882000  1.0
  C  C52  1  0.46995000  0.28850000  0.37118000  1.0
  C  C53  1  0.91313000  0.67043000  0.61885000  1.0
  C  C54  1  0.08685000  0.32956000  0.38114000  1.0
  C  C55  1  0.14054000  0.38908000  0.85706000  1.0
  C  C56  1  0.85950000  0.61092000  0.14294000  1.0
  C  C57  1  0.22869000  0.17917000  0.66196000  1.0
  C  C58  1  0.77131000  0.82082000  0.33804000  1.0
  C  C59  1  0.81999000  0.19004000  0.63041000  1.0
  C  C60  1  0.18002000  0.80996000  0.36960000  1.0
  C  C61  1  0.42318000  0.91648000  0.08592000  1.0
  C  C62  1  0.57681000  0.08352000  0.91408000  1.0
  C  C63  1  0.37063000  0.92409000  0.88740000  1.0
  C  C64  1  0.62936000  0.07594000  0.11260000  1.0
  N  N65  1  0.93336000  0.98780000  0.79174000  1.0
  N  N66  1  0.06664000  0.01220000  0.20826000  1.0
  O  O67  1  0.28927000  0.92268000  0.98783000  1.0
  O  O68  1  0.71073000  0.07732000  0.01216000  1.0
