# generated using pymatgen
data_CuH32Pd(C2N)12
_symmetry_space_group_name_H-M   'P 1'
_cell_length_a   8.54667000
_cell_length_b   8.91008000
_cell_length_c   10.49490000
_cell_angle_alpha   112.38500000
_cell_angle_beta   101.45000000
_cell_angle_gamma   96.78130000
_symmetry_Int_Tables_number   1
_chemical_formula_structural   CuH32Pd(C2N)12
_chemical_formula_sum   'Cu1 H32 Pd1 C24 N12'
_cell_volume   707.53852259
_cell_formula_units_Z   1
loop_
 _symmetry_equiv_pos_site_id
 _symmetry_equiv_pos_as_xyz
  1  'x, y, z'
loop_
 _atom_site_type_symbol
 _atom_site_label
 _atom_site_symmetry_multiplicity
 _atom_site_fract_x
 _atom_site_fract_y
 _atom_site_fract_z
 _atom_site_occupancy
  Cu  Cu0  1  0.00000000  0.50000000  0.50000000  1.0
  H  H1  1  0.27651000  0.50039000  0.34593000  1.0
  H  H2  1  0.72349000  0.49961000  0.65406000  1.0
  H  H3  1  0.29435000  0.79803000  0.77416000  1.0
  H  H4  1  0.70565000  0.20197000  0.22584000  1.0
  H  H5  1  0.58860000  0.89045000  0.72234000  1.0
  H  H6  1  0.41140000  0.10955000  0.27766000  1.0
  H  H7  1  0.56688000  0.57993000  0.34397000  1.0
  H  H8  1  0.43312000  0.42007000  0.65603000  1.0
  H  H9  1  0.71152000  0.71886000  0.50432000  1.0
  H  H10  1  0.28848000  0.28114000  0.49568000  1.0
  H  H11  1  0.68075000  0.83662000  0.32067000  1.0
  H  H12  1  0.31925000  0.16338000  0.67933000  1.0
  H  H13  1  0.61862000  0.96228000  0.47014000  1.0
  H  H14  1  0.38138000  0.03773000  0.52985000  1.0
  H  H15  1  0.46946000  0.82442000  0.30884000  1.0
  H  H16  1  0.53054000  0.17558000  0.69115000  1.0
  H  H17  1  0.18672000  0.60095000  0.84111000  1.0
  H  H18  1  0.81328000  0.39905000  0.15889000  1.0
  H  H19  1  0.92361000  0.14422000  0.50339000  1.0
  H  H20  1  0.07638000  0.85578000  0.49661000  1.0
  H  H21  1  0.01192000  0.09816000  0.75366000  1.0
  H  H22  1  0.98808000  0.90184000  0.24634000  1.0
  H  H23  1  0.09972000  0.35905000  0.03304000  1.0
  H  H24  1  0.90028000  0.64096000  0.96696000  1.0
  H  H25  1  0.23740000  0.53295000  0.04450000  1.0
  H  H26  1  0.76261000  0.46705000  0.95549000  1.0
  H  H27  1  0.38780000  0.33939000  0.11970000  1.0
  H  H28  1  0.61221000  0.66060000  0.88030000  1.0
  H  H29  1  0.43488000  0.34646000  0.96405000  1.0
  H  H30  1  0.56512000  0.65353000  0.03595000  1.0
  H  H31  1  0.29476000  0.17401000  0.95115000  1.0
  H  H32  1  0.70524000  0.82599000  0.04885000  1.0
  Pd  Pd33  1  0.00000000  0.00000000  0.00001000  1.0
  C  C34  1  0.04256000  0.16263000  0.20032000  1.0
  C  C35  1  0.95743000  0.83736000  0.79969000  1.0
  C  C36  1  0.18108000  0.89421000  0.04990000  1.0
  C  C37  1  0.81890000  0.10579000  0.95010000  1.0
  C  C38  1  0.31937000  0.59348000  0.45513000  1.0
  C  C39  1  0.68063000  0.40652000  0.54486000  1.0
  C  C40  1  0.33402000  0.74836000  0.67725000  1.0
  C  C41  1  0.66598000  0.25164000  0.32275000  1.0
  C  C42  1  0.48080000  0.79539000  0.65304000  1.0
  C  C43  1  0.51920000  0.20461000  0.34696000  1.0
  C  C44  1  0.59184000  0.70270000  0.43337000  1.0
  C  C45  1  0.40816000  0.29731000  0.56663000  1.0
  C  C46  1  0.58861000  0.83951000  0.38037000  1.0
  C  C47  1  0.41139000  0.16049000  0.61963000  1.0
  C  C48  1  0.12802000  0.47095000  0.77960000  1.0
  C  C49  1  0.87198000  0.52905000  0.22040000  1.0
  C  C50  1  0.99188000  0.23203000  0.61019000  1.0
  C  C51  1  0.00812000  0.76797000  0.38982000  1.0
  C  C52  1  0.03555000  0.20759000  0.73286000  1.0
  C  C53  1  0.96445000  0.79241000  0.26714000  1.0
  C  C54  1  0.19611000  0.39721000  0.98926000  1.0
  C  C55  1  0.80389000  0.60279000  0.01074000  1.0
  C  C56  1  0.33644000  0.30966000  0.00617000  1.0
  C  C57  1  0.66357000  0.69033000  0.99383000  1.0
  N  N58  1  0.06283000  0.25887000  0.31871000  1.0
  N  N59  1  0.93717000  0.74114000  0.68131000  1.0
  N  N60  1  0.28487000  0.82589000  0.07459000  1.0
  N  N61  1  0.71512000  0.17411000  0.92542000  1.0
  N  N62  1  0.23499000  0.62171000  0.55285000  1.0
  N  N63  1  0.76501000  0.37829000  0.44714000  1.0
  N  N64  1  0.46903000  0.69589000  0.51188000  1.0
  N  N65  1  0.53097000  0.30411000  0.48812000  1.0
  N  N66  1  0.05007000  0.39668000  0.64093000  1.0
  N  N67  1  0.94993000  0.60332000  0.35907000  1.0
  N  N68  1  0.12144000  0.36004000  0.83913000  1.0
  N  N69  1  0.87857000  0.63996000  0.16087000  1.0
