# generated using pymatgen
data_AgH14C14N5O3
_symmetry_space_group_name_H-M   'P 1'
_cell_length_a   5.06830000
_cell_length_b   10.46190000
_cell_length_c   14.67880000
_cell_angle_alpha   89.99730000
_cell_angle_beta   91.06180000
_cell_angle_gamma   89.99710000
_symmetry_Int_Tables_number   1
_chemical_formula_structural   AgH14C14N5O3
_chemical_formula_sum   'Ag2 H28 C28 N10 O6'
_cell_volume   778.19574290
_cell_formula_units_Z   2
loop_
 _symmetry_equiv_pos_site_id
 _symmetry_equiv_pos_as_xyz
  1  'x, y, z'
loop_
 _atom_site_type_symbol
 _atom_site_label
 _atom_site_symmetry_multiplicity
 _atom_site_fract_x
 _atom_site_fract_y
 _atom_site_fract_z
 _atom_site_occupancy
  Ag  Ag0  1  0.49999000  0.38748000  0.74999000  1.0
  Ag  Ag1  1  0.50001000  0.61251000  0.24999000  1.0
  H  H2  1  0.22180000  0.21446000  0.88489000  1.0
  H  H3  1  0.77817000  0.21440000  0.61511000  1.0
  H  H4  1  0.77816000  0.78559000  0.11510000  1.0
  H  H5  1  0.22186000  0.78556000  0.38489000  1.0
  H  H6  1  0.87815000  0.44770000  0.91076000  1.0
  H  H7  1  0.12173000  0.44763000  0.58927000  1.0
  H  H8  1  0.12179000  0.55236000  0.08925000  1.0
  H  H9  1  0.87828000  0.55234000  0.41072000  1.0
  H  H10  1  0.96993000  0.36801000  0.07087000  1.0
  H  H11  1  0.02994000  0.36796000  0.42916000  1.0
  H  H12  1  0.03001000  0.63205000  0.92914000  1.0
  H  H13  1  0.97005000  0.63199000  0.57083000  1.0
  H  H14  1  0.67537000  0.20549000  0.13650000  1.0
  H  H15  1  0.32454000  0.20546000  0.36352000  1.0
  H  H16  1  0.32458000  0.79456000  0.86350000  1.0
  H  H17  1  0.67545000  0.79448000  0.63648000  1.0
  H  H18  1  0.13011000  0.97216000  0.15663000  1.0
  H  H19  1  0.86993000  0.97215000  0.34338000  1.0
  H  H20  1  0.86993000  0.02787000  0.84337000  1.0
  H  H21  1  0.13013000  0.02780000  0.65663000  1.0
  H  H22  1  0.24295000  0.12927000  0.18884000  1.0
  H  H23  1  0.75704000  0.12926000  0.31117000  1.0
  H  H24  1  0.75708000  0.87076000  0.81116000  1.0
  H  H25  1  0.24299000  0.87068000  0.68882000  1.0
  H  H26  1  0.47418000  0.01038000  0.15681000  1.0
  H  H27  1  0.52583000  0.01036000  0.34318000  1.0
  H  H28  1  0.52585000  0.98967000  0.84317000  1.0
  H  H29  1  0.47421000  0.98958000  0.65682000  1.0
  C  C30  1  0.38692000  0.24652000  0.92743000  1.0
  C  C31  1  0.61300000  0.24646000  0.57258000  1.0
  C  C32  1  0.61302000  0.75353000  0.07257000  1.0
  C  C33  1  0.38700000  0.75349000  0.42741000  1.0
  C  C34  1  0.75145000  0.37844000  0.94379000  1.0
  C  C35  1  0.24846000  0.37839000  0.55623000  1.0
  C  C36  1  0.24851000  0.62161000  0.05621000  1.0
  C  C37  1  0.75154000  0.62158000  0.44376000  1.0
  C  C38  1  0.80000000  0.33393000  0.03158000  1.0
  C  C39  1  0.19989000  0.33387000  0.46845000  1.0
  C  C40  1  0.19995000  0.66613000  0.96843000  1.0
  C  C41  1  0.80011000  0.66608000  0.53155000  1.0
  C  C42  1  0.63591000  0.24090000  0.06785000  1.0
  C  C43  1  0.36399000  0.24086000  0.43217000  1.0
  C  C44  1  0.36404000  0.75915000  0.93216000  1.0
  C  C45  1  0.63599000  0.75909000  0.56783000  1.0
  C  C46  1  0.42568000  0.19334000  0.01458000  1.0
  C  C47  1  0.57427000  0.19328000  0.48544000  1.0
  C  C48  1  0.57429000  0.80671000  0.98542000  1.0
  C  C49  1  0.42575000  0.80667000  0.51457000  1.0
  C  C50  1  0.24978000  0.09087000  0.04633000  1.0
  C  C51  1  0.75018000  0.09084000  0.45368000  1.0
  C  C52  1  0.75020000  0.90917000  0.95367000  1.0
  C  C53  1  0.24984000  0.90912000  0.54632000  1.0
  C  C54  1  0.27390000  0.04734000  0.14317000  1.0
  C  C55  1  0.72611000  0.04732000  0.35684000  1.0
  C  C56  1  0.72613000  0.95270000  0.85684000  1.0
  C  C57  1  0.27394000  0.95263000  0.64316000  1.0
  N  N58  1  0.54540000  0.33596000  0.89257000  1.0
  N  N59  1  0.45453000  0.33590000  0.60745000  1.0
  N  N60  1  0.45455000  0.66409000  0.10743000  1.0
  N  N61  1  0.54548000  0.66407000  0.39255000  1.0
  N  N62  1  0.08373000  0.04656000  0.98490000  1.0
  N  N63  1  0.91625000  0.04651000  0.51510000  1.0
  N  N64  1  0.91623000  0.95349000  0.01510000  1.0
  N  N65  1  0.08377000  0.95344000  0.48490000  1.0
  N  N66  1  0.00000000  0.59259000  0.75000000  1.0
  N  N67  1  0.00003000  0.40741000  0.25000000  1.0
  O  O68  1  0.81367000  0.65151000  0.78778000  1.0
  O  O69  1  0.18639000  0.65145000  0.71221000  1.0
  O  O70  1  0.18640000  0.34851000  0.21223000  1.0
  O  O71  1  0.81368000  0.34852000  0.28779000  1.0
  O  O72  1  0.99996000  0.46957000  0.75001000  1.0
  O  O73  1  0.00002000  0.53042000  0.24998000  1.0
