# generated using pymatgen
data_TmH9C5(NO4)2
_symmetry_space_group_name_H-M   'P 1'
_cell_length_a   6.51461000
_cell_length_b   6.63898000
_cell_length_c   6.63907000
_cell_angle_alpha   64.51100000
_cell_angle_beta   73.26490000
_cell_angle_gamma   73.26510000
_symmetry_Int_Tables_number   1
_chemical_formula_structural   TmH9C5(NO4)2
_chemical_formula_sum   'Tm1 H9 C5 N2 O8'
_cell_volume   243.70660158
_cell_formula_units_Z   1
loop_
 _symmetry_equiv_pos_site_id
 _symmetry_equiv_pos_as_xyz
  1  'x, y, z'
loop_
 _atom_site_type_symbol
 _atom_site_label
 _atom_site_symmetry_multiplicity
 _atom_site_fract_x
 _atom_site_fract_y
 _atom_site_fract_z
 _atom_site_occupancy
  Tm  Tm0  1  0.00001000  0.45636000  0.54363000  1.0
  H  H1  1  0.40218000  0.25173000  0.18749000  1.0
  H  H2  1  0.59780000  0.81250000  0.74830000  1.0
  H  H3  1  0.53115000  0.95857000  0.28586000  1.0
  H  H4  1  0.46882000  0.71415000  0.04145000  1.0
  H  H5  1  0.82534000  0.00466000  0.00962000  1.0
  H  H6  1  0.17465000  0.99036000  0.99534000  1.0
  H  H7  1  0.86955000  0.61148000  0.01625000  1.0
  H  H8  1  0.13043000  0.98377000  0.38848000  1.0
  H  H9  1  0.49999000  0.37124000  0.62877000  1.0
  C  C10  1  0.70586000  0.16019000  0.01204000  1.0
  C  C11  1  0.29415000  0.98795000  0.83984000  1.0
  C  C12  1  0.03703000  0.50851000  0.01493000  1.0
  C  C13  1  0.96295000  0.98506000  0.49149000  1.0
  C  C14  1  0.50001000  0.52608000  0.47392000  1.0
  N  N15  1  0.53285000  0.12314000  0.17552000  1.0
  N  N16  1  0.46713000  0.82446000  0.87691000  1.0
  O  O17  1  0.33137000  0.60423000  0.38331000  1.0
  O  O18  1  0.66866000  0.61667000  0.39577000  1.0
  O  O19  1  0.12422000  0.46446000  0.18254000  1.0
  O  O20  1  0.87579000  0.81744000  0.53555000  1.0
  O  O21  1  0.73850000  0.35312000  0.86801000  1.0
  O  O22  1  0.26155000  0.13202000  0.64688000  1.0
  O  O23  1  0.12848000  0.44281000  0.85363000  1.0
  O  O24  1  0.87151000  0.14637000  0.55717000  1.0
