# generated using pymatgen
data_Cd2H28C24N4O9
_symmetry_space_group_name_H-M   'P 1'
_cell_length_a   10.33820000
_cell_length_b   10.37590000
_cell_length_c   14.19090000
_cell_angle_alpha   102.17000000
_cell_angle_beta   111.15200000
_cell_angle_gamma   102.22100000
_symmetry_Int_Tables_number   1
_chemical_formula_structural   Cd2H28C24N4O9
_chemical_formula_sum   'Cd4 H56 C48 N8 O18'
_cell_volume   1316.82648595
_cell_formula_units_Z   2
loop_
 _symmetry_equiv_pos_site_id
 _symmetry_equiv_pos_as_xyz
  1  'x, y, z'
loop_
 _atom_site_type_symbol
 _atom_site_label
 _atom_site_symmetry_multiplicity
 _atom_site_fract_x
 _atom_site_fract_y
 _atom_site_fract_z
 _atom_site_occupancy
  Cd  Cd0  1  0.62876000  0.94546000  0.10944000  1.0
  Cd  Cd1  1  0.83519000  0.01914000  0.39050000  1.0
  Cd  Cd2  1  0.37124000  0.05454000  0.89056000  1.0
  Cd  Cd3  1  0.16481000  0.98086000  0.60950000  1.0
  H  H4  1  0.49484000  0.34433000  0.03228000  1.0
  H  H5  1  0.31228000  0.96322000  0.46835000  1.0
  H  H6  1  0.50516000  0.65567000  0.96772000  1.0
  H  H7  1  0.68772000  0.03678000  0.53165000  1.0
  H  H8  1  0.62350000  0.34039000  0.97902000  1.0
  H  H9  1  0.36096000  0.14432000  0.52123000  1.0
  H  H10  1  0.37650000  0.65961000  0.02098000  1.0
  H  H11  1  0.63904000  0.85568000  0.47877000  1.0
  H  H12  1  0.81044000  0.54180000  0.14936000  1.0
  H  H13  1  0.39262000  0.16046000  0.35025000  1.0
  H  H14  1  0.18956000  0.45820000  0.85064000  1.0
  H  H15  1  0.60738000  0.83954000  0.64975000  1.0
  H  H16  1  0.67083000  0.58273000  0.05839000  1.0
  H  H17  1  0.52483000  0.11207000  0.44123000  1.0
  H  H18  1  0.32917000  0.41727000  0.94161000  1.0
  H  H19  1  0.47517000  0.88793000  0.55877000  1.0
  H  H20  1  0.52429000  0.55242000  0.16694000  1.0
  H  H21  1  0.38552000  0.85811000  0.33378000  1.0
  H  H22  1  0.47571000  0.44758000  0.83305000  1.0
  H  H23  1  0.61448000  0.14189000  0.66622000  1.0
  H  H24  1  0.67217000  0.52575000  0.26260000  1.0
  H  H25  1  0.26320000  0.91028000  0.23799000  1.0
  H  H26  1  0.32783000  0.47425000  0.73740000  1.0
  H  H27  1  0.73680000  0.08972000  0.76201000  1.0
  H  H28  1  0.93681000  0.86773000  0.12782000  1.0
  H  H29  1  0.73994000  0.30952000  0.37226000  1.0
  H  H30  1  0.06319000  0.13227000  0.87218000  1.0
  H  H31  1  0.26006000  0.69048000  0.62774000  1.0
  H  H32  1  0.59898000  0.86598000  0.84987000  1.0
  H  H33  1  0.01584000  0.24922000  0.65024000  1.0
  H  H34  1  0.40102000  0.13401000  0.15013000  1.0
  H  H35  1  0.98416000  0.75078000  0.34976000  1.0
  H  H36  1  0.81799000  0.80146000  0.79799000  1.0
  H  H37  1  0.00369000  0.51927000  0.70162000  1.0
  H  H38  1  0.18200000  0.19854000  0.20201000  1.0
  H  H39  1  0.99631000  0.48073000  0.29838000  1.0
  H  H40  1  0.13988000  0.85245000  0.04480000  1.0
  H  H41  1  0.80898000  0.59500000  0.45506000  1.0
  H  H42  1  0.86012000  0.14755000  0.95519000  1.0
  H  H43  1  0.19102000  0.40500000  0.54494000  1.0
  H  H44  1  0.06183000  0.77909000  0.90509000  1.0
  H  H45  1  0.87452000  0.65573000  0.59477000  1.0
  H  H46  1  0.93817000  0.22091000  0.09491000  1.0
  H  H47  1  0.12548000  0.34427000  0.40523000  1.0
  H  H48  1  0.80242000  0.54433000  0.86029000  1.0
  H  H49  1  0.68394000  0.44223000  0.63983000  1.0
  H  H50  1  0.19758000  0.45567000  0.13971000  1.0
  H  H51  1  0.31606000  0.55777000  0.36017000  1.0
  H  H52  1  0.23283000  0.68993000  0.11790000  1.0
  H  H53  1  0.57295000  0.61519000  0.38204000  1.0
  H  H54  1  0.76717000  0.31007000  0.88210000  1.0
  H  H55  1  0.42705000  0.38481000  0.61796000  1.0
  H  H56  1  0.95934000  0.10371000  0.26324000  1.0
  H  H57  1  0.84031000  0.19556000  0.23668000  1.0
  H  H58  1  0.04066000  0.89629000  0.73676000  1.0
  H  H59  1  0.15969000  0.80444000  0.76332000  1.0
  C  C60  1  0.66615000  0.26889000  0.11112000  1.0
  C  C61  1  0.15777000  0.05503000  0.38920000  1.0
  C  C62  1  0.33385000  0.73111000  0.88887000  1.0
  C  C63  1  0.84223000  0.94497000  0.61080000  1.0
  C  C64  1  0.61306000  0.36919000  0.05453000  1.0
  C  C65  1  0.31482000  0.05879000  0.44591000  1.0
  C  C66  1  0.38694000  0.63081000  0.94547000  1.0
  C  C67  1  0.68518000  0.94121000  0.55409000  1.0
  C  C68  1  0.69174000  0.52310000  0.11457000  1.0
  C  C69  1  0.40890000  0.07713000  0.38546000  1.0
  C  C70  1  0.30826000  0.47690000  0.88543000  1.0
  C  C71  1  0.59110000  0.92287000  0.61454000  1.0
  C  C72  1  0.64445000  0.57744000  0.20130000  1.0
  C  C73  1  0.37627000  0.94341000  0.29905000  1.0
  C  C74  1  0.35555000  0.42256000  0.79870000  1.0
  C  C75  1  0.62373000  0.05659000  0.70095000  1.0
  C  C76  1  0.70782000  0.73379000  0.25450000  1.0
  C  C77  1  0.47933000  0.95299000  0.24524000  1.0
  C  C78  1  0.29218000  0.26621000  0.74550000  1.0
  C  C79  1  0.52067000  0.04701000  0.75475000  1.0
  C  C80  1  0.87396000  0.85915000  0.04565000  1.0
  C  C81  1  0.81336000  0.32836000  0.45436000  1.0
  C  C82  1  0.12604000  0.14085000  0.95435000  1.0
  C  C83  1  0.18664000  0.67164000  0.54564000  1.0
  C  C84  1  0.70197000  0.85654000  0.89962000  1.0
  C  C85  1  0.95658000  0.30218000  0.60034000  1.0
  C  C86  1  0.29803000  0.14346000  0.10038000  1.0
  C  C87  1  0.04342000  0.69782000  0.39966000  1.0
  C  C88  1  0.80766000  0.82094000  0.87268000  1.0
  C  C89  1  0.94845000  0.43455000  0.62710000  1.0
  C  C90  1  0.19234000  0.17906000  0.12733000  1.0
  C  C91  1  0.05155000  0.56544000  0.37290000  1.0
  C  C92  1  0.04311000  0.77701000  0.97627000  1.0
  C  C93  1  0.80144000  0.56654000  0.52358000  1.0
  C  C94  1  0.95689000  0.22299000  0.02373000  1.0
  C  C95  1  0.19856000  0.43346000  0.47642000  1.0
  C  C96  1  0.88989000  0.52526000  0.92156000  1.0
  C  C97  1  0.60362000  0.46837000  0.57852000  1.0
  C  C98  1  0.11012000  0.47474000  0.07844000  1.0
  C  C99  1  0.39638000  0.53163000  0.42148000  1.0
  C  C100  1  0.02026000  0.63327000  0.98809000  1.0
  C  C101  1  0.64552000  0.53218000  0.51185000  1.0
  C  C102  1  0.97975000  0.36674000  0.01191000  1.0
  C  C103  1  0.35449000  0.46782000  0.48815000  1.0
  C  C104  1  0.13013000  0.60669000  0.06680000  1.0
  C  C105  1  0.54038000  0.56339000  0.43309000  1.0
  C  C106  1  0.86987000  0.39331000  0.93320000  1.0
  C  C107  1  0.45962000  0.43661000  0.56691000  1.0
  N  N108  1  0.74492000  0.88021000  0.00759000  1.0
  N  N109  1  0.87207000  0.23737000  0.49246000  1.0
  N  N110  1  0.25508000  0.11979000  0.99241000  1.0
  N  N111  1  0.12793000  0.76263000  0.50754000  1.0
  N  N112  1  0.91591000  0.82345000  0.96619000  1.0
  N  N113  1  0.85765000  0.44949000  0.53361000  1.0
  N  N114  1  0.08409000  0.17655000  0.03381000  1.0
  N  N115  1  0.14235000  0.55051000  0.46639000  1.0
  O  O116  1  0.58481000  0.14078000  0.06733000  1.0
  O  O117  1  0.07286000  0.01705000  0.43293000  1.0
  O  O118  1  0.41519000  0.85922000  0.93267000  1.0
  O  O119  1  0.92714000  0.98295000  0.56707000  1.0
  O  O120  1  0.78509000  0.31273000  0.19421000  1.0
  O  O121  1  0.11896000  0.09099000  0.30608000  1.0
  O  O122  1  0.21491000  0.68727000  0.80579000  1.0
  O  O123  1  0.88104000  0.90901000  0.69392000  1.0
  O  O124  1  0.75643000  0.80935000  0.20723000  1.0
  O  O125  1  0.60223000  0.04840000  0.29182000  1.0
  O  O126  1  0.24357000  0.19066000  0.79277000  1.0
  O  O127  1  0.39777000  0.95159000  0.70818000  1.0
  O  O128  1  0.71101000  0.78458000  0.34595000  1.0
  O  O129  1  0.43854000  0.86504000  0.15390000  1.0
  O  O130  1  0.28899000  0.21542000  0.65405000  1.0
  O  O131  1  0.56146000  0.13496000  0.84610000  1.0
  O  O132  1  0.85682000  0.10664000  0.24981000  1.0
  O  O133  1  0.14319000  0.89336000  0.75019000  1.0
