# generated using pymatgen
data_CuH20C26N2Cl2O5
_symmetry_space_group_name_H-M   'P 1'
_cell_length_a   9.99838000
_cell_length_b   10.43060000
_cell_length_c   13.33930000
_cell_angle_alpha   112.94800000
_cell_angle_beta   102.51100000
_cell_angle_gamma   90.04540000
_symmetry_Int_Tables_number   1
_chemical_formula_structural   CuH20C26N2Cl2O5
_chemical_formula_sum   'Cu2 H40 C52 N4 Cl4 O10'
_cell_volume   1244.99171077
_cell_formula_units_Z   2
loop_
 _symmetry_equiv_pos_site_id
 _symmetry_equiv_pos_as_xyz
  1  'x, y, z'
loop_
 _atom_site_type_symbol
 _atom_site_label
 _atom_site_symmetry_multiplicity
 _atom_site_fract_x
 _atom_site_fract_y
 _atom_site_fract_z
 _atom_site_occupancy
  Cu  Cu0  1  0.00000000  0.00000000  0.00000000  1.0
  Cu  Cu1  1  0.50000000  0.00000000  0.00000000  1.0
  H  H2  1  0.70245000  0.07889000  0.93831000  1.0
  H  H3  1  0.79765000  0.14046000  0.06164000  1.0
  H  H4  1  0.29755000  0.92111000  0.06168000  1.0
  H  H5  1  0.20236000  0.85953000  0.93836000  1.0
  H  H6  1  0.79266000  0.26959000  0.57509000  1.0
  H  H7  1  0.70774000  0.69453000  0.42499000  1.0
  H  H8  1  0.20733000  0.73041000  0.42491000  1.0
  H  H9  1  0.29227000  0.30547000  0.57501000  1.0
  H  H10  1  0.71128000  0.19123000  0.70864000  1.0
  H  H11  1  0.78904000  0.48299000  0.29160000  1.0
  H  H12  1  0.28871000  0.80877000  0.29136000  1.0
  H  H13  1  0.21097000  0.51702000  0.70840000  1.0
  H  H14  1  0.75993000  0.34376000  0.90895000  1.0
  H  H15  1  0.74020000  0.43548000  0.09119000  1.0
  H  H16  1  0.24006000  0.65624000  0.09105000  1.0
  H  H17  1  0.25981000  0.56453000  0.90881000  1.0
  H  H18  1  0.88562000  0.58229000  0.97909000  1.0
  H  H19  1  0.61444000  0.60366000  0.02077000  1.0
  H  H20  1  0.11438000  0.41770000  0.02091000  1.0
  H  H21  1  0.38556000  0.39636000  0.97924000  1.0
  H  H22  1  0.78243000  0.90565000  0.79166000  1.0
  H  H23  1  0.71743000  0.11457000  0.20875000  1.0
  H  H24  1  0.21758000  0.09435000  0.20834000  1.0
  H  H25  1  0.28256000  0.88541000  0.79124000  1.0
  H  H26  1  0.75611000  0.89565000  0.59886000  1.0
  H  H27  1  0.74406000  0.29742000  0.40156000  1.0
  H  H28  1  0.24389000  0.10435000  0.40114000  1.0
  H  H29  1  0.25594000  0.70258000  0.59843000  1.0
  H  H30  1  0.16589000  0.11025000  0.70937000  1.0
  H  H31  1  0.33465000  0.40166000  0.29069000  1.0
  H  H32  1  0.83412000  0.88974000  0.29063000  1.0
  H  H33  1  0.66536000  0.59835000  0.70931000  1.0
  H  H34  1  0.17398000  0.11253000  0.89638000  1.0
  H  H35  1  0.32616000  0.21632000  0.10388000  1.0
  H  H36  1  0.82602000  0.88747000  0.10362000  1.0
  H  H37  1  0.67384000  0.78369000  0.89611000  1.0
  H  H38  1  0.84552000  0.94920000  0.46569000  1.0
  H  H39  1  0.65482000  0.48493000  0.53435000  1.0
  H  H40  1  0.15448000  0.05080000  0.53430000  1.0
  H  H41  1  0.34517000  0.51507000  0.46565000  1.0
  C  C42  1  0.91369000  0.55788000  0.81785000  1.0
  C  C43  1  0.58656000  0.74020000  0.18203000  1.0
  C  C44  1  0.08630000  0.44211000  0.18215000  1.0
  C  C45  1  0.41343000  0.25980000  0.81798000  1.0
  C  C46  1  0.88665000  0.46798000  0.70412000  1.0
  C  C47  1  0.61371000  0.76387000  0.29579000  1.0
  C  C48  1  0.11335000  0.53201000  0.29589000  1.0
  C  C49  1  0.38630000  0.23614000  0.70421000  1.0
  C  C50  1  0.81435000  0.33637000  0.66418000  1.0
  C  C51  1  0.68609000  0.67236000  0.33589000  1.0
  C  C52  1  0.18564000  0.66363000  0.33582000  1.0
  C  C53  1  0.31391000  0.32765000  0.66412000  1.0
  C  C54  1  0.76927000  0.29262000  0.73859000  1.0
  C  C55  1  0.73116000  0.55441000  0.26156000  1.0
  C  C56  1  0.23073000  0.70737000  0.26141000  1.0
  C  C57  1  0.26885000  0.44560000  0.73845000  1.0
  C  C58  1  0.79605000  0.38001000  0.85228000  1.0
  C  C59  1  0.70418000  0.52826000  0.14783000  1.0
  C  C60  1  0.20396000  0.61999000  0.14772000  1.0
  C  C61  1  0.29583000  0.47176000  0.85218000  1.0
  C  C62  1  0.86630000  0.51177000  0.89093000  1.0
  C  C63  1  0.63392000  0.62121000  0.10898000  1.0
  C  C64  1  0.13370000  0.48823000  0.10907000  1.0
  C  C65  1  0.36609000  0.37880000  0.89102000  1.0
  C  C66  1  0.98925000  0.70149000  0.86500000  1.0
  C  C67  1  0.51083000  0.83652000  0.13489000  1.0
  C  C68  1  0.01074000  0.29850000  0.13500000  1.0
  C  C69  1  0.48916000  0.16347000  0.86511000  1.0
  C  C70  1  0.86490000  0.94845000  0.76900000  1.0
  C  C71  1  0.63511000  0.17998000  0.23144000  1.0
  C  C72  1  0.13510000  0.05154000  0.23100000  1.0
  C  C73  1  0.36489000  0.82002000  0.76856000  1.0
  C  C74  1  0.85190000  0.94230000  0.66154000  1.0
  C  C75  1  0.64833000  0.28140000  0.33880000  1.0
  C  C76  1  0.14810000  0.05769000  0.33845000  1.0
  C  C77  1  0.35167000  0.71859000  0.66120000  1.0
  C  C78  1  0.96130000  0.99682000  0.63447000  1.0
  C  C79  1  0.53906000  0.36296000  0.36556000  1.0
  C  C80  1  0.03870000  0.00318000  0.36553000  1.0
  C  C81  1  0.46094000  0.63705000  0.63444000  1.0
  C  C82  1  0.07852000  0.06118000  0.72205000  1.0
  C  C83  1  0.42181000  0.33976000  0.27806000  1.0
  C  C84  1  0.92149000  0.93881000  0.27795000  1.0
  C  C85  1  0.57818000  0.66025000  0.72194000  1.0
  C  C86  1  0.08362000  0.06499000  0.82779000  1.0
  C  C87  1  0.41656000  0.23755000  0.17245000  1.0
  C  C88  1  0.91638000  0.93501000  0.17220000  1.0
  C  C89  1  0.58344000  0.76244000  0.82755000  1.0
  C  C90  1  0.94841000  0.98533000  0.52048000  1.0
  C  C91  1  0.55180000  0.46548000  0.47956000  1.0
  C  C92  1  0.05159000  0.01467000  0.47952000  1.0
  C  C93  1  0.44820000  0.53451000  0.52044000  1.0
  N  N94  1  0.97917000  0.00756000  0.85075000  1.0
  N  N95  1  0.52086000  0.15723000  0.14973000  1.0
  N  N96  1  0.02083000  0.99245000  0.14924000  1.0
  N  N97  1  0.47914000  0.84278000  0.85027000  1.0
  Cl  Cl98  1  0.93265000  0.52219000  0.60705000  1.0
  Cl  Cl99  1  0.56753000  0.91471000  0.39279000  1.0
  Cl  Cl100  1  0.06734000  0.47781000  0.39296000  1.0
  Cl  Cl101  1  0.43247000  0.08529000  0.60722000  1.0
  O  O102  1  0.10275000  0.71678000  0.84319000  1.0
  O  O103  1  0.39737000  0.87336000  0.15679000  1.0
  O  O104  1  0.89724000  0.28322000  0.15680000  1.0
  O  O105  1  0.60262000  0.12664000  0.84321000  1.0
  O  O106  1  0.92712000  0.79759000  0.92747000  1.0
  O  O107  1  0.57276000  0.87037000  0.07230000  1.0
  O  O108  1  0.07287000  0.20240000  0.07252000  1.0
  O  O109  1  0.42723000  0.12963000  0.92771000  1.0
  O  O110  1  0.75012000  0.05136000  0.99995000  1.0
  O  O111  1  0.24988000  0.94864000  0.00005000  1.0
