# generated using pymatgen
data_Zn4H25C49N5O17
_symmetry_space_group_name_H-M   'P 1'
_cell_length_a   19.16620000
_cell_length_b   19.22210000
_cell_length_c   19.52460000
_cell_angle_alpha   89.93190000
_cell_angle_beta   85.22870000
_cell_angle_gamma   85.53450000
_symmetry_Int_Tables_number   1
_chemical_formula_structural   Zn4H25C49N5O17
_chemical_formula_sum   'Zn4 H25 C49 N5 O17'
_cell_volume   7146.36007963
_cell_formula_units_Z   1
loop_
 _symmetry_equiv_pos_site_id
 _symmetry_equiv_pos_as_xyz
  1  'x, y, z'
loop_
 _atom_site_type_symbol
 _atom_site_label
 _atom_site_symmetry_multiplicity
 _atom_site_fract_x
 _atom_site_fract_y
 _atom_site_fract_z
 _atom_site_occupancy
  Zn  Zn0  1  0.43940000  0.56100000  0.44215000  1.0
  Zn  Zn1  1  0.44229000  0.44728000  0.56276000  1.0
  Zn  Zn2  1  0.55288000  0.56334000  0.55299000  1.0
  Zn  Zn3  1  0.56551000  0.43815000  0.44250000  1.0
  H  H4  1  0.39721000  0.53186000  0.23529000  1.0
  H  H5  1  0.55267000  0.77542000  0.56921000  1.0
  H  H6  1  0.22189000  0.56708000  0.42414000  1.0
  H  H7  1  0.91615000  0.43492000  0.39516000  1.0
  H  H8  1  0.78443000  0.43167000  0.40079000  1.0
  H  H9  1  0.22737000  0.46409000  0.61997000  1.0
  H  H10  1  0.89597000  0.55998000  0.57912000  1.0
  H  H11  1  0.09547000  0.46478000  0.62842000  1.0
  H  H12  1  0.76429000  0.56074000  0.58205000  1.0
  H  H13  1  0.45648000  0.54881000  0.00813000  1.0
  H  H14  1  0.59741000  0.39850000  0.10410000  1.0
  H  H15  1  0.37928000  0.55410000  0.90269000  1.0
  H  H16  1  0.59293000  0.46326000  0.89101000  1.0
  H  H17  1  0.59818000  0.41461000  0.23024000  1.0
  H  H18  1  0.66099000  0.44595000  0.78867000  1.0
  H  H19  1  0.02932000  0.59827000  0.42966000  1.0
  H  H20  1  0.52200000  0.33480000  0.03644000  1.0
  H  H21  1  0.36165000  0.48337000  0.05900000  1.0
  H  H22  1  0.55902000  0.21992000  0.40636000  1.0
  H  H23  1  0.55231000  0.08965000  0.40951000  1.0
  H  H24  1  0.44616000  0.90544000  0.37819000  1.0
  H  H25  1  0.44260000  0.77489000  0.38613000  1.0
  H  H26  1  0.45908000  0.23670000  0.61176000  1.0
  H  H27  1  0.55175000  0.90619000  0.56401000  1.0
  H  H28  1  0.45871000  0.10578000  0.61728000  1.0
  C  C29  1  0.50823000  0.31323000  0.50563000  1.0
  C  C30  1  0.50073000  0.44701000  0.02206000  1.0
  C  C31  1  0.48013000  0.50149000  0.98158000  1.0
  C  C32  1  0.49688000  0.69047000  0.48354000  1.0
  C  C33  1  0.49175000  0.51184000  0.76097000  1.0
  C  C34  1  0.49712000  0.76785000  0.47837000  1.0
  C  C35  1  0.52857000  0.80462000  0.52830000  1.0
  C  C36  1  0.52829000  0.87668000  0.52548000  1.0
  C  C37  1  0.49778000  0.91279000  0.47135000  1.0
  C  C38  1  0.46841000  0.87612000  0.42011000  1.0
  C  C39  1  0.46678000  0.80402000  0.42442000  1.0
  C  C40  1  0.49574000  0.45450000  0.09783000  1.0
  C  C41  1  0.53253000  0.12258000  0.45336000  1.0
  C  C42  1  0.53592000  0.19445000  0.45172000  1.0
  C  C43  1  0.50366000  0.09107000  0.51314000  1.0
  C  C44  1  0.31084000  0.51224000  0.51526000  1.0
  C  C45  1  0.50843000  0.23570000  0.50850000  1.0
  C  C46  1  0.47993000  0.20398000  0.56813000  1.0
  C  C47  1  0.47927000  0.13185000  0.57113000  1.0
  C  C48  1  0.76712000  0.49572000  0.49201000  1.0
  C  C49  1  0.79823000  0.53243000  0.54220000  1.0
  C  C50  1  0.87068000  0.53226000  0.54059000  1.0
  C  C51  1  0.55260000  0.42653000  0.13292000  1.0
  C  C52  1  0.91278000  0.49632000  0.48752000  1.0
  C  C53  1  0.88197000  0.46127000  0.43617000  1.0
  C  C54  1  0.80936000  0.45984000  0.43925000  1.0
  C  C55  1  0.12169000  0.54177000  0.47097000  1.0
  C  C56  1  0.68895000  0.49616000  0.49470000  1.0
  C  C57  1  0.19474000  0.54312000  0.46833000  1.0
  C  C58  1  0.08664000  0.51164000  0.52926000  1.0
  C  C59  1  0.23258000  0.51408000  0.52091000  1.0
  C  C60  1  0.19708000  0.48569000  0.57907000  1.0
  C  C61  1  0.12446000  0.48610000  0.58384000  1.0
  C  C62  1  0.55398000  0.43627000  0.20330000  1.0
  C  C63  1  0.49298000  0.51192000  0.68376000  1.0
  C  C64  1  0.50100000  0.48647000  0.31625000  1.0
  C  C65  1  0.49866000  0.47544000  0.24059000  1.0
  C  C66  1  0.44137000  0.50273000  0.20675000  1.0
  C  C67  1  0.43849000  0.49122000  0.13619000  1.0
  C  C68  1  0.61651000  0.45820000  0.75596000  1.0
  C  C69  1  0.08430000  0.57711000  0.41530000  1.0
  C  C70  1  0.36974000  0.56249000  0.76784000  1.0
  C  C71  1  0.52437000  0.37548000  0.99563000  1.0
  C  C72  1  0.37211000  0.51367000  0.10534000  1.0
  C  C73  1  0.54670000  0.48329000  0.86621000  1.0
  C  C74  1  0.55057000  0.48634000  0.79460000  1.0
  C  C75  1  0.43027000  0.53642000  0.80087000  1.0
  C  C76  1  0.42756000  0.53449000  0.87306000  1.0
  C  C77  1  0.48489000  0.50545000  0.90647000  1.0
  N  N78  1  0.49663000  0.98597000  0.46410000  1.0
  N  N79  1  0.49938000  0.01848000  0.52008000  1.0
  N  N80  1  0.98675000  0.49512000  0.48103000  1.0
  N  N81  1  0.01416000  0.50538000  0.53664000  1.0
  N  N82  1  0.32036000  0.58291000  0.74034000  1.0
  O  O83  1  0.50017000  0.50243000  0.49936000  1.0
  O  O84  1  0.46064000  0.46387000  0.65921000  1.0
  O  O85  1  0.55138000  0.45333000  0.34425000  1.0
  O  O86  1  0.52271000  0.56085000  0.65244000  1.0
  O  O87  1  0.45267000  0.52787000  0.34588000  1.0
  O  O88  1  0.62345000  0.44750000  0.69397000  1.0
  O  O89  1  0.11228000  0.58644000  0.35761000  1.0
  O  O90  1  0.54263000  0.35854000  0.93597000  1.0
  O  O91  1  0.32941000  0.55995000  0.12892000  1.0
  O  O92  1  0.33968000  0.55172000  0.47058000  1.0
  O  O93  1  0.66374000  0.45427000  0.45418000  1.0
  O  O94  1  0.46560000  0.34717000  0.54956000  1.0
  O  O95  1  0.53495000  0.66114000  0.52762000  1.0
  O  O96  1  0.54964000  0.33939000  0.45954000  1.0
  O  O97  1  0.45885000  0.65976000  0.44404000  1.0
  O  O98  1  0.34215000  0.47019000  0.55551000  1.0
  O  O99  1  0.65401000  0.53870000  0.53721000  1.0
