# generated using pymatgen
data_ZnH20C26N2O5
_symmetry_space_group_name_H-M   'P 1'
_cell_length_a   9.66755000
_cell_length_b   10.67150000
_cell_length_c   15.92450000
_cell_angle_alpha   72.54120000
_cell_angle_beta   82.59170000
_cell_angle_gamma   67.04880000
_symmetry_Int_Tables_number   1
_chemical_formula_structural   ZnH20C26N2O5
_chemical_formula_sum   'Zn2 H40 C52 N4 O10'
_cell_volume   1443.00647352
_cell_formula_units_Z   2
loop_
 _symmetry_equiv_pos_site_id
 _symmetry_equiv_pos_as_xyz
  1  'x, y, z'
loop_
 _atom_site_type_symbol
 _atom_site_label
 _atom_site_symmetry_multiplicity
 _atom_site_fract_x
 _atom_site_fract_y
 _atom_site_fract_z
 _atom_site_occupancy
  Zn  Zn0  1  0.27855000  0.76314000  0.54972000  1.0
  Zn  Zn1  1  0.72145000  0.23686000  0.45028000  1.0
  H  H2  1  0.05107000  0.40902000  0.81262000  1.0
  H  H3  1  0.94893000  0.59098000  0.18738000  1.0
  H  H4  1  0.50347000  0.37058000  0.73442000  1.0
  H  H5  1  0.49653000  0.62942000  0.26559000  1.0
  H  H6  1  0.14702000  0.18877000  0.93677000  1.0
  H  H7  1  0.85298000  0.81122000  0.06323000  1.0
  H  H8  1  0.60107000  0.15428000  0.85769000  1.0
  H  H9  1  0.39894000  0.84571000  0.14232000  1.0
  H  H10  1  0.34025000  0.99858000  0.01847000  1.0
  H  H11  1  0.65974000  0.00141000  0.98153000  1.0
  H  H12  1  0.21292000  0.65221000  0.30593000  1.0
  H  H13  1  0.78707000  0.34779000  0.69407000  1.0
  H  H14  1  0.13468000  0.09367000  0.25112000  1.0
  H  H15  1  0.86532000  0.90633000  0.74888000  1.0
  H  H16  1  0.13963000  0.69223000  0.15265000  1.0
  H  H17  1  0.86037000  0.30777000  0.84735000  1.0
  H  H18  1  0.05593000  0.13671000  0.10022000  1.0
  H  H19  1  0.94408000  0.86329000  0.89977000  1.0
  H  H20  1  0.07587000  0.84098000  0.00672000  1.0
  H  H21  1  0.92413000  0.15903000  0.99328000  1.0
  H  H22  1  0.09140000  0.97495000  0.65522000  1.0
  H  H23  1  0.90860000  0.02505000  0.34478000  1.0
  H  H24  1  0.13746000  0.12573000  0.73453000  1.0
  H  H25  1  0.86254000  0.87428000  0.26547000  1.0
  H  H26  1  0.39830000  0.12710000  0.72888000  1.0
  H  H27  1  0.60170000  0.87291000  0.27112000  1.0
  H  H28  1  0.59959000  0.97863000  0.64656000  1.0
  H  H29  1  0.40041000  0.02137000  0.35344000  1.0
  H  H30  1  0.75683000  0.84390000  0.58320000  1.0
  H  H31  1  0.24317000  0.15610000  0.41680000  1.0
  H  H32  1  0.93452000  0.67488000  0.50580000  1.0
  H  H33  1  0.06548000  0.32512000  0.49420000  1.0
  H  H34  1  0.83747000  0.53249000  0.44327000  1.0
  H  H35  1  0.16253000  0.46752000  0.55673000  1.0
  H  H36  1  0.56350000  0.57595000  0.45819000  1.0
  H  H37  1  0.43650000  0.42405000  0.54181000  1.0
  H  H38  1  0.96116000  0.91522000  0.57389000  1.0
  H  H39  1  0.03885000  0.08478000  0.42611000  1.0
  H  H40  1  0.03679000  0.74456000  0.61599000  1.0
  H  H41  1  0.96322000  0.25544000  0.38401000  1.0
  C  C42  1  0.21171000  0.53814000  0.69472000  1.0
  C  C43  1  0.78830000  0.46185000  0.30528000  1.0
  C  C44  1  0.27117000  0.40427000  0.76712000  1.0
  C  C45  1  0.72883000  0.59572000  0.23288000  1.0
  C  C46  1  0.17111000  0.35163000  0.82392000  1.0
  C  C47  1  0.82890000  0.64836000  0.17608000  1.0
  C  C48  1  0.42632000  0.33084000  0.78011000  1.0
  C  C49  1  0.57368000  0.66915000  0.21989000  1.0
  C  C50  1  0.22508000  0.22996000  0.89293000  1.0
  C  C51  1  0.77492000  0.77003000  0.10707000  1.0
  C  C52  1  0.48020000  0.20984000  0.84955000  1.0
  C  C53  1  0.51980000  0.79015000  0.15045000  1.0
  C  C54  1  0.38038000  0.15769000  0.90851000  1.0
  C  C55  1  0.61962000  0.84230000  0.09149000  1.0
  C  C56  1  0.42929000  0.03462000  0.98432000  1.0
  C  C57  1  0.57071000  0.96537000  0.01568000  1.0
  C  C58  1  0.21879000  0.84741000  0.38044000  1.0
  C  C59  1  0.78120000  0.15259000  0.61956000  1.0
  C  C60  1  0.17789000  0.87026000  0.28811000  1.0
  C  C61  1  0.82210000  0.12974000  0.71189000  1.0
  C  C62  1  0.17904000  0.75749000  0.25981000  1.0
  C  C63  1  0.82095000  0.24251000  0.74019000  1.0
  C  C64  1  0.13405000  0.00642000  0.22919000  1.0
  C  C65  1  0.86595000  0.99358000  0.77080000  1.0
  C  C66  1  0.13720000  0.78076000  0.17442000  1.0
  C  C67  1  0.86280000  0.21925000  0.82558000  1.0
  C  C68  1  0.08897000  0.03010000  0.14469000  1.0
  C  C69  1  0.91103000  0.96991000  0.85531000  1.0
  C  C70  1  0.08852000  0.91774000  0.11555000  1.0
  C  C71  1  0.91148000  0.08227000  0.88445000  1.0
  C  C72  1  0.04097000  0.93767000  0.02775000  1.0
  C  C73  1  0.95903000  0.06233000  0.97225000  1.0
  C  C74  1  0.20241000  0.97777000  0.65631000  1.0
  C  C75  1  0.79759000  0.02222000  0.34369000  1.0
  C  C76  1  0.22875000  0.06143000  0.69984000  1.0
  C  C77  1  0.77125000  0.93857000  0.30016000  1.0
  C  C78  1  0.37357000  0.06157000  0.69664000  1.0
  C  C79  1  0.62643000  0.93843000  0.30336000  1.0
  C  C80  1  0.48659000  0.97742000  0.65141000  1.0
  C  C81  1  0.51341000  0.02258000  0.34859000  1.0
  C  C82  1  0.45233000  0.89348000  0.61093000  1.0
  C  C83  1  0.54767000  0.10652000  0.38907000  1.0
  C  C84  1  0.56609000  0.79695000  0.56400000  1.0
  C  C85  1  0.43391000  0.20305000  0.43600000  1.0
  C  C86  1  0.71717000  0.78163000  0.55636000  1.0
  C  C87  1  0.28283000  0.21837000  0.44364000  1.0
  C  C88  1  0.81693000  0.68616000  0.51253000  1.0
  C  C89  1  0.18307000  0.31384000  0.48747000  1.0
  C  C90  1  0.76353000  0.60868000  0.47761000  1.0
  C  C91  1  0.23647000  0.39132000  0.52239000  1.0
  C  C92  1  0.61080000  0.63136000  0.48655000  1.0
  C  C93  1  0.38920000  0.36865000  0.51345000  1.0
  N  N94  1  0.31104000  0.89584000  0.61338000  1.0
  N  N95  1  0.68896000  0.10416000  0.38663000  1.0
  N  N96  1  0.51501000  0.72285000  0.52879000  1.0
  N  N97  1  0.48499000  0.27715000  0.47121000  1.0
  O  O98  1  0.31045000  0.57751000  0.64368000  1.0
  O  O99  1  0.68955000  0.42249000  0.35632000  1.0
  O  O100  1  0.07041000  0.60243000  0.68866000  1.0
  O  O101  1  0.92959000  0.39756000  0.31134000  1.0
  O  O102  1  0.20565000  0.95414000  0.40597000  1.0
  O  O103  1  0.79435000  0.04586000  0.59403000  1.0
  O  O104  1  0.26410000  0.72153000  0.43121000  1.0
  O  O105  1  0.73589000  0.27847000  0.56879000  1.0
  O  O106  1  0.04146000  0.82784000  0.56470000  1.0
  O  O107  1  0.95854000  0.17216000  0.43530000  1.0
