# generated using pymatgen
data_Zn3H28C24(N7O2)2
_symmetry_space_group_name_H-M   'P 1'
_cell_length_a   10.67940000
_cell_length_b   11.70260000
_cell_length_c   12.18840000
_cell_angle_alpha   103.76800000
_cell_angle_beta   89.99980000
_cell_angle_gamma   89.99990000
_symmetry_Int_Tables_number   1
_chemical_formula_structural   Zn3H28C24(N7O2)2
_chemical_formula_sum   'Zn6 H56 C48 N28 O8'
_cell_volume   1479.49909190
_cell_formula_units_Z   2
loop_
 _symmetry_equiv_pos_site_id
 _symmetry_equiv_pos_as_xyz
  1  'x, y, z'
loop_
 _atom_site_type_symbol
 _atom_site_label
 _atom_site_symmetry_multiplicity
 _atom_site_fract_x
 _atom_site_fract_y
 _atom_site_fract_z
 _atom_site_occupancy
  Zn  Zn0  1  0.38663000  0.09263000  0.49741000  1.0
  Zn  Zn1  1  0.38663000  0.90737000  0.00259000  1.0
  Zn  Zn2  1  0.61336000  0.90737000  0.50260000  1.0
  Zn  Zn3  1  0.61336000  0.09263000  0.99740000  1.0
  Zn  Zn4  1  0.55788000  0.00000000  0.25000000  1.0
  Zn  Zn5  1  0.44212000  0.00000000  0.75000000  1.0
  H  H6  1  0.48308000  0.69723000  0.42373000  1.0
  H  H7  1  0.48308000  0.30277000  0.07627000  1.0
  H  H8  1  0.51692000  0.30277000  0.57627000  1.0
  H  H9  1  0.51692000  0.69723000  0.92373000  1.0
  H  H10  1  0.33846000  0.52952000  0.37120000  1.0
  H  H11  1  0.33846000  0.47048000  0.12880000  1.0
  H  H12  1  0.66154000  0.47048000  0.62880000  1.0
  H  H13  1  0.66154000  0.52952000  0.87120000  1.0
  H  H14  1  0.11402000  0.56383000  0.32373000  1.0
  H  H15  1  0.11401000  0.43617000  0.17627000  1.0
  H  H16  1  0.88599000  0.43617000  0.67627000  1.0
  H  H17  1  0.88599000  0.56383000  0.82373000  1.0
  H  H18  1  0.04391000  0.76578000  0.32635000  1.0
  H  H19  1  0.04391000  0.23422000  0.17364000  1.0
  H  H20  1  0.95609000  0.23422000  0.67364000  1.0
  H  H21  1  0.95609000  0.76578000  0.82635000  1.0
  H  H22  1  0.06485000  0.95509000  0.35704000  1.0
  H  H23  1  0.06485000  0.04491000  0.14296000  1.0
  H  H24  1  0.93515000  0.04491000  0.64295000  1.0
  H  H25  1  0.93515000  0.95509000  0.85704000  1.0
  H  H26  1  0.06119000  0.15293000  0.36613000  1.0
  H  H27  1  0.06119000  0.84707000  0.13387000  1.0
  H  H28  1  0.93881000  0.84707000  0.63387000  1.0
  H  H29  1  0.93881000  0.15293000  0.86613000  1.0
  H  H30  1  0.07396000  0.17799000  0.51541000  1.0
  H  H31  1  0.07396000  0.82201000  0.98459000  1.0
  H  H32  1  0.92604000  0.82201000  0.48459000  1.0
  H  H33  1  0.92604000  0.17799000  0.01541000  1.0
  H  H34  1  0.25158000  0.27250000  0.36133000  1.0
  H  H35  1  0.25159000  0.72750000  0.13867000  1.0
  H  H36  1  0.74842000  0.72750000  0.63867000  1.0
  H  H37  1  0.74841000  0.27250000  0.86133000  1.0
  H  H38  1  0.15021000  0.45167000  0.42886000  1.0
  H  H39  1  0.15021000  0.54832000  0.07114000  1.0
  H  H40  1  0.84979000  0.54833000  0.57114000  1.0
  H  H41  1  0.84979000  0.45167000  0.92886000  1.0
  H  H42  1  0.02605000  0.37152000  0.47153000  1.0
  H  H43  1  0.02605000  0.62848000  0.02847000  1.0
  H  H44  1  0.97395000  0.62848000  0.52847000  1.0
  H  H45  1  0.97395000  0.37152000  0.97153000  1.0
  H  H46  1  0.10887000  0.40220000  0.66142000  1.0
  H  H47  1  0.10887000  0.59780000  0.83858000  1.0
  H  H48  1  0.89113000  0.59780000  0.33858000  1.0
  H  H49  1  0.89113000  0.40220000  0.16142000  1.0
  H  H50  1  0.15833000  0.53614000  0.62927000  1.0
  H  H51  1  0.15834000  0.46386000  0.87073000  1.0
  H  H52  1  0.84166000  0.46386000  0.37073000  1.0
  H  H53  1  0.84166000  0.53614000  0.12927000  1.0
  H  H54  1  0.36592000  0.45617000  0.57356000  1.0
  H  H55  1  0.36592000  0.54383000  0.92643000  1.0
  H  H56  1  0.63408000  0.54383000  0.42643000  1.0
  H  H57  1  0.63408000  0.45617000  0.07357000  1.0
  H  H58  1  0.33385000  0.38769000  0.68733000  1.0
  H  H59  1  0.33385000  0.61232000  0.81267000  1.0
  H  H60  1  0.66615000  0.61232000  0.31267000  1.0
  H  H61  1  0.66615000  0.38768000  0.18733000  1.0
  C  C62  1  0.34869000  0.82878000  0.40779000  1.0
  C  C63  1  0.34869000  0.17122000  0.09222000  1.0
  C  C64  1  0.65131000  0.17122000  0.59221000  1.0
  C  C65  1  0.65131000  0.82878000  0.90778000  1.0
  C  C66  1  0.38625000  0.71205000  0.40335000  1.0
  C  C67  1  0.38625000  0.28794000  0.09665000  1.0
  C  C68  1  0.61375000  0.28795000  0.59665000  1.0
  C  C69  1  0.61375000  0.71206000  0.90335000  1.0
  C  C70  1  0.30422000  0.61812000  0.37409000  1.0
  C  C71  1  0.30422000  0.38188000  0.12591000  1.0
  C  C72  1  0.69578000  0.38188000  0.62591000  1.0
  C  C73  1  0.69578000  0.61812000  0.87409000  1.0
  C  C74  1  0.17945000  0.63681000  0.34667000  1.0
  C  C75  1  0.17945000  0.36318000  0.15334000  1.0
  C  C76  1  0.82055000  0.36318000  0.65333000  1.0
  C  C77  1  0.82055000  0.63682000  0.84667000  1.0
  C  C78  1  0.14003000  0.74986000  0.34913000  1.0
  C  C79  1  0.14003000  0.25014000  0.15088000  1.0
  C  C80  1  0.85997000  0.25014000  0.65087000  1.0
  C  C81  1  0.85997000  0.74986000  0.84913000  1.0
  C  C82  1  0.22095000  0.84794000  0.38057000  1.0
  C  C83  1  0.22095000  0.15206000  0.11943000  1.0
  C  C84  1  0.77905000  0.15206000  0.61943000  1.0
  C  C85  1  0.77905000  0.84794000  0.88057000  1.0
  C  C86  1  0.16279000  0.96057000  0.38694000  1.0
  C  C87  1  0.16278000  0.03943000  0.11307000  1.0
  C  C88  1  0.83722000  0.03943000  0.61306000  1.0
  C  C89  1  0.83722000  0.96057000  0.88694000  1.0
  C  C90  1  0.12841000  0.16586000  0.43663000  1.0
  C  C91  1  0.12841000  0.83414000  0.06337000  1.0
  C  C92  1  0.87159000  0.83414000  0.56337000  1.0
  C  C93  1  0.87159000  0.16586000  0.93663000  1.0
  C  C94  1  0.20449000  0.27700000  0.44251000  1.0
  C  C95  1  0.20450000  0.72300000  0.05749000  1.0
  C  C96  1  0.79551000  0.72300000  0.55749000  1.0
  C  C97  1  0.79550000  0.27700000  0.94251000  1.0
  C  C98  1  0.12686000  0.38980000  0.48036000  1.0
  C  C99  1  0.12686000  0.61020000  0.01964000  1.0
  C  C100  1  0.87314000  0.61020000  0.51964000  1.0
  C  C101  1  0.87314000  0.38980000  0.98036000  1.0
  C  C102  1  0.16597000  0.43988000  0.60381000  1.0
  C  C103  1  0.16597000  0.56012000  0.89619000  1.0
  C  C104  1  0.83403000  0.56011000  0.39619000  1.0
  C  C105  1  0.83403000  0.43988000  0.10381000  1.0
  C  C106  1  0.30071000  0.39822000  0.60505000  1.0
  C  C107  1  0.30072000  0.60178000  0.89495000  1.0
  C  C108  1  0.69929000  0.60178000  0.39495000  1.0
  C  C109  1  0.69928000  0.39822000  0.10505000  1.0
  N  N110  1  0.21002000  0.06386000  0.42722000  1.0
  N  N111  1  0.21002000  0.93613000  0.07278000  1.0
  N  N112  1  0.78998000  0.93614000  0.57277000  1.0
  N  N113  1  0.78998000  0.06387000  0.92722000  1.0
  N  N114  1  0.47228000  0.13504000  0.35287000  1.0
  N  N115  1  0.47228000  0.86496000  0.14714000  1.0
  N  N116  1  0.52772000  0.86496000  0.64713000  1.0
  N  N117  1  0.52772000  0.13504000  0.85287000  1.0
  N  N118  1  0.49631000  0.23532000  0.34789000  1.0
  N  N119  1  0.49631000  0.76469000  0.15211000  1.0
  N  N120  1  0.50369000  0.76469000  0.65211000  1.0
  N  N121  1  0.50369000  0.23532000  0.84789000  1.0
  N  N122  1  0.51582000  0.33188000  0.34516000  1.0
  N  N123  1  0.51582000  0.66812000  0.15484000  1.0
  N  N124  1  0.48418000  0.66812000  0.65484000  1.0
  N  N125  1  0.48418000  0.33188000  0.84516000  1.0
  N  N126  1  0.32456000  0.08328000  0.66240000  1.0
  N  N127  1  0.32456000  0.91672000  0.83760000  1.0
  N  N128  1  0.67544000  0.91672000  0.33760000  1.0
  N  N129  1  0.67544000  0.08328000  0.16240000  1.0
  N  N130  1  0.22761000  0.12661000  0.70406000  1.0
  N  N131  1  0.22760000  0.87338000  0.79594000  1.0
  N  N132  1  0.77240000  0.87338000  0.29594000  1.0
  N  N133  1  0.77239000  0.12661000  0.20406000  1.0
  N  N134  1  0.13419000  0.16876000  0.74283000  1.0
  N  N135  1  0.13421000  0.83125000  0.75717000  1.0
  N  N136  1  0.86580000  0.83125000  0.25717000  1.0
  N  N137  1  0.86581000  0.16876000  0.24283000  1.0
  O  O138  1  0.43136000  0.91545000  0.43457000  1.0
  O  O139  1  0.43136000  0.08455000  0.06544000  1.0
  O  O140  1  0.56864000  0.08456000  0.56543000  1.0
  O  O141  1  0.56864000  0.91545000  0.93456000  1.0
  O  O142  1  0.30076000  0.28225000  0.52856000  1.0
  O  O143  1  0.30076000  0.71775000  0.97144000  1.0
  O  O144  1  0.69924000  0.71775000  0.47144000  1.0
  O  O145  1  0.69924000  0.28225000  0.02856000  1.0
