# generated using pymatgen
data_Y4H36C57(O11F6)3
_symmetry_space_group_name_H-M   'P 1'
_cell_length_a   7.88789000
_cell_length_b   21.35140000
_cell_length_c   22.94730000
_cell_angle_alpha   82.56440000
_cell_angle_beta   82.42050000
_cell_angle_gamma   80.01880000
_symmetry_Int_Tables_number   1
_chemical_formula_structural   Y4H36C57(O11F6)3
_chemical_formula_sum   'Y8 H72 C114 O66 F36'
_cell_volume   3750.43838637
_cell_formula_units_Z   2
loop_
 _symmetry_equiv_pos_site_id
 _symmetry_equiv_pos_as_xyz
  1  'x, y, z'
loop_
 _atom_site_type_symbol
 _atom_site_label
 _atom_site_symmetry_multiplicity
 _atom_site_fract_x
 _atom_site_fract_y
 _atom_site_fract_z
 _atom_site_occupancy
  Y  Y0  1  0.80586000  0.42186000  0.28781000  1.0
  Y  Y1  1  0.37941000  0.47155000  0.43393000  1.0
  Y  Y2  1  0.46869000  0.24707000  0.09746000  1.0
  Y  Y3  1  0.23157000  0.09489000  0.03623000  1.0
  Y  Y4  1  0.19415000  0.57814000  0.71218000  1.0
  Y  Y5  1  0.62059000  0.52846000  0.56607000  1.0
  Y  Y6  1  0.53131000  0.75293000  0.90254000  1.0
  Y  Y7  1  0.76842000  0.90511000  0.96377000  1.0
  H  H8  1  0.50363000  0.41580000  0.22314000  1.0
  H  H9  1  0.63237000  0.45874000  0.18458000  1.0
  H  H10  1  0.00575000  0.45239000  0.16173000  1.0
  H  H11  1  0.92517000  0.38816000  0.16661000  1.0
  H  H12  1  0.19924000  0.40095000  0.25856000  1.0
  H  H13  1  0.15654000  0.45167000  0.30444000  1.0
  H  H14  1  0.07365000  0.42383000  0.40240000  1.0
  H  H15  1  0.99579000  0.46697000  0.45210000  1.0
  H  H16  1  0.84642000  0.26350000  0.05181000  1.0
  H  H17  1  0.81914000  0.27070000  0.12164000  1.0
  H  H18  1  0.10636000  0.30735000  0.10987000  1.0
  H  H19  1  0.13322000  0.30506000  0.04155000  1.0
  H  H20  1  0.44144000  0.36762000  0.14225000  1.0
  H  H21  1  0.60228000  0.36240000  0.09369000  1.0
  H  H22  1  0.90769000  0.03265000  0.05337000  1.0
  H  H23  1  0.86809000  0.10070000  0.08011000  1.0
  H  H24  1  0.38637000  0.95729000  0.07663000  1.0
  H  H25  1  0.18354000  0.95799000  0.07963000  1.0
  H  H26  1  0.56842000  0.63951000  0.24397000  1.0
  H  H27  1  0.53802000  0.71247000  0.44137000  1.0
  H  H28  1  0.43892000  0.78960000  0.35947000  1.0
  H  H29  1  0.36783000  0.76648000  0.12188000  1.0
  H  H30  1  0.99252000  0.74605000  0.14472000  1.0
  H  H31  1  0.77970000  0.74409000  0.23358000  1.0
  H  H32  1  0.33007000  0.28725000  0.43739000  1.0
  H  H33  1  0.32958000  0.18099000  0.25823000  1.0
  H  H34  1  0.22662000  0.12864000  0.35542000  1.0
  H  H35  1  0.97601000  0.26619000  0.41274000  1.0
  H  H36  1  0.98859000  0.31376000  0.61743000  1.0
  H  H37  1  0.15434000  0.21242000  0.58502000  1.0
  H  H38  1  0.64474000  0.09594000  0.21596000  1.0
  H  H39  1  0.83871000  0.87516000  0.16318000  1.0
  H  H40  1  0.90179000  0.90258000  0.25790000  1.0
  H  H41  1  0.03237000  0.06655000  0.20870000  1.0
  H  H42  1  0.76287000  0.24617000  0.32282000  1.0
  H  H43  1  0.70271000  0.13758000  0.35959000  1.0
  H  H44  1  0.49637000  0.58420000  0.77686000  1.0
  H  H45  1  0.36762000  0.54126000  0.81542000  1.0
  H  H46  1  0.99426000  0.54761000  0.83827000  1.0
  H  H47  1  0.07483000  0.61184000  0.83339000  1.0
  H  H48  1  0.80076000  0.59905000  0.74145000  1.0
  H  H49  1  0.84346000  0.54834000  0.69557000  1.0
  H  H50  1  0.92636000  0.57617000  0.59760000  1.0
  H  H51  1  0.00421000  0.53304000  0.54790000  1.0
  H  H52  1  0.15357000  0.73651000  0.94819000  1.0
  H  H53  1  0.18085000  0.72931000  0.87837000  1.0
  H  H54  1  0.89364000  0.69265000  0.89013000  1.0
  H  H55  1  0.86677000  0.69494000  0.95845000  1.0
  H  H56  1  0.55855000  0.63238000  0.85775000  1.0
  H  H57  1  0.39772000  0.63760000  0.90631000  1.0
  H  H58  1  0.09230000  0.96735000  0.94663000  1.0
  H  H59  1  0.13191000  0.89930000  0.91990000  1.0
  H  H60  1  0.61362000  0.04271000  0.92338000  1.0
  H  H61  1  0.81646000  0.04201000  0.92037000  1.0
  H  H62  1  0.43157000  0.36049000  0.75603000  1.0
  H  H63  1  0.46197000  0.28753000  0.55863000  1.0
  H  H64  1  0.56108000  0.21040000  0.64053000  1.0
  H  H65  1  0.63217000  0.23352000  0.87812000  1.0
  H  H66  1  0.00748000  0.25395000  0.85528000  1.0
  H  H67  1  0.22029000  0.25590000  0.76642000  1.0
  H  H68  1  0.66994000  0.71275000  0.56261000  1.0
  H  H69  1  0.67043000  0.81901000  0.74177000  1.0
  H  H70  1  0.77339000  0.87136000  0.64459000  1.0
  H  H71  1  0.02400000  0.73381000  0.58726000  1.0
  H  H72  1  0.01140000  0.68625000  0.38257000  1.0
  H  H73  1  0.84565000  0.78758000  0.41498000  1.0
  H  H74  1  0.35526000  0.90406000  0.78404000  1.0
  H  H75  1  0.16128000  0.12484000  0.83682000  1.0
  H  H76  1  0.09819000  0.09742000  0.74210000  1.0
  H  H77  1  0.96763000  0.93344000  0.79131000  1.0
  H  H78  1  0.23713000  0.75383000  0.67718000  1.0
  H  H79  1  0.29729000  0.86242000  0.64041000  1.0
  C  C80  1  0.42959000  0.76493000  0.24147000  1.0
  C  C81  1  0.49409000  0.72024000  0.29499000  1.0
  C  C82  1  0.55628000  0.65592000  0.28757000  1.0
  C  C83  1  0.60109000  0.61111000  0.33539000  1.0
  C  C84  1  0.59370000  0.63197000  0.39152000  1.0
  C  C85  1  0.54095000  0.69685000  0.39795000  1.0
  C  C86  1  0.48674000  0.74039000  0.35109000  1.0
  C  C87  1  0.66004000  0.54343000  0.32138000  1.0
  C  C88  1  0.62724000  0.58992000  0.44740000  1.0
  C  C89  1  0.55665000  0.75741000  0.18502000  1.0
  C  C90  1  0.50327000  0.76271000  0.12863000  1.0
  C  C91  1  0.62372000  0.76557000  0.07825000  1.0
  C  C92  1  0.80078000  0.76194000  0.08348000  1.0
  C  C93  1  0.85520000  0.75180000  0.13990000  1.0
  C  C94  1  0.73466000  0.75030000  0.18998000  1.0
  C  C95  1  0.56699000  0.77212000  0.01824000  1.0
  C  C96  1  0.92927000  0.77080000  0.02935000  1.0
  C  C97  1  0.24716000  0.74993000  0.23451000  1.0
  C  C98  1  0.40790000  0.83695000  0.25210000  1.0
  C  C99  1  0.20099000  0.17752000  0.46697000  1.0
  C  C100  1  0.27024000  0.20384000  0.40416000  1.0
  C  C101  1  0.32994000  0.26282000  0.39859000  1.0
  C  C102  1  0.38626000  0.29246000  0.34357000  1.0
  C  C103  1  0.38518000  0.26304000  0.29227000  1.0
  C  C104  1  0.33039000  0.20354000  0.29805000  1.0
  C  C105  1  0.27173000  0.17428000  0.35322000  1.0
  C  C106  1  0.45715000  0.35346000  0.34207000  1.0
  C  C107  1  0.43035000  0.29466000  0.23155000  1.0
  C  C108  1  0.08183000  0.23287000  0.49568000  1.0
  C  C109  1  0.97856000  0.27551000  0.45812000  1.0
  C  C110  1  0.88593000  0.33251000  0.47621000  1.0
  C  C111  1  0.89369000  0.34696000  0.53380000  1.0
  C  C112  1  0.98470000  0.30210000  0.57286000  1.0
  C  C113  1  0.07908000  0.24528000  0.55419000  1.0
  C  C114  1  0.78356000  0.37599000  0.43185000  1.0
  C  C115  1  0.82171000  0.41213000  0.55036000  1.0
  C  C116  1  0.36214000  0.15078000  0.50049000  1.0
  C  C117  1  0.09224000  0.12290000  0.46778000  1.0
  C  C118  1  0.82068000  0.02454000  0.30071000  1.0
  C  C119  1  0.77980000  0.00172000  0.24404000  1.0
  C  C120  1  0.68635000  0.04687000  0.20575000  1.0
  C  C121  1  0.65168000  0.03177000  0.15171000  1.0
  C  C122  1  0.70666000  0.96937000  0.13617000  1.0
  C  C123  1  0.79430000  0.92345000  0.17533000  1.0
  C  C124  1  0.83107000  0.93934000  0.22885000  1.0
  C  C125  1  0.57166000  0.08396000  0.10904000  1.0
  C  C126  1  0.70716000  0.95337000  0.07461000  1.0
  C  C127  1  0.85952000  0.09347000  0.28611000  1.0
  C  C128  1  0.97199000  0.10523000  0.23476000  1.0
  C  C129  1  0.00867000  0.16631000  0.21450000  1.0
  C  C130  1  0.92932000  0.21815000  0.24590000  1.0
  C  C131  1  0.82361000  0.20593000  0.29863000  1.0
  C  C132  1  0.78840000  0.14441000  0.31885000  1.0
  C  C133  1  0.14218000  0.17158000  0.16211000  1.0
  C  C134  1  0.93948000  0.28680000  0.22399000  1.0
  C  C135  1  0.65937000  0.01809000  0.34669000  1.0
  C  C136  1  0.98365000  0.98361000  0.32603000  1.0
  C  C137  1  0.57041000  0.23507000  0.75852000  1.0
  C  C138  1  0.50591000  0.27976000  0.70501000  1.0
  C  C139  1  0.44372000  0.34408000  0.71243000  1.0
  C  C140  1  0.39890000  0.38890000  0.66461000  1.0
  C  C141  1  0.40629000  0.36804000  0.60848000  1.0
  C  C142  1  0.45904000  0.30316000  0.60205000  1.0
  C  C143  1  0.51326000  0.25961000  0.64891000  1.0
  C  C144  1  0.33996000  0.45657000  0.67862000  1.0
  C  C145  1  0.37277000  0.41009000  0.55259000  1.0
  C  C146  1  0.44335000  0.24259000  0.81498000  1.0
  C  C147  1  0.49673000  0.23729000  0.87137000  1.0
  C  C148  1  0.37628000  0.23443000  0.92175000  1.0
  C  C149  1  0.19923000  0.23806000  0.91653000  1.0
  C  C150  1  0.14480000  0.24820000  0.86010000  1.0
  C  C151  1  0.26534000  0.24970000  0.81002000  1.0
  C  C152  1  0.43302000  0.22788000  0.98176000  1.0
  C  C153  1  0.07074000  0.22920000  0.97065000  1.0
  C  C154  1  0.75285000  0.25006000  0.76549000  1.0
  C  C155  1  0.59209000  0.16305000  0.74790000  1.0
  C  C156  1  0.79900000  0.82248000  0.53303000  1.0
  C  C157  1  0.72978000  0.79616000  0.59584000  1.0
  C  C158  1  0.67008000  0.73718000  0.60141000  1.0
  C  C159  1  0.61375000  0.70754000  0.65643000  1.0
  C  C160  1  0.61484000  0.73696000  0.70774000  1.0
  C  C161  1  0.66963000  0.79646000  0.70196000  1.0
  C  C162  1  0.72829000  0.82572000  0.64678000  1.0
  C  C163  1  0.54286000  0.64654000  0.65793000  1.0
  C  C164  1  0.56965000  0.70534000  0.76845000  1.0
  C  C165  1  0.91817000  0.76713000  0.50432000  1.0
  C  C166  1  0.02144000  0.72450000  0.54187000  1.0
  C  C167  1  0.11408000  0.66749000  0.52379000  1.0
  C  C168  1  0.10631000  0.65305000  0.46620000  1.0
  C  C169  1  0.01529000  0.69790000  0.42714000  1.0
  C  C170  1  0.92091000  0.75472000  0.44581000  1.0
  C  C171  1  0.21645000  0.62401000  0.56814000  1.0
  C  C172  1  0.17830000  0.58787000  0.44964000  1.0
  C  C173  1  0.63786000  0.84922000  0.49952000  1.0
  C  C174  1  0.90776000  0.87710000  0.53222000  1.0
  C  C175  1  0.17932000  0.97546000  0.69929000  1.0
  C  C176  1  0.22020000  0.99828000  0.75596000  1.0
  C  C177  1  0.31365000  0.95313000  0.79425000  1.0
  C  C178  1  0.34833000  0.96823000  0.84829000  1.0
  C  C179  1  0.29334000  0.03062000  0.86383000  1.0
  C  C180  1  0.20569000  0.07655000  0.82467000  1.0
  C  C181  1  0.16893000  0.06066000  0.77115000  1.0
  C  C182  1  0.42834000  0.91604000  0.89096000  1.0
  C  C183  1  0.29284000  0.04663000  0.92539000  1.0
  C  C184  1  0.14047000  0.90653000  0.71389000  1.0
  C  C185  1  0.02801000  0.89477000  0.76524000  1.0
  C  C186  1  0.99133000  0.83369000  0.78550000  1.0
  C  C187  1  0.07067000  0.78185000  0.75410000  1.0
  C  C188  1  0.17639000  0.79407000  0.70137000  1.0
  C  C189  1  0.21160000  0.85559000  0.68115000  1.0
  C  C190  1  0.85782000  0.82842000  0.83789000  1.0
  C  C191  1  0.06052000  0.71320000  0.77600000  1.0
  C  C192  1  0.34063000  0.98191000  0.65331000  1.0
  C  C193  1  0.01635000  0.01639000  0.67397000  1.0
  O  O194  1  0.78684000  0.53320000  0.28117000  1.0
  O  O195  1  0.58414000  0.49692000  0.34651000  1.0
  O  O196  1  0.56407000  0.53765000  0.45852000  1.0
  O  O197  1  0.70437000  0.60825000  0.48553000  1.0
  O  O198  1  0.64561000  0.80629000  0.97592000  1.0
  O  O199  1  0.45193000  0.74196000  0.00707000  1.0
  O  O200  1  0.95511000  0.82831000  0.01308000  1.0
  O  O201  1  0.00290000  0.72257000  0.00404000  1.0
  O  O202  1  0.61051000  0.35399000  0.31702000  1.0
  O  O203  1  0.36212000  0.39890000  0.36682000  1.0
  O  O204  1  0.51082000  0.25955000  0.19298000  1.0
  O  O205  1  0.38039000  0.35540000  0.21999000  1.0
  O  O206  1  0.86884000  0.38976000  0.38127000  1.0
  O  O207  1  0.62436000  0.39313000  0.44537000  1.0
  O  O208  1  0.75020000  0.42141000  0.60204000  1.0
  O  O209  1  0.83129000  0.45917000  0.50940000  1.0
  O  O210  1  0.58734000  0.14112000  0.11526000  1.0
  O  O211  1  0.50097000  0.06754000  0.06792000  1.0
  O  O212  1  0.60047000  0.92108000  0.06004000  1.0
  O  O213  1  0.83209000  0.96909000  0.03711000  1.0
  O  O214  1  0.24378000  0.21186000  0.16064000  1.0
  O  O215  1  0.15116000  0.13286000  0.12374000  1.0
  O  O216  1  0.94809000  0.32367000  0.26218000  1.0
  O  O217  1  0.92840000  0.30665000  0.16897000  1.0
  O  O218  1  0.57609000  0.44915000  0.22448000  1.0
  O  O219  1  0.90099000  0.43406000  0.17529000  1.0
  O  O220  1  0.10649000  0.43433000  0.27449000  1.0
  O  O221  1  0.08898000  0.46259000  0.41838000  1.0
  O  O222  1  0.76121000  0.26121000  0.08865000  1.0
  O  O223  1  0.19286000  0.31228000  0.07491000  1.0
  O  O224  1  0.47728000  0.36287000  0.09941000  1.0
  O  O225  1  0.95934000  0.06642000  0.06801000  1.0
  O  O226  1  0.27066000  0.98471000  0.08095000  1.0
  O  O227  1  0.21316000  0.46680000  0.71883000  1.0
  O  O228  1  0.41586000  0.50308000  0.65349000  1.0
  O  O229  1  0.43593000  0.46236000  0.54148000  1.0
  O  O230  1  0.29564000  0.39176000  0.51446000  1.0
  O  O231  1  0.35440000  0.19371000  0.02408000  1.0
  O  O232  1  0.54809000  0.25804000  0.99293000  1.0
  O  O233  1  0.04489000  0.17169000  0.98693000  1.0
  O  O234  1  0.99710000  0.27743000  0.99597000  1.0
  O  O235  1  0.38951000  0.64601000  0.68298000  1.0
  O  O236  1  0.63788000  0.60110000  0.63318000  1.0
  O  O237  1  0.48917000  0.74045000  0.80702000  1.0
  O  O238  1  0.61960000  0.64460000  0.78001000  1.0
  O  O239  1  0.13118000  0.61024000  0.61872000  1.0
  O  O240  1  0.37565000  0.60688000  0.55462000  1.0
  O  O241  1  0.24980000  0.57860000  0.39796000  1.0
  O  O242  1  0.16871000  0.54083000  0.49059000  1.0
  O  O243  1  0.41265000  0.85887000  0.88474000  1.0
  O  O244  1  0.49903000  0.93245000  0.93208000  1.0
  O  O245  1  0.39953000  0.07892000  0.93996000  1.0
  O  O246  1  0.16791000  0.03091000  0.96289000  1.0
  O  O247  1  0.75622000  0.78814000  0.83936000  1.0
  O  O248  1  0.84884000  0.86714000  0.87626000  1.0
  O  O249  1  0.05191000  0.67633000  0.73782000  1.0
  O  O250  1  0.07160000  0.69335000  0.83103000  1.0
  O  O251  1  0.42391000  0.55085000  0.77552000  1.0
  O  O252  1  0.09901000  0.56594000  0.82471000  1.0
  O  O253  1  0.89351000  0.56567000  0.72551000  1.0
  O  O254  1  0.91103000  0.53741000  0.58162000  1.0
  O  O255  1  0.23878000  0.73879000  0.91135000  1.0
  O  O256  1  0.80714000  0.68772000  0.92509000  1.0
  O  O257  1  0.52271000  0.63713000  0.90060000  1.0
  O  O258  1  0.04066000  0.93358000  0.93199000  1.0
  O  O259  1  0.72934000  0.01529000  0.91905000  1.0
  F  F260  1  0.14544000  0.74529000  0.28692000  1.0
  F  F261  1  0.15654000  0.79630000  0.19805000  1.0
  F  F262  1  0.25930000  0.69367000  0.21120000  1.0
  F  F263  1  0.27518000  0.85319000  0.29442000  1.0
  F  F264  1  0.55469000  0.85022000  0.26974000  1.0
  F  F265  1  0.37632000  0.87702000  0.20226000  1.0
  F  F266  1  0.44723000  0.19881000  0.50924000  1.0
  F  F267  1  0.47854000  0.10951000  0.46932000  1.0
  F  F268  1  0.32163000  0.11942000  0.55452000  1.0
  F  F269  1  0.01263000  0.10796000  0.52272000  1.0
  F  F270  1  0.18840000  0.06800000  0.44992000  1.0
  F  F271  1  0.96479000  0.14162000  0.43140000  1.0
  F  F272  1  0.61033000  0.95983000  0.34878000  1.0
  F  F273  1  0.52154000  0.06223000  0.33098000  1.0
  F  F274  1  0.68565000  0.02624000  0.40227000  1.0
  F  F275  1  0.95918000  0.92309000  0.34827000  1.0
  F  F276  1  0.12068000  0.97857000  0.28307000  1.0
  F  F277  1  0.03212000  0.01081000  0.37013000  1.0
  F  F278  1  0.85456000  0.25471000  0.71308000  1.0
  F  F279  1  0.84346000  0.20370000  0.80194000  1.0
  F  F280  1  0.74070000  0.30632000  0.78879000  1.0
  F  F281  1  0.72482000  0.14680000  0.70558000  1.0
  F  F282  1  0.44530000  0.14978000  0.73026000  1.0
  F  F283  1  0.62368000  0.12298000  0.79774000  1.0
  F  F284  1  0.55276000  0.80118000  0.49076000  1.0
  F  F285  1  0.52145000  0.89049000  0.53068000  1.0
  F  F286  1  0.67834000  0.88058000  0.44549000  1.0
  F  F287  1  0.98738000  0.89203000  0.47728000  1.0
  F  F288  1  0.81161000  0.93200000  0.55006000  1.0
  F  F289  1  0.03521000  0.85838000  0.56860000  1.0
  F  F290  1  0.38966000  0.04017000  0.65122000  1.0
  F  F291  1  0.47846000  0.93777000  0.66902000  1.0
  F  F292  1  0.31436000  0.97376000  0.59773000  1.0
  F  F293  1  0.04082000  0.07690000  0.65173000  1.0
  F  F294  1  0.87932000  0.02142000  0.71693000  1.0
  F  F295  1  0.96789000  0.98919000  0.62987000  1.0
