# generated using pymatgen
data_HgH10C14(SN2)2
_symmetry_space_group_name_H-M   'P 1'
_cell_length_a   8.00643000
_cell_length_b   12.95770000
_cell_length_c   14.75380000
_cell_angle_alpha   89.99940000
_cell_angle_beta   89.99930000
_cell_angle_gamma   89.99980000
_symmetry_Int_Tables_number   1
_chemical_formula_structural   HgH10C14(SN2)2
_chemical_formula_sum   'Hg4 H40 C56 S8 N16'
_cell_volume   1530.63177114
_cell_formula_units_Z   4
loop_
 _symmetry_equiv_pos_site_id
 _symmetry_equiv_pos_as_xyz
  1  'x, y, z'
loop_
 _atom_site_type_symbol
 _atom_site_label
 _atom_site_symmetry_multiplicity
 _atom_site_fract_x
 _atom_site_fract_y
 _atom_site_fract_z
 _atom_site_occupancy
  Hg  Hg0  1  0.74999000  0.06037000  0.75000000  1.0
  Hg  Hg1  1  0.74999000  0.43962000  0.25000000  1.0
  Hg  Hg2  1  0.25001000  0.93962000  0.24999000  1.0
  Hg  Hg3  1  0.25001000  0.56038000  0.75000000  1.0
  H  H4  1  0.10830000  0.15949000  0.68383000  1.0
  H  H5  1  0.39170000  0.34051000  0.18382000  1.0
  H  H6  1  0.10829000  0.34050000  0.31617000  1.0
  H  H7  1  0.39169000  0.15949000  0.81617000  1.0
  H  H8  1  0.89172000  0.84051000  0.31617000  1.0
  H  H9  1  0.60829000  0.65949000  0.81617000  1.0
  H  H10  1  0.89170000  0.65949000  0.68383000  1.0
  H  H11  1  0.60830000  0.84050000  0.18382000  1.0
  H  H12  1  0.22459000  0.31217000  0.60107000  1.0
  H  H13  1  0.27541000  0.18783000  0.10107000  1.0
  H  H14  1  0.22459000  0.18782000  0.39893000  1.0
  H  H15  1  0.27541000  0.31218000  0.89893000  1.0
  H  H16  1  0.77542000  0.68783000  0.39893000  1.0
  H  H17  1  0.72459000  0.81217000  0.89893000  1.0
  H  H18  1  0.77540000  0.81218000  0.60108000  1.0
  H  H19  1  0.72460000  0.68782000  0.10106000  1.0
  H  H20  1  0.71420000  0.40065000  0.54130000  1.0
  H  H21  1  0.78581000  0.09935000  0.04130000  1.0
  H  H22  1  0.71419000  0.09935000  0.45871000  1.0
  H  H23  1  0.78581000  0.40064000  0.95870000  1.0
  H  H24  1  0.28582000  0.59935000  0.45870000  1.0
  H  H25  1  0.21419000  0.90065000  0.95870000  1.0
  H  H26  1  0.28580000  0.90065000  0.54130000  1.0
  H  H27  1  0.21420000  0.59934000  0.04130000  1.0
  H  H28  1  0.62140000  0.24862000  0.62670000  1.0
  H  H29  1  0.87860000  0.25138000  0.12671000  1.0
  H  H30  1  0.62139000  0.25138000  0.37330000  1.0
  H  H31  1  0.87860000  0.24861000  0.87329000  1.0
  H  H32  1  0.37861000  0.75138000  0.37330000  1.0
  H  H33  1  0.12140000  0.74862000  0.87330000  1.0
  H  H34  1  0.37860000  0.74862000  0.62671000  1.0
  H  H35  1  0.12140000  0.75137000  0.12671000  1.0
  H  H36  1  0.18257000  0.46476000  0.51537000  1.0
  H  H37  1  0.31744000  0.03524000  0.01537000  1.0
  H  H38  1  0.18256000  0.03525000  0.48464000  1.0
  H  H39  1  0.31743000  0.46475000  0.98463000  1.0
  H  H40  1  0.81744000  0.53524000  0.48463000  1.0
  H  H41  1  0.68257000  0.96475000  0.98463000  1.0
  H  H42  1  0.81743000  0.96476000  0.51538000  1.0
  H  H43  1  0.68257000  0.53524000  0.01536000  1.0
  C  C44  1  0.02617000  0.21683000  0.65301000  1.0
  C  C45  1  0.47383000  0.28316000  0.15301000  1.0
  C  C46  1  0.02616000  0.28316000  0.34699000  1.0
  C  C47  1  0.47383000  0.21684000  0.84699000  1.0
  C  C48  1  0.97385000  0.78317000  0.34699000  1.0
  C  C49  1  0.52616000  0.71684000  0.84699000  1.0
  C  C50  1  0.97383000  0.71684000  0.65302000  1.0
  C  C51  1  0.52617000  0.78316000  0.15301000  1.0
  C  C52  1  0.08992000  0.30203000  0.60755000  1.0
  C  C53  1  0.41008000  0.19797000  0.10754000  1.0
  C  C54  1  0.08991000  0.19797000  0.39245000  1.0
  C  C55  1  0.41008000  0.30203000  0.89245000  1.0
  C  C56  1  0.91009000  0.69797000  0.39246000  1.0
  C  C57  1  0.58992000  0.80203000  0.89245000  1.0
  C  C58  1  0.91008000  0.80203000  0.60755000  1.0
  C  C59  1  0.58992000  0.69796000  0.10754000  1.0
  C  C60  1  0.97951000  0.37313000  0.56693000  1.0
  C  C61  1  0.52050000  0.12687000  0.06693000  1.0
  C  C62  1  0.97950000  0.12687000  0.43308000  1.0
  C  C63  1  0.52050000  0.37313000  0.93307000  1.0
  C  C64  1  0.02050000  0.62687000  0.43307000  1.0
  C  C65  1  0.47950000  0.87313000  0.93307000  1.0
  C  C66  1  0.02049000  0.87313000  0.56693000  1.0
  C  C67  1  0.47951000  0.62687000  0.06693000  1.0
  C  C68  1  0.80765000  0.35214000  0.57381000  1.0
  C  C69  1  0.69235000  0.14786000  0.07381000  1.0
  C  C70  1  0.80765000  0.14786000  0.42620000  1.0
  C  C71  1  0.69235000  0.35214000  0.92619000  1.0
  C  C72  1  0.19236000  0.64786000  0.42620000  1.0
  C  C73  1  0.30765000  0.85214000  0.92619000  1.0
  C  C74  1  0.19234000  0.85214000  0.57381000  1.0
  C  C75  1  0.30765000  0.64785000  0.07381000  1.0
  C  C76  1  0.75408000  0.26602000  0.62121000  1.0
  C  C77  1  0.74592000  0.23398000  0.12121000  1.0
  C  C78  1  0.75408000  0.23398000  0.37879000  1.0
  C  C79  1  0.74592000  0.26602000  0.87879000  1.0
  C  C80  1  0.24593000  0.73398000  0.37879000  1.0
  C  C81  1  0.25408000  0.76602000  0.87879000  1.0
  C  C82  1  0.24591000  0.76602000  0.62121000  1.0
  C  C83  1  0.25408000  0.73398000  0.12121000  1.0
  C  C84  1  0.04646000  0.46240000  0.51940000  1.0
  C  C85  1  0.45355000  0.03760000  0.01940000  1.0
  C  C86  1  0.04645000  0.03760000  0.48061000  1.0
  C  C87  1  0.45355000  0.46240000  0.98060000  1.0
  C  C88  1  0.95356000  0.53760000  0.48060000  1.0
  C  C89  1  0.54645000  0.96240000  0.98060000  1.0
  C  C90  1  0.95354000  0.96241000  0.51940000  1.0
  C  C91  1  0.54646000  0.53759000  0.01939000  1.0
  C  C92  1  0.44833000  0.05995000  0.61534000  1.0
  C  C93  1  0.05165000  0.44006000  0.11533000  1.0
  C  C94  1  0.44833000  0.44006000  0.38466000  1.0
  C  C95  1  0.05167000  0.05996000  0.88467000  1.0
  C  C96  1  0.55167000  0.94006000  0.38465000  1.0
  C  C97  1  0.94834000  0.55996000  0.88466000  1.0
  C  C98  1  0.55168000  0.55996000  0.61534000  1.0
  C  C99  1  0.94833000  0.94002000  0.11533000  1.0
  S  S100  1  0.48756000  0.97790000  0.69939000  1.0
  S  S101  1  0.01242000  0.52211000  0.19940000  1.0
  S  S102  1  0.48756000  0.52211000  0.30060000  1.0
  S  S103  1  0.01243000  0.97790000  0.80061000  1.0
  S  S104  1  0.51242000  0.02211000  0.30060000  1.0
  S  S105  1  0.98757000  0.47790000  0.80061000  1.0
  S  S106  1  0.51244000  0.47790000  0.69939000  1.0
  S  S107  1  0.98756000  0.02208000  0.19938000  1.0
  N  N108  1  0.86097000  0.19923000  0.66037000  1.0
  N  N109  1  0.63903000  0.30077000  0.16037000  1.0
  N  N110  1  0.86096000  0.30077000  0.33963000  1.0
  N  N111  1  0.63903000  0.19923000  0.83962000  1.0
  N  N112  1  0.13905000  0.80077000  0.33963000  1.0
  N  N113  1  0.36096000  0.69924000  0.83963000  1.0
  N  N114  1  0.13903000  0.69923000  0.66037000  1.0
  N  N115  1  0.36097000  0.80076000  0.16037000  1.0
  N  N116  1  0.41625000  0.11657000  0.55516000  1.0
  N  N117  1  0.08373000  0.38344000  0.05516000  1.0
  N  N118  1  0.41626000  0.38344000  0.44484000  1.0
  N  N119  1  0.08375000  0.11658000  0.94483000  1.0
  N  N120  1  0.58375000  0.88344000  0.44482000  1.0
  N  N121  1  0.91626000  0.61658000  0.94483000  1.0
  N  N122  1  0.58376000  0.61659000  0.55517000  1.0
  N  N123  1  0.91625000  0.88340000  0.05516000  1.0
