# generated using pymatgen
data_PrH16C9O8
_symmetry_space_group_name_H-M   'P 1'
_cell_length_a   8.68645000
_cell_length_b   9.92438000
_cell_length_c   11.73480000
_cell_angle_alpha   72.52500000
_cell_angle_beta   69.77690000
_cell_angle_gamma   85.15390000
_symmetry_Int_Tables_number   1
_chemical_formula_structural   PrH16C9O8
_chemical_formula_sum   'Pr2 H32 C18 O16'
_cell_volume   905.24462553
_cell_formula_units_Z   2
loop_
 _symmetry_equiv_pos_site_id
 _symmetry_equiv_pos_as_xyz
  1  'x, y, z'
loop_
 _atom_site_type_symbol
 _atom_site_label
 _atom_site_symmetry_multiplicity
 _atom_site_fract_x
 _atom_site_fract_y
 _atom_site_fract_z
 _atom_site_occupancy
  Pr  Pr0  1  0.74477000  0.98284000  0.00874000  1.0
  Pr  Pr1  1  0.25522000  0.01716000  0.99126000  1.0
  H  H2  1  0.28287000  0.98687000  0.66878000  1.0
  H  H3  1  0.26975000  0.80631000  0.74305000  1.0
  H  H4  1  0.10208000  0.76738000  0.61883000  1.0
  H  H5  1  0.07927000  0.95020000  0.56202000  1.0
  H  H6  1  0.38488000  0.98254000  0.45228000  1.0
  H  H7  1  0.40943000  0.79912000  0.50047000  1.0
  H  H8  1  0.19384000  0.94268000  0.33865000  1.0
  H  H9  1  0.25043000  0.76309000  0.37203000  1.0
  H  H10  1  0.72380000  0.46758000  0.22026000  1.0
  H  H11  1  0.70595000  0.46816000  0.07433000  1.0
  H  H12  1  0.02505000  0.51375000  0.11945000  1.0
  H  H13  1  0.96721000  0.35675000  0.10273000  1.0
  H  H14  1  0.99557000  0.24753000  0.85413000  1.0
  H  H15  1  0.91135000  0.23213000  0.75685000  1.0
  H  H16  1  0.69919000  0.27617000  0.96741000  1.0
  H  H17  1  0.51068000  0.24693000  0.02553000  1.0
  H  H18  1  0.71713000  0.01313000  0.33123000  1.0
  H  H19  1  0.73025000  0.19369000  0.25696000  1.0
  H  H20  1  0.89793000  0.23262000  0.38117000  1.0
  H  H21  1  0.92074000  0.04979000  0.43798000  1.0
  H  H22  1  0.61513000  0.01745000  0.54772000  1.0
  H  H23  1  0.59057000  0.20087000  0.49952000  1.0
  H  H24  1  0.80616000  0.05732000  0.66135000  1.0
  H  H25  1  0.74957000  0.23692000  0.62797000  1.0
  H  H26  1  0.27620000  0.53242000  0.77974000  1.0
  H  H27  1  0.29406000  0.53185000  0.92567000  1.0
  H  H28  1  0.97496000  0.48626000  0.88055000  1.0
  H  H29  1  0.03280000  0.64326000  0.89727000  1.0
  H  H30  1  0.00443000  0.75248000  0.14586000  1.0
  H  H31  1  0.08866000  0.76787000  0.24314000  1.0
  H  H32  1  0.30081000  0.72383000  0.03259000  1.0
  H  H33  1  0.48931000  0.75307000  0.97447000  1.0
  C  C34  1  0.05302000  0.91738000  0.80677000  1.0
  C  C35  1  0.20104000  0.89382000  0.70071000  1.0
  C  C36  1  0.16558000  0.87011000  0.58968000  1.0
  C  C37  1  0.32262000  0.88053000  0.47592000  1.0
  C  C38  1  0.29155000  0.87110000  0.35821000  1.0
  C  C39  1  0.55906000  0.09283000  0.76071000  1.0
  C  C40  1  0.75590000  0.66986000  0.08649000  1.0
  C  C41  1  0.77766000  0.51186000  0.11635000  1.0
  C  C42  1  0.95869000  0.47234000  0.07193000  1.0
  C  C43  1  0.94697000  0.08262000  0.19323000  1.0
  C  C44  1  0.79896000  0.10618000  0.29929000  1.0
  C  C45  1  0.83442000  0.12989000  0.41032000  1.0
  C  C46  1  0.67738000  0.11946000  0.52409000  1.0
  C  C47  1  0.70844000  0.12890000  0.64179000  1.0
  C  C48  1  0.44093000  0.90716000  0.23930000  1.0
  C  C49  1  0.24410000  0.33015000  0.91351000  1.0
  C  C50  1  0.22234000  0.48815000  0.88364000  1.0
  C  C51  1  0.04132000  0.52766000  0.92806000  1.0
  O  O52  1  0.57843000  0.05781000  0.87015000  1.0
  O  O53  1  0.58336000  0.90331000  0.24590000  1.0
  O  O54  1  0.84447000  0.74419000  0.11373000  1.0
  O  O55  1  0.65226000  0.73100000  0.03424000  1.0
  O  O56  1  0.90898000  0.91605000  0.80348000  1.0
  O  O57  1  0.07547000  0.94152000  0.90202000  1.0
  O  O58  1  0.61404000  0.22265000  0.04461000  1.0
  O  O59  1  0.88932000  0.22461000  0.84552000  1.0
  O  O60  1  0.42156000  0.94219000  0.12985000  1.0
  O  O61  1  0.41664000  0.09669000  0.75410000  1.0
  O  O62  1  0.15553000  0.25582000  0.88627000  1.0
  O  O63  1  0.34773000  0.26900000  0.96577000  1.0
  O  O64  1  0.09102000  0.08394000  0.19652000  1.0
  O  O65  1  0.92452000  0.05848000  0.09798000  1.0
  O  O66  1  0.38596000  0.77735000  0.95539000  1.0
  O  O67  1  0.11068000  0.77540000  0.15447000  1.0
