# generated using pymatgen
data_Cu3H10C12S2IO2
_symmetry_space_group_name_H-M   'P 1'
_cell_length_a   4.06509000
_cell_length_b   5.76136000
_cell_length_c   28.96380000
_cell_angle_alpha   90.00090000
_cell_angle_beta   90.00010000
_cell_angle_gamma   89.99940000
_symmetry_Int_Tables_number   1
_chemical_formula_structural   Cu3H10C12S2IO2
_chemical_formula_sum   'Cu6 H20 C24 S4 I2 O4'
_cell_volume   678.34514045
_cell_formula_units_Z   2
loop_
 _symmetry_equiv_pos_site_id
 _symmetry_equiv_pos_as_xyz
  1  'x, y, z'
loop_
 _atom_site_type_symbol
 _atom_site_label
 _atom_site_symmetry_multiplicity
 _atom_site_fract_x
 _atom_site_fract_y
 _atom_site_fract_z
 _atom_site_occupancy
  Cu  Cu0  1  0.94021000  0.28628000  0.04498000  1.0
  Cu  Cu1  1  0.44024000  0.71369000  0.45502000  1.0
  Cu  Cu2  1  0.55985000  0.71374000  0.54497000  1.0
  Cu  Cu3  1  0.05982000  0.28627000  0.95503000  1.0
  Cu  Cu4  1  0.49998000  0.00401000  0.00001000  1.0
  Cu  Cu5  1  0.00005000  0.99599000  0.49999000  1.0
  H  H6  1  0.70102000  0.71750000  0.09006000  1.0
  H  H7  1  0.20098000  0.28250000  0.40994000  1.0
  H  H8  1  0.79900000  0.28253000  0.59005000  1.0
  H  H9  1  0.29895000  0.71749000  0.90995000  1.0
  H  H10  1  0.11242000  0.25253000  0.15303000  1.0
  H  H11  1  0.61243000  0.74748000  0.34697000  1.0
  H  H12  1  0.38755000  0.74745000  0.65301000  1.0
  H  H13  1  0.88753000  0.25254000  0.84699000  1.0
  H  H14  1  0.67140000  0.48614000  0.16213000  1.0
  H  H15  1  0.17138000  0.51387000  0.33787000  1.0
  H  H16  1  0.82864000  0.51386000  0.66213000  1.0
  H  H17  1  0.32862000  0.48612000  0.83787000  1.0
  H  H18  1  0.08432000  0.02159000  0.22533000  1.0
  H  H19  1  0.58430000  0.97843000  0.27466000  1.0
  H  H20  1  0.41568000  0.97836000  0.72532000  1.0
  H  H21  1  0.91566000  0.02161000  0.77468000  1.0
  H  H22  1  0.56114000  0.51849000  0.24502000  1.0
  H  H23  1  0.06113000  0.48155000  0.25498000  1.0
  H  H24  1  0.93892000  0.48149000  0.74502000  1.0
  H  H25  1  0.43892000  0.51848000  0.75498000  1.0
  C  C26  1  0.41541000  0.00235000  0.11728000  1.0
  C  C27  1  0.91540000  0.99763000  0.38271000  1.0
  C  C28  1  0.08459000  0.99767000  0.61727000  1.0
  C  C29  1  0.58454000  0.00234000  0.88273000  1.0
  C  C30  1  0.56780000  0.78539000  0.11974000  1.0
  C  C31  1  0.06781000  0.21462000  0.38025000  1.0
  C  C32  1  0.93219000  0.21462000  0.61974000  1.0
  C  C33  1  0.43216000  0.78538000  0.88026000  1.0
  C  C34  1  0.23754000  0.08562000  0.15530000  1.0
  C  C35  1  0.73755000  0.91439000  0.34470000  1.0
  C  C36  1  0.26245000  0.91438000  0.65529000  1.0
  C  C37  1  0.76241000  0.08561000  0.84471000  1.0
  C  C38  1  0.55228000  0.65551000  0.16034000  1.0
  C  C39  1  0.05227000  0.34449000  0.33966000  1.0
  C  C40  1  0.94773000  0.34448000  0.66033000  1.0
  C  C41  1  0.44770000  0.65552000  0.83967000  1.0
  C  C42  1  0.22171000  0.95713000  0.19580000  1.0
  C  C43  1  0.72171000  0.04286000  0.30420000  1.0
  C  C44  1  0.27827000  0.04283000  0.69579000  1.0
  C  C45  1  0.77825000  0.95715000  0.80421000  1.0
  C  C46  1  0.38347000  0.74378000  0.19855000  1.0
  C  C47  1  0.88350000  0.25625000  0.30145000  1.0
  C  C48  1  0.11654000  0.25620000  0.69855000  1.0
  C  C49  1  0.61652000  0.74379000  0.80145000  1.0
  S  S50  1  0.44085000  0.18725000  0.06814000  1.0
  S  S51  1  0.94088000  0.81273000  0.43186000  1.0
  S  S52  1  0.05920000  0.81279000  0.56812000  1.0
  S  S53  1  0.55917000  0.18723000  0.93187000  1.0
  I  I54  1  0.99994000  0.67837000  0.00001000  1.0
  I  I55  1  0.49997000  0.32162000  0.50000000  1.0
  O  O56  1  0.36801000  0.62729000  0.24026000  1.0
  O  O57  1  0.86802000  0.37275000  0.25974000  1.0
  O  O58  1  0.13202000  0.37269000  0.74025000  1.0
  O  O59  1  0.63202000  0.62728000  0.75975000  1.0
