# generated using pymatgen
data_CuH9C11N4
_symmetry_space_group_name_H-M   'P 1'
_cell_length_a   9.23688000
_cell_length_b   11.22000000
_cell_length_c   14.46920000
_cell_angle_alpha   90.00010000
_cell_angle_beta   90.00060000
_cell_angle_gamma   78.42200000
_symmetry_Int_Tables_number   1
_chemical_formula_structural   CuH9C11N4
_chemical_formula_sum   'Cu4 H36 C44 N16'
_cell_volume   1469.04357681
_cell_formula_units_Z   4
loop_
 _symmetry_equiv_pos_site_id
 _symmetry_equiv_pos_as_xyz
  1  'x, y, z'
loop_
 _atom_site_type_symbol
 _atom_site_label
 _atom_site_symmetry_multiplicity
 _atom_site_fract_x
 _atom_site_fract_y
 _atom_site_fract_z
 _atom_site_occupancy
  Cu  Cu0  1  0.54194000  0.99298000  0.08350000  1.0
  Cu  Cu1  1  0.45807000  0.50702000  0.58350000  1.0
  Cu  Cu2  1  0.45806000  0.00702000  0.91650000  1.0
  Cu  Cu3  1  0.54194000  0.49298000  0.41651000  1.0
  H  H4  1  0.62798000  0.72818000  0.36559000  1.0
  H  H5  1  0.37202000  0.77182000  0.86559000  1.0
  H  H6  1  0.37201000  0.27182000  0.63441000  1.0
  H  H7  1  0.62798000  0.22818000  0.13441000  1.0
  H  H8  1  0.58216000  0.88347000  0.24138000  1.0
  H  H9  1  0.41785000  0.61653000  0.74138000  1.0
  H  H10  1  0.41784000  0.11653000  0.75862000  1.0
  H  H11  1  0.58215000  0.38347000  0.25862000  1.0
  H  H12  1  0.27242000  0.68259000  0.12298000  1.0
  H  H13  1  0.72758000  0.81741000  0.62299000  1.0
  H  H14  1  0.72758000  0.31741000  0.87702000  1.0
  H  H15  1  0.27241000  0.18259000  0.37702000  1.0
  H  H16  1  0.32744000  0.53969000  0.25166000  1.0
  H  H17  1  0.67255000  0.96032000  0.75166000  1.0
  H  H18  1  0.67256000  0.46031000  0.74834000  1.0
  H  H19  1  0.32744000  0.03969000  0.24834000  1.0
  H  H20  1  0.19435000  0.85502000  0.06268000  1.0
  H  H21  1  0.80565000  0.64497000  0.56268000  1.0
  H  H22  1  0.80565000  0.14497000  0.93732000  1.0
  H  H23  1  0.19435000  0.35503000  0.43732000  1.0
  H  H24  1  0.87818000  0.84164000  0.83335000  1.0
  H  H25  1  0.12181000  0.65835000  0.33333333  1.0
  H  H26  1  0.12182000  0.15835000  0.16665000  1.0
  H  H27  1  0.87819000  0.34165000  0.66666667  1.0
  H  H28  1  0.08320000  0.80714000  0.94517000  1.0
  H  H29  1  0.91680000  0.69286000  0.44518000  1.0
  H  H30  1  0.91680000  0.19286000  0.05482000  1.0
  H  H31  1  0.08321000  0.30714000  0.55483000  1.0
  H  H32  1  0.19154000  0.14521000  0.85242000  1.0
  H  H33  1  0.80846000  0.35478000  0.35242000  1.0
  H  H34  1  0.80846000  0.85479000  0.14758000  1.0
  H  H35  1  0.19154000  0.64521000  0.64758000  1.0
  H  H36  1  0.98341000  0.16242000  0.74017000  1.0
  H  H37  1  0.01658000  0.33758000  0.24017000  1.0
  H  H38  1  0.01658000  0.83758000  0.25983000  1.0
  H  H39  1  0.98342000  0.66243000  0.75983000  1.0
  C  C40  1  0.54946000  0.72159000  0.31044000  1.0
  C  C41  1  0.45053000  0.77841000  0.81044000  1.0
  C  C42  1  0.45054000  0.27841000  0.68956000  1.0
  C  C43  1  0.54946000  0.22159000  0.18956000  1.0
  C  C44  1  0.52394000  0.80794000  0.24109000  1.0
  C  C45  1  0.47606000  0.69206000  0.74109000  1.0
  C  C46  1  0.47605000  0.19206000  0.75891000  1.0
  C  C47  1  0.52394000  0.30794000  0.25891000  1.0
  C  C48  1  0.42282000  0.79865000  0.16950000  1.0
  C  C49  1  0.57719000  0.70135000  0.66950000  1.0
  C  C50  1  0.57718000  0.20135000  0.83049000  1.0
  C  C51  1  0.42282000  0.29865000  0.33050000  1.0
  C  C52  1  0.35069000  0.69905000  0.17540000  1.0
  C  C53  1  0.64931000  0.80095000  0.67540000  1.0
  C  C54  1  0.64931000  0.30095000  0.82460000  1.0
  C  C55  1  0.35069000  0.19905000  0.32460000  1.0
  C  C56  1  0.38326000  0.61671000  0.24753000  1.0
  C  C57  1  0.61674000  0.88329000  0.74753000  1.0
  C  C58  1  0.61674000  0.38329000  0.75246000  1.0
  C  C59  1  0.38326000  0.11671000  0.25247000  1.0
  C  C60  1  0.28844000  0.89537000  0.04266000  1.0
  C  C61  1  0.71156000  0.60463000  0.54266000  1.0
  C  C62  1  0.71155000  0.10464000  0.95734000  1.0
  C  C63  1  0.28844000  0.39537000  0.45734000  1.0
  C  C64  1  0.95079000  0.90739000  0.83819000  1.0
  C  C65  1  0.04921000  0.59260000  0.33819000  1.0
  C  C66  1  0.04921000  0.09261000  0.16181000  1.0
  C  C67  1  0.95080000  0.40740000  0.66181000  1.0
  C  C68  1  0.06507000  0.88884000  0.90250000  1.0
  C  C69  1  0.93492000  0.61115000  0.40250000  1.0
  C  C70  1  0.93493000  0.11116000  0.09750000  1.0
  C  C71  1  0.06508000  0.38885000  0.59751000  1.0
  C  C72  1  0.15719000  0.97454000  0.90914000  1.0
  C  C73  1  0.84281000  0.52546000  0.40914000  1.0
  C  C74  1  0.84281000  0.02546000  0.09086000  1.0
  C  C75  1  0.15719000  0.47454000  0.59086000  1.0
  C  C76  1  0.12480000  0.07526000  0.84917000  1.0
  C  C77  1  0.87520000  0.42473000  0.34917000  1.0
  C  C78  1  0.87520000  0.92474000  0.15083000  1.0
  C  C79  1  0.12481000  0.57527000  0.65083000  1.0
  C  C80  1  0.00837000  0.08440000  0.78683000  1.0
  C  C81  1  0.99162000  0.41560000  0.28683000  1.0
  C  C82  1  0.99162000  0.91560000  0.21317000  1.0
  C  C83  1  0.00838000  0.58440000  0.71317000  1.0
  N  N84  1  0.48254000  0.62514000  0.31473000  1.0
  N  N85  1  0.51746000  0.87486000  0.81473000  1.0
  N  N86  1  0.51746000  0.37485000  0.68527000  1.0
  N  N87  1  0.48253000  0.12515000  0.18527000  1.0
  N  N88  1  0.40646000  0.88196000  0.09775000  1.0
  N  N89  1  0.59355000  0.61804000  0.59775000  1.0
  N  N90  1  0.59354000  0.11804000  0.90225000  1.0
  N  N91  1  0.40645000  0.38196000  0.40225000  1.0
  N  N92  1  0.28054000  0.96299000  0.96679000  1.0
  N  N93  1  0.71946000  0.53700000  0.46679000  1.0
  N  N94  1  0.71945000  0.03701000  0.03321000  1.0
  N  N95  1  0.28054000  0.46299000  0.53321000  1.0
  N  N96  1  0.92091000  0.00225000  0.77969000  1.0
  N  N97  1  0.07908000  0.49775000  0.27969000  1.0
  N  N98  1  0.07909000  0.99776000  0.22031000  1.0
  N  N99  1  0.92092000  0.50225000  0.72031000  1.0
