# generated using pymatgen
data_ZnH10C17NO4
_symmetry_space_group_name_H-M   'P 1'
_cell_length_a   7.90365000
_cell_length_b   10.53650000
_cell_length_c   11.13600000
_cell_angle_alpha   61.77750000
_cell_angle_beta   86.31460000
_cell_angle_gamma   82.17970000
_symmetry_Int_Tables_number   1
_chemical_formula_structural   ZnH10C17NO4
_chemical_formula_sum   'Zn2 H20 C34 N2 O8'
_cell_volume   809.52320612
_cell_formula_units_Z   2
loop_
 _symmetry_equiv_pos_site_id
 _symmetry_equiv_pos_as_xyz
  1  'x, y, z'
loop_
 _atom_site_type_symbol
 _atom_site_label
 _atom_site_symmetry_multiplicity
 _atom_site_fract_x
 _atom_site_fract_y
 _atom_site_fract_z
 _atom_site_occupancy
  Zn  Zn0  1  0.11004000  0.59594000  0.00008000  1.0
  Zn  Zn1  1  0.88997000  0.40405000  0.99992000  1.0
  H  H2  1  0.77473000  0.16308000  0.41247000  1.0
  H  H3  1  0.92484000  0.96538000  0.62136000  1.0
  H  H4  1  0.48286000  0.73515000  0.73230000  1.0
  H  H5  1  0.22523000  0.42433000  0.41256000  1.0
  H  H6  1  0.07527000  0.41319000  0.62154000  1.0
  H  H7  1  0.51735000  0.53268000  0.73229000  1.0
  H  H8  1  0.22528000  0.83692000  0.58753000  1.0
  H  H9  1  0.07516000  0.03462000  0.37864000  1.0
  H  H10  1  0.51715000  0.26485000  0.26770000  1.0
  H  H11  1  0.77477000  0.57567000  0.58744000  1.0
  H  H12  1  0.92473000  0.58680000  0.37846000  1.0
  H  H13  1  0.48265000  0.46732000  0.26771000  1.0
  H  H14  1  0.04169000  0.87547000  0.99971000  1.0
  H  H15  1  0.20216000  0.06315000  0.99975000  1.0
  H  H16  1  0.66653000  0.79241000  0.00000000  1.0
  H  H17  1  0.48783000  0.61921000  0.00000000  1.0
  H  H18  1  0.95831000  0.12453000  0.00028000  1.0
  H  H19  1  0.79783000  0.93685000  0.00025000  1.0
  H  H20  1  0.33346000  0.20759000  0.00000000  1.0
  H  H21  1  0.51217000  0.38079000  0.00000000  1.0
  C  C22  1  0.54237000  0.06122000  0.45381000  1.0
  C  C23  1  0.71200000  0.06909000  0.48297000  1.0
  C  C24  1  0.79476000  0.96068000  0.59805000  1.0
  C  C25  1  0.54683000  0.82830000  0.66237000  1.0
  C  C26  1  0.71294000  0.83753000  0.68754000  1.0
  C  C27  1  0.80907000  0.71547000  0.80640000  1.0
  C  C28  1  0.45757000  0.48495000  0.45383000  1.0
  C  C29  1  0.28797000  0.44787000  0.48304000  1.0
  C  C30  1  0.20533000  0.44125000  0.59815000  1.0
  C  C31  1  0.45335000  0.50939000  0.66240000  1.0
  C  C32  1  0.28728000  0.47494000  0.68762000  1.0
  C  C33  1  0.19118000  0.47803000  0.80653000  1.0
  C  C34  1  0.45763000  0.93879000  0.54620000  1.0
  C  C35  1  0.28800000  0.93092000  0.51703000  1.0
  C  C36  1  0.20525000  0.03933000  0.40195000  1.0
  C  C37  1  0.45317000  0.17170000  0.33763000  1.0
  C  C38  1  0.28707000  0.16248000  0.31246000  1.0
  C  C39  1  0.19093000  0.28453000  0.19361000  1.0
  C  C40  1  0.54243000  0.51505000  0.54617000  1.0
  C  C41  1  0.71203000  0.55213000  0.51695000  1.0
  C  C42  1  0.79467000  0.55874000  0.40184000  1.0
  C  C43  1  0.54665000  0.49061000  0.33760000  1.0
  C  C44  1  0.71273000  0.52506000  0.31238000  1.0
  C  C45  1  0.80882000  0.52196000  0.19348000  1.0
  C  C46  1  0.18049000  0.86295000  0.99985000  1.0
  C  C47  1  0.27103000  0.96650000  0.99989000  1.0
  C  C48  1  0.45013000  0.94556000  0.00001000  1.0
  C  C49  1  0.52847000  0.81778000  0.00008000  1.0
  C  C50  1  0.42881000  0.71889000  0.00003000  1.0
  C  C51  1  0.81950000  0.13705000  0.00015000  1.0
  C  C52  1  0.72897000  0.03350000  0.00011000  1.0
  C  C53  1  0.54987000  0.05444000  0.00000000  1.0
  C  C54  1  0.47153000  0.18222000  0.99992000  1.0
  C  C55  1  0.57119000  0.28111000  0.99997000  1.0
  N  N56  1  0.25727000  0.74087000  0.99996000  1.0
  N  N57  1  0.74272000  0.25913000  0.00004000  1.0
  O  O58  1  0.93671000  0.74370000  0.85051000  1.0
  O  O59  1  0.75736000  0.59095000  0.85416000  1.0
  O  O60  1  0.06353000  0.40569000  0.85052000  1.0
  O  O61  1  0.24295000  0.55457000  0.85453000  1.0
  O  O62  1  0.06330000  0.25631000  0.14948000  1.0
  O  O63  1  0.24265000  0.40905000  0.14584000  1.0
  O  O64  1  0.93648000  0.59429000  0.14948000  1.0
  O  O65  1  0.75705000  0.44541000  0.14548000  1.0
