# generated using pymatgen
data_ZnH4(C2O3)2
_symmetry_space_group_name_H-M   'P 1'
_cell_length_a   7.21217000
_cell_length_b   7.45088000
_cell_length_c   7.74779778
_cell_angle_alpha   62.62297827
_cell_angle_beta   62.26248229
_cell_angle_gamma   61.08900000
_symmetry_Int_Tables_number   1
_chemical_formula_structural   ZnH4(C2O3)2
_chemical_formula_sum   'Zn2 H8 C8 O12'
_cell_volume   307.40121993
_cell_formula_units_Z   2
loop_
 _symmetry_equiv_pos_site_id
 _symmetry_equiv_pos_as_xyz
  1  'x, y, z'
loop_
 _atom_site_type_symbol
 _atom_site_label
 _atom_site_symmetry_multiplicity
 _atom_site_fract_x
 _atom_site_fract_y
 _atom_site_fract_z
 _atom_site_occupancy
  Zn  Zn0  1  0.49999000  1.00000000  0.50001000  1.0
  Zn  Zn1  1  0.00000000  0.50000000  1.00000000  1.0
  H  H2  1  0.78710000  0.60853000  0.44257000  1.0
  H  H3  1  0.83774000  0.89172000  0.05726000  1.0
  H  H4  1  0.21290000  0.39148000  0.55742000  1.0
  H  H5  1  0.16225000  0.10828000  0.94275000  1.0
  H  H6  1  0.77613000  0.64841000  0.63800000  1.0
  H  H7  1  0.06236000  0.85188000  0.86199000  1.0
  H  H8  1  0.22387000  0.35159000  0.36200000  1.0
  H  H9  1  0.93763000  0.14811000  0.13802000  1.0
  C  C10  1  0.24094000  0.72033000  0.55593000  1.0
  C  C11  1  0.51701000  0.77928000  0.94435000  1.0
  C  C12  1  0.75905000  0.27968000  0.44406000  1.0
  C  C13  1  0.48300000  0.22071000  0.05565000  1.0
  C  C14  1  0.32841000  0.74169000  0.34078000  1.0
  C  C15  1  0.41065000  0.75770000  0.15956000  1.0
  C  C16  1  0.67160000  0.25831000  0.65922000  1.0
  C  C17  1  0.58936000  0.24230000  0.84044000  1.0
  O  O18  1  0.24505000  0.85441000  0.61065000  1.0
  O  O19  1  0.70971000  0.64502000  0.88964000  1.0
  O  O20  1  0.75495000  0.14560000  0.38935000  1.0
  O  O21  1  0.29030000  0.35498000  0.11035000  1.0
  O  O22  1  0.16595000  0.56567000  0.67555000  1.0
  O  O23  1  0.40742000  0.93429000  0.82469000  1.0
  O  O24  1  0.83405000  0.43433000  0.32445000  1.0
  O  O25  1  0.59259000  0.06572000  0.17530000  1.0
  O  O26  1  0.76385000  0.71750000  0.49778000  1.0
  O  O27  1  0.97869000  0.78281000  0.00207000  1.0
  O  O28  1  0.23614000  0.28251000  0.50222000  1.0
  O  O29  1  0.02130000  0.21719000  0.99793000  1.0
