# generated using pymatgen
data_Mg5H26(C8O9)2
_symmetry_space_group_name_H-M   'P 1'
_cell_length_a   12.43020000
_cell_length_b   17.49830000
_cell_length_c   17.50010507
_cell_angle_alpha   82.75284270
_cell_angle_beta   69.20544494
_cell_angle_gamma   69.20370000
_symmetry_Int_Tables_number   1
_chemical_formula_structural   Mg5H26(C8O9)2
_chemical_formula_sum   'Mg20 H104 C64 O72'
_cell_volume   3326.61254150
_cell_formula_units_Z   4
loop_
 _symmetry_equiv_pos_site_id
 _symmetry_equiv_pos_as_xyz
  1  'x, y, z'
loop_
 _atom_site_type_symbol
 _atom_site_label
 _atom_site_symmetry_multiplicity
 _atom_site_fract_x
 _atom_site_fract_y
 _atom_site_fract_z
 _atom_site_occupancy
  Mg  Mg0  1  0.63257000  0.41244000  0.32600000  1.0
  Mg  Mg1  1  0.37096000  0.08765000  0.17398000  1.0
  Mg  Mg2  1  0.54496000  0.32601000  0.08757000  1.0
  Mg  Mg3  1  0.95857000  0.17403000  0.41233000  1.0
  Mg  Mg4  1  0.36743000  0.58756000  0.67400000  1.0
  Mg  Mg5  1  0.62904000  0.91235000  0.82602000  1.0
  Mg  Mg6  1  0.45504000  0.67399000  0.91243000  1.0
  Mg  Mg7  1  0.04143000  0.82597000  0.58767000  1.0
  Mg  Mg8  1  0.50000000  0.50000000  0.50000000  1.0
  Mg  Mg9  1  0.50000000  0.00000000  0.00000000  1.0
  Mg  Mg10  1  0.50000000  0.50000000  0.00000000  1.0
  Mg  Mg11  1  0.00000000  0.00000000  0.50000000  1.0
  Mg  Mg12  1  0.77426000  0.22548000  0.31844000  1.0
  Mg  Mg13  1  0.31830000  0.27455000  0.18157000  1.0
  Mg  Mg14  1  0.49984000  0.31845000  0.27452000  1.0
  Mg  Mg15  1  0.09276000  0.18163000  0.22544000  1.0
  Mg  Mg16  1  0.22575000  0.77451000  0.68155000  1.0
  Mg  Mg17  1  0.68170000  0.72545000  0.81843000  1.0
  Mg  Mg18  1  0.50016000  0.68155000  0.72548000  1.0
  Mg  Mg19  1  0.90723000  0.81838000  0.77456000  1.0
  H  H20  1  0.55287000  0.29126000  0.40052000  1.0
  H  H21  1  0.24467000  0.20885000  0.09951000  1.0
  H  H22  1  0.34417000  0.40051000  0.20880000  1.0
  H  H23  1  0.95342000  0.09954000  0.29120000  1.0
  H  H24  1  0.44713000  0.70874000  0.59948000  1.0
  H  H25  1  0.75533000  0.79115000  0.90049000  1.0
  H  H26  1  0.65583000  0.59949000  0.79120000  1.0
  H  H27  1  0.04658000  0.90046000  0.70880000  1.0
  H  H28  1  0.20839000  0.70053000  0.43119000  1.0
  H  H29  1  0.33989000  0.79963000  0.06878000  1.0
  H  H30  1  0.40869000  0.43123000  0.79960000  1.0
  H  H31  1  0.63941000  0.06869000  0.70036000  1.0
  H  H32  1  0.79161000  0.29947000  0.56881000  1.0
  H  H33  1  0.66011000  0.20037000  0.93123000  1.0
  H  H34  1  0.59131000  0.56877000  0.20040000  1.0
  H  H35  1  0.36059000  0.93131000  0.29964000  1.0
  H  H36  1  0.35694000  0.62103000  0.40591000  1.0
  H  H37  1  0.38367000  0.87915000  0.09405000  1.0
  H  H38  1  0.47776000  0.40592000  0.87911000  1.0
  H  H39  1  0.76269000  0.09395000  0.62082000  1.0
  H  H40  1  0.64306000  0.37897000  0.59409000  1.0
  H  H41  1  0.61633000  0.12085000  0.90595000  1.0
  H  H42  1  0.52224000  0.59408000  0.12089000  1.0
  H  H43  1  0.23731000  0.90605000  0.37918000  1.0
  H  H44  1  0.34000000  0.72528000  0.41696000  1.0
  H  H45  1  0.48190000  0.77488000  0.08318000  1.0
  H  H46  1  0.56505000  0.41694000  0.77487000  1.0
  H  H47  1  0.75669000  0.08309000  0.72508000  1.0
  H  H48  1  0.66000000  0.27472000  0.58304000  1.0
  H  H49  1  0.51811000  0.22512000  0.91682000  1.0
  H  H50  1  0.43495000  0.58306000  0.22513000  1.0
  H  H51  1  0.24331000  0.91691000  0.27492000  1.0
  H  H52  1  0.97024000  0.41742000  0.10482000  1.0
  H  H53  1  0.49230000  0.08261000  0.39531000  1.0
  H  H54  1  0.88756000  0.10478000  0.08276000  1.0
  H  H55  1  0.07521000  0.39538000  0.41727000  1.0
  H  H56  1  0.02976000  0.58258000  0.89518000  1.0
  H  H57  1  0.50770000  0.91739000  0.60469000  1.0
  H  H58  1  0.11244000  0.89522000  0.91724000  1.0
  H  H59  1  0.92479000  0.60462000  0.58273000  1.0
  H  H60  1  0.82403000  0.46789000  0.18039000  1.0
  H  H61  1  0.47211000  0.03219000  0.31969000  1.0
  H  H62  1  0.79184000  0.18032000  0.03222000  1.0
  H  H63  1  0.00456000  0.31980000  0.46778000  1.0
  H  H64  1  0.17598000  0.53211000  0.81960000  1.0
  H  H65  1  0.52789000  0.96781000  0.68031000  1.0
  H  H66  1  0.20816000  0.81968000  0.96778000  1.0
  H  H67  1  0.99544000  0.68020000  0.53222000  1.0
  H  H68  1  0.83354000  0.40745000  0.10247000  1.0
  H  H69  1  0.34330000  0.09270000  0.39753000  1.0
  H  H70  1  0.74092000  0.10240000  0.09270000  1.0
  H  H71  1  0.93616000  0.39770000  0.40732000  1.0
  H  H72  1  0.16646000  0.59255000  0.89752000  1.0
  H  H73  1  0.65670000  0.90730000  0.60247000  1.0
  H  H74  1  0.25907000  0.89760000  0.90730000  1.0
  H  H75  1  0.06384000  0.60230000  0.59268000  1.0
  H  H76  1  0.73779000  0.65894000  0.34048000  1.0
  H  H77  1  0.73705000  0.84126000  0.15961000  1.0
  H  H78  1  0.89657000  0.34041000  0.84121000  1.0
  H  H79  1  0.07785000  0.15958000  0.65888000  1.0
  H  H80  1  0.26221000  0.34105000  0.65952000  1.0
  H  H81  1  0.26295000  0.15874000  0.84039000  1.0
  H  H82  1  0.10343000  0.65959000  0.15879000  1.0
  H  H83  1  0.92215000  0.84043000  0.34112000  1.0
  H  H84  1  0.59196000  0.70747000  0.33112000  1.0
  H  H85  1  0.63052000  0.79259000  0.16901000  1.0
  H  H86  1  0.79946000  0.33104000  0.79251000  1.0
  H  H87  1  0.92271000  0.16887000  0.70749000  1.0
  H  H88  1  0.40804000  0.29253000  0.66888000  1.0
  H  H89  1  0.36947000  0.20741000  0.83100000  1.0
  H  H90  1  0.20054000  0.66896000  0.20749000  1.0
  H  H91  1  0.07729000  0.83113000  0.29251000  1.0
  H  H92  1  0.71531000  0.64783000  0.24756000  1.0
  H  H93  1  0.61060000  0.85233000  0.25253000  1.0
  H  H94  1  0.86297000  0.24750000  0.85228000  1.0
  H  H95  1  0.96240000  0.25249000  0.64784000  1.0
  H  H96  1  0.28469000  0.35217000  0.75244000  1.0
  H  H97  1  0.38940000  0.14767000  0.74747000  1.0
  H  H98  1  0.13703000  0.75250000  0.14772000  1.0
  H  H99  1  0.03760000  0.74751000  0.35216000  1.0
  H  H100  1  0.18590000  0.55065000  0.44520000  1.0
  H  H101  1  0.18171000  0.94939000  0.05476000  1.0
  H  H102  1  0.23645000  0.44525000  0.94938000  1.0
  H  H103  1  0.63115000  0.05467000  0.55052000  1.0
  H  H104  1  0.81410000  0.44935000  0.55480000  1.0
  H  H105  1  0.81830000  0.05060000  0.94524000  1.0
  H  H106  1  0.76355000  0.55475000  0.05062000  1.0
  H  H107  1  0.36886000  0.94534000  0.44947000  1.0
  H  H108  1  0.24581000  0.51016000  0.52566000  1.0
  H  H109  1  0.28157000  0.98986000  0.97425000  1.0
  H  H110  1  0.25588000  0.52572000  0.98986000  1.0
  H  H111  1  0.77144000  0.97416000  0.51005000  1.0
  H  H112  1  0.75419000  0.48984000  0.47434000  1.0
  H  H113  1  0.71844000  0.01014000  0.02575000  1.0
  H  H114  1  0.74412000  0.47428000  0.01014000  1.0
  H  H115  1  0.22856000  0.02584000  0.48995000  1.0
  H  H116  1  0.17931000  0.45409000  0.48707000  1.0
  H  H117  1  0.12044000  0.04594000  0.01287000  1.0
  H  H118  1  0.13334000  0.48712000  0.04592000  1.0
  H  H119  1  0.66633000  0.01281000  0.45400000  1.0
  H  H120  1  0.82069000  0.54591000  0.51293000  1.0
  H  H121  1  0.87957000  0.95406000  0.98713000  1.0
  H  H122  1  0.86666000  0.51288000  0.95408000  1.0
  H  H123  1  0.33367000  0.98719000  0.54600000  1.0
  C  C124  1  0.27910000  0.66754000  0.52987000  1.0
  C  C125  1  0.47646000  0.83248000  0.97015000  1.0
  C  C126  1  0.44651000  0.52989000  0.83253000  1.0
  C  C127  1  0.80887000  0.97005000  0.66753000  1.0
  C  C128  1  0.72090000  0.33246000  0.47013000  1.0
  C  C129  1  0.52354000  0.16753000  0.02985000  1.0
  C  C130  1  0.55349000  0.47011000  0.16747000  1.0
  C  C131  1  0.19112000  0.02996000  0.33247000  1.0
  C  C132  1  0.29772000  0.67758000  0.43980000  1.0
  C  C133  1  0.41490000  0.82255000  0.06021000  1.0
  C  C134  1  0.47510000  0.43981000  0.82254000  1.0
  C  C135  1  0.73733000  0.06011000  0.67743000  1.0
  C  C136  1  0.70228000  0.32242000  0.56020000  1.0
  C  C137  1  0.58511000  0.17745000  0.93979000  1.0
  C  C138  1  0.52490000  0.56019000  0.17746000  1.0
  C  C139  1  0.26267000  0.93989000  0.32257000  1.0
  C  C140  1  0.89713000  0.33733000  0.19511000  1.0
  C  C141  1  0.42964000  0.16272000  0.30493000  1.0
  C  C142  1  0.73438000  0.19510000  0.16275000  1.0
  C  C143  1  0.09238000  0.30501000  0.33725000  1.0
  C  C144  1  0.10287000  0.66267000  0.80489000  1.0
  C  C145  1  0.57036000  0.83728000  0.69507000  1.0
  C  C146  1  0.26562000  0.80490000  0.83725000  1.0
  C  C147  1  0.90762000  0.69499000  0.66275000  1.0
  C  C148  1  0.88108000  0.41306000  0.14271000  1.0
  C  C149  1  0.43672000  0.08703000  0.35735000  1.0
  C  C150  1  0.79404000  0.14267000  0.08708000  1.0
  C  C151  1  0.02394000  0.35746000  0.41293000  1.0
  C  C152  1  0.11892000  0.58694000  0.85729000  1.0
  C  C153  1  0.56328000  0.91297000  0.64265000  1.0
  C  C154  1  0.20596000  0.85733000  0.91292000  1.0
  C  C155  1  0.97606000  0.64254000  0.58707000  1.0
  C  C156  1  0.63848000  0.57774000  0.35060000  1.0
  C  C157  1  0.56663000  0.92231000  0.14947000  1.0
  C  C158  1  0.71604000  0.35057000  0.92222000  1.0
  C  C159  1  0.98865000  0.14944000  0.57777000  1.0
  C  C160  1  0.36152000  0.42226000  0.64940000  1.0
  C  C161  1  0.43337000  0.07770000  0.85053000  1.0
  C  C162  1  0.28396000  0.64943000  0.07778000  1.0
  C  C163  1  0.01135000  0.85056000  0.42223000  1.0
  C  C164  1  0.67328000  0.65240000  0.31417000  1.0
  C  C165  1  0.63973000  0.84772000  0.18593000  1.0
  C  C166  1  0.82556000  0.31411000  0.84764000  1.0
  C  C167  1  0.98701000  0.18588000  0.65241000  1.0
  C  C168  1  0.32672000  0.34759000  0.68583000  1.0
  C  C169  1  0.36026000  0.15228000  0.81408000  1.0
  C  C170  1  0.17444000  0.68589000  0.15236000  1.0
  C  C171  1  0.01299000  0.81412000  0.34759000  1.0
  C  C172  1  0.35657000  0.45360000  0.40736000  1.0
  C  C173  1  0.21756000  0.04645000  0.09256000  1.0
  C  C174  1  0.31011000  0.40740000  0.04642000  1.0
  C  C175  1  0.76399000  0.09249000  0.45349000  1.0
  C  C176  1  0.64343000  0.54640000  0.59264000  1.0
  C  C177  1  0.78245000  0.95355000  0.90744000  1.0
  C  C178  1  0.68989000  0.59260000  0.95358000  1.0
  C  C179  1  0.23601000  0.90751000  0.54651000  1.0
  C  C180  1  0.23472000  0.49412000  0.47118000  1.0
  C  C181  1  0.20000000  0.00592000  0.02876000  1.0
  C  C182  1  0.22877000  0.47123000  0.00591000  1.0
  C  C183  1  0.70593000  0.02868000  0.49400000  1.0
  C  C184  1  0.76529000  0.50588000  0.52881000  1.0
  C  C185  1  0.80001000  0.99408000  0.97124000  1.0
  C  C186  1  0.77123000  0.52877000  0.99409000  1.0
  C  C187  1  0.29407000  0.97132000  0.50600000  1.0
  O  O188  1  0.20258000  0.72655000  0.57737000  1.0
  O  O189  1  0.50648000  0.77343000  0.92269000  1.0
  O  O190  1  0.42906000  0.57736000  0.77348000  1.0
  O  O191  1  0.77989000  0.92259000  0.72660000  1.0
  O  O192  1  0.79742000  0.27345000  0.42263000  1.0
  O  O193  1  0.49352000  0.22657000  0.07731000  1.0
  O  O194  1  0.57094000  0.42264000  0.22652000  1.0
  O  O195  1  0.22011000  0.07741000  0.27340000  1.0
  O  O196  1  0.34166000  0.60138000  0.55646000  1.0
  O  O197  1  0.49953000  0.89861000  0.94352000  1.0
  O  O198  1  0.44290000  0.55650000  0.89869000  1.0
  O  O199  1  0.89806000  0.94343000  0.60141000  1.0
  O  O200  1  0.65834000  0.39862000  0.44354000  1.0
  O  O201  1  0.50047000  0.10139000  0.05648000  1.0
  O  O202  1  0.55709000  0.44350000  0.10132000  1.0
  O  O203  1  0.10194000  0.05657000  0.39859000  1.0
  O  O204  1  0.80521000  0.33389000  0.25851000  1.0
  O  O205  1  0.39773000  0.16617000  0.24150000  1.0
  O  O206  1  0.63911000  0.25853000  0.16613000  1.0
  O  O207  1  0.06381000  0.24161000  0.33385000  1.0
  O  O208  1  0.19479000  0.66611000  0.74149000  1.0
  O  O209  1  0.60227000  0.83383000  0.75850000  1.0
  O  O210  1  0.36089000  0.74147000  0.83387000  1.0
  O  O211  1  0.93618000  0.75839000  0.66615000  1.0
  O  O212  1  0.99762000  0.28000000  0.17373000  1.0
  O  O213  1  0.45151000  0.22002000  0.32630000  1.0
  O  O214  1  0.77748000  0.17372000  0.22013000  1.0
  O  O215  1  0.17154000  0.32636000  0.27992000  1.0
  O  O216  1  0.00238000  0.72000000  0.82627000  1.0
  O  O217  1  0.54850000  0.77998000  0.67370000  1.0
  O  O218  1  0.22251000  0.82628000  0.77987000  1.0
  O  O219  1  0.82846000  0.67364000  0.72008000  1.0
  O  O220  1  0.67331000  0.51718000  0.30371000  1.0
  O  O221  1  0.49388000  0.98284000  0.19635000  1.0
  O  O222  1  0.69024000  0.30369000  0.98278000  1.0
  O  O223  1  0.97657000  0.19633000  0.51721000  1.0
  O  O224  1  0.32669000  0.48282000  0.69629000  1.0
  O  O225  1  0.50612000  0.01716000  0.80365000  1.0
  O  O226  1  0.30976000  0.69631000  0.01722000  1.0
  O  O227  1  0.02344000  0.80367000  0.48279000  1.0
  O  O228  1  0.57626000  0.58027000  0.42614000  1.0
  O  O229  1  0.58256000  0.91977000  0.07392000  1.0
  O  O230  1  0.65637000  0.42613000  0.91965000  1.0
  O  O231  1  0.00209000  0.07387000  0.58029000  1.0
  O  O232  1  0.42374000  0.41973000  0.57386000  1.0
  O  O233  1  0.41744000  0.08023000  0.92608000  1.0
  O  O234  1  0.34363000  0.57387000  0.08035000  1.0
  O  O235  1  0.99790000  0.92613000  0.41971000  1.0
  O  O236  1  0.44999000  0.47176000  0.40585000  1.0
  O  O237  1  0.32760000  0.02833000  0.09405000  1.0
  O  O238  1  0.42166000  0.40590000  0.02827000  1.0
  O  O239  1  0.85593000  0.09398000  0.47160000  1.0
  O  O240  1  0.55002000  0.52824000  0.59415000  1.0
  O  O241  1  0.67240000  0.97167000  0.90595000  1.0
  O  O242  1  0.57834000  0.59410000  0.97173000  1.0
  O  O243  1  0.14407000  0.90602000  0.52840000  1.0
  O  O244  1  0.36066000  0.40592000  0.35761000  1.0
  O  O245  1  0.12423000  0.09411000  0.14233000  1.0
  O  O246  1  0.26656000  0.35764000  0.09409000  1.0
  O  O247  1  0.71831000  0.14229000  0.40584000  1.0
  O  O248  1  0.63934000  0.59408000  0.64239000  1.0
  O  O249  1  0.87576000  0.90589000  0.85768000  1.0
  O  O250  1  0.73344000  0.64236000  0.90591000  1.0
  O  O251  1  0.28169000  0.85771000  0.59416000  1.0
  O  O252  1  0.60211000  0.30369000  0.34676000  1.0
  O  O253  1  0.25251000  0.19641000  0.15329000  1.0
  O  O254  1  0.40584000  0.34676000  0.19633000  1.0
  O  O255  1  0.94884000  0.15333000  0.30360000  1.0
  O  O256  1  0.39789000  0.69631000  0.65324000  1.0
  O  O257  1  0.74749000  0.80360000  0.84671000  1.0
  O  O258  1  0.59416000  0.65324000  0.80367000  1.0
  O  O259  1  0.05116000  0.84667000  0.69640000  1.0
