# generated using pymatgen
data_Hg2H15C6N3Cl4
_symmetry_space_group_name_H-M   'P 1'
_cell_length_a   9.26338000
_cell_length_b   12.17690000
_cell_length_c   12.42290000
_cell_angle_alpha   90.00000000
_cell_angle_beta   90.00000000
_cell_angle_gamma   94.04440000
_symmetry_Int_Tables_number   1
_chemical_formula_structural   Hg2H15C6N3Cl4
_chemical_formula_sum   'Hg8 H60 C24 N12 Cl16'
_cell_volume   1397.80417715
_cell_formula_units_Z   4
loop_
 _symmetry_equiv_pos_site_id
 _symmetry_equiv_pos_as_xyz
  1  'x, y, z'
loop_
 _atom_site_type_symbol
 _atom_site_label
 _atom_site_symmetry_multiplicity
 _atom_site_fract_x
 _atom_site_fract_y
 _atom_site_fract_z
 _atom_site_occupancy
  Hg  Hg0  1  0.62739000  0.38534000  0.05481000  1.0
  Hg  Hg1  1  0.37260000  0.11466000  0.55481000  1.0
  Hg  Hg2  1  0.37261000  0.61466000  0.94519000  1.0
  Hg  Hg3  1  0.62739000  0.88534000  0.44519000  1.0
  Hg  Hg4  1  0.76588000  0.48755000  0.74279000  1.0
  Hg  Hg5  1  0.23412000  0.01245000  0.24279000  1.0
  Hg  Hg6  1  0.23412000  0.51245000  0.25721000  1.0
  Hg  Hg7  1  0.76588000  0.98755000  0.75721000  1.0
  H  H8  1  0.08838000  0.30988000  0.28156000  1.0
  H  H9  1  0.91162000  0.19012000  0.78156000  1.0
  H  H10  1  0.91162000  0.69012000  0.71844000  1.0
  H  H11  1  0.08838000  0.80989000  0.21844000  1.0
  H  H12  1  0.42340000  0.21072000  0.03530000  1.0
  H  H13  1  0.57660000  0.28927000  0.53530000  1.0
  H  H14  1  0.57660000  0.78928000  0.96470000  1.0
  H  H15  1  0.42340000  0.71073000  0.46470000  1.0
  H  H16  1  0.53550000  0.21239000  0.93075000  1.0
  H  H17  1  0.46450000  0.28761000  0.43075000  1.0
  H  H18  1  0.46450000  0.78761000  0.06925000  1.0
  H  H19  1  0.53550000  0.71239000  0.56925000  1.0
  H  H20  1  0.89270000  0.20682000  0.04056000  1.0
  H  H21  1  0.10731000  0.29318000  0.54056000  1.0
  H  H22  1  0.10731000  0.79318000  0.95944000  1.0
  H  H23  1  0.89269000  0.70682000  0.45944000  1.0
  H  H24  1  0.95352000  0.16340000  0.16824000  1.0
  H  H25  1  0.04649000  0.33660000  0.66825000  1.0
  H  H26  1  0.04649000  0.83659000  0.83176000  1.0
  H  H27  1  0.95351000  0.66340000  0.33176000  1.0
  H  H28  1  0.12465000  0.30526000  0.09295000  1.0
  H  H29  1  0.87535000  0.19474000  0.59295000  1.0
  H  H30  1  0.87535000  0.69474000  0.90705000  1.0
  H  H31  1  0.12465000  0.80526000  0.40705000  1.0
  H  H32  1  0.98732000  0.39865000  0.07624000  1.0
  H  H33  1  0.01268000  0.10135000  0.57624000  1.0
  H  H34  1  0.01268000  0.60135000  0.92376000  1.0
  H  H35  1  0.98732000  0.89865000  0.42376000  1.0
  H  H36  1  0.87024000  0.46918000  0.23670000  1.0
  H  H37  1  0.12976000  0.03082000  0.73670000  1.0
  H  H38  1  0.12976000  0.53082000  0.76330000  1.0
  H  H39  1  0.87024000  0.96918000  0.26330000  1.0
  H  H40  1  0.92669000  0.42913000  0.36745000  1.0
  H  H41  1  0.07331000  0.07087000  0.86745000  1.0
  H  H42  1  0.07331000  0.57087000  0.63255000  1.0
  H  H43  1  0.92669000  0.92913000  0.13255000  1.0
  H  H44  1  0.83728000  0.23672000  0.33456000  1.0
  H  H45  1  0.16272000  0.26328000  0.83456000  1.0
  H  H46  1  0.16272000  0.76328000  0.66544000  1.0
  H  H47  1  0.83728000  0.73672000  0.16544000  1.0
  H  H48  1  0.69568000  0.32671000  0.31649000  1.0
  H  H49  1  0.30431000  0.17329000  0.81649000  1.0
  H  H50  1  0.30432000  0.67329000  0.68351000  1.0
  H  H51  1  0.69568000  0.82671000  0.18351000  1.0
  H  H52  1  0.57615000  0.18344000  0.22642000  1.0
  H  H53  1  0.42384000  0.31656000  0.72642000  1.0
  H  H54  1  0.42385000  0.81656000  0.77358000  1.0
  H  H55  1  0.57616000  0.68344000  0.27358000  1.0
  H  H56  1  0.71461000  0.09194000  0.21091000  1.0
  H  H57  1  0.28539000  0.40805000  0.71091000  1.0
  H  H58  1  0.28539000  0.90805000  0.78909000  1.0
  H  H59  1  0.71461000  0.59195000  0.28909000  1.0
  H  H60  1  0.69759000  0.11083000  0.00880000  1.0
  H  H61  1  0.30241000  0.38917000  0.50880000  1.0
  H  H62  1  0.30241000  0.88917000  0.99120000  1.0
  H  H63  1  0.69759000  0.61083000  0.49120000  1.0
  H  H64  1  0.53690000  0.05666000  0.07159000  1.0
  H  H65  1  0.46311000  0.44334000  0.57160000  1.0
  H  H66  1  0.46310000  0.94334000  0.92841000  1.0
  H  H67  1  0.53689000  0.55666000  0.42840000  1.0
  C  C68  1  0.91069000  0.23309000  0.12420000  1.0
  C  C69  1  0.08931000  0.26691000  0.62420000  1.0
  C  C70  1  0.08931000  0.76691000  0.87580000  1.0
  C  C71  1  0.91069000  0.73309000  0.37580000  1.0
  C  C72  1  0.02263000  0.33079000  0.12592000  1.0
  C  C73  1  0.97737000  0.16921000  0.62591000  1.0
  C  C74  1  0.97737000  0.66921000  0.87409000  1.0
  C  C75  1  0.02263000  0.83079000  0.37409000  1.0
  C  C76  1  0.90903000  0.40085000  0.28423000  1.0
  C  C77  1  0.09097000  0.09915000  0.78423000  1.0
  C  C78  1  0.09097000  0.59915000  0.71577000  1.0
  C  C79  1  0.90903000  0.90085000  0.21577000  1.0
  C  C80  1  0.79835000  0.30262000  0.28307000  1.0
  C  C81  1  0.20164000  0.19738000  0.78307000  1.0
  C  C82  1  0.20165000  0.69738000  0.71693000  1.0
  C  C83  1  0.79835000  0.80262000  0.21693000  1.0
  C  C84  1  0.66683000  0.16348000  0.17446000  1.0
  C  C85  1  0.33318000  0.33652000  0.67446000  1.0
  C  C86  1  0.33318000  0.83652000  0.82554000  1.0
  C  C87  1  0.66682000  0.66348000  0.32554000  1.0
  C  C88  1  0.61011000  0.13110000  0.06310000  1.0
  C  C89  1  0.38989000  0.36890000  0.56310000  1.0
  C  C90  1  0.38989000  0.86890000  0.93690000  1.0
  C  C91  1  0.61011000  0.63110000  0.43690000  1.0
  N  N92  1  0.04758000  0.37210000  0.23667000  1.0
  N  N93  1  0.95242000  0.12790000  0.73667000  1.0
  N  N94  1  0.95242000  0.62790000  0.76333000  1.0
  N  N95  1  0.04758000  0.87210000  0.26334000  1.0
  N  N96  1  0.77207000  0.26006000  0.17294000  1.0
  N  N97  1  0.22793000  0.23994000  0.67294000  1.0
  N  N98  1  0.22793000  0.73994000  0.82706000  1.0
  N  N99  1  0.77207000  0.76006000  0.32706000  1.0
  N  N100  1  0.53107000  0.21932000  0.01315000  1.0
  N  N101  1  0.46893000  0.28068000  0.51314000  1.0
  N  N102  1  0.46893000  0.78068000  0.98686000  1.0
  N  N103  1  0.53107000  0.71932000  0.48686000  1.0
  Cl  Cl104  1  0.68947000  0.57710000  0.04952000  1.0
  Cl  Cl105  1  0.31053000  0.92290000  0.54951000  1.0
  Cl  Cl106  1  0.31053000  0.42290000  0.95048000  1.0
  Cl  Cl107  1  0.68947000  0.07710000  0.45048000  1.0
  Cl  Cl108  1  0.82753000  0.33856000  0.87127000  1.0
  Cl  Cl109  1  0.17247000  0.16144000  0.37127000  1.0
  Cl  Cl110  1  0.17247000  0.66144000  0.12873000  1.0
  Cl  Cl111  1  0.82753000  0.83856000  0.62873000  1.0
  Cl  Cl112  1  0.78311000  0.40556000  0.55643000  1.0
  Cl  Cl113  1  0.21689000  0.09444000  0.05643000  1.0
  Cl  Cl114  1  0.21689000  0.59444000  0.44357000  1.0
  Cl  Cl115  1  0.78311000  0.90556000  0.94357000  1.0
  Cl  Cl116  1  0.45153000  0.39808000  0.25919000  1.0
  Cl  Cl117  1  0.54847000  0.10192000  0.75919000  1.0
  Cl  Cl118  1  0.54847000  0.60192000  0.74081000  1.0
  Cl  Cl119  1  0.45153000  0.89808000  0.24081000  1.0
