# generated using pymatgen
data_ZnP2H13C5NO6
_symmetry_space_group_name_H-M   'P 1'
_cell_length_a   7.91180000
_cell_length_b   9.01437000
_cell_length_c   9.06306000
_cell_angle_alpha   103.26800000
_cell_angle_beta   111.52800000
_cell_angle_gamma   108.21700000
_symmetry_Int_Tables_number   1
_chemical_formula_structural   ZnP2H13C5NO6
_chemical_formula_sum   'Zn2 P4 H26 C10 N2 O12'
_cell_volume   526.02684826
_cell_formula_units_Z   2
loop_
 _symmetry_equiv_pos_site_id
 _symmetry_equiv_pos_as_xyz
  1  'x, y, z'
loop_
 _atom_site_type_symbol
 _atom_site_label
 _atom_site_symmetry_multiplicity
 _atom_site_fract_x
 _atom_site_fract_y
 _atom_site_fract_z
 _atom_site_occupancy
  Zn  Zn0  1  0.98022000  0.73395000  0.43291000  1.0
  Zn  Zn1  1  0.01979000  0.26605000  0.56709000  1.0
  P  P2  1  0.24713000  0.67262000  0.76358000  1.0
  P  P3  1  0.75287000  0.32737000  0.23642000  1.0
  P  P4  1  0.86993000  0.95281000  0.68074000  1.0
  P  P5  1  0.13008000  0.04720000  0.31926000  1.0
  H  H6  1  0.10703000  0.84191000  0.84827000  1.0
  H  H7  1  0.89296000  0.15808000  0.15173000  1.0
  H  H8  1  0.56170000  0.75639000  0.01618000  1.0
  H  H9  1  0.43831000  0.24362000  0.98383000  1.0
  H  H10  1  0.55185000  0.93193000  0.96595000  1.0
  H  H11  1  0.44814000  0.06808000  0.03404000  1.0
  H  H12  1  0.50898000  0.82654000  0.60336000  1.0
  H  H13  1  0.49102000  0.17346000  0.39663000  1.0
  H  H14  1  0.65698000  0.01728000  0.79179000  1.0
  H  H15  1  0.34303000  0.98272000  0.20821000  1.0
  H  H16  1  0.73656000  0.64045000  0.69028000  1.0
  H  H17  1  0.26344000  0.35955000  0.30972000  1.0
  H  H18  1  0.48211000  0.54722000  0.65125000  1.0
  H  H19  1  0.51788000  0.45278000  0.34875000  1.0
  H  H20  1  0.85374000  0.63471000  0.98932000  1.0
  H  H21  1  0.14625000  0.36528000  0.01068000  1.0
  H  H22  1  0.59858000  0.52141000  0.93553000  1.0
  H  H23  1  0.40141000  0.47858000  0.06447000  1.0
  H  H24  1  0.76254000  0.32836000  0.88907000  1.0
  H  H25  1  0.23745000  0.67164000  0.11092000  1.0
  H  H26  1  0.55264000  0.28663000  0.69339000  1.0
  H  H27  1  0.44736000  0.71336000  0.30660000  1.0
  H  H28  1  0.80530000  0.40265000  0.73605000  1.0
  H  H29  1  0.19470000  0.59735000  0.26395000  1.0
  H  H30  1  0.80321000  0.86937000  0.94695000  1.0
  H  H31  1  0.19679000  0.13063000  0.05305000  1.0
  C  C32  1  0.51894000  0.79882000  0.90968000  1.0
  C  C33  1  0.48106000  0.20119000  0.09032000  1.0
  C  C34  1  0.65265000  0.89771000  0.72300000  1.0
  C  C35  1  0.34735000  0.10229000  0.27700000  1.0
  C  C36  1  0.63982000  0.62476000  0.75204000  1.0
  C  C37  1  0.36018000  0.37524000  0.24796000  1.0
  C  C38  1  0.70280000  0.54588000  0.88115000  1.0
  C  C39  1  0.29719000  0.45412000  0.11884000  1.0
  C  C40  1  0.70526000  0.38075000  0.79445000  1.0
  C  C41  1  0.29474000  0.61925000  0.20554000  1.0
  N  N42  1  0.66051000  0.79874000  0.83582000  1.0
  N  N43  1  0.33949000  0.20127000  0.16418000  1.0
  O  O44  1  0.19964000  0.70526000  0.59895000  1.0
  O  O45  1  0.80035000  0.29472000  0.40105000  1.0
  O  O46  1  0.20436000  0.49206000  0.74821000  1.0
  O  O47  1  0.79565000  0.50794000  0.25179000  1.0
  O  O48  1  0.15092000  0.74462000  0.86871000  1.0
  O  O49  1  0.84908000  0.25538000  0.13130000  1.0
  O  O50  1  0.81546000  0.80448000  0.52123000  1.0
  O  O51  1  0.18454000  0.19552000  0.47877000  1.0
  O  O52  1  0.05047000  0.97529000  0.84314000  1.0
  O  O53  1  0.94953000  0.02470000  0.15687000  1.0
  O  O54  1  0.89041000  0.11794000  0.65615000  1.0
  O  O55  1  0.10960000  0.88206000  0.34387000  1.0
