# generated using pymatgen
data_ZnH10C22N4O11
_symmetry_space_group_name_H-M   'P 1'
_cell_length_a   9.65230000
_cell_length_b   10.99830000
_cell_length_c   23.63980000
_cell_angle_alpha   88.83110000
_cell_angle_beta   86.61140000
_cell_angle_gamma   87.38790000
_symmetry_Int_Tables_number   1
_chemical_formula_structural   ZnH10C22N4O11
_chemical_formula_sum   'Zn2 H20 C44 N8 O22'
_cell_volume   2502.18975518
_cell_formula_units_Z   2
loop_
 _symmetry_equiv_pos_site_id
 _symmetry_equiv_pos_as_xyz
  1  'x, y, z'
loop_
 _atom_site_type_symbol
 _atom_site_label
 _atom_site_symmetry_multiplicity
 _atom_site_fract_x
 _atom_site_fract_y
 _atom_site_fract_z
 _atom_site_occupancy
  Zn  Zn0  1  0.36798000  0.49113000  0.49815000  1.0
  Zn  Zn1  1  0.65430000  0.48136000  0.49323000  1.0
  H  H2  1  0.19750000  0.39534000  0.06348000  1.0
  H  H3  1  0.73042000  0.77075000  0.03988000  1.0
  H  H4  1  0.73142000  0.76071000  0.93301000  1.0
  H  H5  1  0.28339000  0.64905000  0.22953000  1.0
  H  H6  1  0.30356000  0.61188000  0.33347000  1.0
  H  H7  1  0.71705000  0.45714000  0.30148000  1.0
  H  H8  1  0.69480000  0.48819000  0.19740000  1.0
  H  H9  1  0.34623000  0.69038000  0.77386000  1.0
  H  H10  1  0.73005000  0.85560000  0.49640000  1.0
  H  H11  1  0.18982000  0.90594000  0.54999000  1.0
  H  H12  1  0.20067000  0.12705000  0.46898000  1.0
  H  H13  1  0.19725000  0.13282000  0.54477000  1.0
  H  H14  1  0.86151000  0.54821000  0.58023000  1.0
  H  H15  1  0.12145000  0.55201000  0.58101000  1.0
  H  H16  1  0.16505000  0.43462000  0.36757000  1.0
  H  H17  1  0.16921000  0.28698000  0.39996000  1.0
  H  H18  1  0.90185000  0.43247000  0.36787000  1.0
  H  H19  1  0.90712000  0.28392000  0.40047000  1.0
  H  H20  1  0.33248000  0.63418000  0.62729000  1.0
  H  H21  1  0.06642000  0.93099000  0.46439000  1.0
  C  C22  1  0.52270000  0.25351000  0.50054000  1.0
  C  C23  1  0.51969000  0.50529000  0.38575000  1.0
  C  C24  1  0.50401000  0.72047000  0.49833000  1.0
  C  C25  1  0.50154000  0.48957000  0.60868000  1.0
  C  C26  1  0.57035000  0.63277000  0.87175000  1.0
  C  C27  1  0.37614000  0.48696000  0.88034000  1.0
  C  C28  1  0.36913000  0.50162000  0.94249000  1.0
  C  C29  1  0.46588000  0.57372000  0.96791000  1.0
  C  C30  1  0.56444000  0.63970000  0.93439000  1.0
  C  C31  1  0.27324000  0.44113000  0.97761000  1.0
  C  C32  1  0.27187000  0.44582000  0.03685000  1.0
  C  C33  1  0.36796000  0.51392000  0.06188000  1.0
  C  C34  1  0.46550000  0.57988000  0.02807000  1.0
  C  C35  1  0.56310000  0.65081000  0.05326000  1.0
  C  C36  1  0.65705000  0.71616000  0.01937000  1.0
  C  C37  1  0.65754000  0.71058000  0.96006000  1.0
  C  C38  1  0.36941000  0.51319000  0.12463000  1.0
  C  C39  1  0.56788000  0.65381000  0.11583000  1.0
  C  C40  1  0.37749000  0.60604000  0.24551000  1.0
  C  C41  1  0.38871000  0.58486000  0.30335000  1.0
  C  C42  1  0.51054000  0.53020000  0.32361000  1.0
  C  C43  1  0.62201000  0.49827000  0.28543000  1.0
  C  C44  1  0.60985000  0.51571000  0.22746000  1.0
  C  C45  1  0.48724000  0.56899000  0.20784000  1.0
  C  C46  1  0.56487000  0.43776000  0.76591000  1.0
  C  C47  1  0.56842000  0.42223000  0.70729000  1.0
  C  C48  1  0.49416000  0.50064000  0.67179000  1.0
  C  C49  1  0.40956000  0.59669000  0.69682000  1.0
  C  C50  1  0.41010000  0.61581000  0.75523000  1.0
  C  C51  1  0.48615000  0.53776000  0.78923000  1.0
  C  C52  1  0.39691000  0.05940000  0.50430000  1.0
  C  C53  1  0.52195000  0.11805000  0.50376000  1.0
  C  C54  1  0.64114000  0.03824000  0.50081000  1.0
  C  C55  1  0.63452000  0.91231000  0.49830000  1.0
  C  C56  1  0.50649000  0.85589000  0.49917000  1.0
  C  C57  1  0.38788000  0.93316000  0.50199000  1.0
  C  C58  1  0.22914000  0.94098000  0.50817000  1.0
  C  C59  1  0.24141000  0.08423000  0.50735000  1.0
  C  C60  1  0.94843000  0.43135000  0.45785000  1.0
  C  C61  1  0.92790000  0.51579000  0.54432000  1.0
  C  C62  1  0.07206000  0.51766000  0.54468000  1.0
  C  C63  1  0.09262000  0.43320000  0.45808000  1.0
  C  C64  1  0.11474000  0.37672000  0.40023000  1.0
  C  C65  1  0.95010000  0.37465000  0.40026000  1.0
  N  N66  1  0.47398000  0.55638000  0.84937000  1.0
  N  N67  1  0.47326000  0.58044000  0.14755000  1.0
  N  N68  1  0.86331000  0.47395000  0.49958000  1.0
  N  N69  1  0.15775000  0.47785000  0.50053000  1.0
  N  N70  1  0.16513000  0.36710000  0.95495000  1.0
  N  N71  1  0.65396000  0.31998000  0.68094000  1.0
  N  N72  1  0.78321000  0.08265000  0.50326000  1.0
  N  N73  1  0.63299000  0.34713000  0.80251000  1.0
  O  O74  1  0.40896000  0.31025000  0.51549000  1.0
  O  O75  1  0.63345000  0.30168000  0.48132000  1.0
  O  O76  1  0.40690000  0.47731000  0.41292000  1.0
  O  O77  1  0.63708000  0.51356000  0.40690000  1.0
  O  O78  1  0.38885000  0.67514000  0.48939000  1.0
  O  O79  1  0.61787000  0.66143000  0.50729000  1.0
  O  O80  1  0.38946000  0.52548000  0.58485000  1.0
  O  O81  1  0.61267000  0.45232000  0.58301000  1.0
  O  O82  1  0.65216000  0.68766000  0.84023000  1.0
  O  O83  1  0.30397000  0.41727000  0.85635000  1.0
  O  O84  1  0.28734000  0.45550000  0.15509000  1.0
  O  O85  1  0.64990000  0.71444000  0.13970000  1.0
  O  O86  1  0.18818000  0.25589000  0.95549000  1.0
  O  O87  1  0.05774000  0.42287000  0.94172000  1.0
  O  O88  1  0.59056000  0.23883000  0.66032000  1.0
  O  O89  1  0.78106000  0.32768000  0.68125000  1.0
  O  O90  1  0.32890000  0.67133000  0.66600000  1.0
  O  O91  1  0.80825000  0.14704000  0.54303000  1.0
  O  O92  1  0.87060000  0.04651000  0.46541000  1.0
  O  O93  1  0.15935000  0.89147000  0.46354000  1.0
  O  O94  1  0.67974000  0.38306000  0.84672000  1.0
  O  O95  1  0.63763000  0.24005000  0.78704000  1.0
