# generated using pymatgen
data_ZnH12C12NO6
_symmetry_space_group_name_H-M   'P 1'
_cell_length_a   7.32547000
_cell_length_b   9.15484000
_cell_length_c   23.32284559
_cell_angle_alpha   89.99988946
_cell_angle_beta   84.25644057
_cell_angle_gamma   89.99900000
_symmetry_Int_Tables_number   1
_chemical_formula_structural   ZnH12C12NO6
_chemical_formula_sum   'Zn4 H48 C48 N4 O24'
_cell_volume   1556.25959485
_cell_formula_units_Z   4
loop_
 _symmetry_equiv_pos_site_id
 _symmetry_equiv_pos_as_xyz
  1  'x, y, z'
loop_
 _atom_site_type_symbol
 _atom_site_label
 _atom_site_symmetry_multiplicity
 _atom_site_fract_x
 _atom_site_fract_y
 _atom_site_fract_z
 _atom_site_occupancy
  Zn  Zn0  1  0.96139000  0.58536000  0.30855000  1.0
  Zn  Zn1  1  0.03860000  0.08536000  0.19145000  1.0
  Zn  Zn2  1  0.03860000  0.41465000  0.69146000  1.0
  Zn  Zn3  1  0.96139000  0.91464000  0.80854000  1.0
  H  H4  1  0.64226000  0.34296000  0.44376000  1.0
  H  H5  1  0.35775000  0.84296000  0.05624000  1.0
  H  H6  1  0.35776000  0.65702000  0.55624000  1.0
  H  H7  1  0.64224000  0.15701000  0.94376000  1.0
  H  H8  1  0.64294000  0.83392000  0.36777000  1.0
  H  H9  1  0.35705000  0.33392000  0.13224000  1.0
  H  H10  1  0.35703000  0.16607000  0.63222000  1.0
  H  H11  1  0.64297000  0.66606000  0.86777000  1.0
  H  H12  1  0.49533000  0.25515000  0.53873000  1.0
  H  H13  1  0.50469000  0.75515000  0.96127000  1.0
  H  H14  1  0.50469000  0.74483000  0.46127000  1.0
  H  H15  1  0.49533000  0.24482000  0.03874000  1.0
  H  H16  1  0.20572000  0.85499000  0.29622000  1.0
  H  H17  1  0.79426000  0.35500000  0.20378000  1.0
  H  H18  1  0.79423000  0.14503000  0.70379000  1.0
  H  H19  1  0.20575000  0.64502000  0.79622000  1.0
  H  H20  1  0.99323000  0.87871000  0.44236000  1.0
  H  H21  1  0.00677000  0.37871000  0.05765000  1.0
  H  H22  1  0.00675000  0.12134000  0.55765000  1.0
  H  H23  1  0.99324000  0.62131000  0.94235000  1.0
  H  H24  1  0.97738000  0.07359000  0.43539000  1.0
  H  H25  1  0.02262000  0.57360000  0.06462000  1.0
  H  H26  1  0.02261000  0.92645000  0.56461000  1.0
  H  H27  1  0.97740000  0.42642000  0.93539000  1.0
  H  H28  1  0.17733000  0.99337000  0.46046000  1.0
  H  H29  1  0.82268000  0.49339000  0.03954000  1.0
  H  H30  1  0.82267000  0.00668000  0.53953000  1.0
  H  H31  1  0.17733000  0.50665000  0.96047000  1.0
  H  H32  1  0.32729000  0.07131000  0.30776000  1.0
  H  H33  1  0.67271000  0.57133000  0.19224000  1.0
  H  H34  1  0.67269000  0.92869000  0.69224000  1.0
  H  H35  1  0.32732000  0.42871000  0.80777000  1.0
  H  H36  1  0.33581000  0.14340000  0.37824000  1.0
  H  H37  1  0.66417000  0.64342000  0.12176000  1.0
  H  H38  1  0.66418000  0.85661000  0.62176000  1.0
  H  H39  1  0.33583000  0.35660000  0.87824000  1.0
  H  H40  1  0.14335000  0.18339000  0.33930000  1.0
  H  H41  1  0.85666000  0.68341000  0.16070000  1.0
  H  H42  1  0.85667000  0.81663000  0.66069000  1.0
  H  H43  1  0.14337000  0.31663000  0.83930000  1.0
  H  H44  1  0.63502000  0.57548000  0.29022000  1.0
  H  H45  1  0.36498000  0.07546000  0.20977000  1.0
  H  H46  1  0.36498000  0.42452000  0.70978000  1.0
  H  H47  1  0.63501000  0.92451000  0.79022000  1.0
  H  H48  1  0.68622000  0.75347000  0.28206000  1.0
  H  H49  1  0.31378000  0.25346000  0.21794000  1.0
  H  H50  1  0.31377000  0.24652000  0.71794000  1.0
  H  H51  1  0.68622000  0.74651000  0.78206000  1.0
  C  C52  1  0.76488000  0.33347000  0.33368000  1.0
  C  C53  1  0.23509000  0.83348000  0.16632000  1.0
  C  C54  1  0.23511000  0.66653000  0.66632000  1.0
  C  C55  1  0.76489000  0.16651000  0.83368000  1.0
  C  C56  1  0.70763000  0.20413000  0.37094000  1.0
  C  C57  1  0.29239000  0.70414000  0.12906000  1.0
  C  C58  1  0.29240000  0.79586000  0.62905000  1.0
  C  C59  1  0.70761000  0.29585000  0.87094000  1.0
  C  C60  1  0.64136000  0.23138000  0.42728000  1.0
  C  C61  1  0.35863000  0.73138000  0.07272000  1.0
  C  C62  1  0.35865000  0.76860000  0.57272000  1.0
  C  C63  1  0.64136000  0.26859000  0.92728000  1.0
  C  C64  1  0.56875000  0.11782000  0.46457000  1.0
  C  C65  1  0.43124000  0.61782000  0.03544000  1.0
  C  C66  1  0.43124000  0.88216000  0.53543000  1.0
  C  C67  1  0.56876000  0.38216000  0.96458000  1.0
  C  C68  1  0.57093000  0.97036000  0.44228000  1.0
  C  C69  1  0.42911000  0.47036000  0.05772000  1.0
  C  C70  1  0.42910000  0.02962000  0.55771000  1.0
  C  C71  1  0.57091000  0.52962000  0.94229000  1.0
  C  C72  1  0.64073000  0.94559000  0.38395000  1.0
  C  C73  1  0.35927000  0.44558000  0.11605000  1.0
  C  C74  1  0.35925000  0.05440000  0.61604000  1.0
  C  C75  1  0.64075000  0.55440000  0.88395000  1.0
  C  C76  1  0.70701000  0.05808000  0.34853000  1.0
  C  C77  1  0.29299000  0.55807000  0.15147000  1.0
  C  C78  1  0.29299000  0.94191000  0.65146000  1.0
  C  C79  1  0.70702000  0.44189000  0.84853000  1.0
  C  C80  1  0.49690000  0.14399000  0.52163000  1.0
  C  C81  1  0.50311000  0.64398000  0.97837000  1.0
  C  C82  1  0.50309000  0.85599000  0.47837000  1.0
  C  C83  1  0.49690000  0.35599000  0.02164000  1.0
  C  C84  1  0.78720000  0.02621000  0.28793000  1.0
  C  C85  1  0.21278000  0.52619000  0.21207000  1.0
  C  C86  1  0.21280000  0.97378000  0.71207000  1.0
  C  C87  1  0.78720000  0.47377000  0.78793000  1.0
  C  C88  1  0.13938000  0.84956000  0.34078000  1.0
  C  C89  1  0.86059000  0.34956000  0.15922000  1.0
  C  C90  1  0.86059000  0.15046000  0.65922000  1.0
  C  C91  1  0.13941000  0.65045000  0.84079000  1.0
  C  C92  1  0.06990000  0.97898000  0.43132000  1.0
  C  C93  1  0.93011000  0.47900000  0.06868000  1.0
  C  C94  1  0.93009000  0.02106000  0.56868000  1.0
  C  C95  1  0.06991000  0.52103000  0.93132000  1.0
  C  C96  1  0.24482000  0.09993000  0.34786000  1.0
  C  C97  1  0.75517000  0.59996000  0.15214000  1.0
  C  C98  1  0.75517000  0.90008000  0.65214000  1.0
  C  C99  1  0.24485000  0.40008000  0.84786000  1.0
  N  N100  1  0.15363000  0.96908000  0.37225000  1.0
  N  N101  1  0.84637000  0.46909000  0.12775000  1.0
  N  N102  1  0.84634000  0.03095000  0.62775000  1.0
  N  N103  1  0.15365000  0.53093000  0.87225000  1.0
  O  O104  1  0.90290000  0.40529000  0.35005000  1.0
  O  O105  1  0.09705000  0.90530000  0.14995000  1.0
  O  O106  1  0.09708000  0.59471000  0.64995000  1.0
  O  O107  1  0.90292000  0.09468000  0.85005000  1.0
  O  O108  1  0.67136000  0.36728000  0.29347000  1.0
  O  O109  1  0.32863000  0.86727000  0.20652000  1.0
  O  O110  1  0.32866000  0.63272000  0.70652000  1.0
  O  O111  1  0.67134000  0.13271000  0.79348000  1.0
  O  O112  1  0.91470000  0.11644000  0.26826000  1.0
  O  O113  1  0.08530000  0.61645000  0.23174000  1.0
  O  O114  1  0.08530000  0.88356000  0.73173000  1.0
  O  O115  1  0.91470000  0.38353000  0.76827000  1.0
  O  O116  1  0.73530000  0.91955000  0.25993000  1.0
  O  O117  1  0.26469000  0.41953000  0.24007000  1.0
  O  O118  1  0.26468000  0.08045000  0.74006000  1.0
  O  O119  1  0.73534000  0.58045000  0.75994000  1.0
  O  O120  1  0.05450000  0.73593000  0.36016000  1.0
  O  O121  1  0.94548000  0.23593000  0.13985000  1.0
  O  O122  1  0.94546000  0.26410000  0.63985000  1.0
  O  O123  1  0.05452000  0.76408000  0.86016000  1.0
  O  O124  1  0.69781000  0.66087000  0.30479000  1.0
  O  O125  1  0.30219000  0.16086000  0.19521000  1.0
  O  O126  1  0.30219000  0.33913000  0.69521000  1.0
  O  O127  1  0.69780000  0.83912000  0.80479000  1.0
