# generated using pymatgen
data_Zn3H42C54(N5O6)2
_symmetry_space_group_name_H-M   'P 1'
_cell_length_a   10.51260000
_cell_length_b   10.60780000
_cell_length_c   12.30720000
_cell_angle_alpha   79.95360000
_cell_angle_beta   83.63070000
_cell_angle_gamma   76.95260000
_symmetry_Int_Tables_number   1
_chemical_formula_structural   Zn3H42C54(N5O6)2
_chemical_formula_sum   'Zn3 H42 C54 N10 O12'
_cell_volume   1312.84424560
_cell_formula_units_Z   1
loop_
 _symmetry_equiv_pos_site_id
 _symmetry_equiv_pos_as_xyz
  1  'x, y, z'
loop_
 _atom_site_type_symbol
 _atom_site_label
 _atom_site_symmetry_multiplicity
 _atom_site_fract_x
 _atom_site_fract_y
 _atom_site_fract_z
 _atom_site_occupancy
  Zn  Zn0  1  0.27754000  0.65279000  0.16566000  1.0
  Zn  Zn1  1  0.72246000  0.34721000  0.83434000  1.0
  Zn  Zn2  1  0.50000000  0.50000000  0.00000000  1.0
  H  H3  1  0.45112000  0.01901000  0.87947000  1.0
  H  H4  1  0.54889000  0.98099000  0.12053000  1.0
  H  H5  1  0.48127000  0.09887000  0.67606000  1.0
  H  H6  1  0.51873000  0.90113000  0.32394000  1.0
  H  H7  1  0.37835000  0.75304000  0.60476000  1.0
  H  H8  1  0.62165000  0.24697000  0.39523000  1.0
  H  H9  1  0.34222000  0.67648000  0.80824000  1.0
  H  H10  1  0.65778000  0.32352000  0.19176000  1.0
  H  H11  1  0.35387000  0.18748000  0.02970000  1.0
  H  H12  1  0.64613000  0.81252000  0.97030000  1.0
  H  H13  1  0.23346000  0.02553000  0.99021000  1.0
  H  H14  1  0.76654000  0.97447000  0.00979000  1.0
  H  H15  1  0.86684000  0.27315000  0.08041000  1.0
  H  H16  1  0.13316000  0.72685000  0.91960000  1.0
  H  H17  1  0.98962000  0.43594000  0.12248000  1.0
  H  H18  1  0.01038000  0.56406000  0.87752000  1.0
  H  H19  1  0.51377000  0.63011000  0.44022000  1.0
  H  H20  1  0.48623000  0.36989000  0.55978000  1.0
  H  H21  1  0.69674000  0.60592000  0.56383000  1.0
  H  H22  1  0.30326000  0.39409000  0.43617000  1.0
  H  H23  1  0.97728000  0.45844000  0.30969000  1.0
  H  H24  1  0.02273000  0.54156000  0.69032000  1.0
  H  H25  1  0.79356000  0.48401000  0.18660000  1.0
  H  H26  1  0.20644000  0.51598000  0.81340000  1.0
  H  H27  1  0.28816000  0.90414000  0.36037000  1.0
  H  H28  1  0.71184000  0.09587000  0.63963000  1.0
  H  H29  1  0.24003000  0.04347000  0.25914000  1.0
  H  H30  1  0.75997000  0.95653000  0.74087000  1.0
  H  H31  1  0.33207000  0.89634000  0.21693000  1.0
  H  H32  1  0.66793000  0.10367000  0.78307000  1.0
  H  H33  1  0.97288000  0.69344000  0.19982000  1.0
  H  H34  1  0.02712000  0.30656000  0.80018000  1.0
  H  H35  1  0.81930000  0.90908000  0.28609000  1.0
  H  H36  1  0.18070000  0.09092000  0.71391000  1.0
  H  H37  1  0.88340000  0.13081000  0.30498000  1.0
  H  H38  1  0.11659000  0.86919000  0.69502000  1.0
  H  H39  1  0.04894000  0.12531000  0.32403000  1.0
  H  H40  1  0.95105000  0.87469000  0.67597000  1.0
  H  H41  1  0.90791000  0.13574000  0.49952000  1.0
  H  H42  1  0.09208000  0.86427000  0.50048000  1.0
  H  H43  1  0.85836000  0.99076000  0.48689000  1.0
  H  H44  1  0.14164000  0.00925000  0.51310000  1.0
  C  C45  1  0.38314000  0.79315000  0.97699000  1.0
  C  C46  1  0.61686000  0.20685000  0.02301000  1.0
  C  C47  1  0.39645000  0.84181000  0.85563000  1.0
  C  C48  1  0.60355000  0.15819000  0.14436000  1.0
  C  C49  1  0.43437000  0.96197000  0.81876000  1.0
  C  C50  1  0.56564000  0.03803000  0.18124000  1.0
  C  C51  1  0.45315000  0.00558000  0.70632000  1.0
  C  C52  1  0.54685000  0.99442000  0.29368000  1.0
  C  C53  1  0.43724000  0.92758000  0.62924000  1.0
  C  C54  1  0.56276000  0.07242000  0.37076000  1.0
  C  C55  1  0.39271000  0.81091000  0.66578000  1.0
  C  C56  1  0.60729000  0.18909000  0.33422000  1.0
  C  C57  1  0.37260000  0.76863000  0.77847000  1.0
  C  C58  1  0.62740000  0.23137000  0.22153000  1.0
  C  C59  1  0.25123000  0.41411000  0.10986000  1.0
  C  C60  1  0.74877000  0.58589000  0.89014000  1.0
  C  C61  1  0.17847000  0.31944000  0.08227000  1.0
  C  C62  1  0.82152000  0.68056000  0.91773000  1.0
  C  C63  1  0.24754000  0.20503000  0.04201000  1.0
  C  C64  1  0.75246000  0.79497000  0.95799000  1.0
  C  C65  1  0.18071000  0.11545000  0.01885000  1.0
  C  C66  1  0.81929000  0.88455000  0.98115000  1.0
  C  C67  1  0.04338000  0.13875000  0.03556000  1.0
  C  C68  1  0.95662000  0.86124000  0.96445000  1.0
  C  C69  1  0.97352000  0.25499000  0.07214000  1.0
  C  C70  1  0.02648000  0.74500000  0.92786000  1.0
  C  C71  1  0.04125000  0.34459000  0.09512000  1.0
  C  C72  1  0.95875000  0.65541000  0.90489000  1.0
  C  C73  1  0.53895000  0.57059000  0.22970000  1.0
  C  C74  1  0.46106000  0.42940000  0.77030000  1.0
  C  C75  1  0.64390000  0.55776000  0.30643000  1.0
  C  C76  1  0.35611000  0.44224000  0.69357000  1.0
  C  C77  1  0.61526000  0.59276000  0.41253000  1.0
  C  C78  1  0.38474000  0.40724000  0.58747000  1.0
  C  C79  1  0.71616000  0.57970000  0.48081000  1.0
  C  C80  1  0.28384000  0.42030000  0.51919000  1.0
  C  C81  1  0.84635000  0.53104000  0.44351000  1.0
  C  C82  1  0.15365000  0.46897000  0.55649000  1.0
  C  C83  1  0.87541000  0.49445000  0.33736000  1.0
  C  C84  1  0.12460000  0.50555000  0.66264000  1.0
  C  C85  1  0.77456000  0.50871000  0.26996000  1.0
  C  C86  1  0.22545000  0.49129000  0.73004000  1.0
  C  C87  1  0.25472000  0.93640000  0.27647000  1.0
  C  C88  1  0.74528000  0.06360000  0.72353000  1.0
  C  C89  1  0.13437000  0.89139000  0.26403000  1.0
  C  C90  1  0.86564000  0.10860000  0.73597000  1.0
  C  C91  1  0.00067000  0.77310000  0.22907000  1.0
  C  C92  1  0.99933000  0.22690000  0.77093000  1.0
  C  C93  1  0.92447000  0.87830000  0.27171000  1.0
  C  C94  1  0.07553000  0.12170000  0.72829000  1.0
  C  C95  1  0.97035000  0.07050000  0.34425000  1.0
  C  C96  1  0.02965000  0.92950000  0.65575000  1.0
  C  C97  1  0.94119000  0.04090000  0.46946000  1.0
  C  C98  1  0.05881000  0.95910000  0.53054000  1.0
  N  N99  1  0.46335000  0.95894000  0.51403000  1.0
  N  N100  1  0.53665000  0.04106000  0.48597000  1.0
  N  N101  1  0.96722000  0.05110000  0.01811000  1.0
  N  N102  1  0.03278000  0.94889000  0.98190000  1.0
  N  N103  1  0.94217000  0.52517000  0.51699000  1.0
  N  N104  1  0.05784000  0.47484000  0.48301000  1.0
  N  N105  1  0.13038000  0.78250000  0.22405000  1.0
  N  N106  1  0.86962000  0.21750000  0.77595000  1.0
  N  N107  1  0.00971000  0.95185000  0.29329000  1.0
  N  N108  1  0.99028000  0.04815000  0.70671000  1.0
  O  O109  1  0.34553000  0.68034000  0.00516000  1.0
  O  O110  1  0.65447000  0.31966000  0.99484000  1.0
  O  O111  1  0.40472000  0.85709000  0.04590000  1.0
  O  O112  1  0.59528000  0.14291000  0.95410000  1.0
  O  O113  1  0.37493000  0.39042000  0.09244000  1.0
  O  O114  1  0.62506000  0.60958000  0.90755000  1.0
  O  O115  1  0.18324000  0.51366000  0.15109000  1.0
  O  O116  1  0.81676000  0.48635000  0.84891000  1.0
  O  O117  1  0.57669000  0.53875000  0.13506000  1.0
  O  O118  1  0.42332000  0.46124000  0.86494000  1.0
  O  O119  1  0.42023000  0.61170000  0.26604000  1.0
  O  O120  1  0.57978000  0.38829000  0.73396000  1.0
