# generated using pymatgen
data_NaCdH21C14SN2O11
_symmetry_space_group_name_H-M   'P 1'
_cell_length_a   8.85764000
_cell_length_b   10.35620000
_cell_length_c   12.91000000
_cell_angle_alpha   106.45900000
_cell_angle_beta   109.71200000
_cell_angle_gamma   98.52090000
_symmetry_Int_Tables_number   1
_chemical_formula_structural   NaCdH21C14SN2O11
_chemical_formula_sum   'Na2 Cd2 H42 C28 S2 N4 O22'
_cell_volume   1029.47285197
_cell_formula_units_Z   2
loop_
 _symmetry_equiv_pos_site_id
 _symmetry_equiv_pos_as_xyz
  1  'x, y, z'
loop_
 _atom_site_type_symbol
 _atom_site_label
 _atom_site_symmetry_multiplicity
 _atom_site_fract_x
 _atom_site_fract_y
 _atom_site_fract_z
 _atom_site_occupancy
  Na  Na0  1  0.51008000  0.66963000  0.47075000  1.0
  Na  Na1  1  0.48992000  0.33037000  0.52925000  1.0
  Cd  Cd2  1  0.18347000  0.94603000  0.37346000  1.0
  Cd  Cd3  1  0.81653000  0.05397000  0.62654000  1.0
  H  H4  1  0.75685000  0.58553000  0.31421000  1.0
  H  H5  1  0.24316000  0.41447000  0.68579000  1.0
  H  H6  1  0.20002000  0.44255000  0.39861000  1.0
  H  H7  1  0.79998000  0.55745000  0.60139000  1.0
  H  H8  1  0.72723000  0.16732000  0.31680000  1.0
  H  H9  1  0.27277000  0.83268000  0.68320000  1.0
  H  H10  1  0.28599000  0.98415000  0.16242000  1.0
  H  H11  1  0.71400000  0.01585000  0.83758000  1.0
  H  H12  1  0.31165000  0.02699000  0.02007000  1.0
  H  H13  1  0.68835000  0.97301000  0.97993000  1.0
  H  H14  1  0.12973000  0.98662000  0.88893000  1.0
  H  H15  1  0.87027000  0.01338000  0.11107000  1.0
  H  H16  1  0.25644000  0.86863000  0.89652000  1.0
  H  H17  1  0.74356000  0.13137000  0.10348000  1.0
  H  H18  1  0.97767000  0.67425000  0.86316000  1.0
  H  H19  1  0.02233000  0.32575000  0.13684000  1.0
  H  H20  1  0.87691000  0.80959000  0.85567000  1.0
  H  H21  1  0.12309000  0.19041000  0.14433000  1.0
  H  H22  1  0.88792000  0.73602000  0.96670000  1.0
  H  H23  1  0.11207000  0.26398000  0.03329000  1.0
  H  H24  1  0.31774000  0.58749000  0.18947000  1.0
  H  H25  1  0.68226000  0.41251000  0.81053000  1.0
  H  H26  1  0.22354000  0.52465000  0.00121000  1.0
  H  H27  1  0.77646000  0.47535000  0.99879000  1.0
  H  H28  1  0.37181000  0.53807000  0.93612000  1.0
  H  H29  1  0.62819000  0.46193000  0.06388000  1.0
  H  H30  1  0.26496000  0.66907000  0.95551000  1.0
  H  H31  1  0.73504000  0.33093000  0.04449000  1.0
  H  H32  1  0.59523000  0.87520000  0.14488000  1.0
  H  H33  1  0.40478000  0.12480000  0.85512000  1.0
  H  H34  1  0.61214000  0.73302000  0.03584000  1.0
  H  H35  1  0.38786000  0.26698000  0.96416000  1.0
  H  H36  1  0.71258000  0.76032000  0.18947000  1.0
  H  H37  1  0.28743000  0.23967000  0.81053000  1.0
  H  H38  1  0.18550000  0.99053000  0.60729000  1.0
  H  H39  1  0.81450000  0.00947000  0.39271000  1.0
  H  H40  1  0.32114000  0.12764000  0.62458000  1.0
  H  H41  1  0.67886000  0.87236000  0.37542000  1.0
  H  H42  1  0.43856000  0.10932000  0.34028000  1.0
  H  H43  1  0.56144000  0.89068000  0.65972000  1.0
  H  H44  1  0.54487000  0.02028000  0.39993000  1.0
  H  H45  1  0.45513000  0.97972000  0.60007000  1.0
  C  C46  1  0.72401000  0.37289000  0.31180000  1.0
  C  C47  1  0.27599000  0.62711000  0.68820000  1.0
  C  C48  1  0.81636000  0.50305000  0.32656000  1.0
  C  C49  1  0.18364000  0.49696000  0.67344000  1.0
  C  C50  1  0.98855000  0.52872000  0.35804000  1.0
  C  C51  1  0.01145000  0.47128000  0.64196000  1.0
  C  C52  1  0.06655000  0.42414000  0.37574000  1.0
  C  C53  1  0.93345000  0.57586000  0.62426000  1.0
  C  C54  1  0.97303000  0.29429000  0.36195000  1.0
  C  C55  1  0.02698000  0.70571000  0.63805000  1.0
  C  C56  1  0.80089000  0.26862000  0.32942000  1.0
  C  C57  1  0.19911000  0.73138000  0.67058000  1.0
  C  C58  1  0.08583000  0.66871000  0.37112000  1.0
  C  C59  1  0.91417000  0.33129000  0.62888000  1.0
  C  C60  1  0.05387000  0.17994000  0.37510000  1.0
  C  C61  1  0.94613000  0.82007000  0.62491000  1.0
  C  C62  1  0.16682000  0.90278000  0.11367000  1.0
  C  C63  1  0.83318000  0.09722000  0.88633000  1.0
  C  C64  1  0.20785000  0.94226000  0.94793000  1.0
  C  C65  1  0.79215000  0.05774000  0.05207000  1.0
  C  C66  1  0.95452000  0.76679000  0.91625000  1.0
  C  C67  1  0.04548000  0.23321000  0.08375000  1.0
  C  C68  1  0.43650000  0.65816000  0.20706000  1.0
  C  C69  1  0.56350000  0.34184000  0.79294000  1.0
  C  C70  1  0.32052000  0.59715000  0.99470000  1.0
  C  C71  1  0.67948000  0.40285000  0.00530000  1.0
  C  C72  1  0.60188000  0.76595000  0.12117000  1.0
  C  C73  1  0.39812000  0.23405000  0.87883000  1.0
  S  S74  1  0.50508000  0.34049000  0.27078000  1.0
  S  S75  1  0.49492000  0.65951000  0.72922000  1.0
  N  N76  1  0.11059000  0.87145000  0.99695000  1.0
  N  N77  1  0.88940000  0.12855000  0.00305000  1.0
  N  N78  1  0.45184000  0.67374000  0.11146000  1.0
  N  N79  1  0.54816000  0.32626000  0.88854000  1.0
  O  O80  1  0.43918000  0.37905000  0.16730000  1.0
  O  O81  1  0.56083000  0.62095000  0.83270000  1.0
  O  O82  1  0.44370000  0.18912000  0.24467000  1.0
  O  O83  1  0.55630000  0.81088000  0.75533000  1.0
  O  O84  1  0.48476000  0.42665000  0.37533000  1.0
  O  O85  1  0.51525000  0.57335000  0.62467000  1.0
  O  O86  1  0.00216000  0.75806000  0.35696000  1.0
  O  O87  1  0.99784000  0.24194000  0.64304000  1.0
  O  O88  1  0.23995000  0.69266000  0.39374000  1.0
  O  O89  1  0.76005000  0.30734000  0.60626000  1.0
  O  O90  1  0.20991000  0.20376000  0.40673000  1.0
  O  O91  1  0.79009000  0.79624000  0.59327000  1.0
  O  O92  1  0.96084000  0.05724000  0.34794000  1.0
  O  O93  1  0.03917000  0.94277000  0.65206000  1.0
  O  O94  1  0.09260000  0.84839000  0.16484000  1.0
  O  O95  1  0.90740000  0.15161000  0.83516000  1.0
  O  O96  1  0.54578000  0.71666000  0.31011000  1.0
  O  O97  1  0.45422000  0.28334000  0.68989000  1.0
  O  O98  1  0.27394000  0.02412000  0.58128000  1.0
  O  O99  1  0.72606000  0.97588000  0.41872000  1.0
  O  O100  1  0.44427000  0.05534000  0.39373000  1.0
  O  O101  1  0.55573000  0.94466000  0.60627000  1.0
