# generated using pymatgen
data_CoH6(C2O3)2
_symmetry_space_group_name_H-M   'P 1'
_cell_length_a   6.79774000
_cell_length_b   7.70519017
_cell_length_c   7.83930000
_cell_angle_alpha   60.79899714
_cell_angle_beta   79.70300000
_cell_angle_gamma   68.45908918
_symmetry_Int_Tables_number   1
_chemical_formula_structural   CoH6(C2O3)2
_chemical_formula_sum   'Co2 H12 C8 O12'
_cell_volume   333.38956389
_cell_formula_units_Z   2
loop_
 _symmetry_equiv_pos_site_id
 _symmetry_equiv_pos_as_xyz
  1  'x, y, z'
loop_
 _atom_site_type_symbol
 _atom_site_label
 _atom_site_symmetry_multiplicity
 _atom_site_fract_x
 _atom_site_fract_y
 _atom_site_fract_z
 _atom_site_occupancy
  Co  Co0  1  0.48303000  0.85934000  0.29047000  1.0
  Co  Co1  1  0.98192000  0.14991000  0.71042000  1.0
  H  H2  1  0.49496000  0.48966000  0.47988000  1.0
  H  H3  1  0.00124000  0.96420000  0.52243000  1.0
  H  H4  1  0.24935000  0.56303000  0.46192000  1.0
  H  H5  1  0.75602000  0.01812000  0.54203000  1.0
  H  H6  1  0.85586000  0.56244000  0.28903000  1.0
  H  H7  1  0.35642000  0.85268000  0.71172000  1.0
  H  H8  1  0.81637000  0.79686000  0.10943000  1.0
  H  H9  1  0.31625000  0.90435000  0.89260000  1.0
  H  H10  1  0.28446000  0.52716000  0.82357000  1.0
  H  H11  1  0.78838000  0.34790000  0.17651000  1.0
  H  H12  1  0.22552000  0.53258000  0.12426000  1.0
  H  H13  1  0.73216000  0.65521000  0.87778000  1.0
  C  C14  1  0.26378000  0.22312000  0.90305000  1.0
  C  C15  1  0.76242000  0.12825000  0.09323000  1.0
  C  C16  1  0.26839000  0.38517000  0.95105000  1.0
  C  C17  1  0.77144000  0.33567000  0.04743000  1.0
  C  C18  1  0.22882000  0.39089000  0.12246000  1.0
  C  C19  1  0.73320000  0.51348000  0.87749000  1.0
  C  C20  1  0.16191000  0.23871000  0.30744000  1.0
  C  C21  1  0.66644000  0.54833000  0.69122000  1.0
  O  O22  1  0.35892000  0.02664000  0.00557000  1.0
  O  O23  1  0.85936000  0.03040000  0.99313000  1.0
  O  O24  1  0.15846000  0.29919000  0.74833000  1.0
  O  O25  1  0.65159000  0.05525000  0.24384000  1.0
  O  O26  1  0.20393000  0.04389000  0.35561000  1.0
  O  O27  1  0.70401000  0.40153000  0.64367000  1.0
  O  O28  1  0.04868000  0.31844000  0.41738000  1.0
  O  O29  1  0.55872000  0.73889000  0.57967000  1.0
  O  O30  1  0.74770000  0.68765000  0.19597000  1.0
  O  O31  1  0.24843000  0.87915000  0.80713000  1.0
  O  O32  1  0.37569000  0.58912000  0.38635000  1.0
  O  O33  1  0.88314000  0.96570000  0.61791000  1.0
