# generated using pymatgen
data_YH3(C3O2)3
_symmetry_space_group_name_H-M   'P 1'
_cell_length_a   10.32810000
_cell_length_b   10.32800000
_cell_length_c   14.17580000
_cell_angle_alpha   90.00020000
_cell_angle_beta   90.00000000
_cell_angle_gamma   89.99890000
_symmetry_Int_Tables_number   1
_chemical_formula_structural   YH3(C3O2)3
_chemical_formula_sum   'Y4 H12 C36 O24'
_cell_volume   1512.11297775
_cell_formula_units_Z   4
loop_
 _symmetry_equiv_pos_site_id
 _symmetry_equiv_pos_as_xyz
  1  'x, y, z'
loop_
 _atom_site_type_symbol
 _atom_site_label
 _atom_site_symmetry_multiplicity
 _atom_site_fract_x
 _atom_site_fract_y
 _atom_site_fract_z
 _atom_site_occupancy
  Y  Y0  1  0.37019000  0.37019000  0.12500000  1.0
  Y  Y1  1  0.62981000  0.62981000  0.62500000  1.0
  Y  Y2  1  0.37019000  0.62981000  0.87500000  1.0
  Y  Y3  1  0.62981000  0.37019000  0.37500000  1.0
  H  H4  1  0.42386000  0.03511000  0.89167000  1.0
  H  H5  1  0.57614000  0.96490000  0.39167000  1.0
  H  H6  1  0.03510000  0.57613000  0.64167000  1.0
  H  H7  1  0.96490000  0.42387000  0.14167000  1.0
  H  H8  1  0.42387000  0.96490000  0.10834000  1.0
  H  H9  1  0.57613000  0.03510000  0.60833000  1.0
  H  H10  1  0.03511000  0.42386000  0.35833000  1.0
  H  H11  1  0.96489000  0.57614000  0.85833000  1.0
  H  H12  1  0.50000000  0.39566000  0.75000000  1.0
  H  H13  1  0.50000000  0.60434000  0.25000000  1.0
  H  H14  1  0.39566000  0.50000000  0.50000000  1.0
  H  H15  1  0.60434000  0.50000000  0.00000000  1.0
  C  C16  1  0.45847000  0.22348000  0.83009000  1.0
  C  C17  1  0.45714000  0.08800000  0.82975000  1.0
  C  C18  1  0.41932000  0.29874000  0.91511000  1.0
  C  C19  1  0.54153000  0.77652000  0.33010000  1.0
  C  C20  1  0.54286000  0.91200000  0.32975000  1.0
  C  C21  1  0.58068000  0.70126000  0.41511000  1.0
  C  C22  1  0.22348000  0.54154000  0.58009000  1.0
  C  C23  1  0.08800000  0.54286000  0.57975000  1.0
  C  C24  1  0.29873000  0.58068000  0.66511000  1.0
  C  C25  1  0.77652000  0.45846000  0.08009000  1.0
  C  C26  1  0.91200000  0.45714000  0.07975000  1.0
  C  C27  1  0.70127000  0.41932000  0.16510000  1.0
  C  C28  1  0.45846000  0.77652000  0.16991000  1.0
  C  C29  1  0.45714000  0.91200000  0.17026000  1.0
  C  C30  1  0.41931000  0.70127000  0.08490000  1.0
  C  C31  1  0.54153000  0.22348000  0.66990000  1.0
  C  C32  1  0.54285000  0.08799000  0.67025000  1.0
  C  C33  1  0.58068000  0.29873000  0.58489000  1.0
  C  C34  1  0.22348000  0.45847000  0.41990000  1.0
  C  C35  1  0.08800000  0.45714000  0.42025000  1.0
  C  C36  1  0.29874000  0.41932000  0.33489000  1.0
  C  C37  1  0.77652000  0.54153000  0.91991000  1.0
  C  C38  1  0.91200000  0.54286000  0.92025000  1.0
  C  C39  1  0.70126000  0.58068000  0.83489000  1.0
  C  C40  1  0.50000000  0.29038000  0.75000000  1.0
  C  C41  1  0.49999000  0.02060000  0.75000000  1.0
  C  C42  1  0.49999000  0.87558000  0.75000000  1.0
  C  C43  1  0.50000000  0.70962000  0.25000000  1.0
  C  C44  1  0.50000000  0.97940000  0.25000000  1.0
  C  C45  1  0.50001000  0.12442000  0.25000000  1.0
  C  C46  1  0.29038000  0.50001000  0.50000000  1.0
  C  C47  1  0.02060000  0.49999000  0.50000000  1.0
  C  C48  1  0.87558000  0.49999000  0.50000000  1.0
  C  C49  1  0.70962000  0.50000000  0.00000000  1.0
  C  C50  1  0.97940000  0.50001000  0.00000000  1.0
  C  C51  1  0.12442000  0.50001000  0.00000000  1.0
  O  O52  1  0.40950000  0.24153000  0.99435000  1.0
  O  O53  1  0.40007000  0.42022000  0.90595000  1.0
  O  O54  1  0.58354000  0.81940000  0.69816000  1.0
  O  O55  1  0.59050000  0.75847000  0.49435000  1.0
  O  O56  1  0.59994000  0.57979000  0.40595000  1.0
  O  O57  1  0.41646000  0.18060000  0.19816000  1.0
  O  O58  1  0.24153000  0.59051000  0.74435000  1.0
  O  O59  1  0.42021000  0.59993000  0.65594000  1.0
  O  O60  1  0.81941000  0.41644000  0.44816000  1.0
  O  O61  1  0.75847000  0.40949000  0.24435000  1.0
  O  O62  1  0.57979000  0.40007000  0.15594000  1.0
  O  O63  1  0.18059000  0.58356000  0.94816000  1.0
  O  O64  1  0.40949000  0.75847000  0.00565000  1.0
  O  O65  1  0.40007000  0.57979000  0.09406000  1.0
  O  O66  1  0.58355000  0.18060000  0.30184000  1.0
  O  O67  1  0.59051000  0.24152000  0.50565000  1.0
  O  O68  1  0.59993000  0.42021000  0.59406000  1.0
  O  O69  1  0.41644000  0.81940000  0.80184000  1.0
  O  O70  1  0.24153000  0.40950000  0.25565000  1.0
  O  O71  1  0.42022000  0.40007000  0.34406000  1.0
  O  O72  1  0.81940000  0.58354000  0.55184000  1.0
  O  O73  1  0.75847000  0.59050000  0.75565000  1.0
  O  O74  1  0.57979000  0.59993000  0.84405000  1.0
  O  O75  1  0.18060000  0.41646000  0.05184000  1.0
