# generated using pymatgen
data_ZnH35C29(N5O2)2
_symmetry_space_group_name_H-M   'P 1'
_cell_length_a   16.29130000
_cell_length_b   16.72280000
_cell_length_c   18.72490000
_cell_angle_alpha   90.89600000
_cell_angle_beta   92.71190000
_cell_angle_gamma   91.65150000
_symmetry_Int_Tables_number   1
_chemical_formula_structural   ZnH35C29(N5O2)2
_chemical_formula_sum   'Zn2 H70 C58 N20 O8'
_cell_volume   5092.77147279
_cell_formula_units_Z   2
loop_
 _symmetry_equiv_pos_site_id
 _symmetry_equiv_pos_as_xyz
  1  'x, y, z'
loop_
 _atom_site_type_symbol
 _atom_site_label
 _atom_site_symmetry_multiplicity
 _atom_site_fract_x
 _atom_site_fract_y
 _atom_site_fract_z
 _atom_site_occupancy
  Zn  Zn0  1  0.58687000  0.49365000  0.51991000  1.0
  Zn  Zn1  1  0.40795000  0.49613000  0.50519000  1.0
  H  H2  1  0.62793000  0.56128000  0.31993000  1.0
  H  H3  1  0.81961000  0.71126000  0.47977000  1.0
  H  H4  1  0.70054000  0.38601000  0.57195000  1.0
  H  H5  1  0.29049000  0.40627000  0.42402000  1.0
  H  H6  1  0.06907000  0.42740000  0.59298000  1.0
  H  H7  1  0.01322000  0.44123000  0.70722000  1.0
  H  H8  1  0.91928000  0.47194000  0.66630000  1.0
  H  H9  1  0.00796000  0.53735000  0.66643000  1.0
  H  H10  1  0.92345000  0.46951000  0.40112000  1.0
  H  H11  1  0.98608000  0.52351000  0.29979000  1.0
  H  H12  1  0.08148000  0.53263000  0.34923000  1.0
  H  H13  1  0.36829000  0.51179000  0.73724000  1.0
  H  H14  1  0.00065000  0.59797000  0.36950000  1.0
  H  H15  1  0.18396000  0.34964000  0.36375000  1.0
  H  H16  1  0.09615000  0.27739000  0.45497000  1.0
  H  H17  1  0.06971000  0.26646000  0.36142000  1.0
  H  H18  1  0.01593000  0.33461000  0.41390000  1.0
  H  H19  1  0.80204000  0.30724000  0.60029000  1.0
  H  H20  1  0.90165000  0.22482000  0.56580000  1.0
  H  H21  1  0.96518000  0.30643000  0.54058000  1.0
  H  H22  1  0.87747000  0.27529000  0.48434000  1.0
  H  H23  1  0.89095000  0.58502000  0.47936000  1.0
  H  H24  1  0.33150000  0.57712000  0.60702000  1.0
  H  H25  1  0.10846000  0.57020000  0.56124000  1.0
  H  H26  1  0.70014000  0.63529000  0.24729000  1.0
  H  H27  1  0.61702000  0.74564000  0.15817000  1.0
  H  H28  1  0.68734000  0.69261000  0.10623000  1.0
  H  H29  1  0.72298000  0.74633000  0.18596000  1.0
  H  H30  1  0.30653000  0.50741000  0.83831000  1.0
  H  H31  1  0.40015000  0.46650000  0.96378000  1.0
  H  H32  1  0.29249000  0.45347000  0.94505000  1.0
  H  H33  1  0.33310000  0.54502000  0.98450000  1.0
  H  H34  1  0.38670000  0.57328000  0.14964000  1.0
  H  H35  1  0.26983000  0.66737000  0.67928000  1.0
  H  H36  1  0.62950000  0.59048000  0.86889000  1.0
  H  H37  1  0.37131000  0.51485000  0.27125000  1.0
  H  H38  1  0.62857000  0.55831000  0.73777000  1.0
  H  H39  1  0.56236000  0.85320000  0.60133000  1.0
  H  H40  1  0.51617000  0.76732000  0.68078000  1.0
  H  H41  1  0.54213000  0.68373000  0.62800000  1.0
  H  H42  1  0.44743000  0.73216000  0.60931000  1.0
  H  H43  1  0.62668000  0.27953000  0.54736000  1.0
  H  H44  1  0.72633000  0.19271000  0.59395000  1.0
  H  H45  1  0.71783000  0.15252000  0.50466000  1.0
  H  H46  1  0.18415000  0.59826000  0.67400000  1.0
  H  H47  1  0.66066000  0.10865000  0.57357000  1.0
  H  H48  1  0.37683000  0.27899000  0.41889000  1.0
  H  H49  1  0.48191000  0.68841000  0.35664000  1.0
  H  H50  1  0.39170000  0.91672000  0.39887000  1.0
  H  H51  1  0.29605000  0.95679000  0.48180000  1.0
  H  H52  1  0.34480000  0.05318000  0.48878000  1.0
  H  H53  1  0.39599000  0.96900000  0.52561000  1.0
  H  H54  1  0.60040000  0.06055000  0.33933000  1.0
  H  H55  1  0.72217000  0.98781000  0.31767000  1.0
  H  H56  1  0.64316000  0.94363000  0.25900000  1.0
  H  H57  1  0.18871000  0.67994000  0.61400000  1.0
  H  H58  1  0.66981000  0.89817000  0.34182000  1.0
  H  H59  1  0.48206000  0.76127000  0.25898000  1.0
  H  H60  1  0.45866000  0.86405000  0.18377000  1.0
  H  H61  1  0.50603000  0.93549000  0.24476000  1.0
  H  H62  1  0.40551000  0.89741000  0.25971000  1.0
  H  H63  1  0.31237000  0.19298000  0.34359000  1.0
  H  H64  1  0.29646000  0.10415000  0.25081000  1.0
  H  H65  1  0.36085000  0.03459000  0.29497000  1.0
  H  H66  1  0.40566000  0.12078000  0.25433000  1.0
  H  H67  1  0.58666000  0.07977000  0.47266000  1.0
  H  H68  1  0.67038000  0.62773000  0.47989000  1.0
  H  H69  1  0.55727000  0.92715000  0.50420000  1.0
  H  H70  1  0.73493000  0.72725000  0.41842000  1.0
  H  H71  1  0.81454000  0.66257000  0.39419000  1.0
  C  C72  1  0.50617000  0.64936000  0.49019000  1.0
  C  C73  1  0.47374000  0.10100000  0.41451000  1.0
  C  C74  1  0.51112000  0.81486000  0.35390000  1.0
  C  C75  1  0.41328000  0.15819000  0.39753000  1.0
  C  C76  1  0.50121000  0.74141000  0.38860000  1.0
  C  C77  1  0.42255000  0.23391000  0.43058000  1.0
  C  C78  1  0.53098000  0.96945000  0.37810000  1.0
  C  C79  1  0.46628000  0.01436000  0.39778000  1.0
  C  C80  1  0.23380000  0.53859000  0.54269000  1.0
  C  C81  1  0.76406000  0.55074000  0.49503000  1.0
  C  C82  1  0.14796000  0.53212000  0.53105000  1.0
  C  C83  1  0.49324000  0.34019000  0.50556000  1.0
  C  C84  1  0.84919000  0.53827000  0.49727000  1.0
  C  C85  1  0.11092000  0.47793000  0.48064000  1.0
  C  C86  1  0.88299000  0.46870000  0.52563000  1.0
  C  C87  1  0.49340000  0.49894000  0.37421000  1.0
  C  C88  1  0.49681000  0.51779000  0.65125000  1.0
  C  C89  1  0.16286000  0.42948000  0.44025000  1.0
  C  C90  1  0.82814000  0.40990000  0.55259000  1.0
  C  C91  1  0.24743000  0.44124000  0.45373000  1.0
  C  C92  1  0.74508000  0.42824000  0.55063000  1.0
  C  C93  1  0.02015000  0.47522000  0.47223000  1.0
  C  C94  1  0.51482000  0.73241000  0.46233000  1.0
  C  C95  1  0.97330000  0.46269000  0.53062000  1.0
  C  C96  1  0.57584000  0.56321000  0.28111000  1.0
  C  C97  1  0.42541000  0.53021000  0.76667000  1.0
  C  C98  1  0.58528000  0.60178000  0.21532000  1.0
  C  C99  1  0.42489000  0.54294000  0.84154000  1.0
  C  C100  1  0.51590000  0.60086000  0.16566000  1.0
  C  C101  1  0.50012000  0.56874000  0.87802000  1.0
  C  C102  1  0.43908000  0.57116000  0.18798000  1.0
  C  C103  1  0.57274000  0.57211000  0.83937000  1.0
  C  C104  1  0.43040000  0.53753000  0.25423000  1.0
  C  C105  1  0.48891000  0.25683000  0.47711000  1.0
  C  C106  1  0.57245000  0.55529000  0.76702000  1.0
  C  C107  1  0.50061000  0.53158000  0.30048000  1.0
  C  C108  1  0.49729000  0.53558000  0.72993000  1.0
  C  C109  1  0.50822000  0.59607000  0.95258000  1.0
  C  C110  1  0.51959000  0.61749000  0.08985000  1.0
  C  C111  1  0.22595000  0.63523000  0.64221000  1.0
  C  C112  1  0.77734000  0.68218000  0.43865000  1.0
  C  C113  1  0.98623000  0.47394000  0.66194000  1.0
  C  C114  1  0.01469000  0.53605000  0.35318000  1.0
  C  C115  1  0.07634000  0.30960000  0.40623000  1.0
  C  C116  1  0.53854000  0.79936000  0.50621000  1.0
  C  C117  1  0.90150000  0.28347000  0.54034000  1.0
  C  C118  1  0.67242000  0.70935000  0.16106000  1.0
  C  C119  1  0.34416000  0.49716000  0.94560000  1.0
  C  C120  1  0.51288000  0.74198000  0.62628000  1.0
  C  C121  1  0.68328000  0.16611000  0.55274000  1.0
  C  C122  1  0.35550000  0.98929000  0.48062000  1.0
  C  C123  1  0.66209000  0.95601000  0.31580000  1.0
  C  C124  1  0.46618000  0.88148000  0.24052000  1.0
  C  C125  1  0.35302000  0.09826000  0.28435000  1.0
  C  C126  1  0.55175000  0.20098000  0.49199000  1.0
  C  C127  1  0.54378000  0.87301000  0.47180000  1.0
  C  C128  1  0.54159000  0.12494000  0.46013000  1.0
  C  C129  1  0.52999000  0.88322000  0.39802000  1.0
  N  N130  1  0.58989000  0.60475000  0.05551000  1.0
  N  N131  1  0.98577000  0.47594000  0.40230000  1.0
  N  N132  1  0.13498000  0.37299000  0.38765000  1.0
  N  N133  1  0.85195000  0.33696000  0.58197000  1.0
  N  N134  1  0.65962000  0.63968000  0.20493000  1.0
  N  N135  1  0.35184000  0.52715000  0.87369000  1.0
  N  N136  1  0.55534000  0.79719000  0.57998000  1.0
  N  N137  1  0.61681000  0.21962000  0.53977000  1.0
  N  N138  1  0.38948000  0.97627000  0.41066000  1.0
  N  N139  1  0.60466000  0.00271000  0.35459000  1.0
  N  N140  1  0.50299000  0.81535000  0.27900000  1.0
  N  N141  1  0.44688000  0.63472000  0.98376000  1.0
  N  N142  1  0.34408000  0.14216000  0.35136000  1.0
  N  N143  1  0.58431000  0.59476000  0.98595000  1.0
  N  N144  1  0.45285000  0.64633000  0.05379000  1.0
  N  N145  1  0.28241000  0.49351000  0.50187000  1.0
  N  N146  1  0.71298000  0.49481000  0.52341000  1.0
  N  N147  1  0.27146000  0.58849000  0.59312000  1.0
  N  N148  1  0.72939000  0.61654000  0.46586000  1.0
  N  N149  1  0.00757000  0.43498000  0.59550000  1.0
  O  O150  1  0.57176000  0.61834000  0.51621000  1.0
  O  O151  1  0.42614000  0.37687000  0.51016000  1.0
  O  O152  1  0.43600000  0.61466000  0.48427000  1.0
  O  O153  1  0.56478000  0.37163000  0.52234000  1.0
  O  O154  1  0.56034000  0.49471000  0.41207000  1.0
  O  O155  1  0.42822000  0.51993000  0.61517000  1.0
  O  O156  1  0.42172000  0.48179000  0.39427000  1.0
  O  O157  1  0.56556000  0.50207000  0.62623000  1.0
