# generated using pymatgen
data_H9PbC6S(NO)2
_symmetry_space_group_name_H-M   'P 1'
_cell_length_a   7.56371000
_cell_length_b   9.87092000
_cell_length_c   12.54850000
_cell_angle_alpha   106.14400000
_cell_angle_beta   89.99980000
_cell_angle_gamma   89.99970000
_symmetry_Int_Tables_number   1
_chemical_formula_structural   H9PbC6S(NO)2
_chemical_formula_sum   'H36 Pb4 C24 S4 N8 O8'
_cell_volume   899.93571027
_cell_formula_units_Z   4
loop_
 _symmetry_equiv_pos_site_id
 _symmetry_equiv_pos_as_xyz
  1  'x, y, z'
loop_
 _atom_site_type_symbol
 _atom_site_label
 _atom_site_symmetry_multiplicity
 _atom_site_fract_x
 _atom_site_fract_y
 _atom_site_fract_z
 _atom_site_occupancy
  H  H0  1  0.31817000  0.99212000  0.04476000  1.0
  H  H1  1  0.81817000  0.50788000  0.45523000  1.0
  H  H2  1  0.68182000  0.00788000  0.95524000  1.0
  H  H3  1  0.18183000  0.49212000  0.54477000  1.0
  H  H4  1  0.52707000  0.83202000  0.65056000  1.0
  H  H5  1  0.02708000  0.66798000  0.84945000  1.0
  H  H6  1  0.47292000  0.16798000  0.34944000  1.0
  H  H7  1  0.97292000  0.33202000  0.15056000  1.0
  H  H8  1  0.62878000  0.95176000  0.76708000  1.0
  H  H9  1  0.12878000  0.54824000  0.73292000  1.0
  H  H10  1  0.37122000  0.04823000  0.23292000  1.0
  H  H11  1  0.87122000  0.45177000  0.26708000  1.0
  H  H12  1  0.77979000  0.71092000  0.70418000  1.0
  H  H13  1  0.27979000  0.78908000  0.79582000  1.0
  H  H14  1  0.22021000  0.28908000  0.29582000  1.0
  H  H15  1  0.72021000  0.21092000  0.20419000  1.0
  H  H16  1  0.82564000  0.74522000  0.57597000  1.0
  H  H17  1  0.32564000  0.75478000  0.92403000  1.0
  H  H18  1  0.17436000  0.25478000  0.42403000  1.0
  H  H19  1  0.67436000  0.24522000  0.07597000  1.0
  H  H20  1  0.07700000  0.82212000  0.66190000  1.0
  H  H21  1  0.57700000  0.67787000  0.83810000  1.0
  H  H22  1  0.92300000  0.17788000  0.33810000  1.0
  H  H23  1  0.42300000  0.32212000  0.16190000  1.0
  H  H24  1  0.98758000  0.88640000  0.78933000  1.0
  H  H25  1  0.48758000  0.61361000  0.71067000  1.0
  H  H26  1  0.01242000  0.11360000  0.21067000  1.0
  H  H27  1  0.51241000  0.38640000  0.28933000  1.0
  H  H28  1  0.41617000  0.92200000  0.36475000  1.0
  H  H29  1  0.91617000  0.57800000  0.13525000  1.0
  H  H30  1  0.58383000  0.07799000  0.63525000  1.0
  H  H31  1  0.08383000  0.42200000  0.86475000  1.0
  H  H32  1  0.33132000  0.04977000  0.46608000  1.0
  H  H33  1  0.83132000  0.45023000  0.03392000  1.0
  H  H34  1  0.66868000  0.95023000  0.53392000  1.0
  H  H35  1  0.16868000  0.54977000  0.96608000  1.0
  Pb  Pb36  1  0.98329000  0.11584000  0.66505000  1.0
  Pb  Pb37  1  0.48330000  0.38416000  0.83495000  1.0
  Pb  Pb38  1  0.01671000  0.88416000  0.33495000  1.0
  Pb  Pb39  1  0.51671000  0.61584000  0.16505000  1.0
  C  C40  1  0.25182000  0.18413000  0.93415000  1.0
  C  C41  1  0.75182000  0.31586000  0.56584000  1.0
  C  C42  1  0.74818000  0.81587000  0.06584000  1.0
  C  C43  1  0.24818000  0.68414000  0.43416000  1.0
  C  C44  1  0.11963000  0.09066000  0.96876000  1.0
  C  C45  1  0.61963000  0.40934000  0.53123000  1.0
  C  C46  1  0.88037000  0.90934000  0.03124000  1.0
  C  C47  1  0.38037000  0.59066000  0.46876000  1.0
  C  C48  1  0.93852000  0.09743000  0.94275000  1.0
  C  C49  1  0.43852000  0.40257000  0.55725000  1.0
  C  C50  1  0.06149000  0.90257000  0.05725000  1.0
  C  C51  1  0.56149000  0.59743000  0.44275000  1.0
  C  C52  1  0.17776000  0.99579000  0.02557000  1.0
  C  C53  1  0.67775000  0.50422000  0.47443000  1.0
  C  C54  1  0.82224000  0.00422000  0.97443000  1.0
  C  C55  1  0.32225000  0.49579000  0.52557000  1.0
  C  C56  1  0.64749000  0.89450000  0.67931000  1.0
  C  C57  1  0.14750000  0.60550000  0.82069000  1.0
  C  C58  1  0.35250000  0.10550000  0.32069000  1.0
  C  C59  1  0.85250000  0.39450000  0.17931000  1.0
  C  C60  1  0.80646000  0.79571000  0.66487000  1.0
  C  C61  1  0.30646000  0.70429000  0.83513000  1.0
  C  C62  1  0.19354000  0.20429000  0.33513000  1.0
  C  C63  1  0.69354000  0.29571000  0.16487000  1.0
  S  S64  1  0.85671000  0.21977000  0.87621000  1.0
  S  S65  1  0.35671000  0.28023000  0.62379000  1.0
  S  S66  1  0.14329000  0.78023000  0.12379000  1.0
  S  S67  1  0.64329000  0.71977000  0.37621000  1.0
  N  N68  1  0.97019000  0.87201000  0.70631000  1.0
  N  N69  1  0.47020000  0.62799000  0.79369000  1.0
  N  N70  1  0.02980000  0.12799000  0.29370000  1.0
  N  N71  1  0.52980000  0.37201000  0.20631000  1.0
  N  N72  1  0.67726000  0.99934000  0.61749000  1.0
  N  N73  1  0.17727000  0.50066000  0.88251000  1.0
  N  N74  1  0.32274000  0.00066000  0.38251000  1.0
  N  N75  1  0.82274000  0.49934000  0.11749000  1.0
  O  O76  1  0.32552000  0.28068000  0.00912000  1.0
  O  O77  1  0.82551000  0.21933000  0.49089000  1.0
  O  O78  1  0.67449000  0.71933000  0.99089000  1.0
  O  O79  1  0.17449000  0.78067000  0.50911000  1.0
  O  O80  1  0.28134000  0.15951000  0.83004000  1.0
  O  O81  1  0.78134000  0.34049000  0.66996000  1.0
  O  O82  1  0.71867000  0.84048000  0.16996000  1.0
  O  O83  1  0.21866000  0.65952000  0.33004000  1.0
