# generated using pymatgen
data_DyH18C20N4Cl3
_symmetry_space_group_name_H-M   'P 1'
_cell_length_a   12.68280000
_cell_length_b   14.21670000
_cell_length_c   14.75140000
_cell_angle_alpha   90.00000000
_cell_angle_beta   90.00000000
_cell_angle_gamma   90.00000000
_symmetry_Int_Tables_number   1
_chemical_formula_structural   DyH18C20N4Cl3
_chemical_formula_sum   'Dy4 H72 C80 N16 Cl12'
_cell_volume   2659.78898130
_cell_formula_units_Z   4
loop_
 _symmetry_equiv_pos_site_id
 _symmetry_equiv_pos_as_xyz
  1  'x, y, z'
loop_
 _atom_site_type_symbol
 _atom_site_label
 _atom_site_symmetry_multiplicity
 _atom_site_fract_x
 _atom_site_fract_y
 _atom_site_fract_z
 _atom_site_occupancy
  Dy  Dy0  1  0.33567000  0.83407000  0.86386000  1.0
  Dy  Dy1  1  0.16433000  0.16593000  0.36386000  1.0
  Dy  Dy2  1  0.83567000  0.66593000  0.13614000  1.0
  Dy  Dy3  1  0.66433000  0.33407000  0.63614000  1.0
  H  H4  1  0.41543000  0.40003000  0.14172000  1.0
  H  H5  1  0.08457000  0.59997000  0.64173000  1.0
  H  H6  1  0.91543000  0.09997000  0.85827000  1.0
  H  H7  1  0.58457000  0.90003000  0.35827000  1.0
  H  H8  1  0.33535000  0.93788000  0.28835000  1.0
  H  H9  1  0.16466000  0.06212000  0.78835000  1.0
  H  H10  1  0.83535000  0.56212000  0.71165000  1.0
  H  H11  1  0.66465000  0.43788000  0.21165000  1.0
  H  H12  1  0.09468000  0.49943000  0.17610000  1.0
  H  H13  1  0.40532000  0.50057000  0.67610000  1.0
  H  H14  1  0.59468000  0.00057000  0.82390000  1.0
  H  H15  1  0.90532000  0.99943000  0.32390000  1.0
  H  H16  1  0.17695000  0.86329000  0.21681000  1.0
  H  H17  1  0.32305000  0.13671000  0.71681000  1.0
  H  H18  1  0.67695000  0.63671000  0.78319000  1.0
  H  H19  1  0.82305000  0.36329000  0.28319000  1.0
  H  H20  1  0.18157000  0.82491000  0.05230000  1.0
  H  H21  1  0.31843000  0.17509000  0.55230000  1.0
  H  H22  1  0.68157000  0.67509000  0.94770000  1.0
  H  H23  1  0.81843000  0.32491000  0.44770000  1.0
  H  H24  1  0.19219000  0.86191000  0.67138000  1.0
  H  H25  1  0.30781000  0.13809000  0.17138000  1.0
  H  H26  1  0.69219000  0.63809000  0.32862000  1.0
  H  H27  1  0.80781000  0.36191000  0.82862000  1.0
  H  H28  1  0.37147000  0.26966000  0.24786000  1.0
  H  H29  1  0.12853000  0.73034000  0.74786000  1.0
  H  H30  1  0.87147000  0.23034000  0.75214000  1.0
  H  H31  1  0.62853000  0.76966000  0.25214000  1.0
  H  H32  1  0.11974000  0.53958000  0.03131000  1.0
  H  H33  1  0.38025000  0.46042000  0.53131000  1.0
  H  H34  1  0.61974000  0.96042000  0.96869000  1.0
  H  H35  1  0.88025000  0.03958000  0.46869000  1.0
  H  H36  1  0.51318000  0.89366000  0.71027000  1.0
  H  H37  1  0.98682000  0.10634000  0.21027000  1.0
  H  H38  1  0.01318000  0.60634000  0.28974000  1.0
  H  H39  1  0.48682000  0.39366000  0.78973000  1.0
  H  H40  1  0.44445000  0.56118000  0.11857000  1.0
  H  H41  1  0.05555000  0.43882000  0.61857000  1.0
  H  H42  1  0.94444000  0.93882000  0.88143000  1.0
  H  H43  1  0.55555000  0.06118000  0.38144000  1.0
  H  H44  1  0.49613000  0.96673000  0.19054000  1.0
  H  H45  1  0.00387000  0.03327000  0.69054000  1.0
  H  H46  1  0.99613000  0.53327000  0.80946000  1.0
  H  H47  1  0.50387000  0.46673000  0.30946000  1.0
  H  H48  1  0.46757000  0.68849000  0.00736000  1.0
  H  H49  1  0.03243000  0.31151000  0.50736000  1.0
  H  H50  1  0.96757000  0.81151000  0.99264000  1.0
  H  H51  1  0.53243000  0.18849000  0.49264000  1.0
  H  H52  1  0.15597000  0.67154000  0.92393000  1.0
  H  H53  1  0.34403000  0.32846000  0.42393000  1.0
  H  H54  1  0.65597000  0.82846000  0.07607000  1.0
  H  H55  1  0.84403000  0.17154000  0.57607000  1.0
  H  H56  1  0.20516000  0.91128000  0.50828000  1.0
  H  H57  1  0.29484000  0.08872000  0.00828000  1.0
  H  H58  1  0.70516000  0.58872000  0.49172000  1.0
  H  H59  1  0.79484000  0.41128000  0.99172000  1.0
  H  H60  1  0.48595000  0.92565000  0.02581000  1.0
  H  H61  1  0.01405000  0.07435000  0.52581000  1.0
  H  H62  1  0.98595000  0.57435000  0.97419000  1.0
  H  H63  1  0.51405000  0.42565000  0.47419000  1.0
  H  H64  1  0.38086000  0.95863000  0.44743000  1.0
  H  H65  1  0.11914000  0.04137000  0.94743000  1.0
  H  H66  1  0.88086000  0.54137000  0.55257000  1.0
  H  H67  1  0.61914000  0.45863000  0.05257000  1.0
  H  H68  1  0.53968000  0.94802000  0.55071000  1.0
  H  H69  1  0.96032000  0.05198000  0.05071000  1.0
  H  H70  1  0.03968000  0.55198000  0.44929000  1.0
  H  H71  1  0.46032000  0.44802000  0.94929000  1.0
  H  H72  1  0.06423000  0.36343000  0.27760000  1.0
  H  H73  1  0.43577000  0.63657000  0.77760000  1.0
  H  H74  1  0.56423000  0.13657000  0.72240000  1.0
  H  H75  1  0.93577000  0.86343000  0.22240000  1.0
  C  C76  1  0.25851000  0.46156000  0.14903000  1.0
  C  C77  1  0.24149000  0.53844000  0.64903000  1.0
  C  C78  1  0.75851000  0.03844000  0.85097000  1.0
  C  C79  1  0.74149000  0.96156000  0.35097000  1.0
  C  C80  1  0.33675000  0.39582000  0.17126000  1.0
  C  C81  1  0.16325000  0.60418000  0.67126000  1.0
  C  C82  1  0.83675000  0.10418000  0.82874000  1.0
  C  C83  1  0.66325000  0.89582000  0.32874000  1.0
  C  C84  1  0.33666000  0.91758000  0.21707000  1.0
  C  C85  1  0.16334000  0.08243000  0.71707000  1.0
  C  C86  1  0.83666000  0.58243000  0.78293000  1.0
  C  C87  1  0.66334000  0.41757000  0.28293000  1.0
  C  C88  1  0.15907000  0.45046000  0.18934000  1.0
  C  C89  1  0.34093000  0.54954000  0.68934000  1.0
  C  C90  1  0.65907000  0.04954000  0.81066000  1.0
  C  C91  1  0.84093000  0.95046000  0.31066000  1.0
  C  C92  1  0.27874000  0.53820000  0.08410000  1.0
  C  C93  1  0.22125000  0.46180000  0.58410000  1.0
  C  C94  1  0.77875000  0.96180000  0.91590000  1.0
  C  C95  1  0.72125000  0.03820000  0.41590000  1.0
  C  C96  1  0.24789000  0.87702000  0.17747000  1.0
  C  C97  1  0.25211000  0.12298000  0.67746000  1.0
  C  C98  1  0.74789000  0.62298000  0.82253000  1.0
  C  C99  1  0.75211000  0.37702000  0.32253000  1.0
  C  C100  1  0.25009000  0.85603000  0.08529000  1.0
  C  C101  1  0.24991000  0.14397000  0.58529000  1.0
  C  C102  1  0.75009000  0.64397000  0.91471000  1.0
  C  C103  1  0.74991000  0.35603000  0.41471000  1.0
  C  C104  1  0.26813000  0.87953000  0.64117000  1.0
  C  C105  1  0.23187000  0.12047000  0.14117000  1.0
  C  C106  1  0.76813000  0.62047000  0.35883000  1.0
  C  C107  1  0.73187000  0.37953000  0.85883000  1.0
  C  C108  1  0.31241000  0.32206000  0.22933000  1.0
  C  C109  1  0.18759000  0.67794000  0.72933000  1.0
  C  C110  1  0.81241000  0.17794000  0.77067000  1.0
  C  C111  1  0.68759000  0.82206000  0.27067000  1.0
  C  C112  1  0.19794000  0.57082000  0.02753000  1.0
  C  C113  1  0.30206000  0.42918000  0.52753000  1.0
  C  C114  1  0.69794000  0.92918000  0.97247000  1.0
  C  C115  1  0.80206000  0.07082000  0.47247000  1.0
  C  C116  1  0.44713000  0.89886000  0.66321000  1.0
  C  C117  1  0.05287000  0.10114000  0.16321000  1.0
  C  C118  1  0.94713000  0.60114000  0.33679000  1.0
  C  C119  1  0.55287000  0.39886000  0.83679000  1.0
  C  C120  1  0.37780000  0.58104000  0.07604000  1.0
  C  C121  1  0.12220000  0.41896000  0.57604000  1.0
  C  C122  1  0.87780000  0.91897000  0.92396000  1.0
  C  C123  1  0.62220000  0.08104000  0.42396000  1.0
  C  C124  1  0.42498000  0.93457000  0.16293000  1.0
  C  C125  1  0.07502000  0.06543000  0.66293000  1.0
  C  C126  1  0.92498000  0.56543000  0.83707000  1.0
  C  C127  1  0.57502000  0.43457000  0.33707000  1.0
  C  C128  1  0.39139000  0.65378000  0.01426000  1.0
  C  C129  1  0.10861000  0.34622000  0.51426000  1.0
  C  C130  1  0.89139000  0.84622000  0.98574000  1.0
  C  C131  1  0.60861000  0.15378000  0.48574000  1.0
  C  C132  1  0.21812000  0.64376000  0.96749000  1.0
  C  C133  1  0.28188000  0.35624000  0.46749000  1.0
  C  C134  1  0.71812000  0.85624000  0.03251000  1.0
  C  C135  1  0.78188000  0.14376000  0.53251000  1.0
  C  C136  1  0.27533000  0.90706000  0.55085000  1.0
  C  C137  1  0.22467000  0.09294000  0.05085000  1.0
  C  C138  1  0.77533000  0.59294000  0.44915000  1.0
  C  C139  1  0.72467000  0.40706000  0.94915000  1.0
  C  C140  1  0.42027000  0.91166000  0.07132000  1.0
  C  C141  1  0.07973000  0.08834000  0.57132000  1.0
  C  C142  1  0.92027000  0.58834000  0.92868000  1.0
  C  C143  1  0.57973000  0.41166000  0.42868000  1.0
  C  C144  1  0.37377000  0.93277000  0.51679000  1.0
  C  C145  1  0.12623000  0.06723000  0.01679000  1.0
  C  C146  1  0.87377000  0.56723000  0.48321000  1.0
  C  C147  1  0.62623000  0.43277000  0.98321000  1.0
  C  C148  1  0.46121000  0.92819000  0.57400000  1.0
  C  C149  1  0.03879000  0.07181000  0.07400000  1.0
  C  C150  1  0.96121000  0.57181000  0.42600000  1.0
  C  C151  1  0.53879000  0.42819000  0.92600000  1.0
  C  C152  1  0.14136000  0.37436000  0.24651000  1.0
  C  C153  1  0.35864000  0.62564000  0.74651000  1.0
  C  C154  1  0.64136000  0.12564000  0.75349000  1.0
  C  C155  1  0.85864000  0.87436000  0.25349000  1.0
  N  N156  1  0.33447000  0.87322000  0.03229000  1.0
  N  N157  1  0.16553000  0.12678000  0.53229000  1.0
  N  N158  1  0.83447000  0.62678000  0.96771000  1.0
  N  N159  1  0.66553000  0.37322000  0.46771000  1.0
  N  N160  1  0.31307000  0.68563000  0.96068000  1.0
  N  N161  1  0.18693000  0.31437000  0.46068000  1.0
  N  N162  1  0.81307000  0.81437000  0.03932000  1.0
  N  N163  1  0.68693000  0.18563000  0.53932000  1.0
  N  N164  1  0.35205000  0.87516000  0.69706000  1.0
  N  N165  1  0.14795000  0.12484000  0.19706000  1.0
  N  N166  1  0.85205000  0.62484000  0.30294000  1.0
  N  N167  1  0.64795000  0.37516000  0.80294000  1.0
  N  N168  1  0.21598000  0.30983000  0.26597000  1.0
  N  N169  1  0.28402000  0.69017000  0.76597000  1.0
  N  N170  1  0.71598000  0.19017000  0.73403000  1.0
  N  N171  1  0.78402000  0.80983000  0.23403000  1.0
  Cl  Cl172  1  0.38915000  0.01257000  0.86660000  1.0
  Cl  Cl173  1  0.11085000  0.98743000  0.36660000  1.0
  Cl  Cl174  1  0.88916000  0.48743000  0.13340000  1.0
  Cl  Cl175  1  0.61085000  0.51257000  0.63340000  1.0
  Cl  Cl176  1  0.13206000  0.86318000  0.86147000  1.0
  Cl  Cl177  1  0.36794000  0.13682000  0.36147000  1.0
  Cl  Cl178  1  0.63206000  0.63682000  0.13853000  1.0
  Cl  Cl179  1  0.86794000  0.36318000  0.63853000  1.0
  Cl  Cl180  1  0.53151000  0.78212000  0.85885000  1.0
  Cl  Cl181  1  0.96849000  0.21788000  0.35885000  1.0
  Cl  Cl182  1  0.03151000  0.71788000  0.14115000  1.0
  Cl  Cl183  1  0.46849000  0.28212000  0.64115000  1.0
