# generated using pymatgen
data_AgB6H15C10N3
_symmetry_space_group_name_H-M   'P 1'
_cell_length_a   7.20556000
_cell_length_b   9.67894000
_cell_length_c   10.71411708
_cell_angle_alpha   112.36995480
_cell_angle_beta   105.27603491
_cell_angle_gamma   90.93860000
_symmetry_Int_Tables_number   1
_chemical_formula_structural   AgB6H15C10N3
_chemical_formula_sum   'Ag2 B12 H30 C20 N6'
_cell_volume   660.85573928
_cell_formula_units_Z   2
loop_
 _symmetry_equiv_pos_site_id
 _symmetry_equiv_pos_as_xyz
  1  'x, y, z'
loop_
 _atom_site_type_symbol
 _atom_site_label
 _atom_site_symmetry_multiplicity
 _atom_site_fract_x
 _atom_site_fract_y
 _atom_site_fract_z
 _atom_site_occupancy
  Ag  Ag0  1  0.64927000  0.74295000  0.69446000  1.0
  Ag  Ag1  1  0.35076000  0.25706000  0.30555000  1.0
  B  B2  1  0.78873000  0.56062000  0.52135000  1.0
  B  B3  1  0.21126000  0.43938000  0.47865000  1.0
  B  B4  1  0.00798000  0.62574000  0.66146000  1.0
  B  B5  1  0.99201000  0.37426000  0.33854000  1.0
  B  B6  1  0.89791000  0.43619000  0.59753000  1.0
  B  B7  1  0.10209000  0.56381000  0.40247000  1.0
  B  B8  1  0.80036000  0.37215000  0.41234000  1.0
  B  B9  1  0.19964000  0.62785000  0.58766000  1.0
  B  B10  1  0.84626000  0.52189000  0.36133000  1.0
  B  B11  1  0.15373000  0.47811000  0.63866000  1.0
  B  B12  1  0.97446000  0.67915000  0.51525000  1.0
  B  B13  1  0.02554000  0.32085000  0.48475000  1.0
  H  H14  1  0.79034000  0.14326000  0.11792000  1.0
  H  H15  1  0.20964000  0.85674000  0.88207000  1.0
  H  H16  1  0.45598000  0.95258000  0.57171000  1.0
  H  H17  1  0.54401000  0.04743000  0.42828000  1.0
  H  H18  1  0.40436000  0.22158000  0.62100000  1.0
  H  H19  1  0.59563000  0.77842000  0.37900000  1.0
  H  H20  1  0.52084000  0.41025000  0.87277000  1.0
  H  H21  1  0.47916000  0.58975000  0.12724000  1.0
  H  H22  1  0.68044000  0.32310000  0.06135000  1.0
  H  H23  1  0.31956000  0.67689000  0.93866000  1.0
  H  H24  1  0.91901000  0.04723000  0.26586000  1.0
  H  H25  1  0.08100000  0.95277000  0.73414000  1.0
  H  H26  1  0.01085000  0.81944000  0.31106000  1.0
  H  H27  1  0.98917000  0.18057000  0.68894000  1.0
  H  H28  1  0.93528000  0.56743000  0.10623000  1.0
  H  H29  1  0.06476000  0.43258000  0.89379000  1.0
  H  H30  1  0.77810000  0.55759000  0.86431000  1.0
  H  H31  1  0.22190000  0.44240000  0.13570000  1.0
  H  H32  1  0.62174000  0.59489000  0.51681000  1.0
  H  H33  1  0.37825000  0.40511000  0.48319000  1.0
  H  H34  1  0.01648000  0.71348000  0.77817000  1.0
  H  H35  1  0.98351000  0.28652000  0.22183000  1.0
  H  H36  1  0.82397000  0.39093000  0.66518000  1.0
  H  H37  1  0.17602000  0.60907000  0.33482000  1.0
  H  H38  1  0.65958000  0.27796000  0.34648000  1.0
  H  H39  1  0.34042000  0.72203000  0.65352000  1.0
  H  H40  1  0.73500000  0.53464000  0.26259000  1.0
  H  H41  1  0.26499000  0.46536000  0.73741000  1.0
  H  H42  1  0.95402000  0.80563000  0.52595000  1.0
  H  H43  1  0.04598000  0.19437000  0.47405000  1.0
  C  C44  1  0.50825000  0.03992000  0.67825000  1.0
  C  C45  1  0.49174000  0.96009000  0.32174000  1.0
  C  C46  1  0.47950000  0.18824000  0.70539000  1.0
  C  C47  1  0.52049000  0.81175000  0.29460000  1.0
  C  C48  1  0.54394000  0.29278000  0.84603000  1.0
  C  C49  1  0.45605000  0.70721000  0.15397000  1.0
  C  C50  1  0.63201000  0.24499000  0.95070000  1.0
  C  C51  1  0.36798000  0.75500000  0.04929000  1.0
  C  C52  1  0.65724000  0.09116000  0.91355000  1.0
  C  C53  1  0.34276000  0.90883000  0.08644000  1.0
  C  C54  1  0.79464000  0.92008000  0.04019000  1.0
  C  C55  1  0.20536000  0.07991000  0.95981000  1.0
  C  C56  1  0.88927000  0.93619000  0.17952000  1.0
  C  C57  1  0.11074000  0.06382000  0.82049000  1.0
  C  C58  1  0.94064000  0.81009000  0.20430000  1.0
  C  C59  1  0.05937000  0.18992000  0.79570000  1.0
  C  C60  1  0.89911000  0.66934000  0.09043000  1.0
  C  C61  1  0.10092000  0.33067000  0.90959000  1.0
  C  C62  1  0.80935000  0.66355000  0.95711000  1.0
  C  C63  1  0.19065000  0.33644000  0.04289000  1.0
  N  N64  1  0.59724000  0.99072000  0.77867000  1.0
  N  N65  1  0.40275000  0.00927000  0.22131000  1.0
  N  N66  1  0.75610000  0.78533000  0.93056000  1.0
  N  N67  1  0.24390000  0.21466000  0.06944000  1.0
  N  N68  1  0.74467000  0.05137000  0.02429000  1.0
  N  N69  1  0.25533000  0.94862000  0.97570000  1.0
