# generated using pymatgen
data_Th8As12H74C72S12O83
_symmetry_space_group_name_H-M   'P 1'
_cell_length_a   15.06040000
_cell_length_b   15.91500000
_cell_length_c   17.72850000
_cell_angle_alpha   108.48500000
_cell_angle_beta   109.10900000
_cell_angle_gamma   101.27600000
_symmetry_Int_Tables_number   1
_chemical_formula_structural   Th8As12H74C72S12O83
_chemical_formula_sum   'Th8 As12 H74 C72 S12 O83'
_cell_volume   3589.27389556
_cell_formula_units_Z   1
loop_
 _symmetry_equiv_pos_site_id
 _symmetry_equiv_pos_as_xyz
  1  'x, y, z'
loop_
 _atom_site_type_symbol
 _atom_site_label
 _atom_site_symmetry_multiplicity
 _atom_site_fract_x
 _atom_site_fract_y
 _atom_site_fract_z
 _atom_site_occupancy
  Th  Th0  1  0.60519000  0.54105000  0.45137000  1.0
  Th  Th1  1  0.39481000  0.45895000  0.54863000  1.0
  Th  Th2  1  0.43104000  0.28376000  0.21850000  1.0
  Th  Th3  1  0.56897000  0.71624000  0.78151000  1.0
  Th  Th4  1  0.83362000  0.53958000  0.67701000  1.0
  Th  Th5  1  0.16639000  0.46042000  0.32299000  1.0
  Th  Th6  1  0.52309000  0.78966000  0.47890000  1.0
  Th  Th7  1  0.47690000  0.21034000  0.52110000  1.0
  As  As8  1  0.64358000  0.34037000  0.44513000  1.0
  As  As9  1  0.35642000  0.65963000  0.55487000  1.0
  As  As10  1  0.40359000  0.53034000  0.29221000  1.0
  As  As11  1  0.59641000  0.46966000  0.70779000  1.0
  As  As12  1  0.71424000  0.72820000  0.64236000  1.0
  As  As13  1  0.28576000  0.27180000  0.35764000  1.0
  As  As14  1  0.17940000  0.29507000  0.12155000  1.0
  As  As15  1  0.82060000  0.70492000  0.87845000  1.0
  As  As16  1  0.39770000  0.07407000  0.27687000  1.0
  As  As17  1  0.60231000  0.92593000  0.72313000  1.0
  As  As18  1  0.76027000  0.28607000  0.65649000  1.0
  As  As19  1  0.23973000  0.71393000  0.34352000  1.0
  H  H20  1  0.65271000  0.27636000  0.23333000  1.0
  H  H21  1  0.34728000  0.72363000  0.76665000  1.0
  H  H22  1  0.57942000  0.18068000  0.21768000  1.0
  H  H23  1  0.42057000  0.81931000  0.78230000  1.0
  H  H24  1  0.37000000  0.16626000  0.02777000  1.0
  H  H25  1  0.63000000  0.83374000  0.97223000  1.0
  H  H26  1  0.48570000  0.20847000  0.06202000  1.0
  H  H27  1  0.51430000  0.79152000  0.93798000  1.0
  H  H28  1  0.05304000  0.51048000  0.74740000  1.0
  H  H29  1  0.94696000  0.48951000  0.25260000  1.0
  H  H30  1  0.04484000  0.49829000  0.65165000  1.0
  H  H31  1  0.95516000  0.50171000  0.34835000  1.0
  H  H32  1  0.00595000  0.71847000  0.79503000  1.0
  H  H33  1  0.99405000  0.28153000  0.20497000  1.0
  H  H34  1  0.03516000  0.65581000  0.72647000  1.0
  H  H35  1  0.96484000  0.34418000  0.27353000  1.0
  H  H36  1  0.46589000  0.73259000  0.27473000  1.0
  H  H37  1  0.53411000  0.26741000  0.72528000  1.0
  H  H38  1  0.58252000  0.76276000  0.32131000  1.0
  H  H39  1  0.41747000  0.23724000  0.67869000  1.0
  H  H40  1  0.66377000  0.15666000  0.38153000  1.0
  H  H41  1  0.33623000  0.84333000  0.61847000  1.0
  H  H42  1  0.96602000  0.37695000  0.40450000  1.0
  H  H43  1  0.03397000  0.62305000  0.59550000  1.0
  H  H44  1  0.27209000  0.57992000  0.16695000  1.0
  H  H45  1  0.72790000  0.42008000  0.83305000  1.0
  H  H46  1  0.54596000  0.55252000  0.07279000  1.0
  H  H47  1  0.45402000  0.44747000  0.92720000  1.0
  H  H48  1  0.88070000  0.85559000  0.80764000  1.0
  H  H49  1  0.11929000  0.14442000  0.19236000  1.0
  H  H50  1  0.96726000  0.92956000  0.58284000  1.0
  H  H51  1  0.03274000  0.07043000  0.41715000  1.0
  H  H52  1  0.18514000  0.14768000  0.07283000  1.0
  H  H53  1  0.81486000  0.85231000  0.92717000  1.0
  H  H54  1  0.45755000  0.97340000  0.32592000  1.0
  H  H55  1  0.54245000  0.02660000  0.67408000  1.0
  H  H56  1  0.78599000  0.09462000  0.33527000  1.0
  H  H57  1  0.21402000  0.90537000  0.66473000  1.0
  H  H58  1  0.78944000  0.24709000  0.77358000  1.0
  H  H59  1  0.21055000  0.75291000  0.22643000  1.0
  H  H60  1  0.93737000  0.20590000  0.34668000  1.0
  H  H61  1  0.06264000  0.79409000  0.65332000  1.0
  H  H62  1  0.26875000  0.60929000  0.03595000  1.0
  H  H63  1  0.73124000  0.39070000  0.96404000  1.0
  H  H64  1  0.40622000  0.59536000  0.98858000  1.0
  H  H65  1  0.59377000  0.40463000  0.01141000  1.0
  H  H66  1  0.04585000  0.97101000  0.85229000  1.0
  H  H67  1  0.95414000  0.02901000  0.14771000  1.0
  H  H68  1  0.08717000  0.01180000  0.74060000  1.0
  H  H69  1  0.91282000  0.98819000  0.25939000  1.0
  H  H70  1  0.24097000  0.32942000  0.99609000  1.0
  H  H71  1  0.75903000  0.67057000  0.00390000  1.0
  H  H72  1  0.24821000  0.97651000  0.30894000  1.0
  H  H73  1  0.75181000  0.02349000  0.69106000  1.0
  H  H74  1  0.07359000  0.90094000  0.99276000  1.0
  H  H75  1  0.92641000  0.09906000  0.00724000  1.0
  H  H76  1  0.94012000  0.30367000  0.63218000  1.0
  H  H77  1  0.05987000  0.69633000  0.36782000  1.0
  H  H78  1  0.07183000  0.59264000  0.06001000  1.0
  H  H79  1  0.92817000  0.40736000  0.93999000  1.0
  H  H80  1  0.24584000  0.04019000  0.52726000  1.0
  H  H81  1  0.75417000  0.95982000  0.47275000  1.0
  H  H82  1  0.17363000  0.37502000  0.87202000  1.0
  H  H83  1  0.82637000  0.62498000  0.12798000  1.0
  H  H84  1  0.07270000  0.86782000  0.22461000  1.0
  H  H85  1  0.92731000  0.13219000  0.77540000  1.0
  H  H86  1  0.98457000  0.83395000  0.06629000  1.0
  H  H87  1  0.01544000  0.16605000  0.93372000  1.0
  H  H88  1  0.01937000  0.19587000  0.56501000  1.0
  H  H89  1  0.98063000  0.80415000  0.43500000  1.0
  H  H90  1  0.98602000  0.58833000  0.15692000  1.0
  H  H91  1  0.01398000  0.41167000  0.84308000  1.0
  H  H92  1  0.07482000  0.97695000  0.51512000  1.0
  H  H93  1  0.92519000  0.02305000  0.48489000  1.0
  C  C94  1  0.74479000  0.30067000  0.41436000  1.0
  C  C95  1  0.25520000  0.69932000  0.58564000  1.0
  C  C96  1  0.82925000  0.36319000  0.42036000  1.0
  C  C97  1  0.17075000  0.63681000  0.57964000  1.0
  C  C98  1  0.40913000  0.54848000  0.19081000  1.0
  C  C99  1  0.59086000  0.45152000  0.80918000  1.0
  C  C100  1  0.48550000  0.53887000  0.16348000  1.0
  C  C101  1  0.51450000  0.46114000  0.83652000  1.0
  C  C102  1  0.83346000  0.82656000  0.67022000  1.0
  C  C103  1  0.16654000  0.17344000  0.32977000  1.0
  C  C104  1  0.85805000  0.84630000  0.60644000  1.0
  C  C105  1  0.14195000  0.15370000  0.39356000  1.0
  C  C106  1  0.72932000  0.20412000  0.38478000  1.0
  C  C107  1  0.27068000  0.79587000  0.61522000  1.0
  C  C108  1  0.89898000  0.32841000  0.39724000  1.0
  C  C109  1  0.10102000  0.67158000  0.60276000  1.0
  C  C110  1  0.33147000  0.57407000  0.14536000  1.0
  C  C111  1  0.66852000  0.42594000  0.85464000  1.0
  C  C112  1  0.48457000  0.55744000  0.09152000  1.0
  C  C113  1  0.51542000  0.44255000  0.90848000  1.0
  C  C114  1  0.89983000  0.87219000  0.75863000  1.0
  C  C115  1  0.10017000  0.12782000  0.24137000  1.0
  C  C116  1  0.94881000  0.91464000  0.63272000  1.0
  C  C117  1  0.05118000  0.08536000  0.36728000  1.0
  C  C118  1  0.12201000  0.34264000  0.03602000  1.0
  C  C119  1  0.87798000  0.65735000  0.96397000  1.0
  C  C120  1  0.26019000  0.99582000  0.19761000  1.0
  C  C121  1  0.73981000  0.00419000  0.80240000  1.0
  C  C122  1  0.21141000  0.97457000  0.10835000  1.0
  C  C123  1  0.78859000  0.02543000  0.89166000  1.0
  C  C124  1  0.79851000  0.16994000  0.35956000  1.0
  C  C125  1  0.20149000  0.83005000  0.64044000  1.0
  C  C126  1  0.80490000  0.19186000  0.59214000  1.0
  C  C127  1  0.19510000  0.80816000  0.40787000  1.0
  C  C128  1  0.96538000  0.63404000  0.97869000  1.0
  C  C129  1  0.03462000  0.36596000  0.02132000  1.0
  C  C130  1  0.88304000  0.23189000  0.36613000  1.0
  C  C131  1  0.11696000  0.76811000  0.63387000  1.0
  C  C132  1  0.24744000  0.90464000  0.45345000  1.0
  C  C133  1  0.75256000  0.09536000  0.54655000  1.0
  C  C134  1  0.33015000  0.59080000  0.07219000  1.0
  C  C135  1  0.66984000  0.40919000  0.92781000  1.0
  C  C136  1  0.40699000  0.58277000  0.04574000  1.0
  C  C137  1  0.59300000  0.41722000  0.95425000  1.0
  C  C138  1  0.99213000  0.93788000  0.78385000  1.0
  C  C139  1  0.00787000  0.06212000  0.21615000  1.0
  C  C140  1  0.01563000  0.95984000  0.72102000  1.0
  C  C141  1  0.98437000  0.04016000  0.27897000  1.0
  C  C142  1  0.17198000  0.34592000  0.98244000  1.0
  C  C143  1  0.82801000  0.65408000  0.01756000  1.0
  C  C144  1  0.20987000  0.95805000  0.23943000  1.0
  C  C145  1  0.79014000  0.04196000  0.76058000  1.0
  C  C146  1  0.11177000  0.91669000  0.06184000  1.0
  C  C147  1  0.88823000  0.08331000  0.93817000  1.0
  C  C148  1  0.90075000  0.22814000  0.59842000  1.0
  C  C149  1  0.09924000  0.77186000  0.40157000  1.0
  C  C150  1  0.00355000  0.60987000  0.04866000  1.0
  C  C151  1  0.99645000  0.39013000  0.95134000  1.0
  C  C152  1  0.20413000  0.96521000  0.49233000  1.0
  C  C153  1  0.79588000  0.03480000  0.50769000  1.0
  C  C154  1  0.13368000  0.37121000  0.91290000  1.0
  C  C155  1  0.86632000  0.62879000  0.08710000  1.0
  C  C156  1  0.11144000  0.89750000  0.19181000  1.0
  C  C157  1  0.88856000  0.10250000  0.80820000  1.0
  C  C158  1  0.06238000  0.87798000  0.10351000  1.0
  C  C159  1  0.93762000  0.12202000  0.89650000  1.0
  C  C160  1  0.94462000  0.16760000  0.56009000  1.0
  C  C161  1  0.05539000  0.83241000  0.43991000  1.0
  C  C162  1  0.95447000  0.60776000  0.10300000  1.0
  C  C163  1  0.04553000  0.39223000  0.89700000  1.0
  C  C164  1  0.10793000  0.92873000  0.48476000  1.0
  C  C165  1  0.89208000  0.07128000  0.51524000  1.0
  S  S166  1  0.84679000  0.48634000  0.45517000  1.0
  S  S167  1  0.15321000  0.51366000  0.54483000  1.0
  S  S168  1  0.58524000  0.50406000  0.21830000  1.0
  S  S169  1  0.41476000  0.49595000  0.78169000  1.0
  S  S170  1  0.78161000  0.78069000  0.49151000  1.0
  S  S171  1  0.21839000  0.21931000  0.50848000  1.0
  S  S172  1  0.27265000  0.01986000  0.05159000  1.0
  S  S173  1  0.72735000  0.98014000  0.94841000  1.0
  S  S174  1  0.02812000  0.63221000  0.90868000  1.0
  S  S175  1  0.97189000  0.36779000  0.09132000  1.0
  S  S176  1  0.37014000  0.95073000  0.46389000  1.0
  S  S177  1  0.62988000  0.04929000  0.53614000  1.0
  O  O178  1  0.56288000  0.36180000  0.36408000  1.0
  O  O179  1  0.43712000  0.63820000  0.63593000  1.0
  O  O180  1  0.68644000  0.44716000  0.53215000  1.0
  O  O181  1  0.31356000  0.55284000  0.46786000  1.0
  O  O182  1  0.74707000  0.48910000  0.41072000  1.0
  O  O183  1  0.25294000  0.51089000  0.58928000  1.0
  O  O184  1  0.48853000  0.62333000  0.38959000  1.0
  O  O185  1  0.51147000  0.37667000  0.61042000  1.0
  O  O186  1  0.44477000  0.44210000  0.31049000  1.0
  O  O187  1  0.55522000  0.55789000  0.68950000  1.0
  O  O188  1  0.61352000  0.55971000  0.31183000  1.0
  O  O189  1  0.38647000  0.44029000  0.68817000  1.0
  O  O190  1  0.61155000  0.70008000  0.54733000  1.0
  O  O191  1  0.38845000  0.29992000  0.45267000  1.0
  O  O192  1  0.73364000  0.62096000  0.61088000  1.0
  O  O193  1  0.26636000  0.37904000  0.38911000  1.0
  O  O194  1  0.75725000  0.68232000  0.48083000  1.0
  O  O195  1  0.24275000  0.31768000  0.51916000  1.0
  O  O196  1  0.50000000  0.50000000  0.50000000  1.0
  O  O197  1  0.54046000  0.40176000  0.19399000  1.0
  O  O198  1  0.45954000  0.59824000  0.80601000  1.0
  O  O199  1  0.30233000  0.32212000  0.13930000  1.0
  O  O200  1  0.69767000  0.67788000  0.86070000  1.0
  O  O201  1  0.46125000  0.15570000  0.25350000  1.0
  O  O202  1  0.53875000  0.84430000  0.74651000  1.0
  O  O203  1  0.29037000  0.12537000  0.09313000  1.0
  O  O204  1  0.70964000  0.87462000  0.90688000  1.0
  O  O205  1  0.58540000  0.23156000  0.19775000  1.0
  O  O206  1  0.41460000  0.76843000  0.80224000  1.0
  O  O207  1  0.42589000  0.22546000  0.05770000  1.0
  O  O208  1  0.57410000  0.77454000  0.94229000  1.0
  O  O209  1  0.31525000  0.24355000  0.27053000  1.0
  O  O210  1  0.68475000  0.75645000  0.72947000  1.0
  O  O211  1  0.58428000  0.25334000  0.46368000  1.0
  O  O212  1  0.41572000  0.74666000  0.53632000  1.0
  O  O213  1  0.88216000  0.52611000  0.55183000  1.0
  O  O214  1  0.11784000  0.47389000  0.44817000  1.0
  O  O215  1  0.82165000  0.38415000  0.65153000  1.0
  O  O216  1  0.17836000  0.61585000  0.34848000  1.0
  O  O217  1  0.01999000  0.52269000  0.69685000  1.0
  O  O218  1  0.98001000  0.47731000  0.30315000  1.0
  O  O219  1  0.98663000  0.68822000  0.73090000  1.0
  O  O220  1  0.01337000  0.31178000  0.26910000  1.0
  O  O221  1  0.71624000  0.48658000  0.72267000  1.0
  O  O222  1  0.28376000  0.51343000  0.27732000  1.0
  O  O223  1  0.83990000  0.67298000  0.78645000  1.0
  O  O224  1  0.16010000  0.32702000  0.21355000  1.0
  O  O225  1  0.95312000  0.55474000  0.82240000  1.0
  O  O226  1  0.04688000  0.44526000  0.17760000  1.0
  O  O227  1  0.92110000  0.52826000  0.43032000  1.0
  O  O228  1  0.07890000  0.47174000  0.56968000  1.0
  O  O229  1  0.69079000  0.80906000  0.47159000  1.0
  O  O230  1  0.30921000  0.19094000  0.52841000  1.0
  O  O231  1  0.52490000  0.77921000  0.32596000  1.0
  O  O232  1  0.47510000  0.22079000  0.67405000  1.0
  O  O233  1  0.61194000  0.88059000  0.62607000  1.0
  O  O234  1  0.38806000  0.11940000  0.37393000  1.0
  O  O235  1  0.36098000  0.73306000  0.36231000  1.0
  O  O236  1  0.63902000  0.26695000  0.63770000  1.0
  O  O237  1  0.43045000  0.90928000  0.51537000  1.0
  O  O238  1  0.56956000  0.09072000  0.48464000  1.0
  O  O239  1  0.60113000  0.94728000  0.48594000  1.0
  O  O240  1  0.39887000  0.05272000  0.51407000  1.0
  O  O241  1  0.66159000  0.52318000  0.18777000  1.0
  O  O242  1  0.33840000  0.47683000  0.81223000  1.0
  O  O243  1  0.83915000  0.80578000  0.44585000  1.0
  O  O244  1  0.16084000  0.19422000  0.55415000  1.0
  O  O245  1  0.12700000  0.17166000  0.06868000  1.0
  O  O246  1  0.87301000  0.82834000  0.93132000  1.0
  O  O247  1  0.47061000  0.00024000  0.28585000  1.0
  O  O248  1  0.52939000  0.99975000  0.71416000  1.0
  O  O249  1  0.20259000  0.98075000  0.96038000  1.0
  O  O250  1  0.79741000  0.01926000  0.03962000  1.0
  O  O251  1  0.36672000  0.00220000  0.07202000  1.0
  O  O252  1  0.63328000  0.99779000  0.92798000  1.0
  O  O253  1  0.82076000  0.30343000  0.76787000  1.0
  O  O254  1  0.17923000  0.69657000  0.23214000  1.0
  O  O255  1  0.11666000  0.60872000  0.94358000  1.0
  O  O256  1  0.88334000  0.39128000  0.05641000  1.0
  O  O257  1  0.04561000  0.72431000  0.90475000  1.0
  O  O258  1  0.95439000  0.27569000  0.09525000  1.0
  O  O259  1  0.36417000  0.92233000  0.37507000  1.0
  O  O260  1  0.63584000  0.07768000  0.62493000  1.0
