# generated using pymatgen
data_Ag2H11C14(NO2)3
_symmetry_space_group_name_H-M   'P 1'
_cell_length_a   8.23922000
_cell_length_b   10.01450000
_cell_length_c   10.28960000
_cell_angle_alpha   65.36420000
_cell_angle_beta   77.70430000
_cell_angle_gamma   79.68930000
_symmetry_Int_Tables_number   1
_chemical_formula_structural   Ag2H11C14(NO2)3
_chemical_formula_sum   'Ag4 H22 C28 N6 O12'
_cell_volume   750.12888122
_cell_formula_units_Z   2
loop_
 _symmetry_equiv_pos_site_id
 _symmetry_equiv_pos_as_xyz
  1  'x, y, z'
loop_
 _atom_site_type_symbol
 _atom_site_label
 _atom_site_symmetry_multiplicity
 _atom_site_fract_x
 _atom_site_fract_y
 _atom_site_fract_z
 _atom_site_occupancy
  Ag  Ag0  1  0.77364000  0.29606000  0.18855000  1.0
  Ag  Ag1  1  0.22636000  0.70394000  0.81145000  1.0
  Ag  Ag2  1  0.91161000  0.62702000  0.02072000  1.0
  Ag  Ag3  1  0.08838000  0.37298000  0.97928000  1.0
  H  H4  1  0.59193000  0.80131000  0.65952000  1.0
  H  H5  1  0.40807000  0.19869000  0.34048000  1.0
  H  H6  1  0.87645000  0.41864000  0.60431000  1.0
  H  H7  1  0.12356000  0.58136000  0.39569000  1.0
  H  H8  1  0.54671000  0.69516000  0.30325000  1.0
  H  H9  1  0.45329000  0.30484000  0.69675000  1.0
  H  H10  1  0.48859000  0.24953000  0.06201000  1.0
  H  H11  1  0.51141000  0.75047000  0.93799000  1.0
  H  H12  1  0.53268000  0.21870000  0.89920000  1.0
  H  H13  1  0.46732000  0.78130000  0.10080000  1.0
  H  H14  1  0.65667000  0.33114000  0.92594000  1.0
  H  H15  1  0.34333000  0.66886000  0.07406000  1.0
  H  H16  1  0.66350000  0.97323000  0.93371000  1.0
  H  H17  1  0.33650000  0.02677000  0.06629000  1.0
  H  H18  1  0.99773000  0.76200000  0.22466000  1.0
  H  H19  1  0.00227000  0.23800000  0.77534000  1.0
  H  H20  1  0.08239000  0.07550000  0.25859000  1.0
  H  H21  1  0.91761000  0.92451000  0.74141000  1.0
  H  H22  1  0.07022000  0.88221000  0.36230000  1.0
  H  H23  1  0.92978000  0.11779000  0.63770000  1.0
  H  H24  1  0.91250000  0.01426000  0.39831000  1.0
  H  H25  1  0.08749000  0.98574000  0.60169000  1.0
  C  C26  1  0.55869000  0.75839000  0.47750000  1.0
  C  C27  1  0.44131000  0.24161000  0.52250000  1.0
  C  C28  1  0.62639000  0.72921000  0.60103000  1.0
  C  C29  1  0.37362000  0.27079000  0.39897000  1.0
  C  C30  1  0.74456000  0.60715000  0.64554000  1.0
  C  C31  1  0.25544000  0.39285000  0.35446000  1.0
  C  C32  1  0.78713000  0.51564000  0.56883000  1.0
  C  C33  1  0.21288000  0.48436000  0.43117000  1.0
  C  C34  1  0.71714000  0.54601000  0.44588000  1.0
  C  C35  1  0.28286000  0.45399000  0.55413000  1.0
  C  C36  1  0.60307000  0.67041000  0.39803000  1.0
  C  C37  1  0.39693000  0.32959000  0.60196000  1.0
  C  C38  1  0.82409000  0.57218000  0.77619000  1.0
  C  C39  1  0.17591000  0.42782000  0.22381000  1.0
  C  C40  1  0.76067000  0.44033000  0.37167000  1.0
  C  C41  1  0.23933000  0.55968000  0.62833000  1.0
  C  C42  1  0.58946000  0.23197000  0.97952000  1.0
  C  C43  1  0.41054000  0.76803000  0.02048000  1.0
  C  C44  1  0.70669000  0.10035000  0.04708000  1.0
  C  C45  1  0.29330000  0.89965000  0.95292000  1.0
  C  C46  1  0.72869000  0.97512000  0.01449000  1.0
  C  C47  1  0.27131000  0.02488000  0.98551000  1.0
  C  C48  1  0.91465000  0.85996000  0.17414000  1.0
  C  C49  1  0.08535000  0.14004000  0.82586000  1.0
  C  C50  1  0.89971000  0.98388000  0.20806000  1.0
  C  C51  1  0.10029000  0.01612000  0.79194000  1.0
  C  C52  1  0.99730000  0.98814000  0.31218000  1.0
  C  C53  1  0.00270000  0.01186000  0.68782000  1.0
  N  N54  1  0.79543000  0.10342000  0.14217000  1.0
  N  N55  1  0.20457000  0.89658000  0.85783000  1.0
  N  N56  1  0.83250000  0.85610000  0.07687000  1.0
  N  N57  1  0.16751000  0.14390000  0.92313000  1.0
  N  N58  1  0.43430000  0.88485000  0.43017000  1.0
  N  N59  1  0.56570000  0.11515000  0.56983000  1.0
  O  O60  1  0.70230000  0.48174000  0.25110000  1.0
  O  O61  1  0.29770000  0.51827000  0.74889000  1.0
  O  O62  1  0.84476000  0.31999000  0.42893000  1.0
  O  O63  1  0.15524000  0.68001000  0.57107000  1.0
  O  O64  1  0.91130000  0.44774000  0.82022000  1.0
  O  O65  1  0.08870000  0.55226000  0.17978000  1.0
  O  O66  1  0.79482000  0.66751000  0.83222000  1.0
  O  O67  1  0.20518000  0.33249000  0.16779000  1.0
  O  O68  1  0.35634000  0.93378000  0.52100000  1.0
  O  O69  1  0.64366000  0.06621000  0.47900000  1.0
  O  O70  1  0.41321000  0.93770000  0.30124000  1.0
  O  O71  1  0.58679000  0.06230000  0.69877000  1.0
