# generated using pymatgen
data_Zn2H12C27(NO5)2
_symmetry_space_group_name_H-M   'P 1'
_cell_length_a   9.88031000
_cell_length_b   10.96350000
_cell_length_c   11.86650000
_cell_angle_alpha   90.12040000
_cell_angle_beta   89.63370000
_cell_angle_gamma   89.70320000
_symmetry_Int_Tables_number   1
_chemical_formula_structural   Zn2H12C27(NO5)2
_chemical_formula_sum   'Zn2 H12 C27 N2 O10'
_cell_volume   1285.36581033
_cell_formula_units_Z   1
loop_
 _symmetry_equiv_pos_site_id
 _symmetry_equiv_pos_as_xyz
  1  'x, y, z'
loop_
 _atom_site_type_symbol
 _atom_site_label
 _atom_site_symmetry_multiplicity
 _atom_site_fract_x
 _atom_site_fract_y
 _atom_site_fract_z
 _atom_site_occupancy
  Zn  Zn0  1  0.35584000  0.49502000  0.50120000  1.0
  Zn  Zn1  1  0.65024000  0.49220000  0.50407000  1.0
  H  H2  1  0.54409000  0.86554000  0.66433000  1.0
  H  H3  1  0.12638000  0.82974000  0.74827000  1.0
  H  H4  1  0.25429000  0.67781000  0.63515000  1.0
  H  H5  1  0.13312000  0.35711000  0.40061000  1.0
  H  H6  1  0.43786000  0.78399000  0.27739000  1.0
  H  H7  1  0.39792000  0.91233000  0.11025000  1.0
  H  H8  1  0.39649000  0.14004000  0.12761000  1.0
  H  H9  1  0.43749000  0.23758000  0.31110000  1.0
  H  H10  1  0.87658000  0.35735000  0.40052000  1.0
  H  H11  1  0.74885000  0.67259000  0.64218000  1.0
  H  H12  1  0.87353000  0.82609000  0.75287000  1.0
  H  H13  1  0.59470000  0.07463000  0.86212000  1.0
  C  C14  1  0.49235000  0.72882000  0.48583000  1.0
  C  C15  1  0.41618000  0.95504000  0.19183000  1.0
  C  C16  1  0.41576000  0.08364000  0.20150000  1.0
  C  C17  1  0.43929000  0.13844000  0.30415000  1.0
  C  C18  1  0.46479000  0.06705000  0.40179000  1.0
  C  C19  1  0.46383000  0.93647000  0.39191000  1.0
  C  C20  1  0.49270000  0.86547000  0.48948000  1.0
  C  C21  1  0.52116000  0.92095000  0.59079000  1.0
  C  C22  1  0.51896000  0.04971000  0.60185000  1.0
  C  C23  1  0.49196000  0.12204000  0.50827000  1.0
  C  C24  1  0.85854000  0.67392000  0.64122000  1.0
  C  C25  1  0.51062000  0.50460000  0.72085000  1.0
  C  C26  1  0.92914000  0.75929000  0.70219000  1.0
  C  C27  1  0.07228000  0.76138000  0.69948000  1.0
  C  C28  1  0.14454000  0.67773000  0.63627000  1.0
  C  C29  1  0.07513000  0.58904000  0.57240000  1.0
  C  C30  1  0.92944000  0.58762000  0.57420000  1.0
  C  C31  1  0.93270000  0.42361000  0.45028000  1.0
  C  C32  1  0.07552000  0.42374000  0.44997000  1.0
  C  C33  1  0.49382000  0.25950000  0.51330000  1.0
  C  C34  1  0.51191000  0.48321000  0.28346000  1.0
  C  C35  1  0.50577000  0.50436000  0.84244000  1.0
  C  C36  1  0.50675000  0.50159000  0.94548000  1.0
  C  C37  1  0.50862000  0.49595000  0.05901000  1.0
  C  C38  1  0.51146000  0.48947000  0.16194000  1.0
  C  C39  1  0.43902000  0.88303000  0.28504000  1.0
  C  C40  1  0.54318000  0.10789000  0.71263000  1.0
  N  N41  1  0.86146000  0.50329000  0.51086000  1.0
  N  N42  1  0.14486000  0.50453000  0.50926000  1.0
  O  O43  1  0.38117000  0.67651000  0.46314000  1.0
  O  O44  1  0.60313000  0.67583000  0.50944000  1.0
  O  O45  1  0.39953000  0.52460000  0.66992000  1.0
  O  O46  1  0.62633000  0.48653000  0.67655000  1.0
  O  O47  1  0.37965000  0.31220000  0.52400000  1.0
  O  O48  1  0.60834000  0.30916000  0.49756000  1.0
  O  O49  1  0.39815000  0.46187000  0.33055000  1.0
  O  O50  1  0.62560000  0.49980000  0.33104000  1.0
  O  O51  1  0.52925000  0.21636000  0.73397000  1.0
  O  O52  1  0.58313000  0.02609000  0.79348000  1.0
