# generated using pymatgen
data_CuH14C10IN4
_symmetry_space_group_name_H-M   'P 1'
_cell_length_a   8.14541000
_cell_length_b   8.55277000
_cell_length_c   19.42270000
_cell_angle_alpha   90.00000000
_cell_angle_beta   90.00000000
_cell_angle_gamma   114.05200000
_symmetry_Int_Tables_number   1
_chemical_formula_structural   CuH14C10IN4
_chemical_formula_sum   'Cu4 H56 C40 I4 N16'
_cell_volume   1235.61680043
_cell_formula_units_Z   4
loop_
 _symmetry_equiv_pos_site_id
 _symmetry_equiv_pos_as_xyz
  1  'x, y, z'
loop_
 _atom_site_type_symbol
 _atom_site_label
 _atom_site_symmetry_multiplicity
 _atom_site_fract_x
 _atom_site_fract_y
 _atom_site_fract_z
 _atom_site_occupancy
  Cu  Cu0  1  0.45721000  0.92070000  0.93752000  1.0
  Cu  Cu1  1  0.04279000  0.57930000  0.43752000  1.0
  Cu  Cu2  1  0.54279000  0.07930000  0.06248000  1.0
  Cu  Cu3  1  0.95721000  0.42070000  0.56248000  1.0
  H  H4  1  0.58746000  0.99464000  0.81266000  1.0
  H  H5  1  0.91254000  0.50536000  0.31266000  1.0
  H  H6  1  0.41254000  0.00536000  0.18734000  1.0
  H  H7  1  0.08746000  0.49464000  0.68734000  1.0
  H  H8  1  0.63719000  0.20775000  0.78782000  1.0
  H  H9  1  0.86281000  0.29224000  0.28782000  1.0
  H  H10  1  0.36281000  0.79225000  0.21218000  1.0
  H  H11  1  0.13719000  0.70775000  0.71218000  1.0
  H  H12  1  0.25636000  0.13370000  0.71859000  1.0
  H  H13  1  0.24364000  0.36631000  0.21859000  1.0
  H  H14  1  0.74364000  0.86631000  0.28141000  1.0
  H  H15  1  0.75636000  0.63369000  0.78141000  1.0
  H  H16  1  0.08991000  0.96454000  0.92808000  1.0
  H  H17  1  0.41009000  0.53547000  0.42809000  1.0
  H  H18  1  0.91009000  0.03545000  0.07191000  1.0
  H  H19  1  0.58991000  0.46454000  0.57192000  1.0
  H  H20  1  0.31480000  0.36384000  0.55004000  1.0
  H  H21  1  0.18520000  0.13615000  0.05005000  1.0
  H  H22  1  0.68520000  0.63617000  0.44995000  1.0
  H  H23  1  0.81480000  0.86384000  0.94995000  1.0
  H  H24  1  0.32416000  0.04392000  0.56125000  1.0
  H  H25  1  0.17583000  0.45607000  0.06124000  1.0
  H  H26  1  0.67583000  0.95609000  0.43875000  1.0
  H  H27  1  0.82417000  0.54392000  0.93875000  1.0
  H  H28  1  0.97461000  0.83134000  0.59284000  1.0
  H  H29  1  0.52538000  0.66866000  0.09284000  1.0
  H  H30  1  0.02540000  0.16866000  0.40716000  1.0
  H  H31  1  0.47462000  0.33134000  0.90716000  1.0
  H  H32  1  0.69599000  0.08215000  0.57437000  1.0
  H  H33  1  0.80401000  0.41785000  0.07437000  1.0
  H  H34  1  0.30401000  0.91785000  0.42563000  1.0
  H  H35  1  0.19600000  0.58216000  0.92563000  1.0
  H  H36  1  0.68163000  0.87508000  0.59590000  1.0
  H  H37  1  0.81836000  0.62492000  0.09590000  1.0
  H  H38  1  0.31838000  0.12492000  0.40410000  1.0
  H  H39  1  0.18163000  0.37508000  0.90410000  1.0
  H  H40  1  0.82990000  0.18244000  0.69382000  1.0
  H  H41  1  0.67010000  0.31755000  0.19381000  1.0
  H  H42  1  0.17010000  0.81755000  0.30619000  1.0
  H  H43  1  0.32990000  0.68244000  0.80618000  1.0
  H  H44  1  0.77862000  0.96562000  0.71510000  1.0
  H  H45  1  0.72137000  0.53437000  0.21510000  1.0
  H  H46  1  0.22138000  0.03437000  0.28490000  1.0
  H  H47  1  0.27863000  0.46562000  0.78490000  1.0
  H  H48  1  0.50407000  0.10813000  0.67058000  1.0
  H  H49  1  0.99593000  0.39187000  0.17058000  1.0
  H  H50  1  0.49593000  0.89188000  0.32942000  1.0
  H  H51  1  0.00407000  0.60813000  0.82942000  1.0
  H  H52  1  0.44956000  0.89326000  0.69435000  1.0
  H  H53  1  0.05044000  0.60674000  0.19435000  1.0
  H  H54  1  0.55044000  0.10674000  0.30565000  1.0
  H  H55  1  0.94956000  0.39326000  0.80565000  1.0
  H  H56  1  0.97823000  0.07691000  0.81107000  1.0
  H  H57  1  0.52177000  0.42311000  0.31107000  1.0
  H  H58  1  0.02177000  0.92310000  0.18893000  1.0
  H  H59  1  0.47823000  0.57690000  0.68893000  1.0
  C  C60  1  0.54366000  0.07363000  0.77888000  1.0
  C  C61  1  0.95634000  0.42637000  0.27888000  1.0
  C  C62  1  0.45634000  0.92638000  0.22112000  1.0
  C  C63  1  0.04366000  0.57362000  0.72112000  1.0
  C  C64  1  0.23993000  0.08957000  0.77162000  1.0
  C  C65  1  0.26008000  0.41044000  0.27161000  1.0
  C  C66  1  0.76008000  0.91044000  0.22839000  1.0
  C  C67  1  0.73993000  0.58956000  0.72839000  1.0
  C  C68  1  0.15610000  0.00232000  0.87865000  1.0
  C  C69  1  0.34390000  0.49768000  0.37864000  1.0
  C  C70  1  0.84389000  0.99767000  0.12136000  1.0
  C  C71  1  0.65610000  0.50232000  0.62136000  1.0
  C  C72  1  0.20914000  0.24131000  0.56366000  1.0
  C  C73  1  0.29086000  0.25868000  0.06366000  1.0
  C  C74  1  0.79087000  0.75869000  0.43634000  1.0
  C  C75  1  0.70914000  0.74132000  0.93634000  1.0
  C  C76  1  0.21244000  0.07934000  0.56986000  1.0
  C  C77  1  0.28756000  0.42065000  0.06986000  1.0
  C  C78  1  0.78755000  0.92066000  0.43014000  1.0
  C  C79  1  0.71245000  0.57935000  0.93014000  1.0
  C  C80  1  0.03670000  0.96909000  0.58571000  1.0
  C  C81  1  0.46329000  0.53090000  0.08571000  1.0
  C  C82  1  0.96329000  0.03091000  0.41429000  1.0
  C  C83  1  0.53671000  0.46910000  0.91429000  1.0
  C  C84  1  0.75206000  0.01192000  0.60764000  1.0
  C  C85  1  0.74794000  0.48808000  0.10764000  1.0
  C  C86  1  0.24794000  0.98808000  0.39236000  1.0
  C  C87  1  0.25206000  0.51192000  0.89236000  1.0
  C  C88  1  0.73564000  0.04928000  0.68353000  1.0
  C  C89  1  0.76435000  0.45072000  0.18354000  1.0
  C  C90  1  0.26435000  0.95072000  0.31647000  1.0
  C  C91  1  0.23565000  0.54928000  0.81646000  1.0
  C  C92  1  0.54600000  0.02620000  0.70353000  1.0
  C  C93  1  0.95399000  0.47379000  0.20354000  1.0
  C  C94  1  0.45400000  0.97380000  0.29647000  1.0
  C  C95  1  0.04601000  0.52621000  0.79646000  1.0
  C  C96  1  0.10155000  0.05948000  0.81862000  1.0
  C  C97  1  0.39846000  0.44054000  0.31862000  1.0
  C  C98  1  0.89845000  0.94053000  0.18138000  1.0
  C  C99  1  0.60155000  0.55946000  0.68138000  1.0
  I  I100  1  0.78010000  0.18292000  0.95707000  1.0
  I  I101  1  0.71990000  0.31709000  0.45707000  1.0
  I  I102  1  0.21991000  0.81708000  0.04293000  1.0
  I  I103  1  0.28009000  0.68291000  0.54293000  1.0
  N  N104  1  0.04272000  0.23287000  0.57531000  1.0
  N  N105  1  0.45728000  0.26713000  0.07531000  1.0
  N  N106  1  0.95728000  0.76713000  0.42469000  1.0
  N  N107  1  0.54272000  0.73287000  0.92469000  1.0
  N  N108  1  0.93911000  0.06506000  0.58836000  1.0
  N  N109  1  0.56089000  0.43494000  0.08836000  1.0
  N  N110  1  0.06089000  0.93494000  0.41164000  1.0
  N  N111  1  0.43911000  0.56506000  0.91164000  1.0
  N  N112  1  0.31734000  0.99649000  0.86960000  1.0
  N  N113  1  0.18266000  0.50351000  0.36959000  1.0
  N  N114  1  0.68266000  0.00351000  0.13041000  1.0
  N  N115  1  0.81734000  0.49649000  0.63040000  1.0
  N  N116  1  0.36648000  0.04995000  0.80366000  1.0
  N  N117  1  0.13353000  0.45005000  0.30366000  1.0
  N  N118  1  0.63352000  0.95005000  0.19634000  1.0
  N  N119  1  0.86648000  0.54995000  0.69634000  1.0
