# generated using pymatgen
data_TbPH9C8NO9
_symmetry_space_group_name_H-M   'P 1'
_cell_length_a   9.47700000
_cell_length_b   10.48560000
_cell_length_c   15.56200000
_cell_angle_alpha   89.99990000
_cell_angle_beta   102.75200000
_cell_angle_gamma   89.99980000
_symmetry_Int_Tables_number   1
_chemical_formula_structural   TbPH9C8NO9
_chemical_formula_sum   'Tb4 P4 H36 C32 N4 O36'
_cell_volume   1508.28432037
_cell_formula_units_Z   4
loop_
 _symmetry_equiv_pos_site_id
 _symmetry_equiv_pos_as_xyz
  1  'x, y, z'
loop_
 _atom_site_type_symbol
 _atom_site_label
 _atom_site_symmetry_multiplicity
 _atom_site_fract_x
 _atom_site_fract_y
 _atom_site_fract_z
 _atom_site_occupancy
  Tb  Tb0  1  0.21704000  0.11790000  0.39638000  1.0
  Tb  Tb1  1  0.28297000  0.61790000  0.10362000  1.0
  Tb  Tb2  1  0.78297000  0.88210000  0.60362000  1.0
  Tb  Tb3  1  0.71704000  0.38210000  0.89638000  1.0
  P  P4  1  0.16549000  0.86436000  0.23280000  1.0
  P  P5  1  0.33451000  0.36436000  0.26720000  1.0
  P  P6  1  0.83450000  0.13564000  0.76720000  1.0
  P  P7  1  0.66549000  0.63564000  0.73280000  1.0
  H  H8  1  0.33368000  0.88372000  0.92786000  1.0
  H  H9  1  0.16631000  0.38372000  0.57214000  1.0
  H  H10  1  0.66632000  0.11628000  0.07214000  1.0
  H  H11  1  0.83369000  0.61628000  0.42786000  1.0
  H  H12  1  0.39545000  0.12041000  0.92360000  1.0
  H  H13  1  0.10455000  0.62041000  0.57640000  1.0
  H  H14  1  0.60456000  0.87960000  0.07640000  1.0
  H  H15  1  0.89544000  0.37959000  0.42360000  1.0
  H  H16  1  0.29424000  0.26986000  0.02188000  1.0
  H  H17  1  0.20575000  0.76986000  0.47812000  1.0
  H  H18  1  0.70576000  0.73014000  0.97812000  1.0
  H  H19  1  0.79423000  0.23014000  0.52187000  1.0
  H  H20  1  0.14556000  0.17960000  0.12086000  1.0
  H  H21  1  0.35443000  0.67961000  0.37914000  1.0
  H  H22  1  0.85444000  0.82040000  0.87914000  1.0
  H  H23  1  0.64555000  0.32040000  0.62085000  1.0
  H  H24  1  0.99939000  0.84884000  0.09361000  1.0
  H  H25  1  0.50061000  0.34884000  0.40639000  1.0
  H  H26  1  0.00062000  0.15116000  0.90638000  1.0
  H  H27  1  0.49939000  0.65116000  0.59361000  1.0
  H  H28  1  0.98687000  0.00001000  0.14579000  1.0
  H  H29  1  0.51312000  0.50002000  0.35421000  1.0
  H  H30  1  0.01313000  0.99998000  0.85421000  1.0
  H  H31  1  0.48686000  0.49999000  0.64579000  1.0
  H  H32  1  0.02961000  0.84512000  0.32581000  1.0
  H  H33  1  0.47039000  0.34511000  0.17418000  1.0
  H  H34  1  0.97039000  0.15488000  0.67417000  1.0
  H  H35  1  0.52962000  0.65488000  0.82582000  1.0
  H  H36  1  0.00980000  0.25648000  0.26973000  1.0
  H  H37  1  0.49022000  0.75647000  0.23028000  1.0
  H  H38  1  0.99021000  0.74353000  0.73028000  1.0
  H  H39  1  0.50980000  0.24353000  0.76973000  1.0
  H  H40  1  0.88570000  0.16961000  0.29389000  1.0
  H  H41  1  0.61430000  0.66960000  0.20611000  1.0
  H  H42  1  0.11430000  0.83041000  0.70611000  1.0
  H  H43  1  0.38570000  0.33040000  0.79389000  1.0
  C  C44  1  0.29533000  0.95680000  0.96685000  1.0
  C  C45  1  0.20468000  0.45680000  0.53315000  1.0
  C  C46  1  0.70469000  0.04321000  0.03315000  1.0
  C  C47  1  0.79532000  0.54320000  0.46685000  1.0
  C  C48  1  0.32816000  0.08534000  0.96696000  1.0
  C  C49  1  0.17183000  0.58534000  0.53304000  1.0
  C  C50  1  0.67184000  0.91467000  0.03304000  1.0
  C  C51  1  0.82816000  0.41466000  0.46696000  1.0
  C  C52  1  0.27362000  0.16791000  0.02219000  1.0
  C  C53  1  0.22637000  0.66790000  0.47781000  1.0
  C  C54  1  0.72638000  0.83210000  0.97781000  1.0
  C  C55  1  0.77361000  0.33209000  0.52219000  1.0
  C  C56  1  0.18830000  0.11813000  0.07628000  1.0
  C  C57  1  0.31169000  0.61813000  0.42371000  1.0
  C  C58  1  0.81169000  0.88187000  0.92371000  1.0
  C  C59  1  0.68830000  0.38187000  0.57629000  1.0
  C  C60  1  0.15419000  0.98882000  0.07478000  1.0
  C  C61  1  0.34581000  0.48882000  0.42522000  1.0
  C  C62  1  0.84581000  0.01118000  0.92521000  1.0
  C  C63  1  0.65419000  0.51118000  0.57479000  1.0
  C  C64  1  0.06119000  0.92883000  0.12888000  1.0
  C  C65  1  0.43881000  0.42883000  0.37112000  1.0
  C  C66  1  0.93882000  0.07116000  0.87112000  1.0
  C  C67  1  0.56119000  0.57117000  0.62888000  1.0
  C  C68  1  0.54288000  0.03706000  0.47068000  1.0
  C  C69  1  0.95714000  0.53707000  0.02933000  1.0
  C  C70  1  0.45713000  0.96292000  0.52933000  1.0
  C  C71  1  0.04288000  0.46293000  0.97067000  1.0
  C  C72  1  0.01501000  0.05775000  0.53165000  1.0
  C  C73  1  0.48497000  0.55776000  0.96836000  1.0
  C  C74  1  0.98496000  0.94223000  0.46835000  1.0
  C  C75  1  0.51503000  0.44224000  0.03165000  1.0
  N  N76  1  0.20937000  0.91047000  0.01934000  1.0
  N  N77  1  0.29064000  0.41047000  0.48066000  1.0
  N  N78  1  0.79064000  0.08953000  0.98066000  1.0
  N  N79  1  0.70937000  0.58953000  0.51934000  1.0
  O  O80  1  0.23198000  0.97522000  0.29034000  1.0
  O  O81  1  0.26802000  0.47522000  0.20967000  1.0
  O  O82  1  0.76802000  0.02477000  0.70967000  1.0
  O  O83  1  0.73198000  0.52478000  0.79033000  1.0
  O  O84  1  0.04986000  0.79250000  0.27502000  1.0
  O  O85  1  0.45014000  0.29250000  0.22498000  1.0
  O  O86  1  0.95012000  0.20750000  0.72497000  1.0
  O  O87  1  0.54986000  0.70750000  0.77502000  1.0
  O  O88  1  0.27392000  0.76926000  0.21119000  1.0
  O  O89  1  0.22607000  0.26926000  0.28881000  1.0
  O  O90  1  0.72607000  0.23075000  0.78880000  1.0
  O  O91  1  0.77393000  0.73074000  0.71119000  1.0
  O  O92  1  0.17406000  0.78852000  0.01400000  1.0
  O  O93  1  0.32596000  0.28852000  0.48600000  1.0
  O  O94  1  0.82597000  0.21148000  0.98601000  1.0
  O  O95  1  0.67405000  0.71148000  0.51400000  1.0
  O  O96  1  0.67950000  0.02289000  0.48964000  1.0
  O  O97  1  0.82050000  0.52290000  0.01036000  1.0
  O  O98  1  0.32049000  0.97711000  0.51036000  1.0
  O  O99  1  0.17951000  0.47711000  0.98964000  1.0
  O  O100  1  0.47087000  0.10498000  0.40976000  1.0
  O  O101  1  0.02913000  0.60499000  0.09024000  1.0
  O  O102  1  0.52912000  0.89501000  0.59024000  1.0
  O  O103  1  0.97087000  0.39502000  0.90976000  1.0
  O  O104  1  0.08019000  0.15218000  0.50951000  1.0
  O  O105  1  0.41982000  0.65218000  0.99050000  1.0
  O  O106  1  0.91982000  0.84782000  0.49050000  1.0
  O  O107  1  0.58020000  0.34783000  0.00951000  1.0
  O  O108  1  0.96861000  0.04605000  0.60223000  1.0
  O  O109  1  0.53138000  0.54606000  0.89777000  1.0
  O  O110  1  0.03136000  0.95394000  0.39776000  1.0
  O  O111  1  0.46863000  0.45395000  0.10224000  1.0
  O  O112  1  0.97763000  0.21148000  0.31720000  1.0
  O  O113  1  0.52237000  0.71147000  0.18281000  1.0
  O  O114  1  0.02236000  0.78854000  0.68281000  1.0
  O  O115  1  0.47764000  0.28852000  0.81720000  1.0
