# generated using pymatgen
data_Zn5Si2H48C62(NO10)2
_symmetry_space_group_name_H-M   'P 1'
_cell_length_a   13.93060000
_cell_length_b   14.15760000
_cell_length_c   14.67940000
_cell_angle_alpha   107.51300000
_cell_angle_beta   113.45100000
_cell_angle_gamma   100.65100000
_symmetry_Int_Tables_number   1
_chemical_formula_structural   Zn5Si2H48C62(NO10)2
_chemical_formula_sum   'Zn5 Si2 H48 C62 N2 O20'
_cell_volume   2374.43036997
_cell_formula_units_Z   1
loop_
 _symmetry_equiv_pos_site_id
 _symmetry_equiv_pos_as_xyz
  1  'x, y, z'
loop_
 _atom_site_type_symbol
 _atom_site_label
 _atom_site_symmetry_multiplicity
 _atom_site_fract_x
 _atom_site_fract_y
 _atom_site_fract_z
 _atom_site_occupancy
  Zn  Zn0  1  0.47301000  0.80375000  0.56192000  1.0
  Zn  Zn1  1  0.69538000  0.00533000  0.73498000  1.0
  Zn  Zn2  1  0.52699000  0.19625000  0.43808000  1.0
  Zn  Zn3  1  0.30462000  0.99467000  0.26502000  1.0
  Zn  Zn4  1  0.50000000  0.00000000  0.50000000  1.0
  Si  Si5  1  0.76329000  0.63406000  0.12088000  1.0
  Si  Si6  1  0.23671000  0.36594000  0.87912000  1.0
  H  H7  1  0.12210000  0.74943000  0.46544000  1.0
  H  H8  1  0.91513000  0.68889000  0.35249000  1.0
  H  H9  1  0.95382000  0.71168000  0.08174000  1.0
  H  H10  1  0.15958000  0.77873000  0.19739000  1.0
  H  H11  1  0.52179000  0.60861000  0.74483000  1.0
  H  H12  1  0.58231000  0.53839000  0.88693000  1.0
  H  H13  1  0.84657000  0.83929000  0.11215000  1.0
  H  H14  1  0.78871000  0.90501000  0.96678000  1.0
  H  H15  1  0.50870000  0.25108000  0.90645000  1.0
  H  H16  1  0.55147000  0.44034000  0.01346000  1.0
  H  H17  1  0.89575000  0.50363000  0.08613000  1.0
  H  H18  1  0.85029000  0.31358000  0.97894000  1.0
  H  H19  1  0.57061000  0.60765000  0.34792000  1.0
  H  H20  1  0.64300000  0.53226000  0.22241000  1.0
  H  H21  1  0.74408000  0.83649000  0.21594000  1.0
  H  H22  1  0.67088000  0.90900000  0.34039000  1.0
  H  H23  1  0.78214000  0.83585000  0.66022000  1.0
  H  H24  1  0.84883000  0.73368000  0.57742000  1.0
  H  H25  1  0.85952000  0.76359000  0.47152000  1.0
  H  H26  1  0.98324000  0.79663000  0.59631000  1.0
  H  H27  1  0.00760000  0.96575000  0.57511000  1.0
  H  H28  1  0.87976000  0.99160000  0.52253000  1.0
  H  H29  1  0.97532000  0.05548000  0.66492000  1.0
  H  H30  1  0.51570000  0.00267000  0.68601000  1.0
  H  H31  1  0.87790000  0.25057000  0.53456000  1.0
  H  H32  1  0.08487000  0.31111000  0.64751000  1.0
  H  H33  1  0.04618000  0.28832000  0.91826000  1.0
  H  H34  1  0.84042000  0.22127000  0.80261000  1.0
  H  H35  1  0.47821000  0.39139000  0.25517000  1.0
  H  H36  1  0.41769000  0.46161000  0.11307000  1.0
  H  H37  1  0.15343000  0.16071000  0.88785000  1.0
  H  H38  1  0.21129000  0.09499000  0.03322000  1.0
  H  H39  1  0.49130000  0.74892000  0.09355000  1.0
  H  H40  1  0.44853000  0.55965000  0.98654000  1.0
  H  H41  1  0.10425000  0.49637000  0.91387000  1.0
  H  H42  1  0.14971000  0.68642000  0.02106000  1.0
  H  H43  1  0.42939000  0.39236000  0.65208000  1.0
  H  H44  1  0.35699000  0.46774000  0.77759000  1.0
  H  H45  1  0.25593000  0.16351000  0.78406000  1.0
  H  H46  1  0.32912000  0.09100000  0.65962000  1.0
  H  H47  1  0.21786000  0.16415000  0.33978000  1.0
  H  H48  1  0.15117000  0.26632000  0.42258000  1.0
  H  H49  1  0.14048000  0.23641000  0.52848000  1.0
  H  H50  1  0.01676000  0.20337000  0.40369000  1.0
  H  H51  1  0.99240000  0.03425000  0.42490000  1.0
  H  H52  1  0.12024000  0.00841000  0.47747000  1.0
  H  H53  1  0.02468000  0.94452000  0.33508000  1.0
  H  H54  1  0.48430000  0.99733000  0.31399000  1.0
  C  C55  1  0.27704000  0.80588000  0.40717000  1.0
  C  C56  1  0.15302000  0.76866000  0.33856000  1.0
  C  C57  1  0.08390000  0.74273000  0.38187000  1.0
  C  C58  1  0.96841000  0.70835000  0.31793000  1.0
  C  C59  1  0.91899000  0.69589000  0.20883000  1.0
  C  C60  1  0.98974000  0.72120000  0.16643000  1.0
  C  C61  1  0.10544000  0.75851000  0.23073000  1.0
  C  C62  1  0.62096000  0.80153000  0.76122000  1.0
  C  C63  1  0.65206000  0.76057000  0.84754000  1.0
  C  C64  1  0.59286000  0.65794000  0.82584000  1.0
  C  C65  1  0.62680000  0.61983000  0.90631000  1.0
  C  C66  1  0.71815000  0.68393000  0.01088000  1.0
  C  C67  1  0.77496000  0.78771000  0.03194000  1.0
  C  C68  1  0.74344000  0.82542000  0.95121000  1.0
  C  C69  1  0.64735000  0.15866000  0.86119000  1.0
  C  C70  1  0.67658000  0.27113000  0.93507000  1.0
  C  C71  1  0.59327000  0.30727000  0.94682000  1.0
  C  C72  1  0.61836000  0.41408000  0.00687000  1.0
  C  C73  1  0.72694000  0.48741000  0.05662000  1.0
  C  C74  1  0.81042000  0.44909000  0.04722000  1.0
  C  C75  1  0.78580000  0.34255000  0.98741000  1.0
  C  C76  1  0.57665000  0.81121000  0.42873000  1.0
  C  C77  1  0.61857000  0.76320000  0.35299000  1.0
  C  C78  1  0.60972000  0.65684000  0.31877000  1.0
  C  C79  1  0.65012000  0.61527000  0.24819000  1.0
  C  C80  1  0.69962000  0.67883000  0.21016000  1.0
  C  C81  1  0.70752000  0.78552000  0.24532000  1.0
  C  C82  1  0.66759000  0.82735000  0.31545000  1.0
  C  C83  1  0.82303000  0.90601000  0.65370000  1.0
  C  C84  1  0.89540000  0.79118000  0.56043000  1.0
  C  C85  1  0.94090000  0.98202000  0.59158000  1.0
  C  C86  1  0.72295000  0.19411000  0.59283000  1.0
  C  C87  1  0.84698000  0.23134000  0.66144000  1.0
  C  C88  1  0.91610000  0.25727000  0.61813000  1.0
  C  C89  1  0.03159000  0.29164000  0.68207000  1.0
  C  C90  1  0.08100000  0.30411000  0.79117000  1.0
  C  C91  1  0.01026000  0.27880000  0.83357000  1.0
  C  C92  1  0.89456000  0.24149000  0.76928000  1.0
  C  C93  1  0.37904000  0.19847000  0.23878000  1.0
  C  C94  1  0.34794000  0.23943000  0.15246000  1.0
  C  C95  1  0.40714000  0.34206000  0.17416000  1.0
  C  C96  1  0.37320000  0.38017000  0.09369000  1.0
  C  C97  1  0.28185000  0.31607000  0.98912000  1.0
  C  C98  1  0.22504000  0.21229000  0.96806000  1.0
  C  C99  1  0.25656000  0.17458000  0.04879000  1.0
  C  C100  1  0.35265000  0.84134000  0.13881000  1.0
  C  C101  1  0.32342000  0.72887000  0.06493000  1.0
  C  C102  1  0.40673000  0.69273000  0.05318000  1.0
  C  C103  1  0.38164000  0.58592000  0.99313000  1.0
  C  C104  1  0.27306000  0.51259000  0.94338000  1.0
  C  C105  1  0.18957000  0.55091000  0.95278000  1.0
  C  C106  1  0.21420000  0.65745000  0.01259000  1.0
  C  C107  1  0.42335000  0.18879000  0.57127000  1.0
  C  C108  1  0.38143000  0.23680000  0.64701000  1.0
  C  C109  1  0.39027000  0.34317000  0.68123000  1.0
  C  C110  1  0.34988000  0.38473000  0.75181000  1.0
  C  C111  1  0.30038000  0.32117000  0.78984000  1.0
  C  C112  1  0.29248000  0.21448000  0.75468000  1.0
  C  C113  1  0.33241000  0.17266000  0.68455000  1.0
  C  C114  1  0.17697000  0.09399000  0.34630000  1.0
  C  C115  1  0.10460000  0.20882000  0.43957000  1.0
  C  C116  1  0.05910000  0.01798000  0.40842000  1.0
  N  N117  1  0.88688000  0.89373000  0.60683000  1.0
  N  N118  1  0.11312000  0.10627000  0.39317000  1.0
  O  O119  1  0.31192000  0.76862000  0.47953000  1.0
  O  O120  1  0.33811000  0.86876000  0.39023000  1.0
  O  O121  1  0.69574000  0.88056000  0.77595000  1.0
  O  O122  1  0.52300000  0.75373000  0.67860000  1.0
  O  O123  1  0.73157000  0.13342000  0.85732000  1.0
  O  O124  1  0.54730000  0.09808000  0.80646000  1.0
  O  O125  1  0.53758000  0.75218000  0.46661000  1.0
  O  O126  1  0.58573000  0.90707000  0.45183000  1.0
  O  O127  1  0.53473000  0.96117000  0.63082000  1.0
  O  O128  1  0.81022000  0.99313000  0.68884000  1.0
  O  O129  1  0.68808000  0.23137000  0.52047000  1.0
  O  O130  1  0.66189000  0.13124000  0.60977000  1.0
  O  O131  1  0.30426000  0.11944000  0.22404000  1.0
  O  O132  1  0.47700000  0.24627000  0.32140000  1.0
  O  O133  1  0.26842000  0.86658000  0.14268000  1.0
  O  O134  1  0.45270000  0.90191000  0.19354000  1.0
  O  O135  1  0.46242000  0.24782000  0.53339000  1.0
  O  O136  1  0.41427000  0.09293000  0.54817000  1.0
  O  O137  1  0.46527000  0.03883000  0.36918000  1.0
  O  O138  1  0.18978000  0.00687000  0.31116000  1.0
