# generated using pymatgen
data_NiH18C18(NO3)2
_symmetry_space_group_name_H-M   'P 1'
_cell_length_a   9.26693000
_cell_length_b   12.90550000
_cell_length_c   19.99590000
_cell_angle_alpha   71.23500000
_cell_angle_beta   76.95100000
_cell_angle_gamma   89.85210000
_symmetry_Int_Tables_number   1
_chemical_formula_structural   NiH18C18(NO3)2
_chemical_formula_sum   'Ni4 H72 C72 N8 O24'
_cell_volume   2199.44440299
_cell_formula_units_Z   4
loop_
 _symmetry_equiv_pos_site_id
 _symmetry_equiv_pos_as_xyz
  1  'x, y, z'
loop_
 _atom_site_type_symbol
 _atom_site_label
 _atom_site_symmetry_multiplicity
 _atom_site_fract_x
 _atom_site_fract_y
 _atom_site_fract_z
 _atom_site_occupancy
  Ni  Ni0  1  0.82532000  0.36521000  0.72739000  1.0
  Ni  Ni1  1  0.67386000  0.09148000  0.27212000  1.0
  Ni  Ni2  1  0.17405000  0.63514000  0.27277000  1.0
  Ni  Ni3  1  0.32719000  0.90872000  0.72774000  1.0
  H  H4  1  0.56169000  0.39739000  0.76152000  1.0
  H  H5  1  0.93645000  0.15810000  0.23797000  1.0
  H  H6  1  0.43742000  0.60254000  0.23831000  1.0
  H  H7  1  0.06404000  0.84212000  0.76235000  1.0
  H  H8  1  0.57186000  0.26863000  0.77327000  1.0
  H  H9  1  0.92731000  0.04080000  0.22652000  1.0
  H  H10  1  0.42824000  0.73130000  0.22679000  1.0
  H  H11  1  0.07332000  0.95971000  0.77334000  1.0
  H  H12  1  0.94153000  0.16253000  0.75020000  1.0
  H  H13  1  0.55915000  0.91119000  0.24969000  1.0
  H  H14  1  0.05932000  0.83764000  0.24990000  1.0
  H  H15  1  0.44232000  0.08841000  0.75034000  1.0
  H  H16  1  0.76562000  0.16085000  0.76744000  1.0
  H  H17  1  0.73484000  0.92674000  0.23205000  1.0
  H  H18  1  0.23513000  0.83925000  0.23225000  1.0
  H  H19  1  0.26654000  0.07298000  0.76814000  1.0
  H  H20  1  0.21785000  0.52696000  0.49241000  1.0
  H  H21  1  0.28202000  0.02012000  0.50705000  1.0
  H  H22  1  0.78134000  0.47311000  0.50788000  1.0
  H  H23  1  0.71859000  0.98079000  0.49243000  1.0
  H  H24  1  0.96387000  0.47520000  0.57424000  1.0
  H  H25  1  0.53601000  0.04971000  0.42498000  1.0
  H  H26  1  0.03523000  0.52534000  0.42602000  1.0
  H  H27  1  0.46498000  0.95137000  0.57464000  1.0
  H  H28  1  0.62833000  0.19131000  0.45962000  1.0
  H  H29  1  0.87145000  0.65168000  0.54018000  1.0
  H  H30  1  0.37242000  0.80894000  0.54016000  1.0
  H  H31  1  0.12835000  0.34863000  0.46005000  1.0
  H  H32  1  0.95403000  0.28824000  0.39982000  1.0
  H  H33  1  0.54507000  0.68932000  0.59932000  1.0
  H  H34  1  0.04705000  0.71149000  0.60062000  1.0
  H  H35  1  0.45418000  0.31061000  0.40016000  1.0
  H  H36  1  0.39196000  0.36697000  0.68033000  1.0
  H  H37  1  0.10762000  0.04598000  0.31944000  1.0
  H  H38  1  0.60701000  0.63267000  0.31993000  1.0
  H  H39  1  0.89413000  0.95257000  0.67991000  1.0
  H  H40  1  0.84722000  0.29146000  0.52453000  1.0
  H  H41  1  0.65226000  0.81641000  0.47480000  1.0
  H  H42  1  0.15294000  0.70895000  0.47543000  1.0
  H  H43  1  0.34830000  0.18391000  0.52495000  1.0
  H  H44  1  0.53476000  0.17306000  0.59616000  1.0
  H  H45  1  0.96580000  0.76904000  0.40392000  1.0
  H  H46  1  0.46560000  0.82713000  0.40408000  1.0
  H  H47  1  0.03519000  0.23130000  0.59638000  1.0
  H  H48  1  0.56537000  0.45021000  0.56696000  1.0
  H  H49  1  0.93434000  0.01688000  0.43288000  1.0
  H  H50  1  0.43363000  0.54934000  0.43326000  1.0
  H  H51  1  0.06682000  0.98311000  0.56634000  1.0
  H  H52  1  0.13013000  0.32052000  0.75339000  1.0
  H  H53  1  0.36945000  0.07200000  0.24629000  1.0
  H  H54  1  0.86865000  0.67988000  0.24692000  1.0
  H  H55  1  0.63259000  0.92678000  0.75340000  1.0
  H  H56  1  0.90396000  0.31455000  0.98099000  1.0
  H  H57  1  0.59110000  0.29331000  0.01917000  1.0
  H  H58  1  0.09523000  0.68559000  0.01930000  1.0
  H  H59  1  0.40722000  0.70515000  0.98091000  1.0
  H  H60  1  0.83370000  0.25915000  0.88341000  1.0
  H  H61  1  0.66300000  0.14035000  0.11638000  1.0
  H  H62  1  0.16537000  0.74095000  0.11687000  1.0
  H  H63  1  0.33740000  0.85903000  0.88365000  1.0
  H  H64  1  0.04586000  0.61491000  0.94285000  1.0
  H  H65  1  0.45019000  0.55610000  0.05778000  1.0
  H  H66  1  0.95263000  0.38522000  0.05760000  1.0
  H  H67  1  0.54765000  0.44245000  0.94227000  1.0
  H  H68  1  0.00629000  0.64423000  0.82590000  1.0
  H  H69  1  0.49127000  0.46852000  0.17457000  1.0
  H  H70  1  0.99187000  0.35610000  0.17455000  1.0
  H  H71  1  0.50772000  0.53066000  0.82528000  1.0
  H  H72  1  0.93214000  0.57428000  0.73606000  1.0
  H  H73  1  0.56714000  0.30856000  0.26386000  1.0
  H  H74  1  0.06616000  0.42599000  0.26440000  1.0
  H  H75  1  0.43428000  0.69154000  0.73569000  1.0
  C  C76  1  0.20438000  0.48088000  0.54988000  1.0
  C  C77  1  0.29541000  0.03119000  0.44957000  1.0
  C  C78  1  0.79475000  0.51925000  0.45039000  1.0
  C  C79  1  0.70552000  0.96954000  0.54987000  1.0
  C  C80  1  0.06304000  0.45274000  0.59451000  1.0
  C  C81  1  0.43674000  0.04731000  0.40488000  1.0
  C  C82  1  0.93608000  0.54766000  0.40575000  1.0
  C  C83  1  0.56439000  0.95342000  0.59469000  1.0
  C  C84  1  0.73269000  0.22935000  0.46066000  1.0
  C  C85  1  0.76691000  0.69073000  0.53895000  1.0
  C  C86  1  0.26799000  0.77080000  0.53930000  1.0
  C  C87  1  0.23294000  0.30953000  0.46104000  1.0
  C  C88  1  0.84674000  0.25171000  0.40113000  1.0
  C  C89  1  0.65239000  0.65379000  0.59821000  1.0
  C  C90  1  0.15432000  0.74840000  0.59898000  1.0
  C  C91  1  0.34687000  0.34618000  0.40148000  1.0
  C  C92  1  0.30023000  0.39120000  0.65432000  1.0
  C  C93  1  0.19941000  0.04471000  0.34533000  1.0
  C  C94  1  0.69873000  0.60869000  0.34597000  1.0
  C  C95  1  0.80217000  0.95470000  0.65408000  1.0
  C  C96  1  0.74346000  0.24993000  0.52591000  1.0
  C  C97  1  0.75631000  0.77629000  0.47369000  1.0
  C  C98  1  0.25684000  0.75025000  0.47410000  1.0
  C  C99  1  0.24416000  0.22402000  0.52627000  1.0
  C  C100  1  0.63862000  0.21929000  0.58932000  1.0
  C  C101  1  0.86160000  0.80851000  0.41046000  1.0
  C  C102  1  0.36181000  0.78090000  0.41074000  1.0
  C  C103  1  0.13922000  0.19168000  0.58965000  1.0
  C  C104  1  0.47985000  0.47496000  0.53657000  1.0
  C  C105  1  0.01995000  0.01146000  0.46318000  1.0
  C  C106  1  0.51911000  0.52464000  0.46369000  1.0
  C  C107  1  0.98108000  0.98861000  0.53608000  1.0
  C  C108  1  0.32824000  0.44987000  0.57950000  1.0
  C  C109  1  0.17149000  0.02923000  0.42010000  1.0
  C  C110  1  0.67078000  0.54995000  0.42077000  1.0
  C  C111  1  0.82965000  0.97084000  0.57925000  1.0
  C  C112  1  0.83951000  0.21952000  0.33685000  1.0
  C  C113  1  0.65923000  0.55732000  0.66246000  1.0
  C  C114  1  0.16189000  0.78082000  0.66313000  1.0
  C  C115  1  0.33969000  0.44262000  0.33730000  1.0
  C  C116  1  0.66547000  0.24122000  0.65403000  1.0
  C  C117  1  0.83490000  0.89484000  0.34565000  1.0
  C  C118  1  0.33518000  0.75899000  0.34600000  1.0
  C  C119  1  0.16622000  0.10547000  0.65442000  1.0
  C  C120  1  0.15512000  0.36595000  0.69529000  1.0
  C  C121  1  0.34453000  0.06007000  0.30432000  1.0
  C  C122  1  0.84384000  0.63434000  0.30502000  1.0
  C  C123  1  0.65725000  0.93934000  0.69528000  1.0
  C  C124  1  0.91132000  0.37568000  0.92778000  1.0
  C  C125  1  0.58475000  0.30139000  0.07235000  1.0
  C  C126  1  0.08760000  0.62446000  0.07253000  1.0
  C  C127  1  0.41411000  0.69745000  0.92765000  1.0
  C  C128  1  0.87202000  0.34363000  0.87401000  1.0
  C  C129  1  0.62490000  0.21559000  0.12585000  1.0
  C  C130  1  0.12692000  0.65649000  0.12630000  1.0
  C  C131  1  0.37516000  0.78374000  0.87410000  1.0
  C  C132  1  0.96087000  0.48591000  0.91257000  1.0
  C  C133  1  0.53565000  0.39669000  0.08775000  1.0
  C  C134  1  0.03777000  0.51427000  0.08781000  1.0
  C  C135  1  0.46273000  0.60214000  0.91223000  1.0
  C  C136  1  0.00376000  0.52861000  0.96484000  1.0
  C  C137  1  0.49319000  0.49200000  0.03556000  1.0
  C  C138  1  0.99476000  0.47153000  0.03558000  1.0
  C  C139  1  0.50448000  0.50655000  0.96449000  1.0
  C  C140  1  0.96860000  0.55791000  0.84189000  1.0
  C  C141  1  0.52870000  0.39808000  0.15841000  1.0
  C  C142  1  0.02976000  0.44236000  0.15854000  1.0
  C  C143  1  0.47058000  0.60114000  0.84143000  1.0
  C  C144  1  0.92798000  0.51963000  0.79091000  1.0
  C  C145  1  0.57026000  0.30883000  0.20904000  1.0
  C  C146  1  0.07045000  0.48062000  0.20952000  1.0
  C  C147  1  0.43033000  0.69088000  0.79065000  1.0
  N  N148  1  0.03770000  0.39600000  0.66620000  1.0
  N  N149  1  0.46197000  0.06153000  0.33326000  1.0
  N  N150  1  0.96138000  0.60452000  0.33408000  1.0
  N  N151  1  0.53958000  0.93874000  0.66636000  1.0
  N  N152  1  0.88012000  0.41416000  0.80640000  1.0
  N  N153  1  0.61802000  0.21879000  0.19333000  1.0
  N  N154  1  0.11865000  0.58604000  0.19395000  1.0
  N  N155  1  0.38284000  0.78093000  0.80647000  1.0
  O  O156  1  0.59897000  0.32723000  0.79137000  1.0
  O  O157  1  0.89994000  0.11742000  0.20810000  1.0
  O  O158  1  0.40041000  0.67297000  0.20863000  1.0
  O  O159  1  0.10082000  0.88313000  0.79190000  1.0
  O  O160  1  0.76206000  0.31895000  0.64277000  1.0
  O  O161  1  0.73762000  0.96135000  0.35679000  1.0
  O  O162  1  0.23765000  0.68187000  0.35723000  1.0
  O  O163  1  0.26384000  0.03921000  0.64328000  1.0
  O  O164  1  0.85348000  0.18919000  0.77782000  1.0
  O  O165  1  0.64669000  0.96543000  0.22184000  1.0
  O  O166  1  0.14702000  0.81088000  0.22211000  1.0
  O  O167  1  0.35470000  0.03422000  0.77829000  1.0
  O  O168  1  0.71039000  0.19239000  0.33170000  1.0
  O  O169  1  0.78832000  0.52467000  0.66782000  1.0
  O  O170  1  0.29100000  0.80875000  0.66783000  1.0
  O  O171  1  0.21058000  0.47566000  0.33242000  1.0
  O  O172  1  0.59219000  0.18138000  0.71777000  1.0
  O  O173  1  0.90897000  0.89850000  0.28201000  1.0
  O  O174  1  0.40947000  0.81819000  0.28232000  1.0
  O  O175  1  0.09208000  0.10168000  0.71807000  1.0
  O  O176  1  0.96214000  0.21831000  0.29307000  1.0
  O  O177  1  0.53646000  0.51282000  0.70598000  1.0
  O  O178  1  0.03939000  0.78155000  0.70713000  1.0
  O  O179  1  0.46226000  0.48690000  0.29347000  1.0
