# generated using pymatgen
data_Ag2H9C6S2BrO10
_symmetry_space_group_name_H-M   'P 1'
_cell_length_a   7.44376000
_cell_length_b   8.67480000
_cell_length_c   11.03040000
_cell_angle_alpha   102.40800000
_cell_angle_beta   104.27800000
_cell_angle_gamma   92.08260000
_symmetry_Int_Tables_number   1
_chemical_formula_structural   Ag2H9C6S2BrO10
_chemical_formula_sum   'Ag4 H18 C12 S4 Br2 O20'
_cell_volume   671.13327346
_cell_formula_units_Z   2
loop_
 _symmetry_equiv_pos_site_id
 _symmetry_equiv_pos_as_xyz
  1  'x, y, z'
loop_
 _atom_site_type_symbol
 _atom_site_label
 _atom_site_symmetry_multiplicity
 _atom_site_fract_x
 _atom_site_fract_y
 _atom_site_fract_z
 _atom_site_occupancy
  Ag  Ag0  1  0.79929000  0.89946000  0.95654000  1.0
  Ag  Ag1  1  0.20071000  0.10054000  0.04347000  1.0
  Ag  Ag2  1  0.50177000  0.20877000  0.78840000  1.0
  Ag  Ag3  1  0.49823000  0.79123000  0.21160000  1.0
  H  H4  1  0.63971000  0.18663000  0.05653000  1.0
  H  H5  1  0.36029000  0.81337000  0.94347000  1.0
  H  H6  1  0.82147000  0.24679000  0.02641000  1.0
  H  H7  1  0.17853000  0.75320000  0.97359000  1.0
  H  H8  1  0.94873000  0.01176000  0.22143000  1.0
  H  H9  1  0.05127000  0.98824000  0.77858000  1.0
  H  H10  1  0.06579000  0.86508000  0.19410000  1.0
  H  H11  1  0.93421000  0.13491000  0.80591000  1.0
  H  H12  1  0.19124000  0.33604000  0.89254000  1.0
  H  H13  1  0.80876000  0.66396000  0.10745000  1.0
  H  H14  1  0.35125000  0.39024000  0.01815000  1.0
  H  H15  1  0.64875000  0.60976000  0.98184000  1.0
  H  H16  1  0.39842000  0.86093000  0.48756000  1.0
  H  H17  1  0.60158000  0.13908000  0.51244000  1.0
  H  H18  1  0.11747000  0.25987000  0.32408000  1.0
  H  H19  1  0.88252000  0.74014000  0.67592000  1.0
  H  H20  1  0.31808000  0.50846000  0.72291000  1.0
  H  H21  1  0.68192000  0.49154000  0.27709000  1.0
  C  C22  1  0.31969000  0.64621000  0.58238000  1.0
  C  C23  1  0.68031000  0.35379000  0.41763000  1.0
  C  C24  1  0.28661000  0.64858000  0.45115000  1.0
  C  C25  1  0.71338000  0.35143000  0.54885000  1.0
  C  C26  1  0.20824000  0.50740000  0.35953000  1.0
  C  C27  1  0.79175000  0.49260000  0.64047000  1.0
  C  C28  1  0.17522000  0.36764000  0.39692000  1.0
  C  C29  1  0.82477000  0.63236000  0.60308000  1.0
  C  C30  1  0.21824000  0.36845000  0.52735000  1.0
  C  C31  1  0.78175000  0.63155000  0.47265000  1.0
  C  C32  1  0.28725000  0.50703000  0.62085000  1.0
  C  C33  1  0.71274000  0.49297000  0.37915000  1.0
  S  S34  1  0.38230000  0.82740000  0.69974000  1.0
  S  S35  1  0.61769000  0.17260000  0.30026000  1.0
  S  S36  1  0.14675000  0.50717000  0.19304000  1.0
  S  S37  1  0.85325000  0.49283000  0.80696000  1.0
  Br  Br38  1  0.18346000  0.17561000  0.57847000  1.0
  Br  Br39  1  0.81653000  0.82439000  0.42152000  1.0
  O  O40  1  0.70855000  0.17175000  0.98899000  1.0
  O  O41  1  0.29146000  0.82824000  0.01101000  1.0
  O  O42  1  0.47342000  0.78947000  0.82292000  1.0
  O  O43  1  0.52658000  0.21054000  0.17708000  1.0
  O  O44  1  0.20658000  0.89829000  0.70092000  1.0
  O  O45  1  0.79341000  0.10171000  0.29909000  1.0
  O  O46  1  0.03596000  0.96667000  0.17199000  1.0
  O  O47  1  0.96405000  0.03333000  0.82802000  1.0
  O  O48  1  0.50920000  0.92135000  0.65262000  1.0
  O  O49  1  0.49080000  0.07866000  0.34738000  1.0
  O  O50  1  0.31378000  0.30752000  0.93720000  1.0
  O  O51  1  0.68622000  0.69247000  0.06280000  1.0
  O  O52  1  0.03342000  0.64100000  0.18082000  1.0
  O  O53  1  0.96658000  0.35900000  0.81917000  1.0
  O  O54  1  0.04367000  0.35212000  0.12650000  1.0
  O  O55  1  0.95633000  0.64788000  0.87350000  1.0
  O  O56  1  0.32378000  0.52938000  0.15813000  1.0
  O  O57  1  0.67623000  0.47062000  0.84187000  1.0
  O  O58  1  0.32576000  0.77943000  0.41105000  1.0
  O  O59  1  0.67424000  0.22057000  0.58895000  1.0
