# generated using pymatgen
data_ZnH2C2BrN3
_symmetry_space_group_name_H-M   'P 1'
_cell_length_a   6.35561000
_cell_length_b   8.98974000
_cell_length_c   9.71675000
_cell_angle_alpha   90.00000000
_cell_angle_beta   90.00020000
_cell_angle_gamma   102.51200000
_symmetry_Int_Tables_number   1
_chemical_formula_structural   ZnH2C2BrN3
_chemical_formula_sum   'Zn4 H8 C8 Br4 N12'
_cell_volume   541.98433982
_cell_formula_units_Z   4
loop_
 _symmetry_equiv_pos_site_id
 _symmetry_equiv_pos_as_xyz
  1  'x, y, z'
loop_
 _atom_site_type_symbol
 _atom_site_label
 _atom_site_symmetry_multiplicity
 _atom_site_fract_x
 _atom_site_fract_y
 _atom_site_fract_z
 _atom_site_occupancy
  Zn  Zn0  1  0.04554000  0.31731000  0.57389000  1.0
  Zn  Zn1  1  0.45446000  0.18269000  0.07389000  1.0
  Zn  Zn2  1  0.95446000  0.68269000  0.42611000  1.0
  Zn  Zn3  1  0.54554000  0.81731000  0.92611000  1.0
  H  H4  1  0.73526000  0.39470000  0.83376000  1.0
  H  H5  1  0.76474000  0.10530000  0.33375000  1.0
  H  H6  1  0.26474000  0.60531000  0.16624000  1.0
  H  H7  1  0.23526000  0.89471000  0.66625000  1.0
  H  H8  1  0.85541000  0.97956000  0.68839000  1.0
  H  H9  1  0.64459000  0.52043000  0.18839000  1.0
  H  H10  1  0.14460000  0.02044000  0.31162000  1.0
  H  H11  1  0.35542000  0.47957000  0.81161000  1.0
  C  C12  1  0.73334000  0.27417000  0.82075000  1.0
  C  C13  1  0.76667000  0.22583000  0.32075000  1.0
  C  C14  1  0.26667000  0.72582000  0.17923000  1.0
  C  C15  1  0.23333000  0.77417000  0.67925000  1.0
  C  C16  1  0.79759000  0.06391000  0.74902000  1.0
  C  C17  1  0.70240000  0.43609000  0.24902000  1.0
  C  C18  1  0.20240000  0.93606000  0.25098000  1.0
  C  C19  1  0.29759000  0.56391000  0.75097000  1.0
  Br  Br20  1  0.31871000  0.17798000  0.55083000  1.0
  Br  Br21  1  0.18128000  0.32202000  0.05085000  1.0
  Br  Br22  1  0.68129000  0.82202000  0.44916000  1.0
  Br  Br23  1  0.81871000  0.67797000  0.94916000  1.0
  N  N24  1  0.62426000  0.16531000  0.90231000  1.0
  N  N25  1  0.87572000  0.33468000  0.40230000  1.0
  N  N26  1  0.37571000  0.83468000  0.09771000  1.0
  N  N27  1  0.12428000  0.66532000  0.59770000  1.0
  N  N28  1  0.66541000  0.03006000  0.85590000  1.0
  N  N29  1  0.83459000  0.46995000  0.35591000  1.0
  N  N30  1  0.33460000  0.96996000  0.14408000  1.0
  N  N31  1  0.16542000  0.53006000  0.64409000  1.0
  N  N32  1  0.84374000  0.21518000  0.72342000  1.0
  N  N33  1  0.65626000  0.28481000  0.22342000  1.0
  N  N34  1  0.15627000  0.78483000  0.27658000  1.0
  N  N35  1  0.34374000  0.71520000  0.77658000  1.0
