# generated using pymatgen
data_Al3H19(C3O)14
_symmetry_space_group_name_H-M   'P 1'
_cell_length_a   12.72312703
_cell_length_b   12.88290000
_cell_length_c   28.59770000
_cell_angle_alpha   89.92820000
_cell_angle_beta   89.92425684
_cell_angle_gamma   60.49384290
_symmetry_Int_Tables_number   1
_chemical_formula_structural   Al3H19(C3O)14
_chemical_formula_sum   'Al6 H38 C84 O28'
_cell_volume   4079.51457719
_cell_formula_units_Z   2
loop_
 _symmetry_equiv_pos_site_id
 _symmetry_equiv_pos_as_xyz
  1  'x, y, z'
loop_
 _atom_site_type_symbol
 _atom_site_label
 _atom_site_symmetry_multiplicity
 _atom_site_fract_x
 _atom_site_fract_y
 _atom_site_fract_z
 _atom_site_occupancy
  Al  Al0  1  0.77061000  0.75441000  0.49852000  1.0
  Al  Al1  1  0.75655000  0.51246000  0.49937000  1.0
  Al  Al2  1  0.52326000  0.74474000  0.49971000  1.0
  Al  Al3  1  0.52475000  0.24683000  0.00084000  1.0
  Al  Al4  1  0.26818000  0.48811000  0.99931000  1.0
  Al  Al5  1  0.26884000  0.25487000  0.99975000  1.0
  H  H6  1  0.33052000  0.70379000  0.22486000  1.0
  H  H7  1  0.86196000  0.44285000  0.79273000  1.0
  H  H8  1  0.68222000  0.86780000  0.78899000  1.0
  H  H9  1  0.44225000  0.69597000  0.78378000  1.0
  H  H10  1  0.54696000  0.66318000  0.26927000  1.0
  H  H11  1  0.65029000  0.79170000  0.26520000  1.0
  H  H12  1  0.79010000  0.54463000  0.26195000  1.0
  H  H13  1  0.20959000  0.33732000  0.76902000  1.0
  H  H14  1  0.44228000  0.20930000  0.76467000  1.0
  H  H15  1  0.33569000  0.45555000  0.76269000  1.0
  H  H16  1  0.68009000  0.46045000  0.21093000  1.0
  H  H17  1  0.68785000  0.96598000  0.21904000  1.0
  H  H18  1  0.44036000  0.86120000  0.20951000  1.0
  H  H19  1  0.86205000  0.68588000  0.20891000  1.0
  H  H20  1  0.14136000  0.54118000  0.71145000  1.0
  H  H21  1  0.30192000  0.13823000  0.70973000  1.0
  H  H22  1  0.54830000  0.31382000  0.70957000  1.0
  H  H23  1  0.65383000  0.31565000  0.27971000  1.0
  H  H24  1  0.29902000  0.02919000  0.27947000  1.0
  H  H25  1  0.03419000  0.65130000  0.27909000  1.0
  H  H26  1  0.97045000  0.68492000  0.78040000  1.0
  H  H27  1  0.33033000  0.97062000  0.78028000  1.0
  H  H28  1  0.96425000  0.33862000  0.21363000  1.0
  H  H29  1  0.68664000  0.34850000  0.77939000  1.0
  H  H30  1  0.43756000  0.35588000  0.23542000  1.0
  H  H31  1  0.33705000  0.20342000  0.23331000  1.0
  H  H32  1  0.20829000  0.44550000  0.23061000  1.0
  H  H33  1  0.79378000  0.64687000  0.73534000  1.0
  H  H34  1  0.54221000  0.79665000  0.73398000  1.0
  H  H35  1  0.65501000  0.55395000  0.73054000  1.0
  H  H36  1  0.03309000  0.29897000  0.72383000  1.0
  H  H37  1  0.65380000  0.03532000  0.71841000  1.0
  H  H38  1  0.30396000  0.66122000  0.71395000  1.0
  H  H39  1  0.30415000  0.55885000  0.29355000  1.0
  H  H40  1  0.54673000  0.13380000  0.28906000  1.0
  H  H41  1  0.13655000  0.30392000  0.28375000  1.0
  H  H42  1  0.86013000  0.86208000  0.52702000  1.0
  H  H43  1  0.72172000  0.16785000  0.97272000  1.0
  C  C44  1  0.55991000  0.87867000  0.43282000  1.0
  C  C45  1  0.02186000  0.48641000  0.79951000  1.0
  C  C46  1  0.48006000  0.02411000  0.79663000  1.0
  C  C47  1  0.48388000  0.49677000  0.79425000  1.0
  C  C48  1  0.59700000  0.48234000  0.22989000  1.0
  C  C49  1  0.46393000  0.92140000  0.22777000  1.0
  C  C50  1  0.92271000  0.60135000  0.22611000  1.0
  C  C51  1  0.07968000  0.51932000  0.73008000  1.0
  C  C52  1  0.38599000  0.07853000  0.72792000  1.0
  C  C53  1  0.52473000  0.39842000  0.72663000  1.0
  C  C54  1  0.52252000  0.59494000  0.26102000  1.0
  C  C55  1  0.89049000  0.54800000  0.43165000  1.0
  C  C56  1  0.58048000  0.88326000  0.25747000  1.0
  C  C57  1  0.88321000  0.52249000  0.25449000  1.0
  C  C58  1  0.11714000  0.40605000  0.76082000  1.0
  C  C59  1  0.46440000  0.11750000  0.75720000  1.0
  C  C60  1  0.40674000  0.47750000  0.75505000  1.0
  C  C61  1  0.46198000  0.49600000  0.15625000  1.0
  C  C62  1  0.47323000  0.04384000  0.15366000  1.0
  C  C63  1  0.04469000  0.47739000  0.15050000  1.0
  C  C64  1  0.95785000  0.50765000  0.65605000  1.0
  C  C65  1  0.51726000  0.95591000  0.65377000  1.0
  C  C66  1  0.56587000  0.55970000  0.43522000  1.0
  C  C67  1  0.52248000  0.52207000  0.65073000  1.0
  C  C68  1  0.52411000  0.52306000  0.34805000  1.0
  C  C69  1  0.51420000  0.95221000  0.34501000  1.0
  C  C70  1  0.95594000  0.51246000  0.34250000  1.0
  C  C71  1  0.04700000  0.47610000  0.84794000  1.0
  C  C72  1  0.46861000  0.04926000  0.84500000  1.0
  C  C73  1  0.46986000  0.48823000  0.84295000  1.0
  C  C74  1  0.55970000  0.87956000  0.56621000  1.0
  C  C75  1  0.89030000  0.54826000  0.56718000  1.0
  C  C76  1  0.56738000  0.55700000  0.56366000  1.0
  C  C77  1  0.44110000  0.12284000  0.93284000  1.0
  C  C78  1  0.43899000  0.12036000  0.06616000  1.0
  C  C79  1  0.43661000  0.45343000  0.06753000  1.0
  C  C80  1  0.12446000  0.44329000  0.06351000  1.0
  C  C81  1  0.38725000  0.53700000  0.27462000  1.0
  C  C82  1  0.52306000  0.07370000  0.27078000  1.0
  C  C83  1  0.07582000  0.38854000  0.26663000  1.0
  C  C84  1  0.92369000  0.46463000  0.77410000  1.0
  C  C85  1  0.59818000  0.92743000  0.77077000  1.0
  C  C86  1  0.46586000  0.61132000  0.76677000  1.0
  C  C87  1  0.40233000  0.61766000  0.23738000  1.0
  C  C88  1  0.43790000  0.45469000  0.93217000  1.0
  C  C89  1  0.60183000  0.97978000  0.23297000  1.0
  C  C90  1  0.97957000  0.40801000  0.22864000  1.0
  C  C91  1  0.01925000  0.38458000  0.73679000  1.0
  C  C92  1  0.58203000  0.02121000  0.73266000  1.0
  C  C93  1  0.38866000  0.59182000  0.72896000  1.0
  C  C94  1  0.45165000  0.48362000  0.11454000  1.0
  C  C95  1  0.46083000  0.06997000  0.11230000  1.0
  C  C96  1  0.07087000  0.46767000  0.10909000  1.0
  C  C97  1  0.93514000  0.51980000  0.61434000  1.0
  C  C98  1  0.53108000  0.92957000  0.61244000  1.0
  C  C99  1  0.12574000  0.43818000  0.93509000  1.0
  C  C100  1  0.53865000  0.53194000  0.60929000  1.0
  C  C101  1  0.53878000  0.53384000  0.38954000  1.0
  C  C102  1  0.52870000  0.92759000  0.38650000  1.0
  C  C103  1  0.93408000  0.52248000  0.38428000  1.0
  C  C104  1  0.07265000  0.46428000  0.88941000  1.0
  C  C105  1  0.45887000  0.07434000  0.88643000  1.0
  C  C106  1  0.45749000  0.47911000  0.88477000  1.0
  C  C107  1  0.46179000  0.42439000  0.24345000  1.0
  C  C108  1  0.40657000  0.11182000  0.24111000  1.0
  C  C109  1  0.11534000  0.46742000  0.23831000  1.0
  C  C110  1  0.50807000  0.51395000  0.29964000  1.0
  C  C111  1  0.88629000  0.57790000  0.74335000  1.0
  C  C112  1  0.51982000  0.88846000  0.74151000  1.0
  C  C113  1  0.58392000  0.53220000  0.73841000  1.0
  C  C114  1  0.47620000  0.50531000  0.20484000  1.0
  C  C115  1  0.48542000  0.01822000  0.20199000  1.0
  C  C116  1  0.01929000  0.48654000  0.19889000  1.0
  C  C117  1  0.98146000  0.49762000  0.70466000  1.0
  C  C118  1  0.50410000  0.98187000  0.70208000  1.0
  C  C119  1  0.50661000  0.51303000  0.69918000  1.0
  C  C120  1  0.58199000  0.40166000  0.26710000  1.0
  C  C121  1  0.50152000  0.97689000  0.29660000  1.0
  C  C122  1  0.38514000  0.01534000  0.26560000  1.0
  C  C123  1  0.01895000  0.58185000  0.26409000  1.0
  C  C124  1  0.98417000  0.59940000  0.76739000  1.0
  C  C125  1  0.40213000  0.98476000  0.76607000  1.0
  C  C126  1  0.60188000  0.41794000  0.76444000  1.0
  C  C127  1  0.97919000  0.50329000  0.29387000  1.0
  O  O128  1  0.87140000  0.64579000  0.44894000  1.0
  O  O129  1  0.51716000  0.15080000  0.94773000  1.0
  O  O130  1  0.33705000  0.53147000  0.95116000  1.0
  O  O131  1  0.15282000  0.33635000  0.95243000  1.0
  O  O132  1  0.86685000  0.64896000  0.55148000  1.0
  O  O133  1  0.66948000  0.48148000  0.54623000  1.0
  O  O134  1  0.48168000  0.85606000  0.54731000  1.0
  O  O135  1  0.51332000  0.35134000  0.05299000  1.0
  O  O136  1  0.15101000  0.51925000  0.04623000  1.0
  O  O137  1  0.33738000  0.14373000  0.04731000  1.0
  O  O138  1  0.65946000  0.85859000  0.54875000  1.0
  O  O139  1  0.66549000  0.48300000  0.45398000  1.0
  O  O140  1  0.87361000  0.46962000  0.54551000  1.0
  O  O141  1  0.49115000  0.65605000  0.54494000  1.0
  O  O142  1  0.51736000  0.14183000  0.04864000  1.0
  O  O143  1  0.34337000  0.53170000  0.04473000  1.0
  O  O144  1  0.14730000  0.34455000  0.04447000  1.0
  O  O145  1  0.68259000  0.66967000  0.49952000  1.0
  O  O146  1  0.35218000  0.33099000  0.99958000  1.0
  O  O147  1  0.48031000  0.86182000  0.45448000  1.0
  O  O148  1  0.51757000  0.35906000  0.95060000  1.0
  O  O149  1  0.14749000  0.51546000  0.95403000  1.0
  O  O150  1  0.34558000  0.13782000  0.95457000  1.0
  O  O151  1  0.66335000  0.85217000  0.44780000  1.0
  O  O152  1  0.87018000  0.46989000  0.45194000  1.0
  O  O153  1  0.49059000  0.66082000  0.45283000  1.0
  O  O154  1  0.85323000  0.82976000  0.49744000  1.0
  O  O155  1  0.68262000  0.17108000  0.00210000  1.0
