# generated using pymatgen
data_ZnH10C14Cl2O5
_symmetry_space_group_name_H-M   'P 1'
_cell_length_a   5.83372000
_cell_length_b   7.79832000
_cell_length_c   16.15460000
_cell_angle_alpha   83.18800000
_cell_angle_beta   81.06390000
_cell_angle_gamma   87.54990000
_symmetry_Int_Tables_number   1
_chemical_formula_structural   ZnH10C14Cl2O5
_chemical_formula_sum   'Zn2 H20 C28 Cl4 O10'
_cell_volume   720.65753177
_cell_formula_units_Z   2
loop_
 _symmetry_equiv_pos_site_id
 _symmetry_equiv_pos_as_xyz
  1  'x, y, z'
loop_
 _atom_site_type_symbol
 _atom_site_label
 _atom_site_symmetry_multiplicity
 _atom_site_fract_x
 _atom_site_fract_y
 _atom_site_fract_z
 _atom_site_occupancy
  Zn  Zn0  1  0.81088000  0.25333000  0.99638000  1.0
  Zn  Zn1  1  0.18911000  0.74668000  0.00361000  1.0
  H  H2  1  0.36627000  0.35285000  0.00610000  1.0
  H  H3  1  0.39854000  0.16183000  0.97712000  1.0
  H  H4  1  0.63372000  0.64716000  0.99388000  1.0
  H  H5  1  0.60143000  0.83817000  0.02288000  1.0
  H  H6  1  0.98608000  0.81904000  0.26358000  1.0
  H  H7  1  0.25937000  0.68501000  0.73920000  1.0
  H  H8  1  0.01394000  0.18097000  0.73642000  1.0
  H  H9  1  0.74064000  0.31500000  0.26081000  1.0
  H  H10  1  0.38964000  0.00440000  0.42528000  1.0
  H  H11  1  0.85114000  0.50197000  0.56753000  1.0
  H  H12  1  0.61043000  0.99556000  0.57474000  1.0
  H  H13  1  0.14889000  0.49805000  0.43245000  1.0
  H  H14  1  0.20452000  0.10716000  0.29928000  1.0
  H  H15  1  0.55285000  0.40098000  0.68826000  1.0
  H  H16  1  0.79544000  0.89283000  0.70075000  1.0
  H  H17  1  0.44718000  0.59903000  0.31172000  1.0
  H  H18  1  0.41293000  0.06981000  0.15490000  1.0
  H  H19  1  0.60799000  0.44034000  0.83544000  1.0
  H  H20  1  0.58702000  0.93016000  0.84512000  1.0
  H  H21  1  0.39202000  0.55968000  0.16455000  1.0
  C  C22  1  0.83288000  0.91424000  0.11499000  1.0
  C  C23  1  0.96195000  0.59556000  0.88337000  1.0
  C  C24  1  0.16708000  0.08579000  0.88501000  1.0
  C  C25  1  0.03806000  0.40442000  0.11662000  1.0
  C  C26  1  0.71062000  0.94140000  0.20081000  1.0
  C  C27  1  0.93485000  0.56669000  0.79581000  1.0
  C  C28  1  0.28936000  0.05861000  0.79920000  1.0
  C  C29  1  0.06518000  0.43328000  0.20419000  1.0
  C  C30  1  0.81574000  0.88273000  0.27165000  1.0
  C  C31  1  0.10534000  0.62276000  0.72793000  1.0
  C  C32  1  0.18426000  0.11725000  0.72835000  1.0
  C  C33  1  0.89469000  0.37724000  0.27207000  1.0
  C  C34  1  0.69970000  0.90868000  0.35147000  1.0
  C  C35  1  0.07384000  0.59653000  0.64657000  1.0
  C  C36  1  0.30030000  0.09130000  0.64853000  1.0
  C  C37  1  0.92622000  0.40347000  0.35342000  1.0
  C  C38  1  0.47886000  0.98718000  0.36231000  1.0
  C  C39  1  0.87456000  0.51932000  0.63155000  1.0
  C  C40  1  0.52115000  0.01281000  0.63770000  1.0
  C  C41  1  0.12547000  0.48070000  0.36844000  1.0
  C  C42  1  0.37564000  0.04425000  0.29122000  1.0
  C  C43  1  0.70672000  0.46345000  0.69976000  1.0
  C  C44  1  0.62433000  0.95574000  0.70880000  1.0
  C  C45  1  0.29330000  0.53657000  0.30022000  1.0
  C  C46  1  0.49093000  0.02326000  0.21068000  1.0
  C  C47  1  0.73625000  0.48580000  0.78171000  1.0
  C  C48  1  0.50904000  0.97673000  0.78935000  1.0
  C  C49  1  0.26376000  0.51421000  0.21828000  1.0
  Cl  Cl50  1  0.83477000  0.84393000  0.43901000  1.0
  Cl  Cl51  1  0.28764000  0.65972000  0.56224000  1.0
  Cl  Cl52  1  0.16529000  0.15608000  0.56098000  1.0
  Cl  Cl53  1  0.71242000  0.34030000  0.43775000  1.0
  O  O54  1  0.75252000  0.98886000  0.04997000  1.0
  O  O55  1  0.82013000  0.52485000  0.94514000  1.0
  O  O56  1  0.24740000  0.01117000  0.95004000  1.0
  O  O57  1  0.17985000  0.47514000  0.05486000  1.0
  O  O58  1  0.00883000  0.81117000  0.11048000  1.0
  O  O59  1  0.12253000  0.69501000  0.89250000  1.0
  O  O60  1  0.99111000  0.18885000  0.88951000  1.0
  O  O61  1  0.87743000  0.30499000  0.10751000  1.0
  O  O62  1  0.48057000  0.27136000  0.97711000  1.0
  O  O63  1  0.51941000  0.72864000  0.02288000  1.0
