# generated using pymatgen
data_Al2H9C12N2O10F
_symmetry_space_group_name_H-M   'P 1'
_cell_length_a   6.71058000
_cell_length_b   8.81027000
_cell_length_c   10.81807698
_cell_angle_alpha   111.96162818
_cell_angle_beta   95.40207897
_cell_angle_gamma   104.85000000
_symmetry_Int_Tables_number   1
_chemical_formula_structural   Al2H9C12N2O10F
_chemical_formula_sum   'Al2 H9 C12 N2 O10 F1'
_cell_volume   560.33777498
_cell_formula_units_Z   1
loop_
 _symmetry_equiv_pos_site_id
 _symmetry_equiv_pos_as_xyz
  1  'x, y, z'
loop_
 _atom_site_type_symbol
 _atom_site_label
 _atom_site_symmetry_multiplicity
 _atom_site_fract_x
 _atom_site_fract_y
 _atom_site_fract_z
 _atom_site_occupancy
  Al  Al0  1  0.49997000  0.99924000  0.49945000  1.0
  Al  Al1  1  0.99887000  0.99782000  0.49627000  1.0
  H  H2  1  0.79023000  0.03084000  0.66824000  1.0
  H  H3  1  0.23717000  0.02426000  0.34173000  1.0
  H  H4  1  0.87971000  0.64655000  0.09427000  1.0
  H  H5  1  0.23696000  0.59504000  0.13569000  1.0
  H  H6  1  0.74997000  0.39582000  0.86538000  1.0
  H  H7  1  0.24810000  0.37835000  0.52658000  1.0
  H  H8  1  0.41545000  0.58434000  0.56330000  1.0
  H  H9  1  0.75180000  0.62330000  0.47515000  1.0
  H  H10  1  0.58159000  0.41655000  0.43620000  1.0
  C  C11  1  0.15915000  0.72730000  0.51977000  1.0
  C  C12  1  0.35620000  0.20750000  0.73318000  1.0
  C  C13  1  0.83841000  0.26936000  0.47366000  1.0
  C  C14  1  0.63907000  0.78677000  0.26459000  1.0
  C  C15  1  0.42328000  0.35336000  0.87146000  1.0
  C  C16  1  0.56660000  0.63801000  0.12782000  1.0
  C  C17  1  0.28226000  0.41249000  0.95084000  1.0
  C  C18  1  0.71170000  0.58056000  0.05238000  1.0
  C  C19  1  0.35027000  0.55276000  0.07650000  1.0
  C  C20  1  0.63979000  0.44114000  0.92596000  1.0
  C  C21  1  0.10392000  0.54863000  0.50798000  1.0
  C  C22  1  0.89430000  0.44863000  0.48638000  1.0
  N  N23  1  0.27531000  0.49025000  0.51444000  1.0
  N  N24  1  0.72422000  0.50802000  0.48174000  1.0
  O  O25  1  0.35484000  0.80644000  0.53485000  1.0
  O  O26  1  0.16055000  0.14372000  0.67840000  1.0
  O  O27  1  0.98569000  0.20072000  0.47452000  1.0
  O  O28  1  0.49655000  0.83763000  0.32147000  1.0
  O  O29  1  0.64291000  0.19196000  0.46131000  1.0
  O  O30  1  0.83663000  0.85029000  0.31453000  1.0
  O  O31  1  0.01127000  0.79452000  0.51565000  1.0
  O  O32  1  0.50278000  0.15941000  0.67904000  1.0
  O  O33  1  0.75631000  0.98466000  0.56940000  1.0
  O  O34  1  0.24540000  0.01594000  0.42863000  1.0
  F  F35  1  0.07042000  0.33205000  0.90771000  1.0
