# generated using pymatgen
data_ZnH20C26NO4
_symmetry_space_group_name_H-M   'P 1'
_cell_length_a   13.05070000
_cell_length_b   13.05060000
_cell_length_c   16.10310000
_cell_angle_alpha   91.90440000
_cell_angle_beta   91.90580000
_cell_angle_gamma   107.83200000
_symmetry_Int_Tables_number   1
_chemical_formula_structural   ZnH20C26NO4
_chemical_formula_sum   'Zn4 H80 C104 N4 O16'
_cell_volume   2606.74689966
_cell_formula_units_Z   4
loop_
 _symmetry_equiv_pos_site_id
 _symmetry_equiv_pos_as_xyz
  1  'x, y, z'
loop_
 _atom_site_type_symbol
 _atom_site_label
 _atom_site_symmetry_multiplicity
 _atom_site_fract_x
 _atom_site_fract_y
 _atom_site_fract_z
 _atom_site_occupancy
  Zn  Zn0  1  0.57154000  0.56145000  0.44036000  1.0
  Zn  Zn1  1  0.43855000  0.42846000  0.05964000  1.0
  Zn  Zn2  1  0.42846000  0.43855000  0.55964000  1.0
  Zn  Zn3  1  0.56145000  0.57154000  0.94036000  1.0
  H  H4  1  0.74067000  0.76810000  0.45231000  1.0
  H  H5  1  0.23190000  0.25934000  0.04770000  1.0
  H  H6  1  0.25934000  0.23190000  0.54770000  1.0
  H  H7  1  0.76810000  0.74066000  0.95231000  1.0
  H  H8  1  0.86678000  0.89161000  0.35986000  1.0
  H  H9  1  0.10840000  0.13322000  0.14014000  1.0
  H  H10  1  0.13323000  0.10840000  0.64015000  1.0
  H  H11  1  0.89161000  0.86677000  0.85985000  1.0
  H  H12  1  0.75393000  0.64367000  0.16295000  1.0
  H  H13  1  0.35632000  0.24605000  0.33705000  1.0
  H  H14  1  0.24607000  0.35633000  0.83705000  1.0
  H  H15  1  0.64368000  0.75395000  0.66295000  1.0
  H  H16  1  0.63517000  0.53119000  0.26387000  1.0
  H  H17  1  0.46880000  0.36481000  0.23614000  1.0
  H  H18  1  0.36482000  0.46881000  0.73613000  1.0
  H  H19  1  0.53120000  0.63519000  0.76386000  1.0
  H  H20  1  0.93969000  0.92972000  0.22591000  1.0
  H  H21  1  0.07028000  0.06030000  0.27409000  1.0
  H  H22  1  0.06031000  0.07029000  0.77410000  1.0
  H  H23  1  0.92972000  0.93969000  0.72591000  1.0
  H  H24  1  0.82147000  0.77259000  0.08276000  1.0
  H  H25  1  0.22741000  0.17853000  0.41724000  1.0
  H  H26  1  0.17853000  0.22741000  0.91724000  1.0
  H  H27  1  0.77259000  0.82147000  0.58276000  1.0
  H  H28  1  0.80817000  0.00270000  0.14682000  1.0
  H  H29  1  0.99730000  0.19183000  0.35318000  1.0
  H  H30  1  0.19183000  0.99731000  0.85318000  1.0
  H  H31  1  0.00269000  0.80816000  0.64682000  1.0
  H  H32  1  0.79594000  0.09338000  0.07035000  1.0
  H  H33  1  0.90662000  0.20406000  0.42964000  1.0
  H  H34  1  0.20406000  0.90662000  0.92965000  1.0
  H  H35  1  0.09338000  0.79594000  0.57035000  1.0
  H  H36  1  0.89763000  0.13668000  0.14959000  1.0
  H  H37  1  0.86332000  0.10236000  0.35041000  1.0
  H  H38  1  0.10236000  0.86332000  0.85041000  1.0
  H  H39  1  0.13668000  0.89764000  0.64959000  1.0
  H  H40  1  0.98350000  0.74210000  0.05870000  1.0
  H  H41  1  0.25790000  0.01651000  0.44131000  1.0
  H  H42  1  0.01650000  0.25790000  0.94131000  1.0
  H  H43  1  0.74210000  0.98349000  0.55869000  1.0
  H  H44  1  0.10906000  0.78944000  0.01209000  1.0
  H  H45  1  0.21056000  0.89094000  0.48791000  1.0
  H  H46  1  0.89094000  0.21056000  0.98791000  1.0
  H  H47  1  0.78944000  0.10906000  0.51209000  1.0
  H  H48  1  0.99104000  0.73574000  0.94855000  1.0
  H  H49  1  0.26426000  0.00896000  0.55146000  1.0
  H  H50  1  0.00895000  0.26426000  0.05146000  1.0
  H  H51  1  0.73574000  0.99104000  0.44854000  1.0
  H  H52  1  0.56850000  0.88222000  0.52079000  1.0
  H  H53  1  0.11779000  0.43150000  0.97921000  1.0
  H  H54  1  0.43150000  0.11778000  0.47920000  1.0
  H  H55  1  0.88221000  0.56850000  0.02079000  1.0
  H  H56  1  0.56399000  0.04817000  0.59877000  1.0
  H  H57  1  0.95183000  0.43600000  0.90124000  1.0
  H  H58  1  0.43601000  0.95183000  0.40123000  1.0
  H  H59  1  0.04817000  0.56399000  0.09876000  1.0
  H  H60  1  0.30920000  0.85523000  0.74379000  1.0
  H  H61  1  0.14476000  0.69080000  0.75622000  1.0
  H  H62  1  0.69080000  0.14477000  0.25622000  1.0
  H  H63  1  0.85523000  0.30920000  0.24379000  1.0
  H  H64  1  0.32131000  0.68961000  0.66874000  1.0
  H  H65  1  0.31039000  0.67870000  0.83126000  1.0
  H  H66  1  0.67869000  0.31039000  0.33126000  1.0
  H  H67  1  0.68961000  0.32131000  0.16875000  1.0
  H  H68  1  0.49802000  0.17580000  0.63392000  1.0
  H  H69  1  0.82420000  0.50198000  0.86608000  1.0
  H  H70  1  0.50199000  0.82420000  0.36608000  1.0
  H  H71  1  0.17579000  0.49801000  0.13390000  1.0
  H  H72  1  0.51832000  0.33563000  0.72568000  1.0
  H  H73  1  0.66437000  0.48169000  0.77433000  1.0
  H  H74  1  0.48169000  0.66437000  0.27432000  1.0
  H  H75  1  0.33563000  0.51832000  0.22566000  1.0
  H  H76  1  0.39699000  0.13381000  0.92854000  1.0
  H  H77  1  0.86619000  0.60301000  0.57146000  1.0
  H  H78  1  0.60301000  0.86619000  0.07146000  1.0
  H  H79  1  0.13382000  0.39698000  0.42853000  1.0
  H  H80  1  0.38732000  0.97155000  0.83956000  1.0
  H  H81  1  0.02844000  0.61267000  0.66044000  1.0
  H  H82  1  0.61267000  0.02845000  0.16044000  1.0
  H  H83  1  0.97156000  0.38732000  0.33955000  1.0
  C  C84  1  0.74708000  0.74446000  0.38768000  1.0
  C  C85  1  0.25554000  0.25292000  0.11232000  1.0
  C  C86  1  0.25292000  0.25554000  0.61233000  1.0
  C  C87  1  0.74446000  0.74708000  0.88767000  1.0
  C  C88  1  0.81634000  0.81261000  0.33558000  1.0
  C  C89  1  0.18739000  0.18366000  0.16441000  1.0
  C  C90  1  0.18366000  0.18739000  0.66442000  1.0
  C  C91  1  0.81261000  0.81634000  0.83558000  1.0
  C  C92  1  0.81880000  0.78018000  0.25172000  1.0
  C  C93  1  0.21982000  0.18119000  0.24827000  1.0
  C  C94  1  0.18121000  0.21982000  0.74828000  1.0
  C  C95  1  0.78018000  0.81880000  0.75172000  1.0
  C  C96  1  0.75430000  0.67537000  0.22638000  1.0
  C  C97  1  0.32463000  0.24568000  0.27362000  1.0
  C  C98  1  0.24570000  0.32463000  0.77362000  1.0
  C  C99  1  0.67537000  0.75431000  0.72638000  1.0
  C  C100  1  0.68794000  0.61162000  0.28250000  1.0
  C  C101  1  0.38838000  0.31206000  0.21750000  1.0
  C  C102  1  0.31206000  0.38838000  0.71750000  1.0
  C  C103  1  0.61163000  0.68794000  0.78250000  1.0
  C  C104  1  0.88408000  0.85661000  0.19575000  1.0
  C  C105  1  0.14338000  0.11592000  0.30425000  1.0
  C  C106  1  0.11592000  0.14339000  0.80426000  1.0
  C  C107  1  0.85662000  0.88409000  0.69575000  1.0
  C  C108  1  0.87780000  0.84609000  0.11218000  1.0
  C  C109  1  0.15391000  0.12220000  0.38782000  1.0
  C  C110  1  0.12220000  0.15391000  0.88783000  1.0
  C  C111  1  0.84609000  0.87780000  0.61218000  1.0
  C  C112  1  0.94073000  0.92670000  0.05598000  1.0
  C  C113  1  0.07330000  0.05928000  0.44402000  1.0
  C  C114  1  0.05927000  0.07331000  0.94402000  1.0
  C  C115  1  0.92670000  0.94073000  0.55598000  1.0
  C  C116  1  0.92971000  0.03115000  0.05401000  1.0
  C  C117  1  0.96885000  0.07029000  0.44599000  1.0
  C  C118  1  0.07028000  0.96885000  0.94600000  1.0
  C  C119  1  0.03115000  0.92972000  0.55401000  1.0
  C  C120  1  0.01062000  0.89585000  0.00226000  1.0
  C  C121  1  0.10416000  0.98938000  0.49775000  1.0
  C  C122  1  0.98937000  0.10415000  0.99774000  1.0
  C  C123  1  0.89584000  0.01063000  0.50226000  1.0
  C  C124  1  0.85396000  0.06678000  0.10834000  1.0
  C  C125  1  0.93322000  0.14604000  0.39166000  1.0
  C  C126  1  0.14604000  0.93322000  0.89167000  1.0
  C  C127  1  0.06678000  0.85396000  0.60834000  1.0
  C  C128  1  0.02368000  0.78528000  0.00581000  1.0
  C  C129  1  0.21472000  0.97632000  0.49420000  1.0
  C  C130  1  0.97632000  0.21472000  0.99420000  1.0
  C  C131  1  0.78528000  0.02368000  0.50580000  1.0
  C  C132  1  0.44695000  0.77609000  0.59122000  1.0
  C  C133  1  0.22391000  0.55305000  0.90878000  1.0
  C  C134  1  0.55304000  0.22391000  0.40878000  1.0
  C  C135  1  0.77609000  0.44696000  0.09122000  1.0
  C  C136  1  0.51230000  0.87773000  0.57004000  1.0
  C  C137  1  0.12227000  0.48770000  0.92997000  1.0
  C  C138  1  0.48770000  0.12227000  0.42996000  1.0
  C  C139  1  0.87773000  0.51231000  0.07003000  1.0
  C  C140  1  0.50854000  0.97029000  0.61341000  1.0
  C  C141  1  0.02972000  0.49146000  0.88660000  1.0
  C  C142  1  0.49146000  0.02971000  0.38659000  1.0
  C  C143  1  0.97028000  0.50854000  0.11340000  1.0
  C  C144  1  0.43767000  0.96398000  0.67840000  1.0
  C  C145  1  0.03601000  0.56233000  0.82160000  1.0
  C  C146  1  0.56233000  0.03602000  0.32159000  1.0
  C  C147  1  0.96398000  0.43766000  0.17840000  1.0
  C  C148  1  0.36757000  0.86177000  0.69570000  1.0
  C  C149  1  0.13823000  0.63243000  0.80430000  1.0
  C  C150  1  0.63243000  0.13823000  0.30430000  1.0
  C  C151  1  0.86176000  0.36757000  0.19570000  1.0
  C  C152  1  0.37284000  0.76906000  0.65350000  1.0
  C  C153  1  0.23094000  0.62717000  0.84651000  1.0
  C  C154  1  0.62717000  0.23094000  0.34650000  1.0
  C  C155  1  0.76906000  0.37284000  0.15350000  1.0
  C  C156  1  0.44130000  0.06075000  0.72982000  1.0
  C  C157  1  0.93925000  0.55869000  0.77018000  1.0
  C  C158  1  0.55870000  0.93925000  0.27017000  1.0
  C  C159  1  0.06075000  0.44129000  0.22981000  1.0
  C  C160  1  0.47804000  0.16481000  0.69894000  1.0
  C  C161  1  0.83520000  0.52196000  0.80107000  1.0
  C  C162  1  0.52197000  0.83520000  0.30106000  1.0
  C  C163  1  0.16480000  0.47804000  0.19893000  1.0
  C  C164  1  0.48833000  0.25560000  0.75022000  1.0
  C  C165  1  0.74441000  0.51168000  0.74978000  1.0
  C  C166  1  0.51168000  0.74441000  0.24978000  1.0
  C  C167  1  0.25560000  0.48832000  0.25021000  1.0
  C  C168  1  0.45841000  0.24457000  0.83304000  1.0
  C  C169  1  0.75543000  0.54160000  0.66696000  1.0
  C  C170  1  0.54159000  0.75543000  0.16696000  1.0
  C  C171  1  0.24457000  0.45840000  0.33303000  1.0
  C  C172  1  0.41961000  0.14133000  0.86395000  1.0
  C  C173  1  0.85867000  0.58039000  0.63605000  1.0
  C  C174  1  0.58040000  0.85867000  0.13605000  1.0
  C  C175  1  0.14133000  0.41960000  0.36395000  1.0
  C  C176  1  0.41264000  0.05094000  0.81338000  1.0
  C  C177  1  0.94906000  0.58736000  0.68662000  1.0
  C  C178  1  0.58736000  0.94906000  0.18662000  1.0
  C  C179  1  0.05095000  0.41264000  0.31337000  1.0
  C  C180  1  0.46210000  0.67626000  0.55250000  1.0
  C  C181  1  0.32374000  0.53790000  0.94750000  1.0
  C  C182  1  0.53789000  0.32374000  0.44749000  1.0
  C  C183  1  0.67626000  0.46211000  0.05251000  1.0
  C  C184  1  0.46737000  0.34092000  0.88905000  1.0
  C  C185  1  0.65908000  0.53263000  0.61096000  1.0
  C  C186  1  0.53264000  0.65908000  0.11096000  1.0
  C  C187  1  0.34092000  0.46736000  0.38904000  1.0
  N  N188  1  0.68254000  0.64612000  0.36167000  1.0
  N  N189  1  0.35388000  0.31746000  0.13833000  1.0
  N  N190  1  0.31746000  0.35389000  0.63833000  1.0
  N  N191  1  0.64612000  0.68254000  0.86167000  1.0
  O  O192  1  0.52500000  0.68758000  0.49226000  1.0
  O  O193  1  0.31242000  0.47501000  0.00776000  1.0
  O  O194  1  0.47499000  0.31242000  0.50774000  1.0
  O  O195  1  0.68759000  0.52501000  0.99226000  1.0
  O  O196  1  0.41339000  0.58807000  0.58528000  1.0
  O  O197  1  0.41192000  0.58661000  0.91472000  1.0
  O  O198  1  0.58661000  0.41193000  0.41472000  1.0
  O  O199  1  0.58807000  0.41338000  0.08527000  1.0
  O  O200  1  0.41951000  0.32342000  0.95731000  1.0
  O  O201  1  0.67658000  0.58048000  0.54269000  1.0
  O  O202  1  0.58047000  0.67659000  0.04268000  1.0
  O  O203  1  0.32341000  0.41952000  0.45731000  1.0
  O  O204  1  0.52162000  0.43300000  0.86475000  1.0
  O  O205  1  0.56700000  0.47838000  0.63525000  1.0
  O  O206  1  0.47840000  0.56700000  0.13525000  1.0
  O  O207  1  0.43300000  0.52162000  0.36475000  1.0
