# generated using pymatgen
data_Mg3H8C14(NO5)2
_symmetry_space_group_name_H-M   'P 1'
_cell_length_a   11.07540000
_cell_length_b   11.08440000
_cell_length_c   11.08440000
_cell_angle_alpha   67.64890000
_cell_angle_beta   79.74230000
_cell_angle_gamma   79.74230000
_symmetry_Int_Tables_number   1
_chemical_formula_structural   Mg3H8C14(NO5)2
_chemical_formula_sum   'Mg6 H16 C28 N4 O20'
_cell_volume   1229.28000147
_cell_formula_units_Z   2
loop_
 _symmetry_equiv_pos_site_id
 _symmetry_equiv_pos_as_xyz
  1  'x, y, z'
loop_
 _atom_site_type_symbol
 _atom_site_label
 _atom_site_symmetry_multiplicity
 _atom_site_fract_x
 _atom_site_fract_y
 _atom_site_fract_z
 _atom_site_occupancy
  Mg  Mg0  1  0.25000000  0.89911000  0.10089000  1.0
  Mg  Mg1  1  0.75000000  0.10089000  0.89911000  1.0
  Mg  Mg2  1  0.03856000  0.87780000  0.95503000  1.0
  Mg  Mg3  1  0.46144000  0.04497000  0.12220000  1.0
  Mg  Mg4  1  0.96144000  0.12220000  0.04497000  1.0
  Mg  Mg5  1  0.53856000  0.95503000  0.87780000  1.0
  H  H6  1  0.02592000  0.88200000  0.20223000  1.0
  H  H7  1  0.47408000  0.79777000  0.11800000  1.0
  H  H8  1  0.97408000  0.11800000  0.79777000  1.0
  H  H9  1  0.52592000  0.20223000  0.88200000  1.0
  H  H10  1  0.37387000  0.96129000  0.54670000  1.0
  H  H11  1  0.12613000  0.45330000  0.03871000  1.0
  H  H12  1  0.62613000  0.03871000  0.45330000  1.0
  H  H13  1  0.87387000  0.54670000  0.96129000  1.0
  H  H14  1  0.05559000  0.82868000  0.48423000  1.0
  H  H15  1  0.44440000  0.51577000  0.17132000  1.0
  H  H16  1  0.94441000  0.17132000  0.51577000  1.0
  H  H17  1  0.55560000  0.48423000  0.82868000  1.0
  H  H18  1  0.95983000  0.81969000  0.71144000  1.0
  H  H19  1  0.54017000  0.28856000  0.18030000  1.0
  H  H20  1  0.04017000  0.18031000  0.28856000  1.0
  H  H21  1  0.45983000  0.71144000  0.81970000  1.0
  C  C22  1  0.22361000  0.91924000  0.70473000  1.0
  C  C23  1  0.27639000  0.29527000  0.08076000  1.0
  C  C24  1  0.77639000  0.08076000  0.29527000  1.0
  C  C25  1  0.72361000  0.70473000  0.91924000  1.0
  C  C26  1  0.28228000  0.92924000  0.57972000  1.0
  C  C27  1  0.21772000  0.42028000  0.07077000  1.0
  C  C28  1  0.71772000  0.07077000  0.42028000  1.0
  C  C29  1  0.78228000  0.57972000  0.92923000  1.0
  C  C30  1  0.22082000  0.89773000  0.49776000  1.0
  C  C31  1  0.27918000  0.50224000  0.10227000  1.0
  C  C32  1  0.77918000  0.10227000  0.50224000  1.0
  C  C33  1  0.72082000  0.49776000  0.89773000  1.0
  C  C34  1  0.10412000  0.85560000  0.54577000  1.0
  C  C35  1  0.39588000  0.45423000  0.14440000  1.0
  C  C36  1  0.89588000  0.14440000  0.45423000  1.0
  C  C37  1  0.60412000  0.54577000  0.85560000  1.0
  C  C38  1  0.05134000  0.85061000  0.67121000  1.0
  C  C39  1  0.44866000  0.32879000  0.14939000  1.0
  C  C40  1  0.94866000  0.14939000  0.32879000  1.0
  C  C41  1  0.55134000  0.67121000  0.85061000  1.0
  C  C42  1  0.28546000  0.94501000  0.80201000  1.0
  C  C43  1  0.21454000  0.19799000  0.05500000  1.0
  C  C44  1  0.71454000  0.05500000  0.19799000  1.0
  C  C45  1  0.78546000  0.80201000  0.94501000  1.0
  C  C46  1  0.27662000  0.91249000  0.35884000  1.0
  C  C47  1  0.22338000  0.64116000  0.08751000  1.0
  C  C48  1  0.72338000  0.08751000  0.64116000  1.0
  C  C49  1  0.77662000  0.35884000  0.91249000  1.0
  N  N50  1  0.10893000  0.88271000  0.74931000  1.0
  N  N51  1  0.39107000  0.25069000  0.11729000  1.0
  N  N52  1  0.89107000  0.11729000  0.25069000  1.0
  N  N53  1  0.60893000  0.74931000  0.88271000  1.0
  O  O54  1  0.21733000  0.94251000  0.90843000  1.0
  O  O55  1  0.28267000  0.09157000  0.05749000  1.0
  O  O56  1  0.78267000  0.05749000  0.09157000  1.0
  O  O57  1  0.71733000  0.90843000  0.94251000  1.0
  O  O58  1  0.39742000  0.96322000  0.77486000  1.0
  O  O59  1  0.10258000  0.22514000  0.03678000  1.0
  O  O60  1  0.60258000  0.03678000  0.22514000  1.0
  O  O61  1  0.89742000  0.77486000  0.96322000  1.0
  O  O62  1  0.37095000  0.97303000  0.31358000  1.0
  O  O63  1  0.12904000  0.68642000  0.02698000  1.0
  O  O64  1  0.62905000  0.02697000  0.68642000  1.0
  O  O65  1  0.87095000  0.31358000  0.97302000  1.0
  O  O66  1  0.22183000  0.86537000  0.29846000  1.0
  O  O67  1  0.27817000  0.70154000  0.13463000  1.0
  O  O68  1  0.77818000  0.13463000  0.70153000  1.0
  O  O69  1  0.72182000  0.29846000  0.86537000  1.0
  O  O70  1  0.05414000  0.93125000  0.11141000  1.0
  O  O71  1  0.44587000  0.88859000  0.06875000  1.0
  O  O72  1  0.94587000  0.06875000  0.88859000  1.0
  O  O73  1  0.55414000  0.11141000  0.93125000  1.0
