# generated using pymatgen
data_HgH3C5(NO)2
_symmetry_space_group_name_H-M   'P 1'
_cell_length_a   6.90619000
_cell_length_b   6.90627000
_cell_length_c   14.07210000
_cell_angle_alpha   90.77560000
_cell_angle_beta   90.77320000
_cell_angle_gamma   103.14400000
_symmetry_Int_Tables_number   1
_chemical_formula_structural   HgH3C5(NO)2
_chemical_formula_sum   'Hg4 H12 C20 N8 O8'
_cell_volume   653.44460653
_cell_formula_units_Z   4
loop_
 _symmetry_equiv_pos_site_id
 _symmetry_equiv_pos_as_xyz
  1  'x, y, z'
loop_
 _atom_site_type_symbol
 _atom_site_label
 _atom_site_symmetry_multiplicity
 _atom_site_fract_x
 _atom_site_fract_y
 _atom_site_fract_z
 _atom_site_occupancy
  Hg  Hg0  1  0.48830000  0.20128000  0.54617000  1.0
  Hg  Hg1  1  0.20135000  0.48837000  0.04615000  1.0
  Hg  Hg2  1  0.63826000  0.58387000  0.56048000  1.0
  Hg  Hg3  1  0.58397000  0.63822000  0.06046000  1.0
  H  H4  1  0.58673000  0.03482000  0.33367000  1.0
  H  H5  1  0.03479000  0.58673000  0.83366000  1.0
  H  H6  1  0.41292000  0.94036000  0.17530000  1.0
  H  H7  1  0.94029000  0.41286000  0.67531000  1.0
  H  H8  1  0.44569000  0.76894000  0.86664000  1.0
  H  H9  1  0.76905000  0.44577000  0.36668000  1.0
  H  H10  1  0.49291000  0.45396000  0.77484000  1.0
  H  H11  1  0.45409000  0.49302000  0.27488000  1.0
  H  H12  1  0.54849000  0.05574000  0.98626000  1.0
  H  H13  1  0.05586000  0.54864000  0.48629000  1.0
  H  H14  1  0.04304000  0.05727000  0.45389000  1.0
  H  H15  1  0.05726000  0.04311000  0.95391000  1.0
  C  C16  1  0.42642000  0.01785000  0.32511000  1.0
  C  C17  1  0.01781000  0.42642000  0.82511000  1.0
  C  C18  1  0.12462000  0.94229000  0.23405000  1.0
  C  C19  1  0.94222000  0.12459000  0.73408000  1.0
  C  C20  1  0.33029000  0.96328000  0.23801000  1.0
  C  C21  1  0.96322000  0.33025000  0.73801000  1.0
  C  C22  1  0.42316000  0.97099000  0.75314000  1.0
  C  C23  1  0.97112000  0.42325000  0.25317000  1.0
  C  C24  1  0.45771000  0.92300000  0.84691000  1.0
  C  C25  1  0.92311000  0.45781000  0.34694000  1.0
  C  C26  1  0.48725000  0.30151000  0.79643000  1.0
  C  C27  1  0.30163000  0.48736000  0.29647000  1.0
  C  C28  1  0.51362000  0.08043000  0.91201000  1.0
  C  C29  1  0.08054000  0.51373000  0.41205000  1.0
  C  C30  1  0.12543000  0.02896000  0.39124000  1.0
  C  C31  1  0.02893000  0.12548000  0.89125000  1.0
  C  C32  1  0.00919000  0.87731000  0.14133000  1.0
  C  C33  1  0.87722000  0.00910000  0.64136000  1.0
  C  C34  1  0.38175000  0.81236000  0.67514000  1.0
  C  C35  1  0.81249000  0.38183000  0.17516000  1.0
  N  N36  1  0.43687000  0.16049000  0.72858000  1.0
  N  N37  1  0.16062000  0.43695000  0.22861000  1.0
  N  N38  1  0.52923000  0.27052000  0.88731000  1.0
  N  N39  1  0.27064000  0.52935000  0.38734000  1.0
  N  N40  1  0.02157000  0.97387000  0.31124000  1.0
  N  N41  1  0.97381000  0.02158000  0.81128000  1.0
  N  N42  1  0.32390000  0.05225000  0.40139000  1.0
  N  N43  1  0.05224000  0.32393000  0.90139000  1.0
  O  O44  1  0.40010000  0.86789000  0.58811000  1.0
  O  O45  1  0.86800000  0.40020000  0.08813000  1.0
  O  O46  1  0.34303000  0.63465000  0.70018000  1.0
  O  O47  1  0.63476000  0.34311000  0.20021000  1.0
  O  O48  1  0.10611000  0.85529000  0.06867000  1.0
  O  O49  1  0.85518000  0.10598000  0.56869000  1.0
  O  O50  1  0.81988000  0.84887000  0.14837000  1.0
  O  O51  1  0.84879000  0.81980000  0.64843000  1.0
