# generated using pymatgen
data_CdH16C16(IN4)2
_symmetry_space_group_name_H-M   'P 1'
_cell_length_a   8.15103000
_cell_length_b   8.79889000
_cell_length_c   16.53740000
_cell_angle_alpha   90.00010000
_cell_angle_beta   90.00000000
_cell_angle_gamma   116.06300000
_symmetry_Int_Tables_number   1
_chemical_formula_structural   CdH16C16(IN4)2
_chemical_formula_sum   'Cd2 H32 C32 I4 N16'
_cell_volume   1065.45365868
_cell_formula_units_Z   2
loop_
 _symmetry_equiv_pos_site_id
 _symmetry_equiv_pos_as_xyz
  1  'x, y, z'
loop_
 _atom_site_type_symbol
 _atom_site_label
 _atom_site_symmetry_multiplicity
 _atom_site_fract_x
 _atom_site_fract_y
 _atom_site_fract_z
 _atom_site_occupancy
  Cd  Cd0  1  0.00000000  0.50000000  0.50000000  1.0
  Cd  Cd1  1  0.00000000  0.00000000  0.00000000  1.0
  H  H2  1  0.52371000  0.32830000  0.44645000  1.0
  H  H3  1  0.47629000  0.17170000  0.94645000  1.0
  H  H4  1  0.47629000  0.67170000  0.55355000  1.0
  H  H5  1  0.52371000  0.82830000  0.05355000  1.0
  H  H6  1  0.86428000  0.08500000  0.42149000  1.0
  H  H7  1  0.13572000  0.41500000  0.92149000  1.0
  H  H8  1  0.13572000  0.91500000  0.57851000  1.0
  H  H9  1  0.86428000  0.58500000  0.07851000  1.0
  H  H10  1  0.22149000  0.06334000  0.42015000  1.0
  H  H11  1  0.77851000  0.43666000  0.92015000  1.0
  H  H12  1  0.77851000  0.93665000  0.57985000  1.0
  H  H13  1  0.22149000  0.56335000  0.07985000  1.0
  H  H14  1  0.23215000  0.87264000  0.39482000  1.0
  H  H15  1  0.76785000  0.62736000  0.89482000  1.0
  H  H16  1  0.76785000  0.12736000  0.60518000  1.0
  H  H17  1  0.23215000  0.37264000  0.10518000  1.0
  H  H18  1  0.50419000  0.08273000  0.23782000  1.0
  H  H19  1  0.49581000  0.41727000  0.73782000  1.0
  H  H20  1  0.49581000  0.91727000  0.76218000  1.0
  H  H21  1  0.50419000  0.58273000  0.26218000  1.0
  H  H22  1  0.39487000  0.09091000  0.09876000  1.0
  H  H23  1  0.60513000  0.40909000  0.59876000  1.0
  H  H24  1  0.60513000  0.90909000  0.90124000  1.0
  H  H25  1  0.39487000  0.59091000  0.40124000  1.0
  H  H26  1  0.87864000  0.99957000  0.18047000  1.0
  H  H27  1  0.12136000  0.50043000  0.68047000  1.0
  H  H28  1  0.12136000  0.00043000  0.81953000  1.0
  H  H29  1  0.87864000  0.49957000  0.31953000  1.0
  H  H30  1  0.96221000  0.97238000  0.32352000  1.0
  H  H31  1  0.03779000  0.52762000  0.82352000  1.0
  H  H32  1  0.03779000  0.02762000  0.67648000  1.0
  H  H33  1  0.96221000  0.47238000  0.17648000  1.0
  C  C34  1  0.57834000  0.23909000  0.43164000  1.0
  C  C35  1  0.42166000  0.26091000  0.93164000  1.0
  C  C36  1  0.42166000  0.76091000  0.56836000  1.0
  C  C37  1  0.57834000  0.73909000  0.06836000  1.0
  C  C38  1  0.74657000  0.11161000  0.41748000  1.0
  C  C39  1  0.25343000  0.38839000  0.91748000  1.0
  C  C40  1  0.25343000  0.88839000  0.58252000  1.0
  C  C41  1  0.74657000  0.61161000  0.08252000  1.0
  C  C42  1  0.28683000  0.00747000  0.37929000  1.0
  C  C43  1  0.71316000  0.49253000  0.87929000  1.0
  C  C44  1  0.71316000  0.99253000  0.62071000  1.0
  C  C45  1  0.28684000  0.50747000  0.12071000  1.0
  C  C46  1  0.24087000  0.02596000  0.29275000  1.0
  C  C47  1  0.75913000  0.47404000  0.79275000  1.0
  C  C48  1  0.75913000  0.97404000  0.70725000  1.0
  C  C49  1  0.24087000  0.52596000  0.20725000  1.0
  C  C50  1  0.36335000  0.06132000  0.22846000  1.0
  C  C51  1  0.63665000  0.43868000  0.72846000  1.0
  C  C52  1  0.63665000  0.93867000  0.77154000  1.0
  C  C53  1  0.36335000  0.56132000  0.27154000  1.0
  C  C54  1  0.30283000  0.06722000  0.15017000  1.0
  C  C55  1  0.69717000  0.43278000  0.65017000  1.0
  C  C56  1  0.69717000  0.93278000  0.84983000  1.0
  C  C57  1  0.30283000  0.56722000  0.34983000  1.0
  C  C58  1  0.01487000  0.01376000  0.19603000  1.0
  C  C59  1  0.98513000  0.48624000  0.69603000  1.0
  C  C60  1  0.98513000  0.98624000  0.80397000  1.0
  C  C61  1  0.01487000  0.51376000  0.30397000  1.0
  C  C62  1  0.06312000  0.00256000  0.27545000  1.0
  C  C63  1  0.93688000  0.49744000  0.77545000  1.0
  C  C64  1  0.93688000  0.99744000  0.72455000  1.0
  C  C65  1  0.06312000  0.50256000  0.22455000  1.0
  I  I66  1  0.80272000  0.70382000  0.45839000  1.0
  I  I67  1  0.19728000  0.79619000  0.95839000  1.0
  I  I68  1  0.19727000  0.29618000  0.54161000  1.0
  I  I69  1  0.80272000  0.20382000  0.04161000  1.0
  N  N70  1  0.48016000  0.08582000  0.39853000  1.0
  N  N71  1  0.51984000  0.41418000  0.89853000  1.0
  N  N72  1  0.51984000  0.91418000  0.60147000  1.0
  N  N73  1  0.48016000  0.58582000  0.10147000  1.0
  N  N74  1  0.58560000  0.00197000  0.38876000  1.0
  N  N75  1  0.41440000  0.49803000  0.88876000  1.0
  N  N76  1  0.41440000  0.99803000  0.61124000  1.0
  N  N77  1  0.58560000  0.50197000  0.11124000  1.0
  N  N78  1  0.74834000  0.25904000  0.44458000  1.0
  N  N79  1  0.25166000  0.24096000  0.94458000  1.0
  N  N80  1  0.25166000  0.74096000  0.55542000  1.0
  N  N81  1  0.74834000  0.75904000  0.05542000  1.0
  N  N82  1  0.13166000  0.04344000  0.13390000  1.0
  N  N83  1  0.86834000  0.45656000  0.63390000  1.0
  N  N84  1  0.86834000  0.95656000  0.86610000  1.0
  N  N85  1  0.13166000  0.54344000  0.36610000  1.0
