# generated using pymatgen
data_CuH7C7N3ClO
_symmetry_space_group_name_H-M   'P 1'
_cell_length_a   7.02378000
_cell_length_b   11.23350000
_cell_length_c   11.42300000
_cell_angle_alpha   69.96110000
_cell_angle_beta   87.07460000
_cell_angle_gamma   86.18420000
_symmetry_Int_Tables_number   1
_chemical_formula_structural   CuH7C7N3ClO
_chemical_formula_sum   'Cu4 H28 C28 N12 Cl4 O4'
_cell_volume   844.46888664
_cell_formula_units_Z   4
loop_
 _symmetry_equiv_pos_site_id
 _symmetry_equiv_pos_as_xyz
  1  'x, y, z'
loop_
 _atom_site_type_symbol
 _atom_site_label
 _atom_site_symmetry_multiplicity
 _atom_site_fract_x
 _atom_site_fract_y
 _atom_site_fract_z
 _atom_site_occupancy
  Cu  Cu0  1  0.82893000  0.91711000  0.37304000  1.0
  Cu  Cu1  1  0.17108000  0.08290000  0.62695000  1.0
  Cu  Cu2  1  0.36126000  0.83311000  0.53689000  1.0
  Cu  Cu3  1  0.63874000  0.16689000  0.46312000  1.0
  H  H4  1  0.99959000  0.70966000  0.27084000  1.0
  H  H5  1  0.00044000  0.29034000  0.72917000  1.0
  H  H6  1  0.98184000  0.67313000  0.06493000  1.0
  H  H7  1  0.01818000  0.32687000  0.93507000  1.0
  H  H8  1  0.81567000  0.84026000  0.88982000  1.0
  H  H9  1  0.18434000  0.15973000  0.11018000  1.0
  H  H10  1  0.68953000  0.04237000  0.92030000  1.0
  H  H11  1  0.31047000  0.95762000  0.07971000  1.0
  H  H12  1  0.37347000  0.37057000  0.52331000  1.0
  H  H13  1  0.62652000  0.62944000  0.47668000  1.0
  H  H14  1  0.25697000  0.59485000  0.40442000  1.0
  H  H15  1  0.74304000  0.40516000  0.59558000  1.0
  H  H16  1  0.35903000  0.69004000  0.17843000  1.0
  H  H17  1  0.64097000  0.30996000  0.82156000  1.0
  H  H18  1  0.55326000  0.55459000  0.07809000  1.0
  H  H19  1  0.44673000  0.44540000  0.92190000  1.0
  H  H20  1  0.73884000  0.97020000  0.68884000  1.0
  H  H21  1  0.26116000  0.02982000  0.31113000  1.0
  H  H22  1  0.71340000  0.82745000  0.65686000  1.0
  H  H23  1  0.28660000  0.17254000  0.34315000  1.0
  H  H24  1  0.94240000  0.89304000  0.63865000  1.0
  H  H25  1  0.05760000  0.10695000  0.36136000  1.0
  H  H26  1  0.09848000  0.42175000  0.11652000  1.0
  H  H27  1  0.90152000  0.57824000  0.88349000  1.0
  H  H28  1  0.02370000  0.31959000  0.26867000  1.0
  H  H29  1  0.97629000  0.68041000  0.73134000  1.0
  H  H30  1  0.92015000  0.47713000  0.20696000  1.0
  H  H31  1  0.07984000  0.52286000  0.79304000  1.0
  C  C32  1  0.71994000  0.09362000  0.13898000  1.0
  C  C33  1  0.28006000  0.90637000  0.86102000  1.0
  C  C34  1  0.67023000  0.30465000  0.19145000  1.0
  C  C35  1  0.32976000  0.69535000  0.80855000  1.0
  C  C36  1  0.78343000  0.98088000  0.10979000  1.0
  C  C37  1  0.21656000  0.01911000  0.89022000  1.0
  C  C38  1  0.93476000  0.78004000  0.18941000  1.0
  C  C39  1  0.06525000  0.21996000  0.81059000  1.0
  C  C40  1  0.92082000  0.76006000  0.07656000  1.0
  C  C41  1  0.07919000  0.23994000  0.92343000  1.0
  C  C42  1  0.83068000  0.85438000  0.97845000  1.0
  C  C43  1  0.16933000  0.14562000  0.02156000  1.0
  C  C44  1  0.76077000  0.96665000  0.99461000  1.0
  C  C45  1  0.23923000  0.03334000  0.00539000  1.0
  C  C46  1  0.56616000  0.39393000  0.24926000  1.0
  C  C47  1  0.43383000  0.60606000  0.75074000  1.0
  C  C48  1  0.40863000  0.41604000  0.42480000  1.0
  C  C49  1  0.59137000  0.58397000  0.57520000  1.0
  C  C50  1  0.34523000  0.53985000  0.35781000  1.0
  C  C51  1  0.65476000  0.46016000  0.64219000  1.0
  C  C52  1  0.40061000  0.59209000  0.23252000  1.0
  C  C53  1  0.59940000  0.40791000  0.76748000  1.0
  C  C54  1  0.51158000  0.51743000  0.17669000  1.0
  C  C55  1  0.48841000  0.48257000  0.82331000  1.0
  C  C56  1  0.78871000  0.91642000  0.62815000  1.0
  C  C57  1  0.21129000  0.08358000  0.37184000  1.0
  C  C58  1  0.97748000  0.39453000  0.18298000  1.0
  C  C59  1  0.02251000  0.60547000  0.81702000  1.0
  N  N60  1  0.70586000  0.18379000  0.29020000  1.0
  N  N61  1  0.29414000  0.81621000  0.70979000  1.0
  N  N62  1  0.74908000  0.08850000  0.25648000  1.0
  N  N63  1  0.25092000  0.91150000  0.74353000  1.0
  N  N64  1  0.59655000  0.18534000  0.07040000  1.0
  N  N65  1  0.40345000  0.81466000  0.92960000  1.0
  N  N66  1  0.54415000  0.28164000  0.10148000  1.0
  N  N67  1  0.45585000  0.71836000  0.89851000  1.0
  N  N68  1  0.86811000  0.88809000  0.20557000  1.0
  N  N69  1  0.13189000  0.11190000  0.79443000  1.0
  N  N70  1  0.51954000  0.34511000  0.37177000  1.0
  N  N71  1  0.48044000  0.65489000  0.62823000  1.0
  Cl  Cl72  1  0.46858000  0.84200000  0.34800000  1.0
  Cl  Cl73  1  0.53140000  0.15800000  0.65202000  1.0
  Cl  Cl74  1  0.99405000  0.74349000  0.48657000  1.0
  Cl  Cl75  1  0.00593000  0.25652000  0.51342000  1.0
  O  O76  1  0.75050000  0.99179000  0.50197000  1.0
  O  O77  1  0.24951000  0.00821000  0.49803000  1.0
  O  O78  1  0.83729000  0.35165000  0.12033000  1.0
  O  O79  1  0.16271000  0.64834000  0.87968000  1.0
