# generated using pymatgen
data_AgH7C7(NO)2
_symmetry_space_group_name_H-M   'P 1'
_cell_length_a   7.41013000
_cell_length_b   7.69178000
_cell_length_c   7.69171000
_cell_angle_alpha   61.70420000
_cell_angle_beta   79.12300000
_cell_angle_gamma   79.12300000
_symmetry_Int_Tables_number   1
_chemical_formula_structural   AgH7C7(NO)2
_chemical_formula_sum   'Ag2 H14 C14 N4 O4'
_cell_volume   376.58038992
_cell_formula_units_Z   2
loop_
 _symmetry_equiv_pos_site_id
 _symmetry_equiv_pos_as_xyz
  1  'x, y, z'
loop_
 _atom_site_type_symbol
 _atom_site_label
 _atom_site_symmetry_multiplicity
 _atom_site_fract_x
 _atom_site_fract_y
 _atom_site_fract_z
 _atom_site_occupancy
  Ag  Ag0  1  0.49996000  0.00000000  0.49999000  1.0
  Ag  Ag1  1  0.00004000  0.50001000  0.00000000  1.0
  H  H2  1  0.15968000  0.04673000  0.44656000  1.0
  H  H3  1  0.34030000  0.55345000  0.95327000  1.0
  H  H4  1  0.84028000  0.95331000  0.55343000  1.0
  H  H5  1  0.65970000  0.44659000  0.04667000  1.0
  H  H6  1  0.22078000  0.79751000  0.54024000  1.0
  H  H7  1  0.27921000  0.45978000  0.20247000  1.0
  H  H8  1  0.77923000  0.20241000  0.45979000  1.0
  H  H9  1  0.72079000  0.54021000  0.79756000  1.0
  H  H10  1  0.25000000  0.62251000  0.37749000  1.0
  H  H11  1  0.75000000  0.37746000  0.62253000  1.0
  H  H12  1  0.27656000  0.25361000  0.06314000  1.0
  H  H13  1  0.22344000  0.93687000  0.74638000  1.0
  H  H14  1  0.72344000  0.74639000  0.93687000  1.0
  H  H15  1  0.77656000  0.06314000  0.25360000  1.0
  C  C16  1  0.24999000  0.76070000  0.23931000  1.0
  C  C17  1  0.75001000  0.23929000  0.76071000  1.0
  C  C18  1  0.25861000  0.11637000  0.06382000  1.0
  C  C19  1  0.24139000  0.93619000  0.88363000  1.0
  C  C20  1  0.74142000  0.88364000  0.93617000  1.0
  C  C21  1  0.75859000  0.06388000  0.11634000  1.0
  C  C22  1  0.24999000  0.11645000  0.88355000  1.0
  C  C23  1  0.75000000  0.88364000  0.11638000  1.0
  C  C24  1  0.25000000  0.30942000  0.69058000  1.0
  C  C25  1  0.75000000  0.69070000  0.30930000  1.0
  C  C26  1  0.25071000  0.94030000  0.24113000  1.0
  C  C27  1  0.24929000  0.75885000  0.05971000  1.0
  C  C28  1  0.74921000  0.05971000  0.75889000  1.0
  C  C29  1  0.75077000  0.24112000  0.94026000  1.0
  N  N30  1  0.24980000  0.93578000  0.42954000  1.0
  N  N31  1  0.25020000  0.57044000  0.06421000  1.0
  N  N32  1  0.75031000  0.06422000  0.57055000  1.0
  N  N33  1  0.74971000  0.42945000  0.93577000  1.0
  O  O34  1  0.25823000  0.29596000  0.53000000  1.0
  O  O35  1  0.24177000  0.47000000  0.70404000  1.0
  O  O36  1  0.74179000  0.70392000  0.47001000  1.0
  O  O37  1  0.75824000  0.53000000  0.29610000  1.0
