# generated using pymatgen
data_Nd2CuH20C32(NO7)4
_symmetry_space_group_name_H-M   'P 1'
_cell_length_a   10.43920000
_cell_length_b   10.72750000
_cell_length_c   11.48940000
_cell_angle_alpha   83.45230000
_cell_angle_beta   74.00220000
_cell_angle_gamma   68.34550000
_symmetry_Int_Tables_number   1
_chemical_formula_structural   Nd2CuH20C32(NO7)4
_chemical_formula_sum   'Nd2 Cu1 H20 C32 N4 O28'
_cell_volume   1149.43101277
_cell_formula_units_Z   1
loop_
 _symmetry_equiv_pos_site_id
 _symmetry_equiv_pos_as_xyz
  1  'x, y, z'
loop_
 _atom_site_type_symbol
 _atom_site_label
 _atom_site_symmetry_multiplicity
 _atom_site_fract_x
 _atom_site_fract_y
 _atom_site_fract_z
 _atom_site_occupancy
  Nd  Nd0  1  0.58782000  0.60884000  0.62524000  1.0
  Nd  Nd1  1  0.41218000  0.39117000  0.37476000  1.0
  Cu  Cu2  1  0.00000000  0.50000000  0.50000000  1.0
  H  H3  1  0.35727000  0.98613000  0.45117000  1.0
  H  H4  1  0.64274000  0.01387000  0.54882000  1.0
  H  H5  1  0.95710000  0.18211000  0.35714000  1.0
  H  H6  1  0.04290000  0.81788000  0.64286000  1.0
  H  H7  1  0.16537000  0.75247000  0.32428000  1.0
  H  H8  1  0.83461000  0.24752000  0.67575000  1.0
  H  H9  1  0.67762000  0.47135000  0.94565000  1.0
  H  H10  1  0.32238000  0.52865000  0.05434000  1.0
  H  H11  1  0.92744000  0.31802000  0.20741000  1.0
  H  H12  1  0.07257000  0.68197000  0.79258000  1.0
  H  H13  1  0.13753000  0.33664000  0.82998000  1.0
  H  H14  1  0.86247000  0.66337000  0.17001000  1.0
  H  H15  1  0.45798000  0.85257000  0.80874000  1.0
  H  H16  1  0.54201000  0.14741000  0.19128000  1.0
  H  H17  1  0.34534000  0.88118000  0.73291000  1.0
  H  H18  1  0.65466000  0.11882000  0.26708000  1.0
  H  H19  1  0.71592000  0.47003000  0.37393000  1.0
  H  H20  1  0.28407000  0.52997000  0.62607000  1.0
  H  H21  1  0.81344000  0.55568000  0.37254000  1.0
  H  H22  1  0.18654000  0.44433000  0.62745000  1.0
  C  C23  1  0.27205000  0.85621000  0.39141000  1.0
  C  C24  1  0.72795000  0.14379000  0.60860000  1.0
  C  C25  1  0.27148000  0.98126000  0.41734000  1.0
  C  C26  1  0.72852000  0.01874000  0.58266000  1.0
  C  C27  1  0.15933000  0.09866000  0.40380000  1.0
  C  C28  1  0.84066000  0.90134000  0.59620000  1.0
  C  C29  1  0.04791000  0.09214000  0.36278000  1.0
  C  C30  1  0.95209000  0.90786000  0.63723000  1.0
  C  C31  1  0.05434000  0.96830000  0.33114000  1.0
  C  C32  1  0.94566000  0.03170000  0.66887000  1.0
  C  C33  1  0.16456000  0.84913000  0.34509000  1.0
  C  C34  1  0.83544000  0.15087000  0.65492000  1.0
  C  C35  1  0.38228000  0.72974000  0.42381000  1.0
  C  C36  1  0.61773000  0.27027000  0.57621000  1.0
  C  C37  1  0.15289000  0.23309000  0.43515000  1.0
  C  C38  1  0.84711000  0.76691000  0.56484000  1.0
  C  C39  1  0.90637000  0.41240000  0.87450000  1.0
  C  C40  1  0.09364000  0.58761000  0.12549000  1.0
  C  C41  1  0.78128000  0.43041000  0.96668000  1.0
  C  C42  1  0.21872000  0.56959000  0.03331000  1.0
  C  C43  1  0.78878000  0.39544000  0.08653000  1.0
  C  C44  1  0.21122000  0.60456000  0.91346000  1.0
  C  C45  1  0.92108000  0.34334000  0.11438000  1.0
  C  C46  1  0.07892000  0.65666000  0.88561000  1.0
  C  C47  1  0.04426000  0.32250000  0.02065000  1.0
  C  C48  1  0.95575000  0.67749000  0.97933000  1.0
  C  C49  1  0.03938000  0.35554000  0.90100000  1.0
  C  C50  1  0.96062000  0.64446000  0.09899000  1.0
  C  C51  1  0.89773000  0.45301000  0.74710000  1.0
  C  C52  1  0.10227000  0.54699000  0.25289000  1.0
  C  C53  1  0.65585000  0.40789000  0.18464000  1.0
  C  C54  1  0.34415000  0.59211000  0.81536000  1.0
  N  N55  1  0.93733000  0.96423000  0.28655000  1.0
  N  N56  1  0.06267000  0.03576000  0.71346000  1.0
  N  N57  1  0.18460000  0.26471000  0.04842000  1.0
  N  N58  1  0.81539000  0.73529000  0.95157000  1.0
  O  O59  1  0.39147000  0.61808000  0.38886000  1.0
  O  O60  1  0.60854000  0.38192000  0.61117000  1.0
  O  O61  1  0.45554000  0.74487000  0.48896000  1.0
  O  O62  1  0.54446000  0.25516000  0.51106000  1.0
  O  O63  1  0.26525000  0.25113000  0.43619000  1.0
  O  O64  1  0.73476000  0.74887000  0.56380000  1.0
  O  O65  1  0.02704000  0.32144000  0.45905000  1.0
  O  O66  1  0.97296000  0.67856000  0.54095000  1.0
  O  O67  1  0.84280000  0.07405000  0.27339000  1.0
  O  O68  1  0.15720000  0.92593000  0.72662000  1.0
  O  O69  1  0.93679000  0.85423000  0.26482000  1.0
  O  O70  1  0.06321000  0.14576000  0.73519000  1.0
  O  O71  1  0.01545000  0.43848000  0.66736000  1.0
  O  O72  1  0.98455000  0.56152000  0.33263000  1.0
  O  O73  1  0.77776000  0.49794000  0.72348000  1.0
  O  O74  1  0.22223000  0.50209000  0.27652000  1.0
  O  O75  1  0.53910000  0.43342000  0.15759000  1.0
  O  O76  1  0.46090000  0.56660000  0.84240000  1.0
  O  O77  1  0.66589000  0.38519000  0.29498000  1.0
  O  O78  1  0.33412000  0.61481000  0.70502000  1.0
  O  O79  1  0.18694000  0.25335000  0.15680000  1.0
  O  O80  1  0.81306000  0.74665000  0.84319000  1.0
  O  O81  1  0.29218000  0.23147000  0.96251000  1.0
  O  O82  1  0.70781000  0.76853000  0.03749000  1.0
  O  O83  1  0.44711000  0.83673000  0.73097000  1.0
  O  O84  1  0.55289000  0.16327000  0.26904000  1.0
  O  O85  1  0.73564000  0.52811000  0.42362000  1.0
  O  O86  1  0.26434000  0.47189000  0.57638000  1.0
