# generated using pymatgen
data_AlH3C6SNO5F
_symmetry_space_group_name_H-M   'P 1'
_cell_length_a   6.75474000
_cell_length_b   8.81296000
_cell_length_c   12.75499380
_cell_angle_alpha   98.02538830
_cell_angle_beta   104.50748560
_cell_angle_gamma   104.76520000
_symmetry_Int_Tables_number   1
_chemical_formula_structural   AlH3C6SNO5F
_chemical_formula_sum   'Al2 H6 C12 S2 N2 O10 F2'
_cell_volume   693.82117852
_cell_formula_units_Z   2
loop_
 _symmetry_equiv_pos_site_id
 _symmetry_equiv_pos_as_xyz
  1  'x, y, z'
loop_
 _atom_site_type_symbol
 _atom_site_label
 _atom_site_symmetry_multiplicity
 _atom_site_fract_x
 _atom_site_fract_y
 _atom_site_fract_z
 _atom_site_occupancy
  Al  Al0  1  0.00000000  0.49996000  0.50000000  1.0
  Al  Al1  1  0.49999000  0.49996000  0.49997000  1.0
  H  H2  1  0.85395000  0.61718000  0.63471000  1.0
  H  H3  1  0.14605000  0.38283000  0.36529000  1.0
  H  H4  1  0.72589000  0.85586000  0.47996000  1.0
  H  H5  1  0.86687000  0.03390000  0.45219000  1.0
  H  H6  1  0.27408000  0.14410000  0.52000000  1.0
  H  H7  1  0.13306000  0.96606000  0.54777000  1.0
  C  C8  1  0.33941000  0.49882000  0.69533000  1.0
  C  C9  1  0.35235000  0.78770000  0.51349000  1.0
  C  C10  1  0.66054000  0.50114000  0.30467000  1.0
  C  C11  1  0.64763000  0.21227000  0.48649000  1.0
  C  C12  1  0.59741000  0.04153000  0.49319000  1.0
  C  C13  1  0.40257000  0.95842000  0.50684000  1.0
  C  C14  1  0.70924000  0.47938000  0.10949000  1.0
  C  C15  1  0.29085000  0.52071000  0.89054000  1.0
  C  C16  1  0.60054000  0.50245000  0.18618000  1.0
  C  C17  1  0.39950000  0.49760000  0.81384000  1.0
  C  C18  1  0.40185000  0.51447000  0.99864000  1.0
  C  C19  1  0.59826000  0.48563000  0.00137000  1.0
  S  S20  1  0.35629000  0.53244000  0.12602000  1.0
  S  S21  1  0.64378000  0.46768000  0.87402000  1.0
  N  N22  1  0.76181000  0.97705000  0.48917000  1.0
  N  N23  1  0.23823000  0.02293000  0.51086000  1.0
  O  O24  1  0.14950000  0.49930000  0.64931000  1.0
  O  O25  1  0.49788000  0.71768000  0.51453000  1.0
  O  O26  1  0.51333000  0.50089000  0.35116000  1.0
  O  O27  1  0.83524000  0.27985000  0.48045000  1.0
  O  O28  1  0.85044000  0.50057000  0.35069000  1.0
  O  O29  1  0.50206000  0.28228000  0.48541000  1.0
  O  O30  1  0.48658000  0.49907000  0.64881000  1.0
  O  O31  1  0.16474000  0.72012000  0.51954000  1.0
  O  O32  1  0.80044000  0.57385000  0.55526000  1.0
  O  O33  1  0.19958000  0.42616000  0.44473000  1.0
  F  F34  1  0.89973000  0.45011000  0.13325000  1.0
  F  F35  1  0.10035000  0.54998000  0.86683000  1.0
