# generated using pymatgen
data_ZnH20C22(N3O2)2
_symmetry_space_group_name_H-M   'P 1'
_cell_length_a   7.67506000
_cell_length_b   18.49040000
_cell_length_c   19.46180000
_cell_angle_alpha   90.00040000
_cell_angle_beta   90.00010000
_cell_angle_gamma   89.99930000
_symmetry_Int_Tables_number   1
_chemical_formula_structural   ZnH20C22(N3O2)2
_chemical_formula_sum   'Zn4 H80 C88 N24 O16'
_cell_volume   2761.91997319
_cell_formula_units_Z   4
loop_
 _symmetry_equiv_pos_site_id
 _symmetry_equiv_pos_as_xyz
  1  'x, y, z'
loop_
 _atom_site_type_symbol
 _atom_site_label
 _atom_site_symmetry_multiplicity
 _atom_site_fract_x
 _atom_site_fract_y
 _atom_site_fract_z
 _atom_site_occupancy
  Zn  Zn0  1  0.52052000  0.50829000  0.50265000  1.0
  Zn  Zn1  1  0.47948000  0.49171000  0.00265000  1.0
  Zn  Zn2  1  0.47948000  0.00829000  0.50265000  1.0
  Zn  Zn3  1  0.52052000  0.99171000  0.00265000  1.0
  H  H4  1  0.60484000  0.72564000  0.48547000  1.0
  H  H5  1  0.84750000  0.64084000  0.45698000  1.0
  H  H6  1  0.21324000  0.81816000  0.47486000  1.0
  H  H7  1  0.96483000  0.90280000  0.49460000  1.0
  H  H8  1  0.01713000  0.55994000  0.53173000  1.0
  H  H9  1  0.08488000  0.63563000  0.58157000  1.0
  H  H10  1  0.21501000  0.55505000  0.58005000  1.0
  H  H11  1  0.37244000  0.79403000  0.37248000  1.0
  H  H12  1  0.19270000  0.75439000  0.32915000  1.0
  H  H13  1  0.41020000  0.72595000  0.30924000  1.0
  H  H14  1  0.30346000  0.55933000  0.76590000  1.0
  H  H15  1  0.06576000  0.56924000  0.67838000  1.0
  H  H16  1  0.69118000  0.49959000  0.83004000  1.0
  H  H17  1  0.93017000  0.48962000  0.91622000  1.0
  H  H18  1  0.73947000  0.40382000  0.58351000  1.0
  H  H19  1  0.82286000  0.40038000  0.66955000  1.0
  H  H20  1  0.94281000  0.44538000  0.60455000  1.0
  H  H21  1  0.50703000  0.69631000  0.72626000  1.0
  H  H22  1  0.72540000  0.68288000  0.75531000  1.0
  H  H23  1  0.55320000  0.63355000  0.79423000  1.0
  H  H24  1  0.39516000  0.27436000  0.98548000  1.0
  H  H25  1  0.15250000  0.35916000  0.95698000  1.0
  H  H26  1  0.78676000  0.18184000  0.97487000  1.0
  H  H27  1  0.03517000  0.09720000  0.99460000  1.0
  H  H28  1  0.98288000  0.44005000  0.03174000  1.0
  H  H29  1  0.91512000  0.36437000  0.08158000  1.0
  H  H30  1  0.78499000  0.44494000  0.08005000  1.0
  H  H31  1  0.62756000  0.20597000  0.87248000  1.0
  H  H32  1  0.80730000  0.24561000  0.82914000  1.0
  H  H33  1  0.58980000  0.27405000  0.80924000  1.0
  H  H34  1  0.69655000  0.44067000  0.26590000  1.0
  H  H35  1  0.93425000  0.43077000  0.17838000  1.0
  H  H36  1  0.30883000  0.50041000  0.33004000  1.0
  H  H37  1  0.06983000  0.51039000  0.41622000  1.0
  H  H38  1  0.26053000  0.59618000  0.08351000  1.0
  H  H39  1  0.17715000  0.59962000  0.16955000  1.0
  H  H40  1  0.05719000  0.55462000  0.10455000  1.0
  H  H41  1  0.49297000  0.30369000  0.22626000  1.0
  H  H42  1  0.27460000  0.31712000  0.25531000  1.0
  H  H43  1  0.44681000  0.36645000  0.29423000  1.0
  H  H44  1  0.39515000  0.22564000  0.48548000  1.0
  H  H45  1  0.15250000  0.14084000  0.45698000  1.0
  H  H46  1  0.78676000  0.31816000  0.47487000  1.0
  H  H47  1  0.03517000  0.40280000  0.49460000  1.0
  H  H48  1  0.98287000  0.05994000  0.53174000  1.0
  H  H49  1  0.91511000  0.13563000  0.58158000  1.0
  H  H50  1  0.78498000  0.05506000  0.58005000  1.0
  H  H51  1  0.62755000  0.29403000  0.37248000  1.0
  H  H52  1  0.80730000  0.25439000  0.32914000  1.0
  H  H53  1  0.58979000  0.22595000  0.30924000  1.0
  H  H54  1  0.69655000  0.05932000  0.76590000  1.0
  H  H55  1  0.93425000  0.06922000  0.67838000  1.0
  H  H56  1  0.30883000  0.99959000  0.83004000  1.0
  H  H57  1  0.06983000  0.98962000  0.91623000  1.0
  H  H58  1  0.26054000  0.90382000  0.58351000  1.0
  H  H59  1  0.17715000  0.90038000  0.66955000  1.0
  H  H60  1  0.05719000  0.94538000  0.60455000  1.0
  H  H61  1  0.49295000  0.19630000  0.72627000  1.0
  H  H62  1  0.27459000  0.18287000  0.75532000  1.0
  H  H63  1  0.44680000  0.13355000  0.79424000  1.0
  H  H64  1  0.60484000  0.77436000  0.98548000  1.0
  H  H65  1  0.84750000  0.85916000  0.95698000  1.0
  H  H66  1  0.21323000  0.68185000  0.97487000  1.0
  H  H67  1  0.96484000  0.59720000  0.99460000  1.0
  H  H68  1  0.01712000  0.94006000  0.03174000  1.0
  H  H69  1  0.08489000  0.86437000  0.08158000  1.0
  H  H70  1  0.21501000  0.94495000  0.08005000  1.0
  H  H71  1  0.37245000  0.70596000  0.87248000  1.0
  H  H72  1  0.19270000  0.74560000  0.82914000  1.0
  H  H73  1  0.41021000  0.77405000  0.80924000  1.0
  H  H74  1  0.30345000  0.94068000  0.26590000  1.0
  H  H75  1  0.06574000  0.93077000  0.17838000  1.0
  H  H76  1  0.69117000  0.00041000  0.33004000  1.0
  H  H77  1  0.93017000  0.01038000  0.41622000  1.0
  H  H78  1  0.73947000  0.09618000  0.08351000  1.0
  H  H79  1  0.82285000  0.09962000  0.16955000  1.0
  H  H80  1  0.94281000  0.05462000  0.10455000  1.0
  H  H81  1  0.50704000  0.80370000  0.22627000  1.0
  H  H82  1  0.72540000  0.81713000  0.25531000  1.0
  H  H83  1  0.55319000  0.86645000  0.29423000  1.0
  C  C84  1  0.62132000  0.86998000  0.50573000  1.0
  C  C85  1  0.77000000  0.81908000  0.49192000  1.0
  C  C86  1  0.73799000  0.74532000  0.48194000  1.0
  C  C87  1  0.87378000  0.69794000  0.46675000  1.0
  C  C88  1  0.04348000  0.72533000  0.46408000  1.0
  C  C89  1  0.07906000  0.79860000  0.47478000  1.0
  C  C90  1  0.94088000  0.84532000  0.48754000  1.0
  C  C91  1  0.13139000  0.59067000  0.54955000  1.0
  C  C92  1  0.23239000  0.61908000  0.49072000  1.0
  C  C93  1  0.31664000  0.68536000  0.40286000  1.0
  C  C94  1  0.32252000  0.74331000  0.35039000  1.0
  C  C95  1  0.27989000  0.51909000  0.89613000  1.0
  C  C96  1  0.13189000  0.52324000  0.84593000  1.0
  C  C97  1  0.16947000  0.54584000  0.77887000  1.0
  C  C98  1  0.03771000  0.55106000  0.73036000  1.0
  C  C99  1  0.86711000  0.53358000  0.74910000  1.0
  C  C100  1  0.82573000  0.51126000  0.81566000  1.0
  C  C101  1  0.96000000  0.50604000  0.86384000  1.0
  C  C102  1  0.81048000  0.43400000  0.62327000  1.0
  C  C103  1  0.71490000  0.50150000  0.63936000  1.0
  C  C104  1  0.61872000  0.59889000  0.69266000  1.0
  C  C105  1  0.59999000  0.65613000  0.74528000  1.0
  C  C106  1  0.37868000  0.13002000  0.00573000  1.0
  C  C107  1  0.23000000  0.18092000  0.99192000  1.0
  C  C108  1  0.26201000  0.25468000  0.98194000  1.0
  C  C109  1  0.12622000  0.30206000  0.96675000  1.0
  C  C110  1  0.95652000  0.27467000  0.96408000  1.0
  C  C111  1  0.92094000  0.20140000  0.97478000  1.0
  C  C112  1  0.05912000  0.15468000  0.98755000  1.0
  C  C113  1  0.86862000  0.40933000  0.04955000  1.0
  C  C114  1  0.76761000  0.38091000  0.99073000  1.0
  C  C115  1  0.68336000  0.31464000  0.90286000  1.0
  C  C116  1  0.67748000  0.25669000  0.85039000  1.0
  C  C117  1  0.72011000  0.48091000  0.39613000  1.0
  C  C118  1  0.86811000  0.47677000  0.34593000  1.0
  C  C119  1  0.83053000  0.45416000  0.27887000  1.0
  C  C120  1  0.96229000  0.44894000  0.23036000  1.0
  C  C121  1  0.13289000  0.46643000  0.24910000  1.0
  C  C122  1  0.17427000  0.48875000  0.31565000  1.0
  C  C123  1  0.03999000  0.49397000  0.36384000  1.0
  C  C124  1  0.18953000  0.56600000  0.12327000  1.0
  C  C125  1  0.28510000  0.49850000  0.13936000  1.0
  C  C126  1  0.38128000  0.40111000  0.19267000  1.0
  C  C127  1  0.40001000  0.34388000  0.24528000  1.0
  C  C128  1  0.37870000  0.36998000  0.50573000  1.0
  C  C129  1  0.22999000  0.31908000  0.49192000  1.0
  C  C130  1  0.26201000  0.24531000  0.48195000  1.0
  C  C131  1  0.12623000  0.19794000  0.46675000  1.0
  C  C132  1  0.95652000  0.22533000  0.46408000  1.0
  C  C133  1  0.92093000  0.29860000  0.47478000  1.0
  C  C134  1  0.05912000  0.34532000  0.48754000  1.0
  C  C135  1  0.86861000  0.09067000  0.54956000  1.0
  C  C136  1  0.76761000  0.11909000  0.49073000  1.0
  C  C137  1  0.68335000  0.18537000  0.40286000  1.0
  C  C138  1  0.67748000  0.24331000  0.35039000  1.0
  C  C139  1  0.72011000  0.01909000  0.89613000  1.0
  C  C140  1  0.86812000  0.02323000  0.84593000  1.0
  C  C141  1  0.83053000  0.04584000  0.77887000  1.0
  C  C142  1  0.96229000  0.05105000  0.73036000  1.0
  C  C143  1  0.13289000  0.03357000  0.74910000  1.0
  C  C144  1  0.17428000  0.01125000  0.81566000  1.0
  C  C145  1  0.04000000  0.00604000  0.86385000  1.0
  C  C146  1  0.18953000  0.93400000  0.62327000  1.0
  C  C147  1  0.28511000  0.00150000  0.63936000  1.0
  C  C148  1  0.38128000  0.09889000  0.69267000  1.0
  C  C149  1  0.40001000  0.15612000  0.74529000  1.0
  C  C150  1  0.62131000  0.63002000  0.00573000  1.0
  C  C151  1  0.77001000  0.68092000  0.99192000  1.0
  C  C152  1  0.73799000  0.75469000  0.98195000  1.0
  C  C153  1  0.87378000  0.80206000  0.96675000  1.0
  C  C154  1  0.04348000  0.77467000  0.96408000  1.0
  C  C155  1  0.07906000  0.70140000  0.97478000  1.0
  C  C156  1  0.94088000  0.65468000  0.98755000  1.0
  C  C157  1  0.13139000  0.90933000  0.04955000  1.0
  C  C158  1  0.23239000  0.88091000  0.99073000  1.0
  C  C159  1  0.31665000  0.81463000  0.90286000  1.0
  C  C160  1  0.32252000  0.75669000  0.85039000  1.0
  C  C161  1  0.27989000  0.98091000  0.39613000  1.0
  C  C162  1  0.13189000  0.97677000  0.34593000  1.0
  C  C163  1  0.16946000  0.95416000  0.27887000  1.0
  C  C164  1  0.03771000  0.94894000  0.23036000  1.0
  C  C165  1  0.86711000  0.96643000  0.24910000  1.0
  C  C166  1  0.82572000  0.98875000  0.31566000  1.0
  C  C167  1  0.96000000  0.99397000  0.36385000  1.0
  C  C168  1  0.81047000  0.06600000  0.12327000  1.0
  C  C169  1  0.71489000  0.99850000  0.13936000  1.0
  C  C170  1  0.61873000  0.90111000  0.19267000  1.0
  C  C171  1  0.59999000  0.84388000  0.24529000  1.0
  N  N172  1  0.38103000  0.59318000  0.46626000  1.0
  N  N173  1  0.43394000  0.63389000  0.41072000  1.0
  N  N174  1  0.18715000  0.67781000  0.45180000  1.0
  N  N175  1  0.59301000  0.53291000  0.60137000  1.0
  N  N176  1  0.53171000  0.59391000  0.63443000  1.0
  N  N177  1  0.73451000  0.54192000  0.69790000  1.0
  N  N178  1  0.61897000  0.40682000  0.96626000  1.0
  N  N179  1  0.56606000  0.36611000  0.91072000  1.0
  N  N180  1  0.81285000  0.32219000  0.95180000  1.0
  N  N181  1  0.40700000  0.46709000  0.10137000  1.0
  N  N182  1  0.46829000  0.40609000  0.13443000  1.0
  N  N183  1  0.26549000  0.45809000  0.19790000  1.0
  N  N184  1  0.61897000  0.09318000  0.46626000  1.0
  N  N185  1  0.56606000  0.13389000  0.41072000  1.0
  N  N186  1  0.81285000  0.17781000  0.45180000  1.0
  N  N187  1  0.40700000  0.03291000  0.60137000  1.0
  N  N188  1  0.46828000  0.09391000  0.63443000  1.0
  N  N189  1  0.26549000  0.04191000  0.69791000  1.0
  N  N190  1  0.38103000  0.90682000  0.96626000  1.0
  N  N191  1  0.43394000  0.86610000  0.91072000  1.0
  N  N192  1  0.18715000  0.82219000  0.95180000  1.0
  N  N193  1  0.59300000  0.96709000  0.10137000  1.0
  N  N194  1  0.53172000  0.90609000  0.13443000  1.0
  N  N195  1  0.73450000  0.95809000  0.19791000  1.0
  O  O196  1  0.66713000  0.93724000  0.51187000  1.0
  O  O197  1  0.46851000  0.84681000  0.50981000  1.0
  O  O198  1  0.24548000  0.49375000  0.95699000  1.0
  O  O199  1  0.42874000  0.53962000  0.87814000  1.0
  O  O200  1  0.33288000  0.06276000  0.01187000  1.0
  O  O201  1  0.53150000  0.15319000  0.00982000  1.0
  O  O202  1  0.75453000  0.50626000  0.45699000  1.0
  O  O203  1  0.57126000  0.46037000  0.37813000  1.0
  O  O204  1  0.33288000  0.43724000  0.51187000  1.0
  O  O205  1  0.53150000  0.34681000  0.50982000  1.0
  O  O206  1  0.75453000  0.99375000  0.95699000  1.0
  O  O207  1  0.57126000  0.03962000  0.87813000  1.0
  O  O208  1  0.66713000  0.56276000  0.01187000  1.0
  O  O209  1  0.46850000  0.65319000  0.00982000  1.0
  O  O210  1  0.24547000  0.00626000  0.45699000  1.0
  O  O211  1  0.42874000  0.96038000  0.37813000  1.0
