# generated using pymatgen
data_HgH12C7N4(ClO)2
_symmetry_space_group_name_H-M   'P 1'
_cell_length_a   7.31642000
_cell_length_b   9.86358000
_cell_length_c   15.94240000
_cell_angle_alpha   104.25600000
_cell_angle_beta   89.99990000
_cell_angle_gamma   90.00000000
_symmetry_Int_Tables_number   1
_chemical_formula_structural   HgH12C7N4(ClO)2
_chemical_formula_sum   'Hg4 H48 C28 N16 Cl8 O8'
_cell_volume   1115.07121297
_cell_formula_units_Z   4
loop_
 _symmetry_equiv_pos_site_id
 _symmetry_equiv_pos_as_xyz
  1  'x, y, z'
loop_
 _atom_site_type_symbol
 _atom_site_label
 _atom_site_symmetry_multiplicity
 _atom_site_fract_x
 _atom_site_fract_y
 _atom_site_fract_z
 _atom_site_occupancy
  Hg  Hg0  1  0.25709000  0.99965000  0.92063000  1.0
  Hg  Hg1  1  0.75709000  0.00035000  0.57937000  1.0
  Hg  Hg2  1  0.74291000  0.00035000  0.07937000  1.0
  Hg  Hg3  1  0.24291000  0.99965000  0.42063000  1.0
  H  H4  1  0.93743000  0.48580000  0.62610000  1.0
  H  H5  1  0.43743000  0.51420000  0.87390000  1.0
  H  H6  1  0.06257000  0.51420000  0.37390000  1.0
  H  H7  1  0.56257000  0.48580000  0.12610000  1.0
  H  H8  1  0.08166000  0.48577000  0.71739000  1.0
  H  H9  1  0.58166000  0.51423000  0.78261000  1.0
  H  H10  1  0.91834000  0.51423000  0.28261000  1.0
  H  H11  1  0.41834000  0.48577000  0.21739000  1.0
  H  H12  1  0.31981000  0.67295000  0.76538000  1.0
  H  H13  1  0.81981000  0.32705000  0.73462000  1.0
  H  H14  1  0.68019000  0.32705000  0.23462000  1.0
  H  H15  1  0.18019000  0.67294000  0.26538000  1.0
  H  H16  1  0.35177000  0.80352000  0.70718000  1.0
  H  H17  1  0.85177000  0.19648000  0.79282000  1.0
  H  H18  1  0.64823000  0.19648000  0.29282000  1.0
  H  H19  1  0.14823000  0.80352000  0.20718000  1.0
  H  H20  1  0.14328000  0.80853000  0.57774000  1.0
  H  H21  1  0.64328000  0.19147000  0.92226000  1.0
  H  H22  1  0.85672000  0.19147000  0.42226000  1.0
  H  H23  1  0.35672000  0.80853000  0.07774000  1.0
  H  H24  1  0.97372000  0.67573000  0.54493000  1.0
  H  H25  1  0.47372000  0.32427000  0.95507000  1.0
  H  H26  1  0.02628000  0.32427000  0.45507000  1.0
  H  H27  1  0.52628000  0.67573000  0.04493000  1.0
  H  H28  1  0.68598000  0.79692000  0.73506000  1.0
  H  H29  1  0.18598000  0.20308000  0.76494000  1.0
  H  H30  1  0.31402000  0.20308000  0.26494000  1.0
  H  H31  1  0.81402000  0.79692000  0.23506000  1.0
  H  H32  1  0.71399000  0.66779000  0.63509000  1.0
  H  H33  1  0.21399000  0.33221000  0.86491000  1.0
  H  H34  1  0.28601000  0.33221000  0.36491000  1.0
  H  H35  1  0.78601000  0.66779000  0.13509000  1.0
  H  H36  1  0.11096000  0.97853000  0.71200000  1.0
  H  H37  1  0.61096000  0.02148000  0.78800000  1.0
  H  H38  1  0.88904000  0.02147000  0.28800000  1.0
  H  H39  1  0.38904000  0.97852000  0.21200000  1.0
  H  H40  1  0.91668000  0.97710000  0.77993000  1.0
  H  H41  1  0.41668000  0.02289000  0.72007000  1.0
  H  H42  1  0.08332000  0.02290000  0.22007000  1.0
  H  H43  1  0.58332000  0.97711000  0.27993000  1.0
  H  H44  1  0.04796000  0.66802000  0.84892000  1.0
  H  H45  1  0.54796000  0.33198000  0.65108000  1.0
  H  H46  1  0.95204000  0.33198000  0.15108000  1.0
  H  H47  1  0.45204000  0.66802000  0.34892000  1.0
  H  H48  1  0.87706000  0.79929000  0.85523000  1.0
  H  H49  1  0.37706000  0.20071000  0.64477000  1.0
  H  H50  1  0.12294000  0.20071000  0.14477000  1.0
  H  H51  1  0.62294000  0.79929000  0.35523000  1.0
  C  C52  1  0.15134000  0.64587000  0.64914000  1.0
  C  C53  1  0.65134000  0.35413000  0.85086000  1.0
  C  C54  1  0.84866000  0.35413000  0.35086000  1.0
  C  C55  1  0.34866000  0.64587000  0.14914000  1.0
  C  C56  1  0.01028000  0.55189000  0.68151000  1.0
  C  C57  1  0.51028000  0.44811000  0.81849000  1.0
  C  C58  1  0.98972000  0.44811000  0.31849000  1.0
  C  C59  1  0.48972000  0.55189000  0.18151000  1.0
  C  C60  1  0.24983000  0.73706000  0.72811000  1.0
  C  C61  1  0.74983000  0.26294000  0.77189000  1.0
  C  C62  1  0.75017000  0.26294000  0.27189000  1.0
  C  C63  1  0.25017000  0.73706000  0.22811000  1.0
  C  C64  1  0.04755000  0.73947000  0.60049000  1.0
  C  C65  1  0.54755000  0.26053000  0.89951000  1.0
  C  C66  1  0.95245000  0.26053000  0.39951000  1.0
  C  C67  1  0.45245000  0.73947000  0.10049000  1.0
  C  C68  1  0.78554000  0.73252000  0.69120000  1.0
  C  C69  1  0.28554000  0.26748000  0.80880000  1.0
  C  C70  1  0.21446000  0.26748000  0.30880000  1.0
  C  C71  1  0.71446000  0.73252000  0.19120000  1.0
  C  C72  1  0.01401000  0.91133000  0.73549000  1.0
  C  C73  1  0.51401000  0.08867000  0.76451000  1.0
  C  C74  1  0.98599000  0.08867000  0.26451000  1.0
  C  C75  1  0.48599000  0.91133000  0.23549000  1.0
  C  C76  1  0.97678000  0.73295000  0.81255000  1.0
  C  C77  1  0.47678000  0.26705000  0.68745000  1.0
  C  C78  1  0.02322000  0.26705000  0.18745000  1.0
  C  C79  1  0.52322000  0.73295000  0.31255000  1.0
  N  N80  1  0.28407000  0.55353000  0.58991000  1.0
  N  N81  1  0.78407000  0.44647000  0.91009000  1.0
  N  N82  1  0.71593000  0.44647000  0.41009000  1.0
  N  N83  1  0.21593000  0.55352000  0.08991000  1.0
  N  N84  1  0.88080000  0.64384000  0.73858000  1.0
  N  N85  1  0.38080000  0.35616000  0.76142000  1.0
  N  N86  1  0.11920000  0.35616000  0.26142000  1.0
  N  N87  1  0.61920000  0.64384000  0.23858000  1.0
  N  N88  1  0.11226000  0.82524000  0.78424000  1.0
  N  N89  1  0.61226000  0.17476000  0.71576000  1.0
  N  N90  1  0.88774000  0.17476000  0.21576000  1.0
  N  N91  1  0.38774000  0.82524000  0.28424000  1.0
  N  N92  1  0.91518000  0.82601000  0.66061000  1.0
  N  N93  1  0.41518000  0.17399000  0.83940000  1.0
  N  N94  1  0.08482000  0.17399000  0.33940000  1.0
  N  N95  1  0.58482000  0.82601000  0.16061000  1.0
  Cl  Cl96  1  0.99215000  0.14901000  0.95366000  1.0
  Cl  Cl97  1  0.49215000  0.85099000  0.54634000  1.0
  Cl  Cl98  1  0.00785000  0.85099000  0.04634000  1.0
  Cl  Cl99  1  0.50785000  0.14901000  0.45366000  1.0
  Cl  Cl100  1  0.52429000  0.85006000  0.90805000  1.0
  Cl  Cl101  1  0.02429000  0.14994000  0.59195000  1.0
  Cl  Cl102  1  0.47571000  0.14994000  0.09195000  1.0
  Cl  Cl103  1  0.97571000  0.85006000  0.40805000  1.0
  O  O104  1  0.23050000  0.49691000  0.51571000  1.0
  O  O105  1  0.73051000  0.50309000  0.98429000  1.0
  O  O106  1  0.76949000  0.50309000  0.48429000  1.0
  O  O107  1  0.26950000  0.49691000  0.01571000  1.0
  O  O108  1  0.43661000  0.53521000  0.61908000  1.0
  O  O109  1  0.93661000  0.46479000  0.88092000  1.0
  O  O110  1  0.56339000  0.46479000  0.38092000  1.0
  O  O111  1  0.06339000  0.53521000  0.11908000  1.0
