# generated using pymatgen
data_HgH18C15SN4(ClO)2
_symmetry_space_group_name_H-M   'P 1'
_cell_length_a   8.23259000
_cell_length_b   9.09107000
_cell_length_c   13.32480000
_cell_angle_alpha   98.17700000
_cell_angle_beta   106.10200000
_cell_angle_gamma   93.90360000
_symmetry_Int_Tables_number   1
_chemical_formula_structural   HgH18C15SN4(ClO)2
_chemical_formula_sum   'Hg2 H36 C30 S2 N8 Cl4 O4'
_cell_volume   942.32262155
_cell_formula_units_Z   2
loop_
 _symmetry_equiv_pos_site_id
 _symmetry_equiv_pos_as_xyz
  1  'x, y, z'
loop_
 _atom_site_type_symbol
 _atom_site_label
 _atom_site_symmetry_multiplicity
 _atom_site_fract_x
 _atom_site_fract_y
 _atom_site_fract_z
 _atom_site_occupancy
  Hg  Hg0  1  0.48043000  0.05015000  0.63789000  1.0
  Hg  Hg1  1  0.51957000  0.94985000  0.36211000  1.0
  H  H2  1  0.34746000  0.08549000  0.81483000  1.0
  H  H3  1  0.65254000  0.91451000  0.18517000  1.0
  H  H4  1  0.90086000  0.01128000  0.71942000  1.0
  H  H5  1  0.09914000  0.98872000  0.28058000  1.0
  H  H6  1  0.88089000  0.08772000  0.60330000  1.0
  H  H7  1  0.11910000  0.91228000  0.39670000  1.0
  H  H8  1  0.41025000  0.40376000  0.26298000  1.0
  H  H9  1  0.58975000  0.59624000  0.73702000  1.0
  H  H10  1  0.50635000  0.57271000  0.23932000  1.0
  H  H11  1  0.49365000  0.42729000  0.76068000  1.0
  H  H12  1  0.57755000  0.51428000  0.36453000  1.0
  H  H13  1  0.42245000  0.48572000  0.63546000  1.0
  H  H14  1  0.67399000  0.28470000  0.27889000  1.0
  H  H15  1  0.32601000  0.71530000  0.72110000  1.0
  H  H16  1  0.60487000  0.33914000  0.15412000  1.0
  H  H17  1  0.39513000  0.66087000  0.84588000  1.0
  H  H18  1  0.15150000  0.34677000  0.44273000  1.0
  H  H19  1  0.84849000  0.65323000  0.55727000  1.0
  H  H20  1  0.13377000  0.34178000  0.30656000  1.0
  H  H21  1  0.86622000  0.65822000  0.69344000  1.0
  H  H22  1  0.98580000  0.22843000  0.34476000  1.0
  H  H23  1  0.01420000  0.77157000  0.65524000  1.0
  H  H24  1  0.87069000  0.45257000  0.41746000  1.0
  H  H25  1  0.12931000  0.54743000  0.58254000  1.0
  H  H26  1  0.02223000  0.57351000  0.38885000  1.0
  H  H27  1  0.97777000  0.42649000  0.61116000  1.0
  H  H28  1  0.14300000  0.57460000  0.26809000  1.0
  H  H29  1  0.85700000  0.42539000  0.73191000  1.0
  H  H30  1  0.68734000  0.66705000  0.95585000  1.0
  H  H31  1  0.31267000  0.33296000  0.04415000  1.0
  H  H32  1  0.60861000  0.52939000  0.08375000  1.0
  H  H33  1  0.39140000  0.47061000  0.91625000  1.0
  H  H34  1  0.91697000  0.81111000  0.90087000  1.0
  H  H35  1  0.08303000  0.18890000  0.09913000  1.0
  H  H36  1  0.38335000  0.94629000  0.94171000  1.0
  H  H37  1  0.61665000  0.05370000  0.05829000  1.0
  C  C38  1  0.53067000  0.47505000  0.27866000  1.0
  C  C39  1  0.46933000  0.52495000  0.72134000  1.0
  C  C40  1  0.65601000  0.38309000  0.23927000  1.0
  C  C41  1  0.34400000  0.61691000  0.76073000  1.0
  C  C42  1  0.06072000  0.33820000  0.36376000  1.0
  C  C43  1  0.93928000  0.66180000  0.63624000  1.0
  C  C44  1  0.94638000  0.46332000  0.36217000  1.0
  C  C45  1  0.05362000  0.53668000  0.63783000  1.0
  C  C46  1  0.86825000  0.53689000  0.18633000  1.0
  C  C47  1  0.13176000  0.46312000  0.81367000  1.0
  C  C48  1  0.04040000  0.59136000  0.20055000  1.0
  C  C49  1  0.95961000  0.40864000  0.79945000  1.0
  C  C50  1  0.08092000  0.66604000  0.12618000  1.0
  C  C51  1  0.91908000  0.33396000  0.87383000  1.0
  C  C52  1  0.95723000  0.69686000  0.03603000  1.0
  C  C53  1  0.04277000  0.30314000  0.96397000  1.0
  C  C54  1  0.78573000  0.64235000  0.02314000  1.0
  C  C55  1  0.21427000  0.35765000  0.97686000  1.0
  C  C56  1  0.74206000  0.56397000  0.09438000  1.0
  C  C57  1  0.25794000  0.43603000  0.90562000  1.0
  C  C58  1  0.01083000  0.78119000  0.96840000  1.0
  C  C59  1  0.98917000  0.21881000  0.03160000  1.0
  C  C60  1  0.18180000  0.82904000  0.98611000  1.0
  C  C61  1  0.81820000  0.17097000  0.01389000  1.0
  C  C62  1  0.30753000  0.78730000  0.07361000  1.0
  C  C63  1  0.69247000  0.21270000  0.92639000  1.0
  C  C64  1  0.24514000  0.91768000  0.92066000  1.0
  C  C65  1  0.75486000  0.08232000  0.07934000  1.0
  C  C66  1  0.12505000  0.08198000  0.69432000  1.0
  C  C67  1  0.87495000  0.91802000  0.30569000  1.0
  S  S68  1  0.21728000  0.16870000  0.61327000  1.0
  S  S69  1  0.78272000  0.83130000  0.38672000  1.0
  N  N70  1  0.82503000  0.46328000  0.25858000  1.0
  N  N71  1  0.17497000  0.53672000  0.74142000  1.0
  N  N72  1  0.14350000  0.96033000  0.83943000  1.0
  N  N73  1  0.85650000  0.03967000  0.16057000  1.0
  N  N74  1  0.22133000  0.03985000  0.78274000  1.0
  N  N75  1  0.77867000  0.96015000  0.21726000  1.0
  N  N76  1  0.95760000  0.05525000  0.66902000  1.0
  N  N77  1  0.04239000  0.94475000  0.33099000  1.0
  Cl  Cl78  1  0.66680000  0.91149000  0.75583000  1.0
  Cl  Cl79  1  0.33320000  0.08850000  0.24417000  1.0
  Cl  Cl80  1  0.64212000  0.19809000  0.52965000  1.0
  Cl  Cl81  1  0.35788000  0.80191000  0.47035000  1.0
  O  O82  1  0.25048000  0.71098000  0.14226000  1.0
  O  O83  1  0.74953000  0.28902000  0.85774000  1.0
  O  O84  1  0.46382000  0.81217000  0.09322000  1.0
  O  O85  1  0.53619000  0.18783000  0.90677000  1.0
