# generated using pymatgen
data_CdH10C12S2N4O
_symmetry_space_group_name_H-M   'P 1'
_cell_length_a   7.54156000
_cell_length_b   11.42780000
_cell_length_c   16.52090000
_cell_angle_alpha   81.90830000
_cell_angle_beta   89.99920000
_cell_angle_gamma   89.99980000
_symmetry_Int_Tables_number   1
_chemical_formula_structural   CdH10C12S2N4O
_chemical_formula_sum   'Cd4 H40 C48 S8 N16 O4'
_cell_volume   1409.65243536
_cell_formula_units_Z   4
loop_
 _symmetry_equiv_pos_site_id
 _symmetry_equiv_pos_as_xyz
  1  'x, y, z'
loop_
 _atom_site_type_symbol
 _atom_site_label
 _atom_site_symmetry_multiplicity
 _atom_site_fract_x
 _atom_site_fract_y
 _atom_site_fract_z
 _atom_site_occupancy
  Cd  Cd0  1  0.82010000  0.49013000  0.76376000  1.0
  Cd  Cd1  1  0.32008000  0.00987000  0.23624000  1.0
  Cd  Cd2  1  0.17990000  0.50987000  0.23624000  1.0
  Cd  Cd3  1  0.67991000  0.99014000  0.76376000  1.0
  H  H4  1  0.32409000  0.12999000  0.80075000  1.0
  H  H5  1  0.82409000  0.37000000  0.19924000  1.0
  H  H6  1  0.67590000  0.87000000  0.19925000  1.0
  H  H7  1  0.17591000  0.63000000  0.80075000  1.0
  H  H8  1  0.28522000  0.40953000  0.94542000  1.0
  H  H9  1  0.78522000  0.09047000  0.05457000  1.0
  H  H10  1  0.71478000  0.59047000  0.05458000  1.0
  H  H11  1  0.21477000  0.90952000  0.94543000  1.0
  H  H12  1  0.31716000  0.11189000  0.99976000  1.0
  H  H13  1  0.81717000  0.38810000  0.00023000  1.0
  H  H14  1  0.68283000  0.88811000  0.00024000  1.0
  H  H15  1  0.18285000  0.61189000  0.99976000  1.0
  H  H16  1  0.50421000  0.20514000  0.99792000  1.0
  H  H17  1  0.00422000  0.29485000  0.00208000  1.0
  H  H18  1  0.49578000  0.79486000  0.00209000  1.0
  H  H19  1  0.99579000  0.70513000  0.99792000  1.0
  H  H20  1  0.49774000  0.09239000  0.93359000  1.0
  H  H21  1  0.99774000  0.40760000  0.06641000  1.0
  H  H22  1  0.50226000  0.90761000  0.06642000  1.0
  H  H23  1  0.00227000  0.59239000  0.93359000  1.0
  H  H24  1  0.25343000  0.48058000  0.65007000  1.0
  H  H25  1  0.75342000  0.01942000  0.34993000  1.0
  H  H26  1  0.74657000  0.51942000  0.34993000  1.0
  H  H27  1  0.24658000  0.98058000  0.65008000  1.0
  H  H28  1  0.16754000  0.47618000  0.50591000  1.0
  H  H29  1  0.66754000  0.02382000  0.49409000  1.0
  H  H30  1  0.83245000  0.52383000  0.49409000  1.0
  H  H31  1  0.33246000  0.97617000  0.50591000  1.0
  H  H32  1  0.03774000  0.29327000  0.46398000  1.0
  H  H33  1  0.53775000  0.20674000  0.53602000  1.0
  H  H34  1  0.96226000  0.70674000  0.53602000  1.0
  H  H35  1  0.46226000  0.79326000  0.46398000  1.0
  H  H36  1  0.99937000  0.11446000  0.56703000  1.0
  H  H37  1  0.49937000  0.38554000  0.43297000  1.0
  H  H38  1  0.00063000  0.88554000  0.43296000  1.0
  H  H39  1  0.50063000  0.61446000  0.56703000  1.0
  H  H40  1  0.07938000  0.11969000  0.71260000  1.0
  H  H41  1  0.57937000  0.38032000  0.28740000  1.0
  H  H42  1  0.92062000  0.88031000  0.28740000  1.0
  H  H43  1  0.42063000  0.61968000  0.71260000  1.0
  C  C44  1  0.84045000  0.20588000  0.85652000  1.0
  C  C45  1  0.34045000  0.29413000  0.14349000  1.0
  C  C46  1  0.15956000  0.79413000  0.14349000  1.0
  C  C47  1  0.65955000  0.70590000  0.85651000  1.0
  C  C48  1  0.85041000  0.77579000  0.67388000  1.0
  C  C49  1  0.35040000  0.72422000  0.32612000  1.0
  C  C50  1  0.14959000  0.22421000  0.32612000  1.0
  C  C51  1  0.64960000  0.27578000  0.67387000  1.0
  C  C52  1  0.20193000  0.39765000  0.81755000  1.0
  C  C53  1  0.70192000  0.10235000  0.18244000  1.0
  C  C54  1  0.79807000  0.60234000  0.18244000  1.0
  C  C55  1  0.29808000  0.89765000  0.81756000  1.0
  C  C56  1  0.33513000  0.24326000  0.89421000  1.0
  C  C57  1  0.83512000  0.25673000  0.10578000  1.0
  C  C58  1  0.66487000  0.75673000  0.10579000  1.0
  C  C59  1  0.16487000  0.74326000  0.89421000  1.0
  C  C60  1  0.27700000  0.35888000  0.89488000  1.0
  C  C61  1  0.77700000  0.14112000  0.10512000  1.0
  C  C62  1  0.72299000  0.64112000  0.10512000  1.0
  C  C63  1  0.22300000  0.85888000  0.89488000  1.0
  C  C64  1  0.41849000  0.15850000  0.95951000  1.0
  C  C65  1  0.91849000  0.34149000  0.04048000  1.0
  C  C66  1  0.58150000  0.84150000  0.04049000  1.0
  C  C67  1  0.08152000  0.65850000  0.95952000  1.0
  C  C68  1  0.17243000  0.30043000  0.68972000  1.0
  C  C69  1  0.67241000  0.19957000  0.31027000  1.0
  C  C70  1  0.82758000  0.69957000  0.31028000  1.0
  C  C71  1  0.32759000  0.80043000  0.68973000  1.0
  C  C72  1  0.19691000  0.40099000  0.63175000  1.0
  C  C73  1  0.69689000  0.09900000  0.36825000  1.0
  C  C74  1  0.80309000  0.59900000  0.36825000  1.0
  C  C75  1  0.30310000  0.90099000  0.63175000  1.0
  C  C76  1  0.14847000  0.39771000  0.55079000  1.0
  C  C77  1  0.64847000  0.10229000  0.44921000  1.0
  C  C78  1  0.85153000  0.60229000  0.44921000  1.0
  C  C79  1  0.35153000  0.89770000  0.55079000  1.0
  C  C80  1  0.07694000  0.29498000  0.52723000  1.0
  C  C81  1  0.57695000  0.20502000  0.47277000  1.0
  C  C82  1  0.92306000  0.70502000  0.47277000  1.0
  C  C83  1  0.42305000  0.79498000  0.52723000  1.0
  C  C84  1  0.05499000  0.19480000  0.58525000  1.0
  C  C85  1  0.55499000  0.30521000  0.41474000  1.0
  C  C86  1  0.94501000  0.80521000  0.41474000  1.0
  C  C87  1  0.44501000  0.69480000  0.58526000  1.0
  C  C88  1  0.10108000  0.19690000  0.66682000  1.0
  C  C89  1  0.60107000  0.30310000  0.33318000  1.0
  C  C90  1  0.89893000  0.80310000  0.33318000  1.0
  C  C91  1  0.39894000  0.69690000  0.66683000  1.0
  S  S92  1  0.88051000  0.06426000  0.87804000  1.0
  S  S93  1  0.38052000  0.43575000  0.12196000  1.0
  S  S94  1  0.11949000  0.93575000  0.12196000  1.0
  S  S95  1  0.61949000  0.56427000  0.87804000  1.0
  S  S96  1  0.82816000  0.91600000  0.63871000  1.0
  S  S97  1  0.32815000  0.58400000  0.36129000  1.0
  S  S98  1  0.17184000  0.08400000  0.36130000  1.0
  S  S99  1  0.67186000  0.41599000  0.63871000  1.0
  N  N100  1  0.81259000  0.30843000  0.84288000  1.0
  N  N101  1  0.31259000  0.19158000  0.15712000  1.0
  N  N102  1  0.18741000  0.69158000  0.15712000  1.0
  N  N103  1  0.68743000  0.80844000  0.84288000  1.0
  N  N104  1  0.87139000  0.67395000  0.69577000  1.0
  N  N105  1  0.37137000  0.82605000  0.30424000  1.0
  N  N106  1  0.12861000  0.32606000  0.30424000  1.0
  N  N107  1  0.62861000  0.17394000  0.69576000  1.0
  N  N108  1  0.22221000  0.30523000  0.77193000  1.0
  N  N109  1  0.72220000  0.19477000  0.22807000  1.0
  N  N110  1  0.77779000  0.69476000  0.22807000  1.0
  N  N111  1  0.27780000  0.80523000  0.77193000  1.0
  N  N112  1  0.30017000  0.21233000  0.82016000  1.0
  N  N113  1  0.80016000  0.28767000  0.17984000  1.0
  N  N114  1  0.69983000  0.78766000  0.17984000  1.0
  N  N115  1  0.19984000  0.71233000  0.82016000  1.0
  O  O116  1  0.12059000  0.49424000  0.78865000  1.0
  O  O117  1  0.62058000  0.00576000  0.21135000  1.0
  O  O118  1  0.87941000  0.50576000  0.21135000  1.0
  O  O119  1  0.37941000  0.99424000  0.78865000  1.0
