# generated using pymatgen
data_Zn4H30C61S6N4(Cl3O8)2
_symmetry_space_group_name_H-M   'P 1'
_cell_length_a   12.70440000
_cell_length_b   14.09700000
_cell_length_c   28.15700000
_cell_angle_alpha   90.60900000
_cell_angle_beta   89.80270000
_cell_angle_gamma   89.83830000
_symmetry_Int_Tables_number   1
_chemical_formula_structural   Zn4H30C61S6N4(Cl3O8)2
_chemical_formula_sum   'Zn4 H30 C61 S6 N4 Cl6 O16'
_cell_volume   5042.41233847
_cell_formula_units_Z   1
loop_
 _symmetry_equiv_pos_site_id
 _symmetry_equiv_pos_as_xyz
  1  'x, y, z'
loop_
 _atom_site_type_symbol
 _atom_site_label
 _atom_site_symmetry_multiplicity
 _atom_site_fract_x
 _atom_site_fract_y
 _atom_site_fract_z
 _atom_site_occupancy
  Zn  Zn0  1  0.50404000  0.39973000  0.49521000  1.0
  Zn  Zn1  1  0.49763000  0.59938000  0.50135000  1.0
  Zn  Zn2  1  0.50415000  0.60006000  0.04922000  1.0
  Zn  Zn3  1  0.49895000  0.40029000  0.04333000  1.0
  H  H4  1  0.62429000  0.05949000  0.44334000  1.0
  H  H5  1  0.37629000  0.93987000  0.55459000  1.0
  H  H6  1  0.60536000  0.74455000  0.45269000  1.0
  H  H7  1  0.61951000  0.91917000  0.44631000  1.0
  H  H8  1  0.39878000  0.25579000  0.54635000  1.0
  H  H9  1  0.38399000  0.08133000  0.55298000  1.0
  H  H10  1  0.49972000  0.34042000  0.21162000  1.0
  H  H11  1  0.50025000  0.34276000  0.74221000  1.0
  H  H12  1  0.50200000  0.65635000  0.80227000  1.0
  H  H13  1  0.49912000  0.36546000  0.89797000  1.0
  H  H14  1  0.49658000  0.35039000  0.81103000  1.0
  H  H15  1  0.49907000  0.63363000  0.64648000  1.0
  H  H16  1  0.49729000  0.64879000  0.73346000  1.0
  H  H17  1  0.86716000  0.65966000  0.49931000  1.0
  H  H18  1  0.62417000  0.93973000  0.10079000  1.0
  H  H19  1  0.37812000  0.06092000  0.98954000  1.0
  H  H20  1  0.60679000  0.25446000  0.09123000  1.0
  H  H21  1  0.62103000  0.07975000  0.09722000  1.0
  H  H22  1  0.39981000  0.74455000  0.99800000  1.0
  H  H23  1  0.38619000  0.91908000  0.99088000  1.0
  H  H24  1  0.86896000  0.34204000  0.04558000  1.0
  H  H25  1  0.57276000  0.70663000  0.35393000  1.0
  H  H26  1  0.49772000  0.73097000  0.30198000  1.0
  H  H27  1  0.43430000  0.70596000  0.35722000  1.0
  H  H28  1  0.18103000  0.29466000  0.53147000  1.0
  H  H29  1  0.06461000  0.26939000  0.49846000  1.0
  H  H30  1  0.18649000  0.29363000  0.46902000  1.0
  H  H31  1  0.18103000  0.70691000  0.01328000  1.0
  H  H32  1  0.06411000  0.73226000  0.04637000  1.0
  H  H33  1  0.18583000  0.70802000  0.07572000  1.0
  C  C34  1  0.50088000  0.48396000  0.59092000  1.0
  C  C35  1  0.29563000  0.48778000  0.49822000  1.0
  C  C36  1  0.50077000  0.51146000  0.40550000  1.0
  C  C37  1  0.70550000  0.51528000  0.49925000  1.0
  C  C38  1  0.50155000  0.51507000  0.95357000  1.0
  C  C39  1  0.29648000  0.51382000  0.04707000  1.0
  C  C40  1  0.50161000  0.48499000  0.13892000  1.0
  C  C41  1  0.70634000  0.48662000  0.04493000  1.0
  C  C42  1  0.57397000  0.19716000  0.46600000  1.0
  C  C43  1  0.57169000  0.09821000  0.46711000  1.0
  C  C44  1  0.42766000  0.80234000  0.53198000  1.0
  C  C45  1  0.42940000  0.90133000  0.53096000  1.0
  C  C46  1  0.55646000  0.79176000  0.47437000  1.0
  C  C47  1  0.56332000  0.88955000  0.47125000  1.0
  C  C48  1  0.44620000  0.20836000  0.52413000  1.0
  C  C49  1  0.43917000  0.11060000  0.52747000  1.0
  C  C50  1  0.50293000  0.05250000  0.49828000  1.0
  C  C51  1  0.49860000  0.94742000  0.50013000  1.0
  C  C52  1  0.50110000  0.58420000  0.32140000  1.0
  C  C53  1  0.50060000  0.41433000  0.22309000  1.0
  C  C54  1  0.50067000  0.50930000  0.35321000  1.0
  C  C55  1  0.50127000  0.48846000  0.19135000  1.0
  C  C56  1  0.50078000  0.44824000  0.27052000  1.0
  C  C57  1  0.50134000  0.54811000  0.27419000  1.0
  C  C58  1  0.50007000  0.48245000  0.64434000  1.0
  C  C59  1  0.50107000  0.51661000  0.90014000  1.0
  C  C60  1  0.50021000  0.40094000  0.67289000  1.0
  C  C61  1  0.49954000  0.40850000  0.72236000  1.0
  C  C62  1  0.50180000  0.59812000  0.87161000  1.0
  C  C63  1  0.50080000  0.59062000  0.82214000  1.0
  C  C64  1  0.49930000  0.42869000  0.87610000  1.0
  C  C65  1  0.49802000  0.42098000  0.82703000  1.0
  C  C66  1  0.49896000  0.57041000  0.66838000  1.0
  C  C67  1  0.49808000  0.57816000  0.71745000  1.0
  C  C68  1  0.49857000  0.49667000  0.74595000  1.0
  C  C69  1  0.49885000  0.50247000  0.79855000  1.0
  C  C70  1  0.10883000  0.41615000  0.49925000  1.0
  C  C71  1  0.89230000  0.58586000  0.49935000  1.0
  C  C72  1  0.17988000  0.49111000  0.49889000  1.0
  C  C73  1  0.82151000  0.51156000  0.49944000  1.0
  C  C74  1  0.99716000  0.55212000  0.49942000  1.0
  C  C75  1  0.00455000  0.45226000  0.49954000  1.0
  C  C76  1  0.57357000  0.80233000  0.07841000  1.0
  C  C77  1  0.57194000  0.90126000  0.07702000  1.0
  C  C78  1  0.42972000  0.19805000  0.01210000  1.0
  C  C79  1  0.43130000  0.09905000  0.01301000  1.0
  C  C80  1  0.55823000  0.20766000  0.06946000  1.0
  C  C81  1  0.56501000  0.10980000  0.07242000  1.0
  C  C82  1  0.44702000  0.79175000  0.02015000  1.0
  C  C83  1  0.44065000  0.88955000  0.01654000  1.0
  C  C84  1  0.50412000  0.94733000  0.04566000  1.0
  C  C85  1  0.50026000  0.05243000  0.04368000  1.0
  C  C86  1  0.10924000  0.58544000  0.04562000  1.0
  C  C87  1  0.89361000  0.41584000  0.04534000  1.0
  C  C88  1  0.18074000  0.51047000  0.04622000  1.0
  C  C89  1  0.82237000  0.49014000  0.04488000  1.0
  C  C90  1  0.99831000  0.44955000  0.04538000  1.0
  C  C91  1  0.00516000  0.54940000  0.04510000  1.0
  C  C92  1  0.50132000  0.68765000  0.33412000  1.0
  C  C93  1  0.13624000  0.31275000  0.49947000  1.0
  C  C94  1  0.13602000  0.68886000  0.04533000  1.0
  S  S95  1  0.50026000  0.39764000  0.32591000  1.0
  S  S96  1  0.50194000  0.59963000  0.21888000  1.0
  S  S97  1  0.12037000  0.60278000  0.49913000  1.0
  S  S98  1  0.88169000  0.40054000  0.49973000  1.0
  S  S99  1  0.12181000  0.39885000  0.04594000  1.0
  S  S100  1  0.88197000  0.60114000  0.04445000  1.0
  N  N101  1  0.51229000  0.25171000  0.49369000  1.0
  N  N102  1  0.48965000  0.74795000  0.50435000  1.0
  N  N103  1  0.51218000  0.74806000  0.05079000  1.0
  N  N104  1  0.49163000  0.25195000  0.03966000  1.0
  Cl  Cl105  1  0.65924000  0.25141000  0.42781000  1.0
  Cl  Cl106  1  0.34279000  0.74772000  0.57031000  1.0
  Cl  Cl107  1  0.50269000  0.28573000  0.65037000  1.0
  Cl  Cl108  1  0.50573000  0.71325000  0.89415000  1.0
  Cl  Cl109  1  0.65747000  0.74766000  0.11697000  1.0
  Cl  Cl110  1  0.34493000  0.25340000  0.97409000  1.0
  O  O111  1  0.49384000  0.40574000  0.56845000  1.0
  O  O112  1  0.50825000  0.56565000  0.57215000  1.0
  O  O113  1  0.34183000  0.56844000  0.49905000  1.0
  O  O114  1  0.34049000  0.40684000  0.49686000  1.0
  O  O115  1  0.50195000  0.59157000  0.42696000  1.0
  O  O116  1  0.49982000  0.42996000  0.42516000  1.0
  O  O117  1  0.65954000  0.43484000  0.50055000  1.0
  O  O118  1  0.66091000  0.59630000  0.49782000  1.0
  O  O119  1  0.49165000  0.59309000  0.97608000  1.0
  O  O120  1  0.51127000  0.43358000  0.97235000  1.0
  O  O121  1  0.34334000  0.43326000  0.04552000  1.0
  O  O122  1  0.34075000  0.59475000  0.04924000  1.0
  O  O123  1  0.50114000  0.40446000  0.11806000  1.0
  O  O124  1  0.50250000  0.56615000  0.11898000  1.0
  O  O125  1  0.66016000  0.56708000  0.04263000  1.0
  O  O126  1  0.66194000  0.40583000  0.04728000  1.0
