# generated using pymatgen
data_SnH8C4(Br2O)2
_symmetry_space_group_name_H-M   'P 1'
_cell_length_a   8.80816000
_cell_length_b   11.20840000
_cell_length_c   11.23090000
_cell_angle_alpha   89.99980000
_cell_angle_beta   89.99990000
_cell_angle_gamma   89.99940000
_symmetry_Int_Tables_number   1
_chemical_formula_structural   SnH8C4(Br2O)2
_chemical_formula_sum   'Sn4 H32 C16 Br16 O8'
_cell_volume   1108.77487628
_cell_formula_units_Z   4
loop_
 _symmetry_equiv_pos_site_id
 _symmetry_equiv_pos_as_xyz
  1  'x, y, z'
loop_
 _atom_site_type_symbol
 _atom_site_label
 _atom_site_symmetry_multiplicity
 _atom_site_fract_x
 _atom_site_fract_y
 _atom_site_fract_z
 _atom_site_occupancy
  Sn  Sn0  1  0.00001000  0.21639000  0.25000000  1.0
  Sn  Sn1  1  0.50001000  0.28361000  0.75000000  1.0
  Sn  Sn2  1  0.00000000  0.78364000  0.74999000  1.0
  Sn  Sn3  1  0.49999000  0.71634000  0.25000000  1.0
  H  H4  1  0.19606000  0.14853000  0.47633000  1.0
  H  H5  1  0.30395000  0.35147000  0.97633000  1.0
  H  H6  1  0.80394000  0.14853000  0.02367000  1.0
  H  H7  1  0.69606000  0.35147000  0.52367000  1.0
  H  H8  1  0.80395000  0.85148000  0.52366000  1.0
  H  H9  1  0.69605000  0.64853000  0.02367000  1.0
  H  H10  1  0.19606000  0.85148000  0.97633000  1.0
  H  H11  1  0.30395000  0.64853000  0.47634000  1.0
  H  H12  1  0.21861000  0.98986000  0.46742000  1.0
  H  H13  1  0.28139000  0.51014000  0.96742000  1.0
  H  H14  1  0.78139000  0.98986000  0.03258000  1.0
  H  H15  1  0.71861000  0.51014000  0.53258000  1.0
  H  H16  1  0.78140000  0.01015000  0.53257000  1.0
  H  H17  1  0.71861000  0.48986000  0.03257000  1.0
  H  H18  1  0.21861000  0.01015000  0.96742000  1.0
  H  H19  1  0.28140000  0.48986000  0.46743000  1.0
  H  H20  1  0.84996000  0.95325000  0.32645000  1.0
  H  H21  1  0.65004000  0.54675000  0.82645000  1.0
  H  H22  1  0.15005000  0.95326000  0.17355000  1.0
  H  H23  1  0.34996000  0.54675000  0.67356000  1.0
  H  H24  1  0.15005000  0.04675000  0.67354000  1.0
  H  H25  1  0.34995000  0.45324000  0.17354000  1.0
  H  H26  1  0.84995000  0.04676000  0.82645000  1.0
  H  H27  1  0.65005000  0.45325000  0.32646000  1.0
  H  H28  1  0.01476000  0.87395000  0.37860000  1.0
  H  H29  1  0.48525000  0.62606000  0.87860000  1.0
  H  H30  1  0.98525000  0.87395000  0.12140000  1.0
  H  H31  1  0.51475000  0.62606000  0.62140000  1.0
  H  H32  1  0.98526000  0.12606000  0.62139000  1.0
  H  H33  1  0.51475000  0.37394000  0.12139000  1.0
  H  H34  1  0.01474000  0.12606000  0.87861000  1.0
  H  H35  1  0.48525000  0.37394000  0.37861000  1.0
  C  C36  1  0.13755000  0.06272000  0.48346000  1.0
  C  C37  1  0.36245000  0.43728000  0.98345000  1.0
  C  C38  1  0.86245000  0.06271000  0.01655000  1.0
  C  C39  1  0.63755000  0.43729000  0.51655000  1.0
  C  C40  1  0.86246000  0.93729000  0.51655000  1.0
  C  C41  1  0.63755000  0.56271000  0.01654000  1.0
  C  C42  1  0.13755000  0.93730000  0.98345000  1.0
  C  C43  1  0.36245000  0.56271000  0.48346000  1.0
  C  C44  1  0.93683000  0.94875000  0.39609000  1.0
  C  C45  1  0.56318000  0.55126000  0.89609000  1.0
  C  C46  1  0.06318000  0.94875000  0.10391000  1.0
  C  C47  1  0.43682000  0.55126000  0.60391000  1.0
  C  C48  1  0.06318000  0.05126000  0.60390000  1.0
  C  C49  1  0.43682000  0.44873000  0.10390000  1.0
  C  C50  1  0.93682000  0.05126000  0.89610000  1.0
  C  C51  1  0.56318000  0.44874000  0.39610000  1.0
  Br  Br52  1  0.01799000  0.36183000  0.42374000  1.0
  Br  Br53  1  0.48202000  0.13818000  0.92374000  1.0
  Br  Br54  1  0.98202000  0.36183000  0.07626000  1.0
  Br  Br55  1  0.51798000  0.13817000  0.57625000  1.0
  Br  Br56  1  0.98203000  0.63817000  0.57625000  1.0
  Br  Br57  1  0.51796000  0.86180000  0.07629000  1.0
  Br  Br58  1  0.01797000  0.63819000  0.92374000  1.0
  Br  Br59  1  0.48203000  0.86180000  0.42372000  1.0
  Br  Br60  1  0.28510000  0.17722000  0.22764000  1.0
  Br  Br61  1  0.21492000  0.32276000  0.72763000  1.0
  Br  Br62  1  0.71493000  0.17724000  0.27237000  1.0
  Br  Br63  1  0.78509000  0.32279000  0.77236000  1.0
  Br  Br64  1  0.71490000  0.82279000  0.77235000  1.0
  Br  Br65  1  0.78506000  0.67719000  0.27237000  1.0
  Br  Br66  1  0.28509000  0.82278000  0.72763000  1.0
  Br  Br67  1  0.21486000  0.67718000  0.22765000  1.0
  O  O68  1  0.02263000  0.05929000  0.39035000  1.0
  O  O69  1  0.47737000  0.44071000  0.89035000  1.0
  O  O70  1  0.97737000  0.05929000  0.10965000  1.0
  O  O71  1  0.52264000  0.44071000  0.60965000  1.0
  O  O72  1  0.97737000  0.94072000  0.60964000  1.0
  O  O73  1  0.52263000  0.55928000  0.10964000  1.0
  O  O74  1  0.02263000  0.94072000  0.89035000  1.0
  O  O75  1  0.47737000  0.55928000  0.39036000  1.0
