# generated using pymatgen
data_CdH4C3SIN3
_symmetry_space_group_name_H-M   'P 1'
_cell_length_a   6.99944000
_cell_length_b   10.14350000
_cell_length_c   11.38990000
_cell_angle_alpha   89.99960000
_cell_angle_beta   85.33530000
_cell_angle_gamma   89.99980000
_symmetry_Int_Tables_number   1
_chemical_formula_structural   CdH4C3SIN3
_chemical_formula_sum   'Cd4 H16 C12 S4 I4 N12'
_cell_volume   805.99088385
_cell_formula_units_Z   4
loop_
 _symmetry_equiv_pos_site_id
 _symmetry_equiv_pos_as_xyz
  1  'x, y, z'
loop_
 _atom_site_type_symbol
 _atom_site_label
 _atom_site_symmetry_multiplicity
 _atom_site_fract_x
 _atom_site_fract_y
 _atom_site_fract_z
 _atom_site_occupancy
  Cd  Cd0  1  0.25824000  0.93323000  0.40341000  1.0
  Cd  Cd1  1  0.24176000  0.43322000  0.09659000  1.0
  Cd  Cd2  1  0.74175000  0.06678000  0.59659000  1.0
  Cd  Cd3  1  0.75824000  0.56677000  0.90341000  1.0
  H  H4  1  0.99529000  0.69993000  0.28111000  1.0
  H  H5  1  0.50472000  0.19991000  0.21889000  1.0
  H  H6  1  0.00470000  0.30008000  0.71890000  1.0
  H  H7  1  0.49529000  0.80008000  0.78110000  1.0
  H  H8  1  0.70272000  0.55950000  0.26136000  1.0
  H  H9  1  0.79729000  0.05948000  0.23864000  1.0
  H  H10  1  0.29727000  0.44051000  0.73864000  1.0
  H  H11  1  0.20272000  0.94051000  0.76136000  1.0
  H  H12  1  0.47835000  0.63492000  0.31193000  1.0
  H  H13  1  0.02166000  0.13491000  0.18807000  1.0
  H  H14  1  0.52164000  0.36509000  0.68807000  1.0
  H  H15  1  0.97835000  0.86509000  0.81192000  1.0
  H  H16  1  0.59459000  0.52356000  0.40540000  1.0
  H  H17  1  0.90542000  0.02356000  0.09461000  1.0
  H  H18  1  0.40540000  0.47644000  0.59461000  1.0
  H  H19  1  0.09460000  0.97644000  0.90539000  1.0
  C  C20  1  0.65281000  0.79630000  0.47034000  1.0
  C  C21  1  0.84719000  0.29629000  0.02967000  1.0
  C  C22  1  0.34717000  0.20371000  0.52966000  1.0
  C  C23  1  0.15282000  0.70370000  0.97033000  1.0
  C  C24  1  0.90328000  0.74854000  0.34905000  1.0
  C  C25  1  0.59672000  0.24853000  0.15095000  1.0
  C  C26  1  0.09671000  0.25146000  0.65095000  1.0
  C  C27  1  0.40329000  0.75146000  0.84904000  1.0
  C  C28  1  0.61711000  0.60000000  0.33755000  1.0
  C  C29  1  0.88291000  0.09999000  0.16245000  1.0
  C  C30  1  0.38289000  0.40001000  0.66245000  1.0
  C  C31  1  0.11711000  0.90000000  0.83755000  1.0
  S  S32  1  0.43049000  0.78935000  0.54516000  1.0
  S  S33  1  0.06952000  0.28935000  0.95484000  1.0
  S  S34  1  0.56950000  0.21065000  0.45483000  1.0
  S  S35  1  0.93050000  0.71065000  0.04516000  1.0
  I  I36  1  0.39498000  0.91286000  0.17377000  1.0
  I  I37  1  0.10502000  0.41288000  0.32624000  1.0
  I  I38  1  0.60501000  0.08714000  0.82624000  1.0
  I  I39  1  0.89498000  0.58712000  0.67376000  1.0
  N  N40  1  0.94900000  0.85264000  0.41053000  1.0
  N  N41  1  0.55100000  0.35262000  0.08948000  1.0
  N  N42  1  0.05099000  0.14738000  0.58948000  1.0
  N  N43  1  0.44900000  0.64737000  0.91052000  1.0
  N  N44  1  0.79278000  0.88273000  0.48702000  1.0
  N  N45  1  0.70722000  0.38273000  0.01299000  1.0
  N  N46  1  0.20721000  0.11727000  0.51298000  1.0
  N  N47  1  0.29279000  0.61727000  0.98701000  1.0
  N  N48  1  0.72140000  0.71058000  0.38288000  1.0
  N  N49  1  0.77861000  0.21056000  0.11712000  1.0
  N  N50  1  0.27860000  0.28943000  0.61712000  1.0
  N  N51  1  0.22140000  0.78943000  0.88288000  1.0
