# generated using pymatgen
data_CuH11C13NO9
_symmetry_space_group_name_H-M   'P 1'
_cell_length_a   10.41580000
_cell_length_b   10.82850000
_cell_length_c   10.87530000
_cell_angle_alpha   87.78120000
_cell_angle_beta   80.43080000
_cell_angle_gamma   73.66200000
_symmetry_Int_Tables_number   1
_chemical_formula_structural   CuH11C13NO9
_chemical_formula_sum   'Cu2 H22 C26 N2 O18'
_cell_volume   1160.64625034
_cell_formula_units_Z   2
loop_
 _symmetry_equiv_pos_site_id
 _symmetry_equiv_pos_as_xyz
  1  'x, y, z'
loop_
 _atom_site_type_symbol
 _atom_site_label
 _atom_site_symmetry_multiplicity
 _atom_site_fract_x
 _atom_site_fract_y
 _atom_site_fract_z
 _atom_site_occupancy
  Cu  Cu0  1  0.36799000  0.53419000  0.51880000  1.0
  Cu  Cu1  1  0.63201000  0.46581000  0.48119000  1.0
  H  H2  1  0.26467000  0.25084000  0.83158000  1.0
  H  H3  1  0.73534000  0.74916000  0.16841000  1.0
  H  H4  1  0.68555000  0.07973000  0.38142000  1.0
  H  H5  1  0.31445000  0.92027000  0.61858000  1.0
  H  H6  1  0.44476000  0.33318000  0.88534000  1.0
  H  H7  1  0.55524000  0.66683000  0.11466000  1.0
  H  H8  1  0.62235000  0.86348000  0.88299000  1.0
  H  H9  1  0.37764000  0.13653000  0.11700000  1.0
  H  H10  1  0.13951000  0.43355000  0.66118000  1.0
  H  H11  1  0.86049000  0.56644000  0.33882000  1.0
  H  H12  1  0.96612000  0.40093000  0.77650000  1.0
  H  H13  1  0.03387000  0.59905000  0.22350000  1.0
  H  H14  1  0.80491000  0.47398000  0.73136000  1.0
  H  H15  1  0.19509000  0.52601000  0.26864000  1.0
  H  H16  1  0.85757000  0.54590000  0.85284000  1.0
  H  H17  1  0.14243000  0.45408000  0.14717000  1.0
  H  H18  1  0.83940000  0.76024000  0.70688000  1.0
  H  H19  1  0.16061000  0.23975000  0.29314000  1.0
  H  H20  1  0.77876000  0.67329000  0.60338000  1.0
  H  H21  1  0.22124000  0.32670000  0.39664000  1.0
  H  H22  1  0.92776000  0.72527000  0.55114000  1.0
  H  H23  1  0.07224000  0.27472000  0.44888000  1.0
  C  C24  1  0.50233000  0.26497000  0.51905000  1.0
  C  C25  1  0.49769000  0.73501000  0.48095000  1.0
  C  C26  1  0.50323000  0.12674000  0.51626000  1.0
  C  C27  1  0.49679000  0.87326000  0.48373000  1.0
  C  C28  1  0.60564000  0.04344000  0.43428000  1.0
  C  C29  1  0.39437000  0.95656000  0.56572000  1.0
  C  C30  1  0.39749000  0.08251000  0.58331000  1.0
  C  C31  1  0.60252000  0.91750000  0.41669000  1.0
  C  C32  1  0.28916000  0.16269000  0.67865000  1.0
  C  C33  1  0.71086000  0.83731000  0.32135000  1.0
  C  C34  1  0.49112000  0.51691000  0.73390000  1.0
  C  C35  1  0.50888000  0.48310000  0.26610000  1.0
  C  C36  1  0.49331000  0.51372000  0.87185000  1.0
  C  C37  1  0.50668000  0.48629000  0.12814000  1.0
  C  C38  1  0.46708000  0.40726000  0.93619000  1.0
  C  C39  1  0.53292000  0.59274000  0.06380000  1.0
  C  C40  1  0.52680000  0.60762000  0.93625000  1.0
  C  C41  1  0.47319000  0.39239000  0.06373000  1.0
  C  C42  1  0.55062000  0.72351000  0.86979000  1.0
  C  C43  1  0.44936000  0.27651000  0.13021000  1.0
  C  C44  1  0.08719000  0.52722000  0.62399000  1.0
  C  C45  1  0.91280000  0.47278000  0.37602000  1.0
  C  C46  1  0.89220000  0.49314000  0.76322000  1.0
  C  C47  1  0.10780000  0.50684000  0.23679000  1.0
  C  C48  1  0.86997000  0.68878000  0.63047000  1.0
  C  C49  1  0.13003000  0.31122000  0.36954000  1.0
  N  N50  1  0.95490000  0.56802000  0.67059000  1.0
  N  N51  1  0.04509000  0.43197000  0.32942000  1.0
  O  O52  1  0.38545000  0.34653000  0.53600000  1.0
  O  O53  1  0.61457000  0.65347000  0.46399000  1.0
  O  O54  1  0.61691000  0.28804000  0.49977000  1.0
  O  O55  1  0.38309000  0.71197000  0.50023000  1.0
  O  O56  1  0.16747000  0.18443000  0.67978000  1.0
  O  O57  1  0.83255000  0.81557000  0.32022000  1.0
  O  O58  1  0.34195000  0.20219000  0.77182000  1.0
  O  O59  1  0.65805000  0.79781000  0.22817000  1.0
  O  O60  1  0.60699000  0.48478000  0.66577000  1.0
  O  O61  1  0.39299000  0.51523000  0.33422000  1.0
  O  O62  1  0.37536000  0.54179000  0.70109000  1.0
  O  O63  1  0.62464000  0.45821000  0.29891000  1.0
  O  O64  1  0.61483000  0.78816000  0.93361000  1.0
  O  O65  1  0.38517000  0.21186000  0.06638000  1.0
  O  O66  1  0.51716000  0.76025000  0.76924000  1.0
  O  O67  1  0.48283000  0.23976000  0.23074000  1.0
  O  O68  1  0.14814000  0.58653000  0.54462000  1.0
  O  O69  1  0.85185000  0.41346000  0.45539000  1.0
