# generated using pymatgen
data_CuH6C8S2BrN4
_symmetry_space_group_name_H-M   'P 1'
_cell_length_a   6.73293000
_cell_length_b   10.40070000
_cell_length_c   10.40090000
_cell_angle_alpha   108.88000000
_cell_angle_beta   105.59200000
_cell_angle_gamma   105.59000000
_symmetry_Int_Tables_number   1
_chemical_formula_structural   CuH6C8S2BrN4
_chemical_formula_sum   'Cu2 H12 C16 S4 Br2 N8'
_cell_volume   611.14618841
_cell_formula_units_Z   2
loop_
 _symmetry_equiv_pos_site_id
 _symmetry_equiv_pos_as_xyz
  1  'x, y, z'
loop_
 _atom_site_type_symbol
 _atom_site_label
 _atom_site_symmetry_multiplicity
 _atom_site_fract_x
 _atom_site_fract_y
 _atom_site_fract_z
 _atom_site_occupancy
  Cu  Cu0  1  0.99999000  0.10500000  0.89500000  1.0
  Cu  Cu1  1  0.00001000  0.89499000  0.10503000  1.0
  H  H2  1  0.72596000  0.65293000  0.30237000  1.0
  H  H3  1  0.27404000  0.69761000  0.34706000  1.0
  H  H4  1  0.27409000  0.34714000  0.69766000  1.0
  H  H5  1  0.72588000  0.30233000  0.65283000  1.0
  H  H6  1  0.81802000  0.42227000  0.23448000  1.0
  H  H7  1  0.18202000  0.76554000  0.57773000  1.0
  H  H8  1  0.18169000  0.57773000  0.76542000  1.0
  H  H9  1  0.81834000  0.23458000  0.42228000  1.0
  H  H10  1  0.50347000  0.18256000  0.04278000  1.0
  H  H11  1  0.49652000  0.95722000  0.81744000  1.0
  H  H12  1  0.49655000  0.81733000  0.95719000  1.0
  H  H13  1  0.50347000  0.04282000  0.18269000  1.0
  C  C14  1  0.24252000  0.40869000  0.05136000  1.0
  C  C15  1  0.75745000  0.94863000  0.59131000  1.0
  C  C16  1  0.75761000  0.59133000  0.94869000  1.0
  C  C17  1  0.24237000  0.05131000  0.40867000  1.0
  C  C18  1  0.60181000  0.54450000  0.21909000  1.0
  C  C19  1  0.39820000  0.78090000  0.45551000  1.0
  C  C20  1  0.39817000  0.45561000  0.78095000  1.0
  C  C21  1  0.60181000  0.21904000  0.54438000  1.0
  C  C22  1  0.65178000  0.41906000  0.18364000  1.0
  C  C23  1  0.34826000  0.81635000  0.58094000  1.0
  C  C24  1  0.34806000  0.58099000  0.81633000  1.0
  C  C25  1  0.65197000  0.18368000  0.41903000  1.0
  C  C26  1  0.47953000  0.28624000  0.07724000  1.0
  C  C27  1  0.52044000  0.92274000  0.71377000  1.0
  C  C28  1  0.52039000  0.71370000  0.92271000  1.0
  C  C29  1  0.47961000  0.07729000  0.28632000  1.0
  S  S30  1  0.96921000  0.38295000  0.95421000  1.0
  S  S31  1  0.03075000  0.04578000  0.61705000  1.0
  S  S32  1  0.03101000  0.61707000  0.04588000  1.0
  S  S33  1  0.96898000  0.95411000  0.38292000  1.0
  Br  Br34  1  0.12959000  0.89104000  0.89105000  1.0
  Br  Br35  1  0.87042000  0.10895000  0.10897000  1.0
  N  N36  1  0.39745000  0.54012000  0.15236000  1.0
  N  N37  1  0.60257000  0.84764000  0.45987000  1.0
  N  N38  1  0.60260000  0.45996000  0.84769000  1.0
  N  N39  1  0.39739000  0.15231000  0.54004000  1.0
  N  N40  1  0.27355000  0.27983000  0.01222000  1.0
  N  N41  1  0.72642000  0.98777000  0.72016000  1.0
  N  N42  1  0.72643000  0.72010000  0.98776000  1.0
  N  N43  1  0.27358000  0.01224000  0.27990000  1.0
