# generated using pymatgen
data_AlH2C6O5F
_symmetry_space_group_name_H-M   'P 1'
_cell_length_a   6.65148000
_cell_length_b   14.12670000
_cell_length_c   17.34670000
_cell_angle_alpha   86.70640000
_cell_angle_beta   89.99860000
_cell_angle_gamma   89.99530000
_symmetry_Int_Tables_number   1
_chemical_formula_structural   AlH2C6O5F
_chemical_formula_sum   'Al4 H8 C24 O20 F4'
_cell_volume   1627.26369389
_cell_formula_units_Z   4
loop_
 _symmetry_equiv_pos_site_id
 _symmetry_equiv_pos_as_xyz
  1  'x, y, z'
loop_
 _atom_site_type_symbol
 _atom_site_label
 _atom_site_symmetry_multiplicity
 _atom_site_fract_x
 _atom_site_fract_y
 _atom_site_fract_z
 _atom_site_occupancy
  Al  Al0  1  0.11279000  0.50343000  0.49651000  1.0
  Al  Al1  1  0.61344000  0.49805000  0.49933000  1.0
  Al  Al2  1  0.62029000  0.00159000  0.00082000  1.0
  Al  Al3  1  0.11962000  0.99722000  0.00340000  1.0
  H  H4  1  0.58094000  0.18348000  0.80025000  1.0
  H  H5  1  0.08185000  0.79301000  0.18424000  1.0
  H  H6  1  0.57862000  0.31732000  0.70218000  1.0
  H  H7  1  0.08063000  0.71112000  0.31649000  1.0
  H  H8  1  0.35285000  0.38036000  0.52844000  1.0
  H  H9  1  0.85755000  0.61579000  0.52885000  1.0
  H  H10  1  0.36163000  0.12103000  0.97475000  1.0
  H  H11  1  0.86561000  0.88388000  0.97203000  1.0
  C  C12  1  0.35765000  0.61109000  0.60059000  1.0
  C  C13  1  0.87074000  0.39365000  0.39624000  1.0
  C  C14  1  0.37319000  0.60857000  0.38760000  1.0
  C  C15  1  0.86034000  0.38058000  0.60342000  1.0
  C  C16  1  0.72356000  0.21687000  0.78350000  1.0
  C  C17  1  0.22287000  0.78173000  0.21556000  1.0
  C  C18  1  0.87867000  0.19198000  0.83075000  1.0
  C  C19  1  0.38083000  0.83193000  0.18599000  1.0
  C  C20  1  0.72177000  0.28359000  0.71758000  1.0
  C  C21  1  0.22150000  0.72000000  0.28464000  1.0
  C  C22  1  0.87432000  0.30794000  0.66895000  1.0
  C  C23  1  0.37629000  0.66706000  0.31356000  1.0
  C  C24  1  0.87190000  0.16802000  0.16732000  1.0
  C  C25  1  0.36835000  0.82893000  0.83496000  1.0
  C  C26  1  0.86854000  0.22085000  0.22071000  1.0
  C  C27  1  0.36801000  0.77828000  0.78008000  1.0
  C  C28  1  0.86683000  0.27922000  0.27956000  1.0
  C  C29  1  0.36618000  0.72235000  0.71956000  1.0
  C  C30  1  0.86700000  0.33201000  0.33300000  1.0
  C  C31  1  0.36299000  0.67173000  0.66470000  1.0
  C  C32  1  0.37912000  0.89086000  0.11214000  1.0
  C  C33  1  0.86664000  0.11955000  0.89653000  1.0
  C  C34  1  0.36447000  0.88952000  0.89910000  1.0
  C  C35  1  0.87700000  0.10649000  0.10402000  1.0
  O  O36  1  0.54076000  0.57381000  0.40958000  1.0
  O  O37  1  0.02437000  0.40110000  0.56877000  1.0
  O  O38  1  0.18508000  0.58091000  0.58179000  1.0
  O  O39  1  0.70638000  0.40401000  0.43232000  1.0
  O  O40  1  0.20610000  0.59957000  0.42328000  1.0
  O  O41  1  0.68699000  0.41515000  0.58799000  1.0
  O  O42  1  0.03916000  0.43123000  0.41085000  1.0
  O  O43  1  0.52559000  0.59392000  0.56900000  1.0
  O  O44  1  0.36093000  0.44288000  0.50245000  1.0
  O  O45  1  0.86121000  0.55925000  0.49964000  1.0
  O  O46  1  0.19221000  0.91991000  0.91808000  1.0
  O  O47  1  0.71242000  0.09524000  0.06829000  1.0
  O  O48  1  0.54745000  0.92476000  0.09007000  1.0
  O  O49  1  0.03122000  0.09931000  0.93086000  1.0
  O  O50  1  0.53276000  0.90638000  0.93057000  1.0
  O  O51  1  0.04605000  0.06988000  0.08893000  1.0
  O  O52  1  0.69365000  0.08491000  0.91245000  1.0
  O  O53  1  0.21194000  0.90098000  0.07670000  1.0
  O  O54  1  0.36814000  0.05705000  0.99798000  1.0
  O  O55  1  0.86844000  0.94106000  0.00043000  1.0
  F  F56  1  0.06164000  0.23320000  0.82299000  1.0
  F  F57  1  0.55922000  0.83380000  0.22316000  1.0
  F  F58  1  0.05690000  0.26605000  0.67524000  1.0
  F  F59  1  0.55308000  0.66203000  0.27563000  1.0
