# generated using pymatgen
data_ZnH4C5N4O
_symmetry_space_group_name_H-M   'P 1'
_cell_length_a   5.84094000
_cell_length_b   10.50170000
_cell_length_c   11.28950000
_cell_angle_alpha   102.95000000
_cell_angle_beta   89.99910000
_cell_angle_gamma   89.99990000
_symmetry_Int_Tables_number   1
_chemical_formula_structural   ZnH4C5N4O
_chemical_formula_sum   'Zn4 H16 C20 N16 O4'
_cell_volume   674.88273306
_cell_formula_units_Z   4
loop_
 _symmetry_equiv_pos_site_id
 _symmetry_equiv_pos_as_xyz
  1  'x, y, z'
loop_
 _atom_site_type_symbol
 _atom_site_label
 _atom_site_symmetry_multiplicity
 _atom_site_fract_x
 _atom_site_fract_y
 _atom_site_fract_z
 _atom_site_occupancy
  Zn  Zn0  1  0.75440000  0.48449000  0.43816000  1.0
  Zn  Zn1  1  0.25437000  0.01551000  0.06185000  1.0
  Zn  Zn2  1  0.24562000  0.51552000  0.56184000  1.0
  Zn  Zn3  1  0.74560000  0.98448000  0.93815000  1.0
  H  H4  1  0.88139000  0.23521000  0.27685000  1.0
  H  H5  1  0.38139000  0.26479000  0.22315000  1.0
  H  H6  1  0.11863000  0.76478000  0.72315000  1.0
  H  H7  1  0.61861000  0.73521000  0.77684000  1.0
  H  H8  1  0.84271000  0.29133000  0.90975000  1.0
  H  H9  1  0.34275000  0.20866000  0.59025000  1.0
  H  H10  1  0.15725000  0.70865000  0.09025000  1.0
  H  H11  1  0.65728000  0.79135000  0.40974000  1.0
  H  H12  1  0.72351000  0.52132000  0.99654000  1.0
  H  H13  1  0.22352000  0.97868000  0.50346000  1.0
  H  H14  1  0.27647000  0.47867000  0.00346000  1.0
  H  H15  1  0.77649000  0.02132000  0.49654000  1.0
  H  H16  1  0.68893000  0.59991000  0.22212000  1.0
  H  H17  1  0.18892000  0.90010000  0.27788000  1.0
  H  H18  1  0.31108000  0.40009000  0.77788000  1.0
  H  H19  1  0.81108000  0.09991000  0.72212000  1.0
  C  C20  1  0.85079000  0.29597000  0.21182000  1.0
  C  C21  1  0.35078000  0.20403000  0.28818000  1.0
  C  C22  1  0.14922000  0.70402000  0.78817000  1.0
  C  C23  1  0.64922000  0.79597000  0.71183000  1.0
  C  C24  1  0.87506000  0.24367000  0.08625000  1.0
  C  C25  1  0.37508000  0.25634000  0.41375000  1.0
  C  C26  1  0.12493000  0.75632000  0.91375000  1.0
  C  C27  1  0.62493000  0.74368000  0.58623000  1.0
  C  C28  1  0.82697000  0.32727000  0.00777000  1.0
  C  C29  1  0.32698000  0.17272000  0.49224000  1.0
  C  C30  1  0.17301000  0.67272000  0.99223000  1.0
  C  C31  1  0.67302000  0.82728000  0.50777000  1.0
  C  C32  1  0.75994000  0.45530000  0.05602000  1.0
  C  C33  1  0.25994000  0.04471000  0.44398000  1.0
  C  C34  1  0.24007000  0.54469000  0.94398000  1.0
  C  C35  1  0.74009000  0.95531000  0.55601000  1.0
  C  C36  1  0.74066000  0.50013000  0.18135000  1.0
  C  C37  1  0.24066000  0.99987000  0.31865000  1.0
  C  C38  1  0.25935000  0.49986000  0.81864000  1.0
  C  C39  1  0.75935000  0.00013000  0.68137000  1.0
  N  N40  1  0.93754000  0.38847000  0.54541000  1.0
  N  N41  1  0.43752000  0.11153000  0.95459000  1.0
  N  N42  1  0.06248000  0.61154000  0.45459000  1.0
  N  N43  1  0.56245000  0.88846000  0.04541000  1.0
  N  N44  1  0.84107000  0.36116000  0.63162000  1.0
  N  N45  1  0.34106000  0.13884000  0.86838000  1.0
  N  N46  1  0.15894000  0.63885000  0.36838000  1.0
  N  N47  1  0.65892000  0.86115000  0.13162000  1.0
  N  N48  1  0.75085000  0.33367000  0.71402000  1.0
  N  N49  1  0.25084000  0.16633000  0.78598000  1.0
  N  N50  1  0.24916000  0.66634000  0.28598000  1.0
  N  N51  1  0.74915000  0.83366000  0.21402000  1.0
  N  N52  1  0.78532000  0.42047000  0.25705000  1.0
  N  N53  1  0.28531000  0.07954000  0.24295000  1.0
  N  N54  1  0.21468000  0.57953000  0.74295000  1.0
  N  N55  1  0.71467000  0.92048000  0.75704000  1.0
  O  O56  1  0.93734000  0.11933000  0.04511000  1.0
  O  O57  1  0.43737000  0.38066000  0.45490000  1.0
  O  O58  1  0.06263000  0.88066000  0.95490000  1.0
  O  O59  1  0.56264000  0.61935000  0.54510000  1.0
