# generated using pymatgen
data_CdH14C18N6O5
_symmetry_space_group_name_H-M   'P 1'
_cell_length_a   7.97566000
_cell_length_b   9.22005000
_cell_length_c   13.28409534
_cell_angle_alpha   74.16003173
_cell_angle_beta   72.61804871
_cell_angle_gamma   87.53510000
_symmetry_Int_Tables_number   1
_chemical_formula_structural   CdH14C18N6O5
_chemical_formula_sum   'Cd2 H28 C36 N12 O10'
_cell_volume   896.06036631
_cell_formula_units_Z   2
loop_
 _symmetry_equiv_pos_site_id
 _symmetry_equiv_pos_as_xyz
  1  'x, y, z'
loop_
 _atom_site_type_symbol
 _atom_site_label
 _atom_site_symmetry_multiplicity
 _atom_site_fract_x
 _atom_site_fract_y
 _atom_site_fract_z
 _atom_site_occupancy
  Cd  Cd0  1  0.82060000  0.01378000  0.72946000  1.0
  Cd  Cd1  1  0.17941000  0.98622000  0.27054000  1.0
  H  H2  1  0.93279000  0.80680000  0.15711000  1.0
  H  H3  1  0.06721000  0.19321000  0.84288000  1.0
  H  H4  1  0.13883000  0.96294000  0.94824000  1.0
  H  H5  1  0.86116000  0.03706000  0.05175000  1.0
  H  H6  1  0.32484000  0.74388000  0.86731000  1.0
  H  H7  1  0.67516000  0.25611000  0.13268000  1.0
  H  H8  1  0.42910000  0.53092000  0.85514000  1.0
  H  H9  1  0.57091000  0.46908000  0.14487000  1.0
  H  H10  1  0.39886000  0.05880000  0.02188000  1.0
  H  H11  1  0.60112000  0.94120000  0.97813000  1.0
  H  H12  1  0.08841000  0.34402000  0.18637000  1.0
  H  H13  1  0.91159000  0.65598000  0.81363000  1.0
  H  H14  1  0.42232000  0.01577000  0.73454000  1.0
  H  H15  1  0.57769000  0.98423000  0.26545000  1.0
  H  H16  1  0.83985000  0.79320000  0.57864000  1.0
  H  H17  1  0.16016000  0.20679000  0.42135000  1.0
  H  H18  1  0.32957000  0.75878000  0.52890000  1.0
  H  H19  1  0.67043000  0.24122000  0.47110000  1.0
  H  H20  1  0.46544000  0.66814000  0.39671000  1.0
  H  H21  1  0.53455000  0.33185000  0.60330000  1.0
  H  H22  1  0.70644000  0.50912000  0.27802000  1.0
  H  H23  1  0.29356000  0.49088000  0.72198000  1.0
  H  H24  1  0.98974000  0.49935000  0.35735000  1.0
  H  H25  1  0.01026000  0.50064000  0.64265000  1.0
  H  H26  1  0.76973000  0.30778000  0.65300000  1.0
  H  H27  1  0.23026000  0.69223000  0.34701000  1.0
  H  H28  1  0.94975000  0.28795000  0.56418000  1.0
  H  H29  1  0.05023000  0.71205000  0.43583000  1.0
  C  C30  1  0.02635000  0.76384000  0.09485000  1.0
  C  C31  1  0.97365000  0.23617000  0.90515000  1.0
  C  C32  1  0.13229000  0.84351000  0.98898000  1.0
  C  C33  1  0.86770000  0.15649000  0.01102000  1.0
  C  C34  1  0.22783000  0.73480000  0.94597000  1.0
  C  C35  1  0.77217000  0.26520000  0.05403000  1.0
  C  C36  1  0.24364000  0.45691000  0.02000000  1.0
  C  C37  1  0.75637000  0.54310000  0.98000000  1.0
  C  C38  1  0.37159000  0.43734000  0.92685000  1.0
  C  C39  1  0.62841000  0.56266000  0.07316000  1.0
  C  C40  1  0.42908000  0.29298000  0.92570000  1.0
  C  C41  1  0.57092000  0.70702000  0.07430000  1.0
  C  C42  1  0.56680000  0.26440000  0.82771000  1.0
  C  C43  1  0.43320000  0.73561000  0.17230000  1.0
  C  C44  1  0.35833000  0.17348000  0.01851000  1.0
  C  C45  1  0.64166000  0.82652000  0.98149000  1.0
  C  C46  1  0.18318000  0.33182000  0.11117000  1.0
  C  C47  1  0.81682000  0.66818000  0.88883000  1.0
  C  C48  1  0.16323000  0.92714000  0.66459000  1.0
  C  C49  1  0.83677000  0.07287000  0.33541000  1.0
  C  C50  1  0.35350000  0.88850000  0.63599000  1.0
  C  C51  1  0.64650000  0.11149000  0.36401000  1.0
  C  C52  1  0.46765000  0.94225000  0.68080000  1.0
  C  C53  1  0.53235000  0.05775000  0.31920000  1.0
  C  C54  1  0.70155000  0.81809000  0.59276000  1.0
  C  C55  1  0.29844000  0.18191000  0.40724000  1.0
  C  C56  1  0.59633000  0.76331000  0.54251000  1.0
  C  C57  1  0.40366000  0.23669000  0.45750000  1.0
  C  C58  1  0.41859000  0.79815000  0.56517000  1.0
  C  C59  1  0.58141000  0.20184000  0.43483000  1.0
  C  C60  1  0.59659000  0.63696000  0.39959000  1.0
  C  C61  1  0.40341000  0.36304000  0.60041000  1.0
  C  C62  1  0.71905000  0.55625000  0.34159000  1.0
  C  C63  1  0.28095000  0.44375000  0.65841000  1.0
  C  C64  1  0.86474000  0.55115000  0.38191000  1.0
  C  C65  1  0.13525000  0.44885000  0.61809000  1.0
  N  N66  1  0.05365000  0.61609000  0.11603000  1.0
  N  N67  1  0.94635000  0.38392000  0.88397000  1.0
  N  N68  1  0.17814000  0.59967000  0.02436000  1.0
  N  N69  1  0.82187000  0.40033000  0.97564000  1.0
  N  N70  1  0.24129000  0.19346000  0.10950000  1.0
  N  N71  1  0.75871000  0.80654000  0.89050000  1.0
  N  N72  1  0.63700000  0.90607000  0.65972000  1.0
  N  N73  1  0.36300000  0.09393000  0.34028000  1.0
  N  N74  1  0.67050000  0.67673000  0.46948000  1.0
  N  N75  1  0.32949000  0.32326000  0.53052000  1.0
  N  N76  1  0.83601000  0.62442000  0.45912000  1.0
  N  N77  1  0.16399000  0.37557000  0.54088000  1.0
  O  O78  1  0.64242000  0.37655000  0.75030000  1.0
  O  O79  1  0.35758000  0.62345000  0.24971000  1.0
  O  O80  1  0.59358000  0.12496000  0.83259000  1.0
  O  O81  1  0.40643000  0.87504000  0.16741000  1.0
  O  O82  1  0.82762000  0.24481000  0.60126000  1.0
  O  O83  1  0.17237000  0.75520000  0.39874000  1.0
  O  O84  1  0.11770000  0.02778000  0.71674000  1.0
  O  O85  1  0.88231000  0.97223000  0.28325000  1.0
  O  O86  1  0.05761000  0.85841000  0.63700000  1.0
  O  O87  1  0.94239000  0.14161000  0.36299000  1.0
