# generated using pymatgen
data_Zn4H18(C13O6)3
_symmetry_space_group_name_H-M   'P 1'
_cell_length_a   18.12330000
_cell_length_b   18.29820000
_cell_length_c   22.19190000
_cell_angle_alpha   114.00560000
_cell_angle_beta   113.94330000
_cell_angle_gamma   90.01700000
_symmetry_Int_Tables_number   1
_chemical_formula_structural   Zn4H18(C13O6)3
_chemical_formula_sum   'Zn8 H36 C78 O36'
_cell_volume   6022.52423321
_cell_formula_units_Z   2
loop_
 _symmetry_equiv_pos_site_id
 _symmetry_equiv_pos_as_xyz
  1  'x, y, z'
loop_
 _atom_site_type_symbol
 _atom_site_label
 _atom_site_symmetry_multiplicity
 _atom_site_fract_x
 _atom_site_fract_y
 _atom_site_fract_z
 _atom_site_occupancy
  Zn  Zn0  1  0.30467000  0.21894000  0.43586000  1.0
  Zn  Zn1  1  0.69533000  0.78106000  0.56414000  1.0
  Zn  Zn2  1  0.28349000  0.19457000  0.56323000  1.0
  Zn  Zn3  1  0.71651000  0.80543000  0.43677000  1.0
  Zn  Zn4  1  0.12986000  0.21746000  0.43699000  1.0
  Zn  Zn5  1  0.87014000  0.78254000  0.56301000  1.0
  Zn  Zn6  1  0.27948000  0.36896000  0.56162000  1.0
  Zn  Zn7  1  0.72052000  0.63104000  0.43838000  1.0
  H  H8  1  0.59113000  0.42575000  0.95266000  1.0
  H  H9  1  0.48582000  0.68772000  0.00411000  1.0
  H  H10  1  0.09375000  0.83766000  0.44717000  1.0
  H  H11  1  0.90625000  0.16234000  0.55283000  1.0
  H  H12  1  0.14029000  0.00424000  0.58567000  1.0
  H  H13  1  0.85971000  0.99575000  0.41433000  1.0
  H  H14  1  0.00922000  0.04741000  0.62341000  1.0
  H  H15  1  0.99078000  0.95259000  0.37659000  1.0
  H  H16  1  0.61811000  0.13539000  0.68245000  1.0
  H  H17  1  0.38190000  0.86461000  0.31755000  1.0
  H  H18  1  0.51581000  0.95849000  0.59627000  1.0
  H  H19  1  0.40887000  0.57425000  0.04734000  1.0
  H  H20  1  0.48419000  0.04152000  0.40373000  1.0
  H  H21  1  0.33915000  0.59647000  0.44841000  1.0
  H  H22  1  0.66085000  0.40353000  0.55159000  1.0
  H  H23  1  0.50574000  0.63933000  0.58618000  1.0
  H  H24  1  0.49426000  0.36067000  0.41382000  1.0
  H  H25  1  0.96278000  0.13325000  0.04829000  1.0
  H  H26  1  0.03722000  0.86675000  0.95171000  1.0
  H  H27  1  0.04135000  0.08640000  0.95436000  1.0
  H  H28  1  0.95865000  0.91360000  0.04564000  1.0
  H  H29  1  0.85028000  0.98099000  0.95740000  1.0
  H  H30  1  0.63451000  0.06603000  0.52731000  1.0
  H  H31  1  0.14972000  0.01901000  0.04260000  1.0
  H  H32  1  0.89695000  0.46826000  0.53544000  1.0
  H  H33  1  0.10305000  0.53174000  0.46456000  1.0
  H  H34  1  0.07124000  0.50400000  0.62195000  1.0
  H  H35  1  0.92876000  0.49601000  0.37805000  1.0
  H  H36  1  0.08162000  0.63814000  0.58964000  1.0
  H  H37  1  0.91838000  0.36186000  0.41036000  1.0
  H  H38  1  0.36550000  0.93397000  0.47269000  1.0
  H  H39  1  0.45403000  0.49176000  0.37711000  1.0
  H  H40  1  0.54597000  0.50824000  0.62289000  1.0
  H  H41  1  0.65070000  0.61014000  0.99852000  1.0
  H  H42  1  0.34930000  0.38986000  0.00148000  1.0
  H  H43  1  0.51418000  0.31228000  0.99589000  1.0
  C  C44  1  0.35361000  0.34769000  0.69857000  1.0
  C  C45  1  0.88884000  0.89357000  0.77938000  1.0
  C  C46  1  0.08296000  0.01022000  0.02303000  1.0
  C  C47  1  0.91704000  0.98978000  0.97697000  1.0
  C  C48  1  0.03951000  0.03650000  0.07568000  1.0
  C  C49  1  0.96049000  0.96349000  0.92432000  1.0
  C  C50  1  0.07836000  0.07397000  0.15350000  1.0
  C  C51  1  0.92164000  0.92603000  0.84650000  1.0
  C  C52  1  0.03895000  0.50316000  0.56792000  1.0
  C  C53  1  0.96105000  0.49684000  0.43208000  1.0
  C  C54  1  0.94334000  0.48134000  0.51958000  1.0
  C  C55  1  0.64639000  0.65231000  0.30144000  1.0
  C  C56  1  0.05666000  0.51866000  0.48042000  1.0
  C  C57  1  0.95068000  0.55589000  0.50223000  1.0
  C  C58  1  0.04932000  0.44411000  0.49777000  1.0
  C  C59  1  0.15040000  0.14609000  0.29981000  1.0
  C  C60  1  0.84960000  0.85391000  0.70018000  1.0
  C  C61  1  0.04596000  0.57651000  0.54995000  1.0
  C  C62  1  0.95404000  0.42349000  0.45005000  1.0
  C  C63  1  0.57046000  0.55305000  0.02572000  1.0
  C  C64  1  0.42954000  0.44695000  0.97428000  1.0
  C  C65  1  0.54972000  0.45882000  0.97340000  1.0
  C  C66  1  0.50316000  0.57730000  0.54796000  1.0
  C  C67  1  0.45028000  0.54118000  0.02660000  1.0
  C  C68  1  0.39307000  0.38790000  0.77804000  1.0
  C  C69  1  0.60693000  0.61210000  0.22196000  1.0
  C  C70  1  0.47995000  0.55752000  0.97485000  1.0
  C  C71  1  0.52005000  0.44248000  0.02515000  1.0
  C  C72  1  0.46037000  0.46300000  0.92281000  1.0
  C  C73  1  0.53963000  0.53700000  0.07719000  1.0
  C  C74  1  0.42286000  0.42325000  0.84485000  1.0
  C  C75  1  0.57714000  0.57675000  0.15515000  1.0
  C  C76  1  0.07787000  0.00235000  0.54766000  1.0
  C  C77  1  0.49684000  0.42270000  0.45204000  1.0
  C  C78  1  0.92213000  0.99765000  0.45234000  1.0
  C  C79  1  0.01647000  0.92344000  0.47823000  1.0
  C  C80  1  0.98353000  0.07656000  0.52177000  1.0
  C  C81  1  0.94377000  0.94899000  0.49877000  1.0
  C  C82  1  0.05623000  0.05101000  0.50123000  1.0
  C  C83  1  0.38901000  0.11034000  0.49664000  1.0
  C  C84  1  0.61099000  0.88966000  0.50336000  1.0
  C  C85  1  0.00567000  0.02600000  0.56841000  1.0
  C  C86  1  0.99433000  0.97400000  0.43159000  1.0
  C  C87  1  0.52913000  0.06734000  0.56619000  1.0
  C  C88  1  0.02351000  0.04847000  0.97552000  1.0
  C  C89  1  0.47087000  0.93266000  0.43381000  1.0
  C  C90  1  0.57405000  0.03640000  0.51440000  1.0
  C  C91  1  0.42596000  0.96360000  0.48560000  1.0
  C  C92  1  0.55328000  0.94745000  0.50340000  1.0
  C  C93  1  0.44673000  0.05254000  0.49660000  1.0
  C  C94  1  0.50855000  0.97696000  0.55346000  1.0
  C  C95  1  0.49145000  0.02304000  0.44654000  1.0
  C  C96  1  0.10690000  0.38672000  0.49831000  1.0
  C  C97  1  0.89310000  0.61328000  0.50169000  1.0
  C  C98  1  0.11419000  0.10840000  0.50095000  1.0
  C  C99  1  0.97649000  0.95153000  0.02448000  1.0
  C  C100  1  0.88581000  0.89160000  0.49905000  1.0
  C  C101  1  0.38851000  0.38758000  0.49769000  1.0
  C  C102  1  0.61149000  0.61242000  0.50231000  1.0
  C  C103  1  0.42321000  0.51758000  0.47817000  1.0
  C  C104  1  0.57679000  0.48242000  0.52183000  1.0
  C  C105  1  0.47478000  0.49483000  0.43187000  1.0
  C  C106  1  0.52522000  0.50517000  0.56813000  1.0
  C  C107  1  0.55277000  0.55513000  0.50193000  1.0
  C  C108  1  0.44723000  0.44487000  0.49807000  1.0
  C  C109  1  0.64603000  0.60794000  0.04667000  1.0
  C  C110  1  0.97871000  0.07364000  0.02592000  1.0
  C  C111  1  0.35397000  0.39206000  0.95333000  1.0
  C  C112  1  0.53861000  0.37386000  0.04480000  1.0
  C  C113  1  0.46139000  0.62614000  0.95520000  1.0
  C  C114  1  0.03379000  0.84044000  0.45086000  1.0
  C  C115  1  0.96621000  0.15956000  0.54914000  1.0
  C  C116  1  0.56526000  0.14175000  0.63710000  1.0
  C  C117  1  0.43474000  0.85825000  0.36290000  1.0
  C  C118  1  0.34019000  0.53629000  0.45057000  1.0
  C  C119  1  0.65980000  0.46371000  0.54943000  1.0
  C  C120  1  0.02129000  0.92636000  0.97408000  1.0
  C  C121  1  0.11116000  0.10643000  0.22062000  1.0
  O  O122  1  0.24975000  0.24993000  0.49990000  1.0
  O  O123  1  0.89657000  0.83149000  0.66882000  1.0
  O  O124  1  0.33147000  0.39403000  0.66719000  1.0
  O  O125  1  0.66853000  0.60597000  0.33281000  1.0
  O  O126  1  0.22891000  0.15500000  0.33101000  1.0
  O  O127  1  0.77109000  0.84500000  0.66899000  1.0
  O  O128  1  0.34901000  0.11345000  0.53319000  1.0
  O  O129  1  0.65099000  0.88655000  0.46681000  1.0
  O  O130  1  0.07615000  0.31091000  0.45566000  1.0
  O  O131  1  0.92385000  0.68909000  0.54434000  1.0
  O  O132  1  0.18768000  0.13021000  0.55195000  1.0
  O  O133  1  0.75025000  0.75007000  0.50010000  1.0
  O  O134  1  0.81232000  0.86979000  0.44805000  1.0
  O  O135  1  0.36658000  0.41706000  0.54920000  1.0
  O  O136  1  0.63342000  0.58295000  0.45080000  1.0
  O  O137  1  0.08427000  0.12896000  0.44868000  1.0
  O  O138  1  0.91573000  0.87104000  0.55131000  1.0
  O  O139  1  0.36718000  0.31467000  0.44670000  1.0
  O  O140  1  0.63282000  0.68533000  0.55330000  1.0
  O  O141  1  0.69973000  0.64730000  0.10931000  1.0
  O  O142  1  0.30027000  0.35270000  0.89069000  1.0
  O  O143  1  0.57693000  0.38108000  0.10712000  1.0
  O  O144  1  0.38437000  0.14974000  0.45977000  1.0
  O  O145  1  0.42306000  0.61892000  0.89288000  1.0
  O  O146  1  0.98775000  0.77827000  0.43202000  1.0
  O  O147  1  0.01225000  0.22173000  0.56798000  1.0
  O  O148  1  0.54245000  0.20681000  0.64730000  1.0
  O  O149  1  0.45755000  0.79319000  0.35270000  1.0
  O  O150  1  0.27631000  0.49105000  0.42994000  1.0
  O  O151  1  0.72369000  0.50895000  0.57006000  1.0
  O  O152  1  0.61563000  0.85026000  0.54023000  1.0
  O  O153  1  0.18302000  0.41889000  0.54194000  1.0
  O  O154  1  0.81698000  0.58111000  0.45806000  1.0
  O  O155  1  0.34488000  0.27007000  0.66838000  1.0
  O  O156  1  0.65511000  0.72993000  0.33162000  1.0
  O  O157  1  0.10343000  0.16851000  0.33118000  1.0
