# generated using pymatgen
data_CdH10C14NO5
_symmetry_space_group_name_H-M   'P 1'
_cell_length_a   5.29000000
_cell_length_b   10.48260000
_cell_length_c   12.90270000
_cell_angle_alpha   68.28950000
_cell_angle_beta   82.20120000
_cell_angle_gamma   76.66860000
_symmetry_Int_Tables_number   1
_chemical_formula_structural   CdH10C14NO5
_chemical_formula_sum   'Cd2 H20 C28 N2 O10'
_cell_volume   645.82032602
_cell_formula_units_Z   2
loop_
 _symmetry_equiv_pos_site_id
 _symmetry_equiv_pos_as_xyz
  1  'x, y, z'
loop_
 _atom_site_type_symbol
 _atom_site_label
 _atom_site_symmetry_multiplicity
 _atom_site_fract_x
 _atom_site_fract_y
 _atom_site_fract_z
 _atom_site_occupancy
  Cd  Cd0  1  0.25417000  0.57136000  0.38857000  1.0
  Cd  Cd1  1  0.74582000  0.42864000  0.61143000  1.0
  H  H2  1  0.21863000  0.57447000  0.63260000  1.0
  H  H3  1  0.78137000  0.42554000  0.36740000  1.0
  H  H4  1  0.42772000  0.67896000  0.56016000  1.0
  H  H5  1  0.57228000  0.32104000  0.43984000  1.0
  H  H6  1  0.58932000  0.73423000  0.22591000  1.0
  H  H7  1  0.41067000  0.26578000  0.77408000  1.0
  H  H8  1  0.87513000  0.88995000  0.09876000  1.0
  H  H9  1  0.12485000  0.11006000  0.90123000  1.0
  H  H10  1  0.77435000  0.14507000  0.06807000  1.0
  H  H11  1  0.22565000  0.85494000  0.93193000  1.0
  H  H12  1  0.39265000  0.24421000  0.16993000  1.0
  H  H13  1  0.60736000  0.75579000  0.83007000  1.0
  H  H14  1  0.01298000  0.20552000  0.30938000  1.0
  H  H15  1  0.98703000  0.79448000  0.69063000  1.0
  H  H16  1  0.72156000  0.04070000  0.42993000  1.0
  H  H17  1  0.27845000  0.95930000  0.57007000  1.0
  H  H18  1  0.34739000  0.62796000  0.99107000  1.0
  H  H19  1  0.65261000  0.37203000  0.00894000  1.0
  H  H20  1  0.75604000  0.40319000  0.18126000  1.0
  H  H21  1  0.24397000  0.59680000  0.81874000  1.0
  C  C22  1  0.96127000  0.86367000  0.39345000  1.0
  C  C23  1  0.03872000  0.13633000  0.60655000  1.0
  C  C24  1  0.32940000  0.89954000  0.27208000  1.0
  C  C25  1  0.67060000  0.10046000  0.72792000  1.0
  C  C26  1  0.54958000  0.84513000  0.21433000  1.0
  C  C27  1  0.45042000  0.15487000  0.78567000  1.0
  C  C28  1  0.70545000  0.93293000  0.14242000  1.0
  C  C29  1  0.29455000  0.06708000  0.85757000  1.0
  C  C30  1  0.64845000  0.07767000  0.12550000  1.0
  C  C31  1  0.35154000  0.92233000  0.87450000  1.0
  C  C32  1  0.43743000  0.13302000  0.18172000  1.0
  C  C33  1  0.56257000  0.86699000  0.81828000  1.0
  C  C34  1  0.27278000  0.04583000  0.25647000  1.0
  C  C35  1  0.72722000  0.95417000  0.74353000  1.0
  C  C36  1  0.05386000  0.09550000  0.31714000  1.0
  C  C37  1  0.94615000  0.90450000  0.68286000  1.0
  C  C38  1  0.89557000  0.00565000  0.38429000  1.0
  C  C39  1  0.10444000  0.99435000  0.61571000  1.0
  C  C40  1  0.78467000  0.76308000  0.46165000  1.0
  C  C41  1  0.21534000  0.23693000  0.53834000  1.0
  C  C42  1  0.19422000  0.57320000  0.99319000  1.0
  C  C43  1  0.80579000  0.42679000  0.00681000  1.0
  C  C44  1  0.05965000  0.51736000  0.09580000  1.0
  C  C45  1  0.94036000  0.48263000  0.90420000  1.0
  C  C46  1  0.86381000  0.44425000  0.10202000  1.0
  C  C47  1  0.13620000  0.55573000  0.89798000  1.0
  C  C48  1  0.13308000  0.53367000  0.19741000  1.0
  C  C49  1  0.86692000  0.46633000  0.80259000  1.0
  N  N50  1  0.17323000  0.81258000  0.34164000  1.0
  N  N51  1  0.82676000  0.18743000  0.65836000  1.0
  O  O52  1  0.84376000  0.63871000  0.45833000  1.0
  O  O53  1  0.15624000  0.36129000  0.54167000  1.0
  O  O54  1  0.36824000  0.58775000  0.57544000  1.0
  O  O55  1  0.63176000  0.41226000  0.42456000  1.0
  O  O56  1  0.58753000  0.80672000  0.51491000  1.0
  O  O57  1  0.41245000  0.19329000  0.48509000  1.0
  O  O58  1  0.04461000  0.46110000  0.29391000  1.0
  O  O59  1  0.95539000  0.53890000  0.70609000  1.0
  O  O60  1  0.28470000  0.61605000  0.18646000  1.0
  O  O61  1  0.71531000  0.38395000  0.81354000  1.0
