# generated using pymatgen
data_ZnH24C16(N2O)2
_symmetry_space_group_name_H-M   'P 1'
_cell_length_a   8.61359000
_cell_length_b   12.27310000
_cell_length_c   18.70440000
_cell_angle_alpha   90.00010000
_cell_angle_beta   89.99950000
_cell_angle_gamma   89.99850000
_symmetry_Int_Tables_number   1
_chemical_formula_structural   ZnH24C16(N2O)2
_chemical_formula_sum   'Zn4 H96 C64 N16 O8'
_cell_volume   1977.34408895
_cell_formula_units_Z   4
loop_
 _symmetry_equiv_pos_site_id
 _symmetry_equiv_pos_as_xyz
  1  'x, y, z'
loop_
 _atom_site_type_symbol
 _atom_site_label
 _atom_site_symmetry_multiplicity
 _atom_site_fract_x
 _atom_site_fract_y
 _atom_site_fract_z
 _atom_site_occupancy
  Zn  Zn0  1  0.55362000  0.72762000  0.59793000  1.0
  Zn  Zn1  1  0.94639000  0.27238000  0.09794000  1.0
  Zn  Zn2  1  0.05361000  0.77237000  0.40207000  1.0
  Zn  Zn3  1  0.44639000  0.22763000  0.90206000  1.0
  H  H4  1  0.25432000  0.88755000  0.49711000  1.0
  H  H5  1  0.24568000  0.11246000  0.99712000  1.0
  H  H6  1  0.75432000  0.61245000  0.50289000  1.0
  H  H7  1  0.74568000  0.38756000  0.00288000  1.0
  H  H8  1  0.38615000  0.54619000  0.38644000  1.0
  H  H9  1  0.11386000  0.45380000  0.88644000  1.0
  H  H10  1  0.88618000  0.95380000  0.61357000  1.0
  H  H11  1  0.61388000  0.04620000  0.11355000  1.0
  H  H12  1  0.41349000  0.34381000  0.38219000  1.0
  H  H13  1  0.08651000  0.65619000  0.88219000  1.0
  H  H14  1  0.91351000  0.15618000  0.61782000  1.0
  H  H15  1  0.58651000  0.84382000  0.11781000  1.0
  H  H16  1  0.50869000  0.24383000  0.48929000  1.0
  H  H17  1  0.99130000  0.75618000  0.98929000  1.0
  H  H18  1  0.00870000  0.25617000  0.51071000  1.0
  H  H19  1  0.49129000  0.74383000  0.01071000  1.0
  H  H20  1  0.56583000  0.34430000  0.60185000  1.0
  H  H21  1  0.93416000  0.65571000  0.10184000  1.0
  H  H22  1  0.06582000  0.15569000  0.39816000  1.0
  H  H23  1  0.43417000  0.84431000  0.89815000  1.0
  H  H24  1  0.74104000  0.63353000  0.72657000  1.0
  H  H25  1  0.75895000  0.36646000  0.22657000  1.0
  H  H26  1  0.24102000  0.86648000  0.27344000  1.0
  H  H27  1  0.25896000  0.13354000  0.77343000  1.0
  H  H28  1  0.36082000  0.91362000  0.38164000  1.0
  H  H29  1  0.13919000  0.08637000  0.88165000  1.0
  H  H30  1  0.86082000  0.58638000  0.61836000  1.0
  H  H31  1  0.63918000  0.41363000  0.11836000  1.0
  H  H32  1  0.32634000  0.07721000  0.46116000  1.0
  H  H33  1  0.17367000  0.92279000  0.96117000  1.0
  H  H34  1  0.82635000  0.42279000  0.53884000  1.0
  H  H35  1  0.67365000  0.57722000  0.03884000  1.0
  H  H36  1  0.47350000  0.09739000  0.39583000  1.0
  H  H37  1  0.02652000  0.90259000  0.89584000  1.0
  H  H38  1  0.97351000  0.40260000  0.60417000  1.0
  H  H39  1  0.52649000  0.59740000  0.10417000  1.0
  H  H40  1  0.52666000  0.06913000  0.48513000  1.0
  H  H41  1  0.97336000  0.93086000  0.98514000  1.0
  H  H42  1  0.02666000  0.43086000  0.51487000  1.0
  H  H43  1  0.47334000  0.56915000  0.01487000  1.0
  H  H44  1  0.64608000  0.93831000  0.35825000  1.0
  H  H45  1  0.85393000  0.06167000  0.85826000  1.0
  H  H46  1  0.14608000  0.56167000  0.64175000  1.0
  H  H47  1  0.35392000  0.43832000  0.14174000  1.0
  H  H48  1  0.60369000  0.80337000  0.38740000  1.0
  H  H49  1  0.89631000  0.19662000  0.88740000  1.0
  H  H50  1  0.10370000  0.69662000  0.61260000  1.0
  H  H51  1  0.39632000  0.30337000  0.11259000  1.0
  H  H52  1  0.68905000  0.89960000  0.44668000  1.0
  H  H53  1  0.81096000  0.10038000  0.94668000  1.0
  H  H54  1  0.18906000  0.60038000  0.55332000  1.0
  H  H55  1  0.31095000  0.39962000  0.05331000  1.0
  H  H56  1  0.62809000  0.51923000  0.82159000  1.0
  H  H57  1  0.87190000  0.48077000  0.32159000  1.0
  H  H58  1  0.12807000  0.98076000  0.17841000  1.0
  H  H59  1  0.37191000  0.01924000  0.67841000  1.0
  H  H60  1  0.36722000  0.69074000  0.82787000  1.0
  H  H61  1  0.13278000  0.30927000  0.32787000  1.0
  H  H62  1  0.86721000  0.80926000  0.17213000  1.0
  H  H63  1  0.63277000  0.19074000  0.67213000  1.0
  H  H64  1  0.39688000  0.58695000  0.89072000  1.0
  H  H65  1  0.10313000  0.41305000  0.39072000  1.0
  H  H66  1  0.89687000  0.91304000  0.10927000  1.0
  H  H67  1  0.60312000  0.08695000  0.60928000  1.0
  H  H68  1  0.34636000  0.55137000  0.80168000  1.0
  H  H69  1  0.15363000  0.44862000  0.30167000  1.0
  H  H70  1  0.84634000  0.94862000  0.19832000  1.0
  H  H71  1  0.65364000  0.05137000  0.69833000  1.0
  H  H72  1  0.80959000  0.67092000  0.84839000  1.0
  H  H73  1  0.69041000  0.32908000  0.34839000  1.0
  H  H74  1  0.30959000  0.82908000  0.15162000  1.0
  H  H75  1  0.19040000  0.17092000  0.65161000  1.0
  H  H76  1  0.67179000  0.66165000  0.91804000  1.0
  H  H77  1  0.82821000  0.33833000  0.41805000  1.0
  H  H78  1  0.17180000  0.83834000  0.08196000  1.0
  H  H79  1  0.32819000  0.16165000  0.58195000  1.0
  H  H80  1  0.65274000  0.76544000  0.85336000  1.0
  H  H81  1  0.84725000  0.23455000  0.35335000  1.0
  H  H82  1  0.15275000  0.73455000  0.14665000  1.0
  H  H83  1  0.34724000  0.26544000  0.64664000  1.0
  H  H84  1  0.43841000  0.74206000  0.72935000  1.0
  H  H85  1  0.06159000  0.25795000  0.22935000  1.0
  H  H86  1  0.93841000  0.75792000  0.27064000  1.0
  H  H87  1  0.56159000  0.24206000  0.77064000  1.0
  H  H88  1  0.39443000  0.92327000  0.59157000  1.0
  H  H89  1  0.10556000  0.07672000  0.09157000  1.0
  H  H90  1  0.89444000  0.57672000  0.40843000  1.0
  H  H91  1  0.60556000  0.42328000  0.90843000  1.0
  H  H92  1  0.60731000  0.79730000  0.73341000  1.0
  H  H93  1  0.89271000  0.20271000  0.23341000  1.0
  H  H94  1  0.10733000  0.70271000  0.26660000  1.0
  H  H95  1  0.39269000  0.29730000  0.76659000  1.0
  H  H96  1  0.56073000  0.91912000  0.54936000  1.0
  H  H97  1  0.93926000  0.08089000  0.04937000  1.0
  H  H98  1  0.06075000  0.58087000  0.45063000  1.0
  H  H99  1  0.43926000  0.41913000  0.95064000  1.0
  C  C100  1  0.37483000  0.86056000  0.48891000  1.0
  C  C101  1  0.12517000  0.13944000  0.98891000  1.0
  C  C102  1  0.87484000  0.63944000  0.51109000  1.0
  C  C103  1  0.62517000  0.36057000  0.01109000  1.0
  C  C104  1  0.36586000  0.73993000  0.46773000  1.0
  C  C105  1  0.13414000  0.26007000  0.96773000  1.0
  C  C106  1  0.86587000  0.76007000  0.53227000  1.0
  C  C107  1  0.63416000  0.23994000  0.03226000  1.0
  C  C108  1  0.45919000  0.55907000  0.49610000  1.0
  C  C109  1  0.04082000  0.44093000  0.99611000  1.0
  C  C110  1  0.95918000  0.94093000  0.50390000  1.0
  C  C111  1  0.54085000  0.05908000  0.00389000  1.0
  C  C112  1  0.42505000  0.50129000  0.43326000  1.0
  C  C113  1  0.07496000  0.49871000  0.93326000  1.0
  C  C114  1  0.92506000  0.99871000  0.56674000  1.0
  C  C115  1  0.57498000  0.00130000  0.06673000  1.0
  C  C116  1  0.44099000  0.38803000  0.43118000  1.0
  C  C117  1  0.05901000  0.61197000  0.93118000  1.0
  C  C118  1  0.94100000  0.11196000  0.56882000  1.0
  C  C119  1  0.55902000  0.88804000  0.06882000  1.0
  C  C120  1  0.49292000  0.33171000  0.49140000  1.0
  C  C121  1  0.00708000  0.66830000  0.99140000  1.0
  C  C122  1  0.99291000  0.16829000  0.50861000  1.0
  C  C123  1  0.50709000  0.83171000  0.00860000  1.0
  C  C124  1  0.52586000  0.38732000  0.55459000  1.0
  C  C125  1  0.97413000  0.61268000  0.05459000  1.0
  C  C126  1  0.02586000  0.11267000  0.44542000  1.0
  C  C127  1  0.47415000  0.88733000  0.94541000  1.0
  C  C128  1  0.50843000  0.50084000  0.55874000  1.0
  C  C129  1  0.99157000  0.49916000  0.05875000  1.0
  C  C130  1  0.00841000  0.99915000  0.44125000  1.0
  C  C131  1  0.49160000  0.00085000  0.94125000  1.0
  C  C132  1  0.56234000  0.53145000  0.68549000  1.0
  C  C133  1  0.93763000  0.46856000  0.18550000  1.0
  C  C134  1  0.06229000  0.96855000  0.31450000  1.0
  C  C135  1  0.43766000  0.03146000  0.81450000  1.0
  C  C136  1  0.61439000  0.62710000  0.73492000  1.0
  C  C137  1  0.88560000  0.37290000  0.23493000  1.0
  C  C138  1  0.11436000  0.87290000  0.26507000  1.0
  C  C139  1  0.38561000  0.12711000  0.76507000  1.0
  C  C140  1  0.44199000  0.92792000  0.42603000  1.0
  C  C141  1  0.05802000  0.07207000  0.92603000  1.0
  C  C142  1  0.94200000  0.57207000  0.57397000  1.0
  C  C143  1  0.55802000  0.42793000  0.07397000  1.0
  C  C144  1  0.44123000  0.04957000  0.44323000  1.0
  C  C145  1  0.05878000  0.95042000  0.94324000  1.0
  C  C146  1  0.94124000  0.45042000  0.55676000  1.0
  C  C147  1  0.55876000  0.54959000  0.05677000  1.0
  C  C148  1  0.60374000  0.88951000  0.40348000  1.0
  C  C149  1  0.89628000  0.11048000  0.90348000  1.0
  C  C150  1  0.10375000  0.61048000  0.59653000  1.0
  C  C151  1  0.39627000  0.38952000  0.09652000  1.0
  C  C152  1  0.58739000  0.60377000  0.81458000  1.0
  C  C153  1  0.91260000  0.39623000  0.31458000  1.0
  C  C154  1  0.08738000  0.89623000  0.18541000  1.0
  C  C155  1  0.41260000  0.10377000  0.68542000  1.0
  C  C156  1  0.41512000  0.60812000  0.83431000  1.0
  C  C157  1  0.08487000  0.39188000  0.33431000  1.0
  C  C158  1  0.91511000  0.89188000  0.16569000  1.0
  C  C159  1  0.58488000  0.10812000  0.66569000  1.0
  C  C160  1  0.68565000  0.67965000  0.86091000  1.0
  C  C161  1  0.81435000  0.32034000  0.36091000  1.0
  C  C162  1  0.18565000  0.82034000  0.13909000  1.0
  C  C163  1  0.31434000  0.17965000  0.63909000  1.0
  N  N164  1  0.45932000  0.87736000  0.55729000  1.0
  N  N165  1  0.04068000  0.12264000  0.05729000  1.0
  N  N166  1  0.95933000  0.62264000  0.44271000  1.0
  N  N167  1  0.54067000  0.37737000  0.94271000  1.0
  N  N168  1  0.45548000  0.67256000  0.50334000  1.0
  N  N169  1  0.04453000  0.32745000  0.00334000  1.0
  N  N170  1  0.95548000  0.82744000  0.49667000  1.0
  N  N171  1  0.54455000  0.17257000  0.99666000  1.0
  N  N172  1  0.54170000  0.56463000  0.61802000  1.0
  N  N173  1  0.95831000  0.43537000  0.11803000  1.0
  N  N174  1  0.04166000  0.93536000  0.38198000  1.0
  N  N175  1  0.45834000  0.06464000  0.88197000  1.0
  N  N176  1  0.54937000  0.73322000  0.71070000  1.0
  N  N177  1  0.95063000  0.26679000  0.21069000  1.0
  N  N178  1  0.04937000  0.76678000  0.28930000  1.0
  N  N179  1  0.45063000  0.23322000  0.78930000  1.0
  O  O180  1  0.27256000  0.71418000  0.41674000  1.0
  O  O181  1  0.22744000  0.28581000  0.91674000  1.0
  O  O182  1  0.77256000  0.78582000  0.58326000  1.0
  O  O183  1  0.72745000  0.21419000  0.08326000  1.0
  O  O184  1  0.55155000  0.43687000  0.71095000  1.0
  O  O185  1  0.94841000  0.56313000  0.21096000  1.0
  O  O186  1  0.05148000  0.06312000  0.28904000  1.0
  O  O187  1  0.44843000  0.93687000  0.78904000  1.0
