# generated using pymatgen
data_CuH14C20N2O5
_symmetry_space_group_name_H-M   'P 1'
_cell_length_a   6.87026000
_cell_length_b   9.95200000
_cell_length_c   31.15360000
_cell_angle_alpha   90.00080000
_cell_angle_beta   90.00100000
_cell_angle_gamma   80.42400000
_symmetry_Int_Tables_number   1
_chemical_formula_structural   CuH14C20N2O5
_chemical_formula_sum   'Cu4 H56 C80 N8 O20'
_cell_volume   2100.37905467
_cell_formula_units_Z   4
loop_
 _symmetry_equiv_pos_site_id
 _symmetry_equiv_pos_as_xyz
  1  'x, y, z'
loop_
 _atom_site_type_symbol
 _atom_site_label
 _atom_site_symmetry_multiplicity
 _atom_site_fract_x
 _atom_site_fract_y
 _atom_site_fract_z
 _atom_site_occupancy
  Cu  Cu0  1  0.17750000  0.91005000  0.61785000  1.0
  Cu  Cu1  1  0.17755000  0.41006000  0.88215000  1.0
  Cu  Cu2  1  0.82249000  0.08995000  0.38215000  1.0
  Cu  Cu3  1  0.82246000  0.58993000  0.11785000  1.0
  H  H4  1  0.44327000  0.96516000  0.66525000  1.0
  H  H5  1  0.44330000  0.46518000  0.83475000  1.0
  H  H6  1  0.55670000  0.03484000  0.33475000  1.0
  H  H7  1  0.55671000  0.53483000  0.16525000  1.0
  H  H8  1  0.60464000  0.87087000  0.63540000  1.0
  H  H9  1  0.60469000  0.37089000  0.86460000  1.0
  H  H10  1  0.39534000  0.12914000  0.36460000  1.0
  H  H11  1  0.39532000  0.62912000  0.13540000  1.0
  H  H12  1  0.26299000  0.61548000  0.58416000  1.0
  H  H13  1  0.26298000  0.11549000  0.91583000  1.0
  H  H14  1  0.73702000  0.38454000  0.41585000  1.0
  H  H15  1  0.73701000  0.88451000  0.08417000  1.0
  H  H16  1  0.34159000  0.51247000  0.51073000  1.0
  H  H17  1  0.34160000  0.01245000  0.98926000  1.0
  H  H18  1  0.65841000  0.48753000  0.48928000  1.0
  H  H19  1  0.65840000  0.98754000  0.01074000  1.0
  H  H20  1  0.37005000  0.66634000  0.44805000  1.0
  H  H21  1  0.37006000  0.16631000  0.05194000  1.0
  H  H22  1  0.62995000  0.33366000  0.55195000  1.0
  H  H23  1  0.62996000  0.83367000  0.94806000  1.0
  H  H24  1  0.34683000  0.91569000  0.42029000  1.0
  H  H25  1  0.34682000  0.41567000  0.07971000  1.0
  H  H26  1  0.65317000  0.08431000  0.57971000  1.0
  H  H27  1  0.65322000  0.58432000  0.92029000  1.0
  H  H28  1  0.26466000  0.15849000  0.43547000  1.0
  H  H29  1  0.26464000  0.65847000  0.06453000  1.0
  H  H30  1  0.73533000  0.84151000  0.56453000  1.0
  H  H31  1  0.73539000  0.34152000  0.93547000  1.0
  H  H32  1  0.16850000  0.35046000  0.49040000  1.0
  H  H33  1  0.16851000  0.85045000  0.00961000  1.0
  H  H34  1  0.83150000  0.64954000  0.50960000  1.0
  H  H35  1  0.83152000  0.14954000  0.99040000  1.0
  H  H36  1  0.08110000  0.41600000  0.56718000  1.0
  H  H37  1  0.08109000  0.91599000  0.93283000  1.0
  H  H38  1  0.91891000  0.58402000  0.43283000  1.0
  H  H39  1  0.91892000  0.08400000  0.06717000  1.0
  H  H40  1  0.07474000  0.22996000  0.62196000  1.0
  H  H41  1  0.07476000  0.72996000  0.87804000  1.0
  H  H42  1  0.92526000  0.77005000  0.37803000  1.0
  H  H43  1  0.92525000  0.27004000  0.12196000  1.0
  H  H44  1  0.18914000  0.64603000  0.72251000  1.0
  H  H45  1  0.18915000  0.14602000  0.77748000  1.0
  H  H46  1  0.81086000  0.35395000  0.27749000  1.0
  H  H47  1  0.81084000  0.85398000  0.22251000  1.0
  H  H48  1  0.74417000  0.48637000  0.79445000  1.0
  H  H49  1  0.74414000  0.98637000  0.70554000  1.0
  H  H50  1  0.25583000  0.51364000  0.20555000  1.0
  H  H51  1  0.25585000  0.01361000  0.29446000  1.0
  H  H52  1  0.51013000  0.53600000  0.73393000  1.0
  H  H53  1  0.51013000  0.03602000  0.76607000  1.0
  H  H54  1  0.48986000  0.46401000  0.26607000  1.0
  H  H55  1  0.48986000  0.96398000  0.23393000  1.0
  H  H56  1  0.61470000  0.64634000  0.66720000  1.0
  H  H57  1  0.61474000  0.14637000  0.83279000  1.0
  H  H58  1  0.38529000  0.35366000  0.33280000  1.0
  H  H59  1  0.38526000  0.85363000  0.16721000  1.0
  C  C60  1  0.27308000  0.67779000  0.55567000  1.0
  C  C61  1  0.27308000  0.17779000  0.94432000  1.0
  C  C62  1  0.72692000  0.32221000  0.44434000  1.0
  C  C63  1  0.72691000  0.82221000  0.05568000  1.0
  C  C64  1  0.31830000  0.62253000  0.51469000  1.0
  C  C65  1  0.31830000  0.12253000  0.98530000  1.0
  C  C66  1  0.68169000  0.37748000  0.48532000  1.0
  C  C67  1  0.68169000  0.87747000  0.01470000  1.0
  C  C68  1  0.33344000  0.70768000  0.48003000  1.0
  C  C69  1  0.33344000  0.20767000  0.01996000  1.0
  C  C70  1  0.66656000  0.29233000  0.51997000  1.0
  C  C71  1  0.66657000  0.79233000  0.98004000  1.0
  C  C72  1  0.29798000  0.85022000  0.48615000  1.0
  C  C73  1  0.29798000  0.35020000  0.01385000  1.0
  C  C74  1  0.70202000  0.14977000  0.51385000  1.0
  C  C75  1  0.70204000  0.64978000  0.98615000  1.0
  C  C76  1  0.30663000  0.94892000  0.45299000  1.0
  C  C77  1  0.30663000  0.44889000  0.04701000  1.0
  C  C78  1  0.69336000  0.05109000  0.54701000  1.0
  C  C79  1  0.69340000  0.55109000  0.95299000  1.0
  C  C80  1  0.26488000  0.08561000  0.46160000  1.0
  C  C81  1  0.26488000  0.58559000  0.03840000  1.0
  C  C82  1  0.73511000  0.91440000  0.53840000  1.0
  C  C83  1  0.73516000  0.41440000  0.96160000  1.0
  C  C84  1  0.21216000  0.13462000  0.50397000  1.0
  C  C85  1  0.21217000  0.63461000  0.99603000  1.0
  C  C86  1  0.78783000  0.86540000  0.49603000  1.0
  C  C87  1  0.78785000  0.36538000  0.00397000  1.0
  C  C88  1  0.16693000  0.27368000  0.51532000  1.0
  C  C89  1  0.16695000  0.77367000  0.98469000  1.0
  C  C90  1  0.83308000  0.72633000  0.48468000  1.0
  C  C91  1  0.83308000  0.22632000  0.01532000  1.0
  C  C92  1  0.11869000  0.30957000  0.55746000  1.0
  C  C93  1  0.11869000  0.80956000  0.94255000  1.0
  C  C94  1  0.88133000  0.69043000  0.44254000  1.0
  C  C95  1  0.88132000  0.19043000  0.05746000  1.0
  C  C96  1  0.11388000  0.20710000  0.58849000  1.0
  C  C97  1  0.11390000  0.70710000  0.91151000  1.0
  C  C98  1  0.88611000  0.79292000  0.41151000  1.0
  C  C99  1  0.88611000  0.29290000  0.08849000  1.0
  C  C100  1  0.20431000  0.03938000  0.53736000  1.0
  C  C101  1  0.20432000  0.53937000  0.96264000  1.0
  C  C102  1  0.79568000  0.96063000  0.46264000  1.0
  C  C103  1  0.79569000  0.46062000  0.03736000  1.0
  C  C104  1  0.24833000  0.89660000  0.52843000  1.0
  C  C105  1  0.24834000  0.39659000  0.97157000  1.0
  C  C106  1  0.75166000  0.10341000  0.47157000  1.0
  C  C107  1  0.75167000  0.60340000  0.02843000  1.0
  C  C108  1  0.96606000  0.72480000  0.65192000  1.0
  C  C109  1  0.96610000  0.22482000  0.84807000  1.0
  C  C110  1  0.03392000  0.27520000  0.34808000  1.0
  C  C111  1  0.03390000  0.77518000  0.15193000  1.0
  C  C112  1  0.90894000  0.65192000  0.69068000  1.0
  C  C113  1  0.90897000  0.15193000  0.80931000  1.0
  C  C114  1  0.09106000  0.34808000  0.30932000  1.0
  C  C115  1  0.09104000  0.84807000  0.19069000  1.0
  C  C116  1  0.04131000  0.62071000  0.72480000  1.0
  C  C117  1  0.04132000  0.12072000  0.77519000  1.0
  C  C118  1  0.95871000  0.37929000  0.27520000  1.0
  C  C119  1  0.95868000  0.87929000  0.22480000  1.0
  C  C120  1  0.98190000  0.56075000  0.76212000  1.0
  C  C121  1  0.98191000  0.06074000  0.73788000  1.0
  C  C122  1  0.01809000  0.43925000  0.23789000  1.0
  C  C123  1  0.01808000  0.93925000  0.26212000  1.0
  C  C124  1  0.78959000  0.53161000  0.76508000  1.0
  C  C125  1  0.78957000  0.03161000  0.73491000  1.0
  C  C126  1  0.21042000  0.46839000  0.23492000  1.0
  C  C127  1  0.21043000  0.96838000  0.26509000  1.0
  C  C128  1  0.65847000  0.55995000  0.73080000  1.0
  C  C129  1  0.65848000  0.05996000  0.76920000  1.0
  C  C130  1  0.34152000  0.44006000  0.26920000  1.0
  C  C131  1  0.34151000  0.94003000  0.23080000  1.0
  C  C132  1  0.71747000  0.62051000  0.69377000  1.0
  C  C133  1  0.71749000  0.12053000  0.80623000  1.0
  C  C134  1  0.28253000  0.37950000  0.30623000  1.0
  C  C135  1  0.28251000  0.87947000  0.19377000  1.0
  C  C136  1  0.12448000  0.52571000  0.79840000  1.0
  C  C137  1  0.12444000  0.02569000  0.70159000  1.0
  C  C138  1  0.87555000  0.47429000  0.20159000  1.0
  C  C139  1  0.87556000  0.97430000  0.29841000  1.0
  N  N140  1  0.23938000  0.81174000  0.56215000  1.0
  N  N141  1  0.23938000  0.31176000  0.93784000  1.0
  N  N142  1  0.76061000  0.18827000  0.43785000  1.0
  N  N143  1  0.76060000  0.68825000  0.06216000  1.0
  N  N144  1  0.15524000  0.07556000  0.57837000  1.0
  N  N145  1  0.15525000  0.57557000  0.92163000  1.0
  N  N146  1  0.84476000  0.92444000  0.42163000  1.0
  N  N147  1  0.84475000  0.42444000  0.07838000  1.0
  O  O148  1  0.14876000  0.74277000  0.64986000  1.0
  O  O149  1  0.14881000  0.24279000  0.85013000  1.0
  O  O150  1  0.85122000  0.25722000  0.35014000  1.0
  O  O151  1  0.85119000  0.75721000  0.14986000  1.0
  O  O152  1  0.83826000  0.76688000  0.62371000  1.0
  O  O153  1  0.83833000  0.26691000  0.87628000  1.0
  O  O154  1  0.16172000  0.23312000  0.37629000  1.0
  O  O155  1  0.16167000  0.73309000  0.12372000  1.0
  O  O156  1  0.04230000  0.51898000  0.83583000  1.0
  O  O157  1  0.04227000  0.01897000  0.66416000  1.0
  O  O158  1  0.95770000  0.48102000  0.16417000  1.0
  O  O159  1  0.95771000  0.98104000  0.33583000  1.0
  O  O160  1  0.30671000  0.50529000  0.79129000  1.0
  O  O161  1  0.30671000  0.00526000  0.70871000  1.0
  O  O162  1  0.69326000  0.49472000  0.20872000  1.0
  O  O163  1  0.69324000  0.99473000  0.29129000  1.0
  O  O164  1  0.48734000  0.94370000  0.63481000  1.0
  O  O165  1  0.48737000  0.44371000  0.86519000  1.0
  O  O166  1  0.51265000  0.05630000  0.36519000  1.0
  O  O167  1  0.51264000  0.55630000  0.13481000  1.0
