# generated using pymatgen
data_DyH10C16N5O8
_symmetry_space_group_name_H-M   'P 1'
_cell_length_a   9.49336000
_cell_length_b   10.14287871
_cell_length_c   11.60150000
_cell_angle_alpha   90.69299889
_cell_angle_beta   114.15280000
_cell_angle_gamma   117.90593985
_symmetry_Int_Tables_number   1
_chemical_formula_structural   DyH10C16N5O8
_chemical_formula_sum   'Dy2 H20 C32 N10 O16'
_cell_volume   871.59946560
_cell_formula_units_Z   2
loop_
 _symmetry_equiv_pos_site_id
 _symmetry_equiv_pos_as_xyz
  1  'x, y, z'
loop_
 _atom_site_type_symbol
 _atom_site_label
 _atom_site_symmetry_multiplicity
 _atom_site_fract_x
 _atom_site_fract_y
 _atom_site_fract_z
 _atom_site_occupancy
  Dy  Dy0  1  0.40818000  0.75001000  0.75000000  1.0
  Dy  Dy1  1  0.59182000  0.24999000  0.25000000  1.0
  H  H2  1  0.55227000  0.10734000  0.86102000  1.0
  H  H3  1  0.08393000  0.39275000  0.63899000  1.0
  H  H4  1  0.44774000  0.89266000  0.13898000  1.0
  H  H5  1  0.91607000  0.60725000  0.36101000  1.0
  H  H6  1  0.81877000  0.37506000  0.94116000  1.0
  H  H7  1  0.00257000  0.12498000  0.55887000  1.0
  H  H8  1  0.18123000  0.62494000  0.05884000  1.0
  H  H9  1  0.99743000  0.87502000  0.44113000  1.0
  H  H10  1  0.11040000  0.41298000  0.95404000  1.0
  H  H11  1  0.24337000  0.08708000  0.54601000  1.0
  H  H12  1  0.88960000  0.58702000  0.04596000  1.0
  H  H13  1  0.75663000  0.91292000  0.45399000  1.0
  H  H14  1  0.12006000  0.18603000  0.89335000  1.0
  H  H15  1  0.54069000  0.31398000  0.60665000  1.0
  H  H16  1  0.87993000  0.81396000  0.10665000  1.0
  H  H17  1  0.45931000  0.68602000  0.39335000  1.0
  H  H18  1  0.11557000  0.99239000  0.84134000  1.0
  H  H19  1  0.78189000  0.50772000  0.65869000  1.0
  H  H20  1  0.88443000  0.00761000  0.15866000  1.0
  H  H21  1  0.21811000  0.49228000  0.34131000  1.0
  C  C22  1  0.68067000  0.12973000  0.86939000  1.0
  C  C23  1  0.18160000  0.37035000  0.63063000  1.0
  C  C24  1  0.31933000  0.87027000  0.13061000  1.0
  C  C25  1  0.81840000  0.62965000  0.36937000  1.0
  C  C26  1  0.83021000  0.27876000  0.91415000  1.0
  C  C27  1  0.13735000  0.22129000  0.58589000  1.0
  C  C28  1  0.16979000  0.72124000  0.08585000  1.0
  C  C29  1  0.86265000  0.77871000  0.41411000  1.0
  C  C30  1  0.99003000  0.29914000  0.92254000  1.0
  C  C31  1  0.26839000  0.20091000  0.57752000  1.0
  C  C32  1  0.00997000  0.70086000  0.07746000  1.0
  C  C33  1  0.73160000  0.79909000  0.42248000  1.0
  C  C34  1  0.99528000  0.17076000  0.88637000  1.0
  C  C35  1  0.43820000  0.32930000  0.61365000  1.0
  C  C36  1  0.00472000  0.82924000  0.11363000  1.0
  C  C37  1  0.56180000  0.67070000  0.38635000  1.0
  C  C38  1  0.83955000  0.02459000  0.84129000  1.0
  C  C39  1  0.47372000  0.47547000  0.65870000  1.0
  C  C40  1  0.16045000  0.97541000  0.15871000  1.0
  C  C41  1  0.52627000  0.52453000  0.34130000  1.0
  C  C42  1  0.83260000  0.88342000  0.79608000  1.0
  C  C43  1  0.65312000  0.61667000  0.70391000  1.0
  C  C44  1  0.16740000  0.11658000  0.20392000  1.0
  C  C45  1  0.34688000  0.38333000  0.29609000  1.0
  C  C46  1  0.98372000  0.88676000  0.80011000  1.0
  C  C47  1  0.79693000  0.61337000  0.69990000  1.0
  C  C48  1  0.01627000  0.11324000  0.19989000  1.0
  C  C49  1  0.20307000  0.38663000  0.30009000  1.0
  C  C50  1  0.96399000  0.75005000  0.75002000  1.0
  C  C51  1  0.03601000  0.24995000  0.24998000  1.0
  C  C52  1  0.12189000  0.75004000  0.75001000  1.0
  C  C53  1  0.87811000  0.24996000  0.24999000  1.0
  N  N54  1  0.47059000  0.66012000  0.99214000  1.0
  N  N55  1  0.31829000  0.83987000  0.50785000  1.0
  N  N56  1  0.52941000  0.33988000  0.00786000  1.0
  N  N57  1  0.68171000  0.16013000  0.49215000  1.0
  N  N58  1  0.67167000  0.75003000  0.74998000  1.0
  N  N59  1  0.32833000  0.24997000  0.25002000  1.0
  N  N60  1  0.68455000  0.00575000  0.83337000  1.0
  N  N61  1  0.34547000  0.49431000  0.66666667  1.0
  N  N62  1  0.31546000  0.99426000  0.16663000  1.0
  N  N63  1  0.65453000  0.50569000  0.33338000  1.0
  O  O64  1  0.28112000  0.85706000  0.83217000  1.0
  O  O65  1  0.09187000  0.64298000  0.66785000  1.0
  O  O66  1  0.71888000  0.14294000  0.16783000  1.0
  O  O67  1  0.90813000  0.35702000  0.33215000  1.0
  O  O68  1  0.31398000  0.59036000  0.89151000  1.0
  O  O69  1  0.33202000  0.90960000  0.60847000  1.0
  O  O70  1  0.68602000  0.40964000  0.10849000  1.0
  O  O71  1  0.66799000  0.09040000  0.39153000  1.0
  O  O72  1  0.59739000  0.77183000  0.97689000  1.0
  O  O73  1  0.34854000  0.72811000  0.52310000  1.0
  O  O74  1  0.40260000  0.22817000  0.02311000  1.0
  O  O75  1  0.65146000  0.27189000  0.47690000  1.0
  O  O76  1  0.49764000  0.62367000  0.09662000  1.0
  O  O77  1  0.27745000  0.87638000  0.40340000  1.0
  O  O78  1  0.50236000  0.37633000  0.90338000  1.0
  O  O79  1  0.72255000  0.12362000  0.59660000  1.0
