# generated using pymatgen
data_H5PbC2N9O2
_symmetry_space_group_name_H-M   'P 1'
_cell_length_a   6.62184000
_cell_length_b   10.65000000
_cell_length_c   11.91070000
_cell_angle_alpha   89.98980000
_cell_angle_beta   89.98220000
_cell_angle_gamma   74.88900000
_symmetry_Int_Tables_number   1
_chemical_formula_structural   H5PbC2N9O2
_chemical_formula_sum   'H20 Pb4 C8 N36 O8'
_cell_volume   810.92934164
_cell_formula_units_Z   4
loop_
 _symmetry_equiv_pos_site_id
 _symmetry_equiv_pos_as_xyz
  1  'x, y, z'
loop_
 _atom_site_type_symbol
 _atom_site_label
 _atom_site_symmetry_multiplicity
 _atom_site_fract_x
 _atom_site_fract_y
 _atom_site_fract_z
 _atom_site_occupancy
  H  H0  1  0.70567000  0.57342000  0.86192000  1.0
  H  H1  1  0.79434000  0.92666000  0.36193000  1.0
  H  H2  1  0.29439000  0.42660000  0.13810000  1.0
  H  H3  1  0.20568000  0.07335000  0.63808000  1.0
  H  H4  1  0.73575000  0.13047000  0.90258000  1.0
  H  H5  1  0.76437000  0.36953000  0.40254000  1.0
  H  H6  1  0.26421000  0.86951000  0.09744000  1.0
  H  H7  1  0.23576000  0.63052000  0.59744000  1.0
  H  H8  1  0.85839000  0.03553000  0.81296000  1.0
  H  H9  1  0.64175000  0.46446000  0.31292000  1.0
  H  H10  1  0.14157000  0.96450000  0.18702000  1.0
  H  H11  1  0.35846000  0.53553000  0.68701000  1.0
  H  H12  1  0.51537000  0.22972000  0.78484000  1.0
  H  H13  1  0.98464000  0.27029000  0.28486000  1.0
  H  H14  1  0.48459000  0.77028000  0.21518000  1.0
  H  H15  1  0.01527000  0.72968000  0.71515000  1.0
  H  H16  1  0.44773000  0.32521000  0.89293000  1.0
  H  H17  1  0.05230000  0.17483000  0.39296000  1.0
  H  H18  1  0.55225000  0.67475000  0.10711000  1.0
  H  H19  1  0.94771000  0.82521000  0.60707000  1.0
  Pb  Pb20  1  0.19275000  0.13403000  0.95468000  1.0
  Pb  Pb21  1  0.30737000  0.36600000  0.45472000  1.0
  Pb  Pb22  1  0.80709000  0.86584000  0.04530000  1.0
  Pb  Pb23  1  0.69283000  0.63411000  0.54521000  1.0
  C  C24  1  0.88756000  0.40424000  0.79579000  1.0
  C  C25  1  0.61243000  0.09581000  0.29581000  1.0
  C  C26  1  0.11245000  0.59576000  0.20420000  1.0
  C  C27  1  0.38755000  0.90418000  0.70419000  1.0
  C  C28  1  0.79600000  0.44356000  0.99336000  1.0
  C  C29  1  0.70397000  0.05648000  0.49337000  1.0
  C  C30  1  0.20405000  0.55643000  0.00664000  1.0
  C  C31  1  0.29597000  0.94351000  0.50664000  1.0
  N  N32  1  0.01928000  0.28431000  0.80101000  1.0
  N  N33  1  0.48084000  0.21578000  0.30101000  1.0
  N  N34  1  0.98064000  0.71567000  0.19898000  1.0
  N  N35  1  0.51940000  0.78430000  0.69898000  1.0
  N  N36  1  0.07610000  0.25119000  0.69327000  1.0
  N  N37  1  0.42396000  0.24886000  0.19328000  1.0
  N  N38  1  0.92387000  0.74882000  0.30672000  1.0
  N  N39  1  0.57617000  0.75119000  0.80672000  1.0
  N  N40  1  0.98331000  0.34654000  0.62696000  1.0
  N  N41  1  0.51659000  0.15344000  0.12700000  1.0
  N  N42  1  0.01681000  0.65350000  0.37303000  1.0
  N  N43  1  0.48323000  0.84651000  0.87302000  1.0
  N  N44  1  0.86283000  0.44470000  0.68822000  1.0
  N  N45  1  0.63700000  0.05528000  0.18826000  1.0
  N  N46  1  0.13728000  0.55536000  0.31178000  1.0
  N  N47  1  0.36271000  0.94462000  0.81176000  1.0
  N  N48  1  0.78946000  0.47982000  0.88281000  1.0
  N  N49  1  0.71052000  0.02024000  0.38283000  1.0
  N  N50  1  0.21057000  0.52018000  0.11719000  1.0
  N  N51  1  0.28944000  0.97976000  0.61718000  1.0
  N  N52  1  0.91071000  0.33055000  0.03721000  1.0
  N  N53  1  0.58920000  0.16946000  0.53723000  1.0
  N  N54  1  0.08930000  0.66942000  0.96279000  1.0
  N  N55  1  0.41055000  0.83048000  0.46279000  1.0
  N  N56  1  0.86865000  0.33877000  0.14853000  1.0
  N  N57  1  0.63126000  0.16123000  0.64855000  1.0
  N  N58  1  0.13136000  0.66122000  0.85146000  1.0
  N  N59  1  0.36853000  0.83873000  0.35147000  1.0
  N  N60  1  0.73564000  0.45071000  0.16988000  1.0
  N  N61  1  0.76431000  0.04931000  0.66987000  1.0
  N  N62  1  0.26443000  0.54929000  0.83013000  1.0
  N  N63  1  0.23564000  0.95071000  0.33014000  1.0
  N  N64  1  0.68577000  0.51998000  0.07442000  1.0
  N  N65  1  0.81421000  0.98006000  0.57440000  1.0
  N  N66  1  0.31432000  0.48003000  0.92559000  1.0
  N  N67  1  0.18582000  0.01998000  0.42560000  1.0
  O  O68  1  0.86463000  0.05585000  0.89506000  1.0
  O  O69  1  0.63548000  0.44415000  0.39503000  1.0
  O  O70  1  0.13530000  0.94410000  0.10494000  1.0
  O  O71  1  0.36468000  0.55592000  0.60491000  1.0
  O  O72  1  0.50149000  0.23169000  0.86812000  1.0
  O  O73  1  0.99851000  0.26833000  0.36813000  1.0
  O  O74  1  0.49848000  0.76827000  0.13190000  1.0
  O  O75  1  0.00148000  0.73169000  0.63187000  1.0
