# generated using pymatgen
data_BaPH3(CO3)2
_symmetry_space_group_name_H-M   'P 1'
_cell_length_a   4.76242000
_cell_length_b   7.42779000
_cell_length_c   8.44641000
_cell_angle_alpha   83.14070000
_cell_angle_beta   86.37710000
_cell_angle_gamma   78.72450000
_symmetry_Int_Tables_number   1
_chemical_formula_structural   BaPH3(CO3)2
_chemical_formula_sum   'Ba2 P2 H6 C4 O12'
_cell_volume   290.67751724
_cell_formula_units_Z   2
loop_
 _symmetry_equiv_pos_site_id
 _symmetry_equiv_pos_as_xyz
  1  'x, y, z'
loop_
 _atom_site_type_symbol
 _atom_site_label
 _atom_site_symmetry_multiplicity
 _atom_site_fract_x
 _atom_site_fract_y
 _atom_site_fract_z
 _atom_site_occupancy
  Ba  Ba0  1  0.49353000  0.36433000  0.27184000  1.0
  Ba  Ba1  1  0.50647000  0.63567000  0.72816000  1.0
  P  P2  1  0.98423000  0.73071000  0.11663000  1.0
  P  P3  1  0.01577000  0.26929000  0.88337000  1.0
  H  H4  1  0.54769000  0.80467000  0.02339000  1.0
  H  H5  1  0.45231000  0.19533000  0.97661000  1.0
  H  H6  1  0.54164000  0.88507000  0.34159000  1.0
  H  H7  1  0.45836000  0.11494000  0.65841000  1.0
  H  H8  1  0.06628000  0.00093000  0.22423000  1.0
  H  H9  1  0.93372000  0.99907000  0.77577000  1.0
  C  C10  1  0.94357000  0.89374000  0.27070000  1.0
  C  C11  1  0.05643000  0.10626000  0.72930000  1.0
  C  C12  1  0.08289000  0.78989000  0.42196000  1.0
  C  C13  1  0.91711000  0.21011000  0.57804000  1.0
  O  O14  1  0.75194000  0.82238000  0.98899000  1.0
  O  O15  1  0.24806000  0.17762000  0.01101000  1.0
  O  O16  1  0.92862000  0.54713000  0.19915000  1.0
  O  O17  1  0.07137000  0.45287000  0.80085000  1.0
  O  O18  1  0.27931000  0.71755000  0.03250000  1.0
  O  O19  1  0.72069000  0.28245000  0.96750000  1.0
  O  O20  1  0.65436000  0.98099000  0.29652000  1.0
  O  O21  1  0.34564000  0.01901000  0.70348000  1.0
  O  O22  1  0.35104000  0.71559000  0.40598000  1.0
  O  O23  1  0.64896000  0.28441000  0.59402000  1.0
  O  O24  1  0.93856000  0.77831000  0.55098000  1.0
  O  O25  1  0.06144000  0.22169000  0.44902000  1.0
