# generated using pymatgen
data_Al6H23C90I15O28
_symmetry_space_group_name_H-M   'P 1'
_cell_length_a   12.15376214
_cell_length_b   12.28160000
_cell_length_c   27.84240000
_cell_angle_alpha   88.83040000
_cell_angle_beta   85.40721502
_cell_angle_gamma   117.55092090
_symmetry_Int_Tables_number   1
_chemical_formula_structural   Al6H23C90I15O28
_chemical_formula_sum   'Al6 H23 C90 I15 O28'
_cell_volume   3665.08293672
_cell_formula_units_Z   1
loop_
 _symmetry_equiv_pos_site_id
 _symmetry_equiv_pos_as_xyz
  1  'x, y, z'
loop_
 _atom_site_type_symbol
 _atom_site_label
 _atom_site_symmetry_multiplicity
 _atom_site_fract_x
 _atom_site_fract_y
 _atom_site_fract_z
 _atom_site_occupancy
  Al  Al0  1  0.81610000  0.42501000  0.49955000  1.0
  Al  Al1  1  0.08536000  0.65815000  0.49985000  1.0
  Al  Al2  1  0.07346000  0.40906000  0.49558000  1.0
  Al  Al3  1  0.82767000  0.90895000  0.99098000  1.0
  Al  Al4  1  0.56953000  0.92423000  0.99558000  1.0
  Al  Al5  1  0.55778000  0.67458000  0.99920000  1.0
  H  H6  1  0.00794000  0.49765000  0.71633000  1.0
  H  H7  1  0.93553000  0.82653000  0.86707000  1.0
  H  H8  1  0.04322000  0.77832000  0.62894000  1.0
  H  H9  1  0.11309000  0.89048000  0.70329000  1.0
  H  H10  1  0.18500000  0.38082000  0.19258000  1.0
  H  H11  1  0.15541000  0.34875000  0.28175000  1.0
  H  H12  1  0.18010000  0.43536000  0.36257000  1.0
  H  H13  1  0.96419000  0.42961000  0.63770000  1.0
  H  H14  1  0.07254000  0.90694000  0.79083000  1.0
  H  H15  1  0.60858000  0.33114000  0.71616000  1.0
  H  H16  1  0.46482000  0.91472000  0.13037000  1.0
  H  H17  1  0.36388000  0.82768000  0.37429000  1.0
  H  H18  1  0.49595000  0.00114000  0.21140000  1.0
  H  H19  1  0.46642000  0.96904000  0.30052000  1.0
  H  H20  1  0.27997000  0.52237000  0.11885000  1.0
  H  H21  1  0.92338000  0.37983000  0.27641000  1.0
  H  H22  1  0.38036000  0.51849000  0.79403000  1.0
  H  H23  1  0.72343000  0.96196000  0.21442000  1.0
  H  H24  1  0.34083000  0.47592000  0.70809000  1.0
  H  H25  1  0.71419000  0.91600000  0.85577000  1.0
  H  H26  1  0.69274000  0.84687000  0.77636000  1.0
  H  H27  1  0.61947000  0.31859000  0.47191000  1.0
  H  H28  1  0.03633000  0.03775000  0.96264000  1.0
  C  C29  1  0.89912000  0.61672000  0.57229000  1.0
  C  C30  1  0.37409000  0.58584000  0.76982000  1.0
  C  C31  1  0.35184000  0.56205000  0.72225000  1.0
  C  C32  1  0.34245000  0.64878000  0.69104000  1.0
  C  C33  1  0.38651000  0.69690000  0.78831000  1.0
  C  C34  1  0.39795000  0.71390000  0.83820000  1.0
  C  C35  1  0.31313000  0.62171000  0.64329000  1.0
  C  C36  1  0.40404000  0.72366000  0.88164000  1.0
  C  C37  1  0.79874000  0.11625000  0.63876000  1.0
  C  C38  1  0.79034000  0.08238000  0.68861000  1.0
  C  C39  1  0.76996000  0.03775000  0.79166000  1.0
  C  C40  1  0.22558000  0.58161000  0.55827000  1.0
  C  C41  1  0.73023000  0.94018000  0.76012000  1.0
  C  C42  1  0.74024000  0.95939000  0.71105000  1.0
  C  C43  1  0.75497000  0.01141000  0.84146000  1.0
  C  C44  1  0.78763000  0.10583000  0.87263000  1.0
  C  C45  1  0.91434000  0.33393000  0.65201000  1.0
  C  C46  1  0.90057000  0.30715000  0.70176000  1.0
  C  C47  1  0.83935000  0.18262000  0.72101000  1.0
  C  C48  1  0.95409000  0.40450000  0.73295000  1.0
  C  C49  1  0.94417000  0.38461000  0.78198000  1.0
  C  C50  1  0.87328000  0.26205000  0.80480000  1.0
  C  C51  1  0.88232000  0.28153000  0.56875000  1.0
  C  C52  1  0.82844000  0.16203000  0.77235000  1.0
  C  C53  1  0.84222000  0.22914000  0.85519000  1.0
  C  C54  1  0.86329000  0.23978000  0.62118000  1.0
  C  C55  1  0.95964000  0.70927000  0.65017000  1.0
  C  C56  1  0.94475000  0.71709000  0.70017000  1.0
  C  C57  1  0.89977000  0.73512000  0.80037000  1.0
  C  C58  1  0.00841000  0.82813000  0.77253000  1.0
  C  C59  1  0.03067000  0.81919000  0.72435000  1.0
  C  C60  1  0.87197000  0.74714000  0.84897000  1.0
  C  C61  1  0.75937000  0.66400000  0.87525000  1.0
  C  C62  1  0.92678000  0.65207000  0.43265000  1.0
  C  C63  1  0.75838000  0.52633000  0.65224000  1.0
  C  C64  1  0.74908000  0.52170000  0.70344000  1.0
  C  C65  1  0.83831000  0.62099000  0.72743000  1.0
  C  C66  1  0.65893000  0.41713000  0.73334000  1.0
  C  C67  1  0.64444000  0.42039000  0.78237000  1.0
  C  C68  1  0.70913000  0.53328000  0.80626000  1.0
  C  C69  1  0.81645000  0.62821000  0.77809000  1.0
  C  C70  1  0.67556000  0.55871000  0.85312000  1.0
  C  C71  1  0.86832000  0.61748000  0.62545000  1.0
  C  C72  1  0.33499000  0.74957000  0.35168000  1.0
  C  C73  1  0.22555000  0.60720000  0.42552000  1.0
  C  C74  1  0.36143000  0.76937000  0.30139000  1.0
  C  C75  1  0.39735000  0.80639000  0.19863000  1.0
  C  C76  1  0.44566000  0.90843000  0.22878000  1.0
  C  C77  1  0.42910000  0.89070000  0.27799000  1.0
  C  C78  1  0.41461000  0.82244000  0.14809000  1.0
  C  C79  1  0.37348000  0.72020000  0.11986000  1.0
  C  C80  1  0.23036000  0.52772000  0.34492000  1.0
  C  C81  1  0.24987000  0.54384000  0.29443000  1.0
  C  C82  1  0.31493000  0.66594000  0.27216000  1.0
  C  C83  1  0.20418000  0.44153000  0.26435000  1.0
  C  C84  1  0.90434000  0.28129000  0.43182000  1.0
  C  C85  1  0.22064000  0.45917000  0.21515000  1.0
  C  C86  1  0.28558000  0.58075000  0.19179000  1.0
  C  C87  1  0.33211000  0.68436000  0.22097000  1.0
  C  C88  1  0.30934000  0.60047000  0.14147000  1.0
  C  C89  1  0.26925000  0.62986000  0.37317000  1.0
  C  C90  1  0.88146000  0.23013000  0.38544000  1.0
  C  C91  1  0.87944000  0.28871000  0.26249000  1.0
  C  C92  1  0.86112000  0.27545000  0.21389000  1.0
  C  C93  1  0.76717000  0.05306000  0.22838000  1.0
  C  C94  1  0.78444000  0.06625000  0.27702000  1.0
  C  C95  1  0.28316000  0.60211000  0.60234000  1.0
  C  C96  1  0.84181000  0.18482000  0.29485000  1.0
  C  C97  1  0.80510000  0.15694000  0.19592000  1.0
  C  C98  1  0.78591000  0.13575000  0.14684000  1.0
  C  C99  1  0.86197000  0.20414000  0.34392000  1.0
  C  C100  1  0.76720000  0.10427000  0.10582000  1.0
  C  C101  1  0.91691000  0.69701000  0.38590000  1.0
  C  C102  1  0.95808000  0.76069000  0.25693000  1.0
  C  C103  1  0.92695000  0.74548000  0.20938000  1.0
  C  C104  1  0.70721000  0.61211000  0.23959000  1.0
  C  C105  1  0.73891000  0.62612000  0.28704000  1.0
  C  C106  1  0.36149000  0.76377000  0.70839000  1.0
  C  C107  1  0.86522000  0.69955000  0.29622000  1.0
  C  C108  1  0.80071000  0.67166000  0.20026000  1.0
  C  C109  1  0.76891000  0.66241000  0.15237000  1.0
  C  C110  1  0.89734000  0.70577000  0.34405000  1.0
  C  C111  1  0.74712000  0.66399000  0.11046000  1.0
  C  C112  1  0.75758000  0.06210000  0.92499000  1.0
  C  C113  1  0.43551000  0.74064000  0.93056000  1.0
  C  C114  1  0.73720000  0.70157000  0.92460000  1.0
  C  C115  1  0.74559000  0.04822000  0.06020000  1.0
  C  C116  1  0.41462000  0.74063000  0.06736000  1.0
  C  C117  1  0.38258000  0.78729000  0.75671000  1.0
  C  C118  1  0.72410000  0.68976000  0.06281000  1.0
  I  I119  1  0.36141000  0.89554000  0.65932000  1.0
  I  I120  1  0.06072000  0.54438000  0.81593000  1.0
  I  I121  1  0.48734000  0.45590000  0.88147000  1.0
  I  I122  1  0.55970000  0.24698000  0.82183000  1.0
  I  I123  1  0.41426000  0.95713000  0.78275000  1.0
  I  I124  1  0.60022000  0.40091000  0.62070000  1.0
  I  I125  1  0.91899000  0.43314000  0.16764000  1.0
  I  I126  1  0.72227000  0.90888000  0.32380000  1.0
  I  I127  1  0.14112000  0.86913000  0.27248000  1.0
  I  I128  1  0.06135000  0.82548000  0.14992000  1.0
  I  I129  1  0.52313000  0.50764000  0.22404000  1.0
  I  I130  1  0.60422000  0.54640000  0.34654000  1.0
  I  I131  1  0.70831000  0.99959000  0.58398000  1.0
  I  I132  1  0.69353000  0.79442000  0.67595000  1.0
  I  I133  1  0.84883000  0.34851000  0.90994000  1.0
  O  O134  1  0.80964000  0.31872000  0.55407000  1.0
  O  O135  1  0.20819000  0.69037000  0.44679000  1.0
  O  O136  1  0.19942000  0.50209000  0.44543000  1.0
  O  O137  1  0.00609000  0.29704000  0.44869000  1.0
  O  O138  1  0.99359000  0.49773000  0.49813000  1.0
  O  O139  1  0.81219000  0.80928000  0.93462000  1.0
  O  O140  1  0.83390000  0.03612000  0.94388000  1.0
  O  O141  1  0.64944000  0.04083000  0.94450000  1.0
  O  O142  1  0.45347000  0.84101000  0.94924000  1.0
  O  O143  1  0.44995000  0.65459000  0.95129000  1.0
  O  O144  1  0.64416000  0.62509000  0.95385000  1.0
  O  O145  1  0.81971000  0.53913000  0.54773000  1.0
  O  O146  1  0.81058000  0.78203000  0.03864000  1.0
  O  O147  1  0.81840000  0.00605000  0.04568000  1.0
  O  O148  1  0.65151000  0.04170000  0.03972000  1.0
  O  O149  1  0.44481000  0.84652000  0.04682000  1.0
  O  O150  1  0.42641000  0.65452000  0.04625000  1.0
  O  O151  1  0.61511000  0.61967000  0.04961000  1.0
  O  O152  1  0.64965000  0.83594000  0.99569000  1.0
  O  O153  1  0.01143000  0.69369000  0.55454000  1.0
  O  O154  1  0.20621000  0.66824000  0.54125000  1.0
  O  O155  1  0.19198000  0.47676000  0.54049000  1.0
  O  O156  1  0.98041000  0.28830000  0.54468000  1.0
  O  O157  1  0.82581000  0.31184000  0.45086000  1.0
  O  O158  1  0.84638000  0.54212000  0.44467000  1.0
  O  O159  1  0.01573000  0.72244000  0.45731000  1.0
  O  O160  1  0.65314000  0.35876000  0.50069000  1.0
  O  O161  1  0.99035000  0.97177000  0.98723000  1.0
