# generated using pymatgen
data_ZnH33C34Br3NO4
_symmetry_space_group_name_H-M   'P 1'
_cell_length_a   15.91780000
_cell_length_b   18.77120000
_cell_length_c   19.50250000
_cell_angle_alpha   89.52940000
_cell_angle_beta   92.18950000
_cell_angle_gamma   89.96240000
_symmetry_Int_Tables_number   1
_chemical_formula_structural   ZnH33C34Br3NO4
_chemical_formula_sum   'Zn2 H66 C68 Br6 N2 O8'
_cell_volume   5822.81958482
_cell_formula_units_Z   2
loop_
 _symmetry_equiv_pos_site_id
 _symmetry_equiv_pos_as_xyz
  1  'x, y, z'
loop_
 _atom_site_type_symbol
 _atom_site_label
 _atom_site_symmetry_multiplicity
 _atom_site_fract_x
 _atom_site_fract_y
 _atom_site_fract_z
 _atom_site_occupancy
  Zn  Zn0  1  0.49978000  0.41943000  0.49694000  1.0
  Zn  Zn1  1  0.49351000  0.57985000  0.49417000  1.0
  H  H2  1  0.92724000  0.50565000  0.40213000  1.0
  H  H3  1  0.93365000  0.61168000  0.48306000  1.0
  H  H4  1  0.07373000  0.51270000  0.41138000  1.0
  H  H5  1  0.08023000  0.61081000  0.50005000  1.0
  H  H6  1  0.07108000  0.58886000  0.58760000  1.0
  H  H7  1  0.07593000  0.42246000  0.43722000  1.0
  H  H8  1  0.92473000  0.59840000  0.57217000  1.0
  H  H9  1  0.92886000  0.41854000  0.43693000  1.0
  H  H10  1  0.06575000  0.39151000  0.56445000  1.0
  H  H11  1  0.07087000  0.45960000  0.62632000  1.0
  H  H12  1  0.91882000  0.39855000  0.56471000  1.0
  H  H13  1  0.92434000  0.47206000  0.62062000  1.0
  H  H14  1  0.39597000  0.57782000  0.70560000  1.0
  H  H15  1  0.59951000  0.42781000  0.71671000  1.0
  H  H16  1  0.39312000  0.57894000  0.83378000  1.0
  H  H17  1  0.60060000  0.43182000  0.84510000  1.0
  H  H18  1  0.37269000  0.53931000  0.14774000  1.0
  H  H19  1  0.62996000  0.47020000  0.15711000  1.0
  H  H20  1  0.60877000  0.16468000  0.56834000  1.0
  H  H21  1  0.59155000  0.83368000  0.57903000  1.0
  H  H22  1  0.53608000  0.06871000  0.39411000  1.0
  H  H23  1  0.53656000  0.93682000  0.39208000  1.0
  H  H24  1  0.47349000  0.93124000  0.60494000  1.0
  H  H25  1  0.47393000  0.06365000  0.60711000  1.0
  H  H26  1  0.21611000  0.48036000  0.36765000  1.0
  H  H27  1  0.16787000  0.52001000  0.29317000  1.0
  H  H28  1  0.16328000  0.42627000  0.30528000  1.0
  H  H29  1  0.27285000  0.45593000  0.21980000  1.0
  H  H30  1  0.32078000  0.41834000  0.29445000  1.0
  H  H31  1  0.35326000  0.54139000  0.33852000  1.0
  H  H32  1  0.31041000  0.57791000  0.26072000  1.0
  H  H33  1  0.81242000  0.43473000  0.34598000  1.0
  H  H34  1  0.76471000  0.34983000  0.33942000  1.0
  H  H35  1  0.84379000  0.37451000  0.28175000  1.0
  H  H36  1  0.69811000  0.38315000  0.22512000  1.0
  H  H37  1  0.74933000  0.46640000  0.22724000  1.0
  H  H38  1  0.67192000  0.50159000  0.32992000  1.0
  H  H39  1  0.62760000  0.41687000  0.33620000  1.0
  H  H40  1  0.77024000  0.21038000  0.58232000  1.0
  H  H41  1  0.72425000  0.19747000  0.49883000  1.0
  H  H42  1  0.82164000  0.24207000  0.50894000  1.0
  H  H43  1  0.70430000  0.33095000  0.48489000  1.0
  H  H44  1  0.75644000  0.34492000  0.56411000  1.0
  H  H45  1  0.61191000  0.36058000  0.58379000  1.0
  H  H46  1  0.64158000  0.27908000  0.62349000  1.0
  H  H47  1  0.62148000  0.78612000  0.71327000  1.0
  H  H48  1  0.51715000  0.80288000  0.68128000  1.0
  H  H49  1  0.53441000  0.75664000  0.75999000  1.0
  H  H50  1  0.49420000  0.67036000  0.66555000  1.0
  H  H51  1  0.59414000  0.65291000  0.70244000  1.0
  H  H52  1  0.60842000  0.63822000  0.58327000  1.0
  H  H53  1  0.65900000  0.71914000  0.60377000  1.0
  H  H54  1  0.28564000  0.35046000  0.82126000  1.0
  H  H55  1  0.26461000  0.30896000  0.90097000  1.0
  H  H56  1  0.19468000  0.37459000  0.86574000  1.0
  H  H57  1  0.28607000  0.42669000  0.96104000  1.0
  H  H58  1  0.30672000  0.46821000  0.88191000  1.0
  H  H59  1  0.43147000  0.39004000  0.86886000  1.0
  H  H60  1  0.41052000  0.34584000  0.94684000  1.0
  H  H61  1  0.69336000  0.66627000  0.81753000  1.0
  H  H62  1  0.72177000  0.71059000  0.89510000  1.0
  H  H63  1  0.79032000  0.64595000  0.86157000  1.0
  H  H64  1  0.71254000  0.59339000  0.95995000  1.0
  H  H65  1  0.68393000  0.54980000  0.88262000  1.0
  H  H66  1  0.55557000  0.62661000  0.86945000  1.0
  H  H67  1  0.58365000  0.66969000  0.94733000  1.0
  C  C68  1  0.49725000  0.49930000  0.36478000  1.0
  C  C69  1  0.33835000  0.49209000  0.50804000  1.0
  C  C70  1  0.50107000  0.50312000  0.62722000  1.0
  C  C71  1  0.65901000  0.50146000  0.49705000  1.0
  C  C72  1  0.04933000  0.47480000  0.44890000  1.0
  C  C73  1  0.05020000  0.57367000  0.53537000  1.0
  C  C74  1  0.95324000  0.57677000  0.52629000  1.0
  C  C75  1  0.95236000  0.47296000  0.44520000  1.0
  C  C76  1  0.74989000  0.50247000  0.50179000  1.0
  C  C77  1  0.08187000  0.49724000  0.52158000  1.0
  C  C78  1  0.91733000  0.50128000  0.51280000  1.0
  C  C79  1  0.94766000  0.45122000  0.57238000  1.0
  C  C80  1  0.04482000  0.44597000  0.57511000  1.0
  C  C81  1  0.82622000  0.50250000  0.50737000  1.0
  C  C82  1  0.17300000  0.49454000  0.52281000  1.0
  C  C83  1  0.24893000  0.49252000  0.51832000  1.0
  C  C84  1  0.44028000  0.54579000  0.73671000  1.0
  C  C85  1  0.55528000  0.46134000  0.74303000  1.0
  C  C86  1  0.43906000  0.54643000  0.80807000  1.0
  C  C87  1  0.55551000  0.46359000  0.81436000  1.0
  C  C88  1  0.49735000  0.50605000  0.84771000  1.0
  C  C89  1  0.49843000  0.50319000  0.70377000  1.0
  C  C90  1  0.45540000  0.45272000  0.95892000  1.0
  C  C91  1  0.54196000  0.56200000  0.95926000  1.0
  C  C92  1  0.45898000  0.45425000  0.03081000  1.0
  C  C93  1  0.54273000  0.55999000  0.03123000  1.0
  C  C94  1  0.50189000  0.50709000  0.06887000  1.0
  C  C95  1  0.49792000  0.50726000  0.92413000  1.0
  C  C96  1  0.42892000  0.52395000  0.17818000  1.0
  C  C97  1  0.57354000  0.48463000  0.18376000  1.0
  C  C98  1  0.42573000  0.52003000  0.24965000  1.0
  C  C99  1  0.57301000  0.48082000  0.25530000  1.0
  C  C100  1  0.49857000  0.49966000  0.28765000  1.0
  C  C101  1  0.50214000  0.50646000  0.14501000  1.0
  C  C102  1  0.56157000  0.26717000  0.53540000  1.0
  C  C103  1  0.54522000  0.73196000  0.54539000  1.0
  C  C104  1  0.56048000  0.19278000  0.53767000  1.0
  C  C105  1  0.54848000  0.80628000  0.54344000  1.0
  C  C106  1  0.50056000  0.15359000  0.50016000  1.0
  C  C107  1  0.49921000  0.84652000  0.49675000  1.0
  C  C108  1  0.43866000  0.19196000  0.46235000  1.0
  C  C109  1  0.44598000  0.80873000  0.45094000  1.0
  C  C110  1  0.44092000  0.26684000  0.46328000  1.0
  C  C111  1  0.44699000  0.73387000  0.45346000  1.0
  C  C112  1  0.52243000  0.03846000  0.44032000  1.0
  C  C113  1  0.52237000  0.96451000  0.43913000  1.0
  C  C114  1  0.50343000  0.92521000  0.49808000  1.0
  C  C115  1  0.50377000  0.07473000  0.50049000  1.0
  C  C116  1  0.48809000  0.96144000  0.55888000  1.0
  C  C117  1  0.48829000  0.03574000  0.56014000  1.0
  C  C118  1  0.34309000  0.53099000  0.28338000  1.0
  C  C119  1  0.28577000  0.46540000  0.27490000  1.0
  C  C120  1  0.20381000  0.47328000  0.31225000  1.0
  C  C121  1  0.64870000  0.45649000  0.29854000  1.0
  C  C122  1  0.72169000  0.42516000  0.26001000  1.0
  C  C123  1  0.78960000  0.39437000  0.30927000  1.0
  C  C124  1  0.63123000  0.30591000  0.57336000  1.0
  C  C125  1  0.71526000  0.30712000  0.53608000  1.0
  C  C126  1  0.75981000  0.23535000  0.53138000  1.0
  C  C127  1  0.59712000  0.69287000  0.59950000  1.0
  C  C128  1  0.55814000  0.69205000  0.67087000  1.0
  C  C129  1  0.55783000  0.76332000  0.70803000  1.0
  C  C130  1  0.40540000  0.39731000  0.91967000  1.0
  C  C131  1  0.31191000  0.41735000  0.91031000  1.0
  C  C132  1  0.26131000  0.35977000  0.87247000  1.0
  C  C133  1  0.58728000  0.61882000  0.92002000  1.0
  C  C134  1  0.68020000  0.60100000  0.90949000  1.0
  C  C135  1  0.72392000  0.65906000  0.86872000  1.0
  Br  Br136  1  0.40462000  0.37963000  0.08034000  1.0
  Br  Br137  1  0.60061000  0.63360000  0.08165000  1.0
  Br  Br138  1  0.35190000  0.14218000  0.41407000  1.0
  Br  Br139  1  0.37115000  0.85799000  0.38930000  1.0
  Br  Br140  1  0.35557000  0.31723000  0.41419000  1.0
  Br  Br141  1  0.37843000  0.68324000  0.39020000  1.0
  N  N142  1  0.50141000  0.30378000  0.49796000  1.0
  N  N143  1  0.49486000  0.69599000  0.49930000  1.0
  O  O144  1  0.47982000  0.44080000  0.39438000  1.0
  O  O145  1  0.51347000  0.55850000  0.39370000  1.0
  O  O146  1  0.37830000  0.43531000  0.52472000  1.0
  O  O147  1  0.36850000  0.54845000  0.48184000  1.0
  O  O148  1  0.52921000  0.44742000  0.59924000  1.0
  O  O149  1  0.47546000  0.55961000  0.59625000  1.0
  O  O150  1  0.62477000  0.44248000  0.48035000  1.0
  O  O151  1  0.62190000  0.55952000  0.51047000  1.0
