# generated using pymatgen
data_CdH22C24S2(NO)4
_symmetry_space_group_name_H-M   'P 1'
_cell_length_a   9.23162000
_cell_length_b   11.75490000
_cell_length_c   14.52430000
_cell_angle_alpha   101.05500000
_cell_angle_beta   100.35400000
_cell_angle_gamma   109.03700000
_symmetry_Int_Tables_number   1
_chemical_formula_structural   CdH22C24S2(NO)4
_chemical_formula_sum   'Cd2 H44 C48 S4 N8 O8'
_cell_volume   1411.54211089
_cell_formula_units_Z   2
loop_
 _symmetry_equiv_pos_site_id
 _symmetry_equiv_pos_as_xyz
  1  'x, y, z'
loop_
 _atom_site_type_symbol
 _atom_site_label
 _atom_site_symmetry_multiplicity
 _atom_site_fract_x
 _atom_site_fract_y
 _atom_site_fract_z
 _atom_site_occupancy
  Cd  Cd0  1  0.15126000  0.36906000  0.70440000  1.0
  Cd  Cd1  1  0.84874000  0.63095000  0.29559000  1.0
  H  H2  1  0.52685000  0.98525000  0.89215000  1.0
  H  H3  1  0.47316000  0.01475000  0.10786000  1.0
  H  H4  1  0.75553000  0.32378000  0.35243000  1.0
  H  H5  1  0.24444000  0.67622000  0.64756000  1.0
  H  H6  1  0.15057000  0.14528000  0.49471000  1.0
  H  H7  1  0.84943000  0.85473000  0.50529000  1.0
  H  H8  1  0.81684000  0.40307000  0.65713000  1.0
  H  H9  1  0.18317000  0.59695000  0.34287000  1.0
  H  H10  1  0.05271000  0.32926000  0.44309000  1.0
  H  H11  1  0.94727000  0.67074000  0.55689000  1.0
  H  H12  1  0.83652000  0.96438000  0.93377000  1.0
  H  H13  1  0.16347000  0.03561000  0.06623000  1.0
  H  H14  1  0.23512000  0.97802000  0.42246000  1.0
  H  H15  1  0.76489000  0.02200000  0.57754000  1.0
  H  H16  1  0.18134000  0.86705000  0.48928000  1.0
  H  H17  1  0.81867000  0.13296000  0.51073000  1.0
  H  H18  1  0.60066000  0.53276000  0.96091000  1.0
  H  H19  1  0.39933000  0.46723000  0.03910000  1.0
  H  H20  1  0.41728000  0.02124000  0.69319000  1.0
  H  H21  1  0.58272000  0.97877000  0.30682000  1.0
  H  H22  1  0.83577000  0.68638000  0.08918000  1.0
  H  H23  1  0.16423000  0.31361000  0.91083000  1.0
  H  H24  1  0.83996000  0.42937000  0.92108000  1.0
  H  H25  1  0.16006000  0.57062000  0.07889000  1.0
  H  H26  1  0.51349000  0.31371000  0.41362000  1.0
  H  H27  1  0.48651000  0.68632000  0.58638000  1.0
  H  H28  1  0.52643000  0.32213000  0.53878000  1.0
  H  H29  1  0.47357000  0.67789000  0.46122000  1.0
  H  H30  1  0.37965000  0.23221000  0.79268000  1.0
  H  H31  1  0.62033000  0.76779000  0.20732000  1.0
  H  H32  1  0.95063000  0.90581000  0.07702000  1.0
  H  H33  1  0.04937000  0.09418000  0.92297000  1.0
  H  H34  1  0.49003000  0.15308000  0.00536000  1.0
  H  H35  1  0.51000000  0.84694000  0.99464000  1.0
  H  H36  1  0.65044000  0.37725000  0.02399000  1.0
  H  H37  1  0.34959000  0.62276000  0.97600000  1.0
  H  H38  1  0.46280000  0.90430000  0.55948000  1.0
  H  H39  1  0.53721000  0.09572000  0.44053000  1.0
  H  H40  1  0.41586000  0.86737000  0.43125000  1.0
  H  H41  1  0.58415000  0.13264000  0.56876000  1.0
  H  H42  1  0.63645000  0.54383000  0.45194000  1.0
  H  H43  1  0.36357000  0.45619000  0.54808000  1.0
  H  H44  1  0.65879000  0.55727000  0.57858000  1.0
  H  H45  1  0.34122000  0.44275000  0.42143000  1.0
  C  C46  1  0.90843000  0.27503000  0.79300000  1.0
  C  C47  1  0.09157000  0.72493000  0.20697000  1.0
  C  C48  1  0.43755000  0.56252000  0.80644000  1.0
  C  C49  1  0.56243000  0.43747000  0.19358000  1.0
  C  C50  1  0.79194000  0.23863000  0.85095000  1.0
  C  C51  1  0.20806000  0.76135000  0.14903000  1.0
  C  C52  1  0.59670000  0.08279000  0.89923000  1.0
  C  C53  1  0.40331000  0.91721000  0.10078000  1.0
  C  C54  1  0.58663000  0.65888000  0.87474000  1.0
  C  C55  1  0.41336000  0.34111000  0.12527000  1.0
  C  C56  1  0.65536000  0.78147000  0.86544000  1.0
  C  C57  1  0.34462000  0.21852000  0.13457000  1.0
  C  C58  1  0.81306000  0.33799000  0.42795000  1.0
  C  C59  1  0.18693000  0.66201000  0.57204000  1.0
  C  C60  1  0.21775000  0.14279000  0.56325000  1.0
  C  C61  1  0.78225000  0.85722000  0.43675000  1.0
  C  C62  1  0.84220000  0.38237000  0.58702000  1.0
  C  C63  1  0.15781000  0.61764000  0.41298000  1.0
  C  C64  1  0.95930000  0.34246000  0.47438000  1.0
  C  C65  1  0.04069000  0.65754000  0.52561000  1.0
  C  C66  1  0.78643000  0.86901000  0.93909000  1.0
  C  C67  1  0.21356000  0.13097000  0.06091000  1.0
  C  C68  1  0.70540000  0.11159000  0.84320000  1.0
  C  C69  1  0.29460000  0.88840000  0.15679000  1.0
  C  C70  1  0.27308000  0.95485000  0.49016000  1.0
  C  C71  1  0.72693000  0.04516000  0.50985000  1.0
  C  C72  1  0.65581000  0.62744000  0.95542000  1.0
  C  C73  1  0.34418000  0.37255000  0.04458000  1.0
  C  C74  1  0.35586000  0.07818000  0.66776000  1.0
  C  C75  1  0.64414000  0.92183000  0.33224000  1.0
  C  C76  1  0.78693000  0.71396000  0.02721000  1.0
  C  C77  1  0.21306000  0.28603000  0.97279000  1.0
  C  C78  1  0.77022000  0.33256000  0.91615000  1.0
  C  C79  1  0.22979000  0.66742000  0.08382000  1.0
  C  C80  1  0.58228000  0.36834000  0.48807000  1.0
  C  C81  1  0.41772000  0.63168000  0.51194000  1.0
  C  C82  1  0.33671000  0.18267000  0.71611000  1.0
  C  C83  1  0.66328000  0.81733000  0.28389000  1.0
  C  C84  1  0.85105000  0.83579000  0.01936000  1.0
  C  C85  1  0.14895000  0.16419000  0.98064000  1.0
  C  C86  1  0.57619000  0.17773000  0.96308000  1.0
  C  C87  1  0.42383000  0.82228000  0.03692000  1.0
  C  C88  1  0.66421000  0.30320000  0.97278000  1.0
  C  C89  1  0.33581000  0.69680000  0.02721000  1.0
  C  C90  1  0.43221000  0.93987000  0.49683000  1.0
  C  C91  1  0.56780000  0.06015000  0.50318000  1.0
  C  C92  1  0.58425000  0.50088000  0.50525000  1.0
  C  C93  1  0.41576000  0.49914000  0.49476000  1.0
  S  S94  1  0.56994000  0.82466000  0.76387000  1.0
  S  S95  1  0.43004000  0.17533000  0.23614000  1.0
  S  S96  1  0.73936000  0.99210000  0.76326000  1.0
  S  S97  1  0.26063000  0.00787000  0.23674000  1.0
  N  N98  1  0.97606000  0.37032000  0.57352000  1.0
  N  N99  1  0.02394000  0.62969000  0.42648000  1.0
  N  N100  1  0.74069000  0.36331000  0.50053000  1.0
  N  N101  1  0.25931000  0.63670000  0.49947000  1.0
  N  N102  1  0.24998000  0.22191000  0.65001000  1.0
  N  N103  1  0.75002000  0.77810000  0.34999000  1.0
  N  N104  1  0.28040000  0.05440000  0.57096000  1.0
  N  N105  1  0.71961000  0.94561000  0.42904000  1.0
  O  O106  1  0.93442000  0.18888000  0.73853000  1.0
  O  O107  1  0.06558000  0.81108000  0.26145000  1.0
  O  O108  1  0.98078000  0.39132000  0.80048000  1.0
  O  O109  1  0.01921000  0.60865000  0.19949000  1.0
  O  O110  1  0.37539000  0.58231000  0.72818000  1.0
  O  O111  1  0.62458000  0.41767000  0.27183000  1.0
  O  O112  1  0.37385000  0.46227000  0.83086000  1.0
  O  O113  1  0.62614000  0.53772000  0.16915000  1.0
