# generated using pymatgen
data_CuH10C10NO4
_symmetry_space_group_name_H-M   'P 1'
_cell_length_a   8.58235000
_cell_length_b   12.31860000
_cell_length_c   12.34040000
_cell_angle_alpha   65.21710000
_cell_angle_beta   81.83590000
_cell_angle_gamma   81.85490000
_symmetry_Int_Tables_number   1
_chemical_formula_structural   CuH10C10NO4
_chemical_formula_sum   'Cu4 H40 C40 N4 O16'
_cell_volume   1167.58913578
_cell_formula_units_Z   4
loop_
 _symmetry_equiv_pos_site_id
 _symmetry_equiv_pos_as_xyz
  1  'x, y, z'
loop_
 _atom_site_type_symbol
 _atom_site_label
 _atom_site_symmetry_multiplicity
 _atom_site_fract_x
 _atom_site_fract_y
 _atom_site_fract_z
 _atom_site_occupancy
  Cu  Cu0  1  0.92702000  0.50901000  0.09599000  1.0
  Cu  Cu1  1  0.57233000  0.90473000  0.49124000  1.0
  Cu  Cu2  1  0.07300000  0.49099000  0.90399000  1.0
  Cu  Cu3  1  0.42768000  0.09527000  0.50875000  1.0
  H  H4  1  0.65054000  0.32141000  0.89569000  1.0
  H  H5  1  0.84983000  0.10440000  0.67936000  1.0
  H  H6  1  0.34944000  0.67858000  0.10432000  1.0
  H  H7  1  0.15017000  0.89559000  0.32064000  1.0
  H  H8  1  0.52523000  0.44559000  0.90458000  1.0
  H  H9  1  0.97684000  0.09608000  0.55588000  1.0
  H  H10  1  0.47477000  0.55441000  0.09544000  1.0
  H  H11  1  0.02316000  0.90392000  0.44412000  1.0
  H  H12  1  0.48909000  0.34898000  0.12380000  1.0
  H  H13  1  0.01084000  0.87594000  0.65142000  1.0
  H  H14  1  0.51090000  0.65101000  0.87621000  1.0
  H  H15  1  0.98915000  0.12406000  0.34858000  1.0
  H  H16  1  0.43661000  0.25493000  0.06195000  1.0
  H  H17  1  0.06418000  0.93751000  0.74532000  1.0
  H  H18  1  0.56339000  0.74506000  0.93806000  1.0
  H  H19  1  0.93582000  0.06248000  0.25468000  1.0
  H  H20  1  0.75681000  0.23457000  0.15689000  1.0
  H  H21  1  0.74316000  0.84357000  0.76530000  1.0
  H  H22  1  0.24321000  0.76542000  0.84309000  1.0
  H  H23  1  0.25681000  0.15644000  0.23472000  1.0
  H  H24  1  0.69974000  0.13136000  0.10718000  1.0
  H  H25  1  0.80011000  0.89363000  0.86821000  1.0
  H  H26  1  0.30023000  0.86863000  0.89281000  1.0
  H  H27  1  0.19990000  0.10637000  0.13180000  1.0
  H  H28  1  0.69115000  0.68788000  0.16502000  1.0
  H  H29  1  0.80830000  0.83542000  0.31246000  1.0
  H  H30  1  0.30886000  0.31214000  0.83497000  1.0
  H  H31  1  0.19171000  0.16457000  0.68755000  1.0
  H  H32  1  0.49570000  0.69028000  0.33278000  1.0
  H  H33  1  0.00371000  0.66744000  0.30992000  1.0
  H  H34  1  0.50431000  0.30974000  0.66721000  1.0
  H  H35  1  0.99630000  0.33255000  0.69008000  1.0
  H  H36  1  0.64996000  0.31364000  0.52577000  1.0
  H  H37  1  0.85009000  0.47426000  0.68618000  1.0
  H  H38  1  0.35002000  0.68639000  0.47423000  1.0
  H  H39  1  0.14992000  0.52574000  0.31383000  1.0
  H  H40  1  0.84060000  0.33072000  0.35177000  1.0
  H  H41  1  0.65956000  0.64864000  0.66912000  1.0
  H  H42  1  0.15939000  0.66929000  0.64823000  1.0
  H  H43  1  0.34045000  0.35136000  0.33089000  1.0
  C  C44  1  0.75541000  0.42755000  0.96041000  1.0
  C  C45  1  0.74676000  0.04038000  0.57196000  1.0
  C  C46  1  0.24459000  0.57245000  0.03960000  1.0
  C  C47  1  0.25325000  0.95961000  0.42803000  1.0
  C  C48  1  0.61292000  0.37201000  0.95153000  1.0
  C  C49  1  0.88821000  0.04889000  0.62847000  1.0
  C  C50  1  0.38707000  0.62799000  0.04848000  1.0
  C  C51  1  0.11179000  0.95111000  0.37154000  1.0
  C  C52  1  0.53698000  0.29312000  0.07491000  1.0
  C  C53  1  0.96350000  0.92505000  0.70715000  1.0
  C  C54  1  0.46301000  0.70687000  0.92509000  1.0
  C  C55  1  0.03649000  0.07495000  0.29285000  1.0
  C  C56  1  0.65465000  0.19362000  0.14964000  1.0
  C  C57  1  0.84516000  0.85078000  0.80634000  1.0
  C  C58  1  0.34534000  0.80637000  0.85035000  1.0
  C  C59  1  0.15484000  0.14922000  0.19366000  1.0
  C  C60  1  0.59265000  0.12065000  0.27790000  1.0
  C  C61  1  0.90635000  0.72199000  0.87956000  1.0
  C  C62  1  0.40736000  0.87934000  0.72210000  1.0
  C  C63  1  0.09364000  0.27801000  0.12043000  1.0
  C  C64  1  0.67820000  0.60731000  0.24796000  1.0
  C  C65  1  0.82143000  0.75239000  0.39291000  1.0
  C  C66  1  0.32181000  0.39271000  0.75204000  1.0
  C  C67  1  0.17857000  0.24761000  0.60710000  1.0
  C  C68  1  0.56826000  0.60732000  0.34223000  1.0
  C  C69  1  0.93138000  0.65797000  0.39284000  1.0
  C  C70  1  0.43174000  0.39271000  0.65776000  1.0
  C  C71  1  0.06863000  0.34203000  0.60716000  1.0
  C  C72  1  0.55604000  0.50213000  0.44790000  1.0
  C  C73  1  0.94389000  0.55215000  0.49794000  1.0
  C  C74  1  0.44396000  0.49790000  0.55209000  1.0
  C  C75  1  0.05612000  0.44784000  0.50207000  1.0
  C  C76  1  0.65527000  0.40050000  0.45008000  1.0
  C  C77  1  0.84477000  0.55004000  0.59945000  1.0
  C  C78  1  0.34472000  0.59952000  0.54992000  1.0
  C  C79  1  0.15525000  0.44996000  0.40055000  1.0
  C  C80  1  0.76202000  0.40843000  0.35195000  1.0
  C  C81  1  0.73801000  0.64834000  0.59156000  1.0
  C  C82  1  0.23796000  0.59159000  0.64804000  1.0
  C  C83  1  0.26200000  0.35166000  0.40844000  1.0
  N  N84  1  0.77570000  0.51032000  0.25237000  1.0
  N  N85  1  0.72419000  0.74802000  0.48981000  1.0
  N  N86  1  0.22430000  0.48969000  0.74763000  1.0
  N  N87  1  0.27581000  0.25197000  0.51020000  1.0
  O  O88  1  0.74502000  0.46011000  0.04648000  1.0
  O  O89  1  0.75699000  0.95458000  0.53879000  1.0
  O  O90  1  0.25498000  0.53989000  0.95352000  1.0
  O  O91  1  0.24302000  0.04542000  0.46120000  1.0
  O  O92  1  0.87410000  0.43531000  0.88337000  1.0
  O  O93  1  0.62762000  0.11749000  0.56346000  1.0
  O  O94  1  0.12590000  0.56467000  0.11665000  1.0
  O  O95  1  0.37238000  0.88253000  0.43651000  1.0
  O  O96  1  0.50746000  0.17660000  0.33515000  1.0
  O  O97  1  0.99087000  0.66481000  0.82340000  1.0
  O  O98  1  0.49256000  0.82339000  0.66486000  1.0
  O  O99  1  0.00913000  0.33520000  0.17659000  1.0
  O  O100  1  0.63449000  0.00808000  0.32021000  1.0
  O  O101  1  0.86396000  0.68044000  0.99171000  1.0
  O  O102  1  0.36553000  0.99192000  0.67979000  1.0
  O  O103  1  0.13603000  0.31956000  0.00828000  1.0
