# generated using pymatgen
data_CaH19C21N3O8
_symmetry_space_group_name_H-M   'P 1'
_cell_length_a   13.62620000
_cell_length_b   21.07980000
_cell_length_c   21.08414574
_cell_angle_alpha   84.02903336
_cell_angle_beta   71.13940660
_cell_angle_gamma   71.15670000
_symmetry_Int_Tables_number   1
_chemical_formula_structural   CaH19C21N3O8
_chemical_formula_sum   'Ca8 H152 C168 N24 O64'
_cell_volume   5423.84061036
_cell_formula_units_Z   8
loop_
 _symmetry_equiv_pos_site_id
 _symmetry_equiv_pos_as_xyz
  1  'x, y, z'
loop_
 _atom_site_type_symbol
 _atom_site_label
 _atom_site_symmetry_multiplicity
 _atom_site_fract_x
 _atom_site_fract_y
 _atom_site_fract_z
 _atom_site_occupancy
  Ca  Ca0  1  0.56693000  0.81696000  0.80520000  1.0
  Ca  Ca1  1  0.88385000  0.80528000  0.68303000  1.0
  Ca  Ca2  1  0.18915000  0.68303000  0.69477000  1.0
  Ca  Ca3  1  0.37214000  0.69473000  0.81693000  1.0
  Ca  Ca4  1  0.43307000  0.18304000  0.19480000  1.0
  Ca  Ca5  1  0.11615000  0.19472000  0.31698000  1.0
  Ca  Ca6  1  0.81085000  0.31697000  0.30523000  1.0
  Ca  Ca7  1  0.62786000  0.30527000  0.18307000  1.0
  H  H8  1  0.97310000  0.75562000  0.80813000  1.0
  H  H9  1  0.22900000  0.80813000  0.74433000  1.0
  H  H10  1  0.53691000  0.74446000  0.69177000  1.0
  H  H11  1  0.78122000  0.69187000  0.75559000  1.0
  H  H12  1  0.02691000  0.24438000  0.19186000  1.0
  H  H13  1  0.77101000  0.19187000  0.25567000  1.0
  H  H14  1  0.46309000  0.25553000  0.30822000  1.0
  H  H15  1  0.21878000  0.30813000  0.24441000  1.0
  H  H16  1  0.03575000  0.73941000  0.99707000  1.0
  H  H17  1  0.27563000  0.99703000  0.76065000  1.0
  H  H18  1  0.77228000  0.76087000  0.50286000  1.0
  H  H19  1  0.03304000  0.50304000  0.73960000  1.0
  H  H20  1  0.96424000  0.26059000  0.00293000  1.0
  H  H21  1  0.72437000  0.00297000  0.23935000  1.0
  H  H22  1  0.22772000  0.23914000  0.49714000  1.0
  H  H23  1  0.96696000  0.49696000  0.26040000  1.0
  H  H24  1  0.70975000  0.76887000  0.99091000  1.0
  H  H25  1  0.97907000  0.99097000  0.73112000  1.0
  H  H26  1  0.46984000  0.73104000  0.50896000  1.0
  H  H27  1  0.70110000  0.50893000  0.76868000  1.0
  H  H28  1  0.29026000  0.23113000  0.00908000  1.0
  H  H29  1  0.02094000  0.00903000  0.26888000  1.0
  H  H30  1  0.53016000  0.26895000  0.49104000  1.0
  H  H31  1  0.29890000  0.49107000  0.23132000  1.0
  H  H32  1  0.68322000  0.91974000  0.18882000  1.0
  H  H33  1  0.10304000  0.18873000  0.58032000  1.0
  H  H34  1  0.79182000  0.58035000  0.31109000  1.0
  H  H35  1  0.87235000  0.31128000  0.91968000  1.0
  H  H36  1  0.31678000  0.08025000  0.81118000  1.0
  H  H37  1  0.89696000  0.81127000  0.41968000  1.0
  H  H38  1  0.20818000  0.41965000  0.68891000  1.0
  H  H39  1  0.12765000  0.68872000  0.08032000  1.0
  H  H40  1  0.85755000  0.58186000  0.18442000  1.0
  H  H41  1  0.93943000  0.18460000  0.91815000  1.0
  H  H42  1  0.62392000  0.91822000  0.31547000  1.0
  H  H43  1  0.04211000  0.31540000  0.58183000  1.0
  H  H44  1  0.14245000  0.41813000  0.81559000  1.0
  H  H45  1  0.06056000  0.81540000  0.08185000  1.0
  H  H46  1  0.37609000  0.08178000  0.68452000  1.0
  H  H47  1  0.95789000  0.68460000  0.41817000  1.0
  H  H48  1  0.73992000  0.94243000  0.77575000  1.0
  H  H49  1  0.18207000  0.77563000  0.55756000  1.0
  H  H50  1  0.45797000  0.55739000  0.72421000  1.0
  H  H51  1  0.51571000  0.72428000  0.94231000  1.0
  H  H52  1  0.26008000  0.05757000  0.22425000  1.0
  H  H53  1  0.81793000  0.22437000  0.44244000  1.0
  H  H54  1  0.54203000  0.44262000  0.27579000  1.0
  H  H55  1  0.48429000  0.27572000  0.05769000  1.0
  H  H56  1  0.55052000  0.92439000  0.93684000  1.0
  H  H57  1  0.97521000  0.93689000  0.57561000  1.0
  H  H58  1  0.41184000  0.57569000  0.56313000  1.0
  H  H59  1  0.48772000  0.56312000  0.92427000  1.0
  H  H60  1  0.44948000  0.07561000  0.06316000  1.0
  H  H61  1  0.02479000  0.06311000  0.42439000  1.0
  H  H62  1  0.58816000  0.42430000  0.43687000  1.0
  H  H63  1  0.51228000  0.43688000  0.07573000  1.0
  H  H64  1  0.58885000  0.98336000  0.97240000  1.0
  H  H65  1  0.07256000  0.97233000  0.51657000  1.0
  H  H66  1  0.54463000  0.51669000  0.52749000  1.0
  H  H67  1  0.56148000  0.52762000  0.98327000  1.0
  H  H68  1  0.41115000  0.01664000  0.02760000  1.0
  H  H69  1  0.92744000  0.02766000  0.48343000  1.0
  H  H70  1  0.45537000  0.48331000  0.47251000  1.0
  H  H71  1  0.43852000  0.47238000  0.01673000  1.0
  H  H72  1  0.66026000  0.89615000  0.97251000  1.0
  H  H73  1  0.05698000  0.97245000  0.60375000  1.0
  H  H74  1  0.52912000  0.60386000  0.52754000  1.0
  H  H75  1  0.63315000  0.52746000  0.89609000  1.0
  H  H76  1  0.33975000  0.10385000  0.02749000  1.0
  H  H77  1  0.94302000  0.02755000  0.39625000  1.0
  H  H78  1  0.47087000  0.39613000  0.47247000  1.0
  H  H79  1  0.36685000  0.47254000  0.10392000  1.0
  H  H80  1  0.79034000  0.96548000  0.92731000  1.0
  H  H81  1  0.25638000  0.92695000  0.53438000  1.0
  H  H82  1  0.68328000  0.53424000  0.57275000  1.0
  H  H83  1  0.71780000  0.57281000  0.96552000  1.0
  H  H84  1  0.20966000  0.03453000  0.07269000  1.0
  H  H85  1  0.74361000  0.07305000  0.46562000  1.0
  H  H86  1  0.31671000  0.46576000  0.42726000  1.0
  H  H87  1  0.28220000  0.42719000  0.03448000  1.0
  H  H88  1  0.80757000  0.99835000  0.84450000  1.0
  H  H89  1  0.30612000  0.84409000  0.50155000  1.0
  H  H90  1  0.65030000  0.50147000  0.65559000  1.0
  H  H91  1  0.65202000  0.65565000  0.99840000  1.0
  H  H92  1  0.19243000  0.00165000  0.15550000  1.0
  H  H93  1  0.69387000  0.15591000  0.49845000  1.0
  H  H94  1  0.34970000  0.49853000  0.34441000  1.0
  H  H95  1  0.34797000  0.34435000  0.00161000  1.0
  H  H96  1  0.86600000  0.91104000  0.85701000  1.0
  H  H97  1  0.27724000  0.85668000  0.58885000  1.0
  H  H98  1  0.63416000  0.58875000  0.64300000  1.0
  H  H99  1  0.72320000  0.64308000  0.91110000  1.0
  H  H100  1  0.13400000  0.08897000  0.14299000  1.0
  H  H101  1  0.72276000  0.14332000  0.41115000  1.0
  H  H102  1  0.36583000  0.41125000  0.35701000  1.0
  H  H103  1  0.27680000  0.35692000  0.08890000  1.0
  H  H104  1  0.29265000  0.80604000  0.93407000  1.0
  H  H105  1  0.59878000  0.93428000  0.69391000  1.0
  H  H106  1  0.03272000  0.69399000  0.56570000  1.0
  H  H107  1  0.22631000  0.56583000  0.80612000  1.0
  H  H108  1  0.70736000  0.19396000  0.06593000  1.0
  H  H109  1  0.40122000  0.06572000  0.30609000  1.0
  H  H110  1  0.96728000  0.30601000  0.43430000  1.0
  H  H111  1  0.77369000  0.43417000  0.19388000  1.0
  H  H112  1  0.34882000  0.96437000  0.89809000  1.0
  H  H113  1  0.81331000  0.89803000  0.53564000  1.0
  H  H114  1  0.21121000  0.53589000  0.60198000  1.0
  H  H115  1  0.24703000  0.60201000  0.96420000  1.0
  H  H116  1  0.65119000  0.03563000  0.10190000  1.0
  H  H117  1  0.18669000  0.10197000  0.46436000  1.0
  H  H118  1  0.78879000  0.46411000  0.39802000  1.0
  H  H119  1  0.75297000  0.39799000  0.03580000  1.0
  H  H120  1  0.23917000  0.99789000  0.97218000  1.0
  H  H121  1  0.73740000  0.97209000  0.50204000  1.0
  H  H122  1  0.20948000  0.50215000  0.52793000  1.0
  H  H123  1  0.21155000  0.52795000  0.99782000  1.0
  H  H124  1  0.76084000  0.00211000  0.02782000  1.0
  H  H125  1  0.26261000  0.02791000  0.49795000  1.0
  H  H126  1  0.79052000  0.49786000  0.47207000  1.0
  H  H127  1  0.78845000  0.47205000  0.00218000  1.0
  H  H128  1  0.21266000  0.00623000  0.89426000  1.0
  H  H129  1  0.71904000  0.89420000  0.49376000  1.0
  H  H130  1  0.11324000  0.49388000  0.60583000  1.0
  H  H131  1  0.10708000  0.60587000  0.00629000  1.0
  H  H132  1  0.78734000  0.99377000  0.10574000  1.0
  H  H133  1  0.28096000  0.10581000  0.50624000  1.0
  H  H134  1  0.88676000  0.50612000  0.39417000  1.0
  H  H135  1  0.89292000  0.39413000  0.99371000  1.0
  H  H136  1  0.12374000  0.85900000  0.94979000  1.0
  H  H137  1  0.48287000  0.94998000  0.64096000  1.0
  H  H138  1  0.93281000  0.64077000  0.54979000  1.0
  H  H139  1  0.07305000  0.55018000  0.85938000  1.0
  H  H140  1  0.87626000  0.14100000  0.05021000  1.0
  H  H141  1  0.51714000  0.05002000  0.35904000  1.0
  H  H142  1  0.06719000  0.35923000  0.45021000  1.0
  H  H143  1  0.92695000  0.44982000  0.14062000  1.0
  H  H144  1  0.08678000  0.94223000  0.91755000  1.0
  H  H145  1  0.52908000  0.91771000  0.55773000  1.0
  H  H146  1  0.94699000  0.55753000  0.58204000  1.0
  H  H147  1  0.00415000  0.58249000  0.94264000  1.0
  H  H148  1  0.91322000  0.05777000  0.08245000  1.0
  H  H149  1  0.47093000  0.08229000  0.44227000  1.0
  H  H150  1  0.05302000  0.44247000  0.41796000  1.0
  H  H151  1  0.99584000  0.41751000  0.05737000  1.0
  H  H152  1  0.08134000  0.93007000  0.00370000  1.0
  H  H153  1  0.51159000  0.00386000  0.56991000  1.0
  H  H154  1  0.01582000  0.56972000  0.49595000  1.0
  H  H155  1  0.08486000  0.49633000  0.93040000  1.0
  H  H156  1  0.91867000  0.06993000  0.99630000  1.0
  H  H157  1  0.48841000  0.99615000  0.43009000  1.0
  H  H158  1  0.98418000  0.43028000  0.50405000  1.0
  H  H159  1  0.91514000  0.50367000  0.06960000  1.0
  C  C160  1  0.75249000  0.78000000  0.85770000  1.0
  C  C161  1  0.03274000  0.85770000  0.72003000  1.0
  C  C162  1  0.39030000  0.72006000  0.64222000  1.0
  C  C163  1  0.61034000  0.64221000  0.77982000  1.0
  C  C164  1  0.24750000  0.22000000  0.14230000  1.0
  C  C165  1  0.96726000  0.14230000  0.27997000  1.0
  C  C166  1  0.60970000  0.27994000  0.35778000  1.0
  C  C167  1  0.38966000  0.35779000  0.22018000  1.0
  C  C168  1  0.13626000  0.73278000  0.86485000  1.0
  C  C169  1  0.36932000  0.86479000  0.76718000  1.0
  C  C170  1  0.73392000  0.76732000  0.63511000  1.0
  C  C171  1  0.00108000  0.63525000  0.73290000  1.0
  C  C172  1  0.86374000  0.26722000  0.13515000  1.0
  C  C173  1  0.63068000  0.13521000  0.23283000  1.0
  C  C174  1  0.26607000  0.23269000  0.36489000  1.0
  C  C175  1  0.99891000  0.36475000  0.26711000  1.0
  C  C176  1  0.83323000  0.76505000  0.89576000  1.0
  C  C177  1  0.09857000  0.89578000  0.73494000  1.0
  C  C178  1  0.49418000  0.73501000  0.60413000  1.0
  C  C179  1  0.72915000  0.60416000  0.76494000  1.0
  C  C180  1  0.16677000  0.23495000  0.10424000  1.0
  C  C181  1  0.90143000  0.10422000  0.26506000  1.0
  C  C182  1  0.50582000  0.26499000  0.39587000  1.0
  C  C183  1  0.27085000  0.39584000  0.23506000  1.0
  C  C184  1  0.94390000  0.75518000  0.86263000  1.0
  C  C185  1  0.19936000  0.86264000  0.74478000  1.0
  C  C186  1  0.56178000  0.74491000  0.63727000  1.0
  C  C187  1  0.80656000  0.63736000  0.75518000  1.0
  C  C188  1  0.05610000  0.24482000  0.13737000  1.0
  C  C189  1  0.80064000  0.13736000  0.25522000  1.0
  C  C190  1  0.43822000  0.25509000  0.36273000  1.0
  C  C191  1  0.19343000  0.36264000  0.24482000  1.0
  C  C192  1  0.01685000  0.74517000  0.89913000  1.0
  C  C193  1  0.26233000  0.89913000  0.75481000  1.0
  C  C194  1  0.66120000  0.75499000  0.60078000  1.0
  C  C195  1  0.91603000  0.60091000  0.74528000  1.0
  C  C196  1  0.98315000  0.25483000  0.10087000  1.0
  C  C197  1  0.73767000  0.10087000  0.24519000  1.0
  C  C198  1  0.33880000  0.24501000  0.39922000  1.0
  C  C199  1  0.08397000  0.39909000  0.25472000  1.0
  C  C200  1  0.97860000  0.74574000  0.96911000  1.0
  C  C201  1  0.22475000  0.96911000  0.75429000  1.0
  C  C202  1  0.69356000  0.75446000  0.53080000  1.0
  C  C203  1  0.94791000  0.53093000  0.74586000  1.0
  C  C204  1  0.02139000  0.25426000  0.03089000  1.0
  C  C205  1  0.77525000  0.03089000  0.24571000  1.0
  C  C206  1  0.30645000  0.24554000  0.46919000  1.0
  C  C207  1  0.05209000  0.46907000  0.25414000  1.0
  C  C208  1  0.86905000  0.75332000  0.00143000  1.0
  C  C209  1  0.12283000  0.00145000  0.74667000  1.0
  C  C210  1  0.62400000  0.74677000  0.49847000  1.0
  C  C211  1  0.87080000  0.49856000  0.75332000  1.0
  C  C212  1  0.13095000  0.24668000  0.99857000  1.0
  C  C213  1  0.87717000  0.99855000  0.25333000  1.0
  C  C214  1  0.37601000  0.25323000  0.50152000  1.0
  C  C215  1  0.12919000  0.50144000  0.24668000  1.0
  C  C216  1  0.79586000  0.76256000  0.96574000  1.0
  C  C217  1  0.05884000  0.96576000  0.73743000  1.0
  C  C218  1  0.52438000  0.73745000  0.53415000  1.0
  C  C219  1  0.76191000  0.53418000  0.76244000  1.0
  C  C220  1  0.20414000  0.23744000  0.03426000  1.0
  C  C221  1  0.94117000  0.03424000  0.26257000  1.0
  C  C222  1  0.47562000  0.26255000  0.46585000  1.0
  C  C223  1  0.23809000  0.46582000  0.23756000  1.0
  C  C224  1  0.84682000  0.68891000  0.10461000  1.0
  C  C225  1  0.03588000  0.10470000  0.81109000  1.0
  C  C226  1  0.64065000  0.81117000  0.39527000  1.0
  C  C227  1  0.95188000  0.39530000  0.68889000  1.0
  C  C228  1  0.15319000  0.31109000  0.89538000  1.0
  C  C229  1  0.96413000  0.89530000  0.18890000  1.0
  C  C230  1  0.35935000  0.18883000  0.60473000  1.0
  C  C231  1  0.04812000  0.60470000  0.31111000  1.0
  C  C232  1  0.78117000  0.81479000  0.10631000  1.0
  C  C233  1  0.09614000  0.10630000  0.68524000  1.0
  C  C234  1  0.70220000  0.68530000  0.39357000  1.0
  C  C235  1  0.88794000  0.39370000  0.81476000  1.0
  C  C236  1  0.21882000  0.18521000  0.89369000  1.0
  C  C237  1  0.90387000  0.89370000  0.31476000  1.0
  C  C238  1  0.29780000  0.31470000  0.60643000  1.0
  C  C239  1  0.11206000  0.60630000  0.18524000  1.0
  C  C240  1  0.69557000  0.87259000  0.21637000  1.0
  C  C241  1  0.06821000  0.21633000  0.62746000  1.0
  C  C242  1  0.78452000  0.62751000  0.28353000  1.0
  C  C243  1  0.91223000  0.28368000  0.87252000  1.0
  C  C244  1  0.30443000  0.12741000  0.78363000  1.0
  C  C245  1  0.93180000  0.78367000  0.37253000  1.0
  C  C246  1  0.21548000  0.37249000  0.71647000  1.0
  C  C247  1  0.08777000  0.71632000  0.12747000  1.0
  C  C248  1  0.74485000  0.81291000  0.18044000  1.0
  C  C249  1  0.05783000  0.18044000  0.68714000  1.0
  C  C250  1  0.73816000  0.68719000  0.31945000  1.0
  C  C251  1  0.92568000  0.31957000  0.81286000  1.0
  C  C252  1  0.25515000  0.18709000  0.81956000  1.0
  C  C253  1  0.94217000  0.81956000  0.31286000  1.0
  C  C254  1  0.26184000  0.31281000  0.68055000  1.0
  C  C255  1  0.07431000  0.68043000  0.18714000  1.0
  C  C256  1  0.82043000  0.62835000  0.21317000  1.0
  C  C257  1  0.94887000  0.21331000  0.87167000  1.0
  C  C258  1  0.66201000  0.87173000  0.28673000  1.0
  C  C259  1  0.03380000  0.28669000  0.62832000  1.0
  C  C260  1  0.17957000  0.37165000  0.78683000  1.0
  C  C261  1  0.05112000  0.78669000  0.12833000  1.0
  C  C262  1  0.33799000  0.12827000  0.71327000  1.0
  C  C263  1  0.96621000  0.71331000  0.37168000  1.0
  C  C264  1  0.80878000  0.68892000  0.17878000  1.0
  C  C265  1  0.99783000  0.17887000  0.81110000  1.0
  C  C266  1  0.67660000  0.81116000  0.32110000  1.0
  C  C267  1  0.98789000  0.32113000  0.68889000  1.0
  C  C268  1  0.19123000  0.31107000  0.82122000  1.0
  C  C269  1  0.00216000  0.82113000  0.18890000  1.0
  C  C270  1  0.32340000  0.18884000  0.67890000  1.0
  C  C271  1  0.01211000  0.67887000  0.31111000  1.0
  C  C272  1  0.76018000  0.75049000  0.21429000  1.0
  C  C273  1  0.01082000  0.21433000  0.74955000  1.0
  C  C274  1  0.72498000  0.74960000  0.28560000  1.0
  C  C275  1  0.97482000  0.28567000  0.75043000  1.0
  C  C276  1  0.23982000  0.24951000  0.78571000  1.0
  C  C277  1  0.98918000  0.78567000  0.25045000  1.0
  C  C278  1  0.27502000  0.25039000  0.71440000  1.0
  C  C279  1  0.02518000  0.71433000  0.24957000  1.0
  C  C280  1  0.67494000  0.93652000  0.82143000  1.0
  C  C281  1  0.11135000  0.82141000  0.56347000  1.0
  C  C282  1  0.43285000  0.56340000  0.67850000  1.0
  C  C283  1  0.49655000  0.67854000  0.93640000  1.0
  C  C284  1  0.32506000  0.06348000  0.17857000  1.0
  C  C285  1  0.88865000  0.17859000  0.43653000  1.0
  C  C286  1  0.56714000  0.43660000  0.32151000  1.0
  C  C287  1  0.50345000  0.32146000  0.06360000  1.0
  C  C288  1  0.61869000  0.93645000  0.94395000  1.0
  C  C289  1  0.05551000  0.94391000  0.56349000  1.0
  C  C290  1  0.49921000  0.56357000  0.55601000  1.0
  C  C291  1  0.56297000  0.55603000  0.93635000  1.0
  C  C292  1  0.38131000  0.06356000  0.05605000  1.0
  C  C293  1  0.94449000  0.05608000  0.43651000  1.0
  C  C294  1  0.50078000  0.43643000  0.44400000  1.0
  C  C295  1  0.43703000  0.44397000  0.06365000  1.0
  C  C296  1  0.79534000  0.95518000  0.87632000  1.0
  C  C297  1  0.25080000  0.87601000  0.54471000  1.0
  C  C298  1  0.62688000  0.54462000  0.62372000  1.0
  C  C299  1  0.67176000  0.62379000  0.95520000  1.0
  C  C300  1  0.20465000  0.04483000  0.12368000  1.0
  C  C301  1  0.74920000  0.12399000  0.45529000  1.0
  C  C302  1  0.37311000  0.45538000  0.37629000  1.0
  C  C303  1  0.32824000  0.37621000  0.04480000  1.0
  C  C304  1  0.32071000  0.85077000  0.92594000  1.0
  C  C305  1  0.67157000  0.92611000  0.64919000  1.0
  C  C306  1  0.09732000  0.64932000  0.57395000  1.0
  C  C307  1  0.24637000  0.57403000  0.85077000  1.0
  C  C308  1  0.67930000  0.14923000  0.07406000  1.0
  C  C309  1  0.32844000  0.07389000  0.35081000  1.0
  C  C310  1  0.90268000  0.35068000  0.42605000  1.0
  C  C311  1  0.75363000  0.42597000  0.14923000  1.0
  C  C312  1  0.26171000  0.97297000  0.92389000  1.0
  C  C313  1  0.73487000  0.92387000  0.52701000  1.0
  C  C314  1  0.15868000  0.52713000  0.57615000  1.0
  C  C315  1  0.18570000  0.57621000  0.97295000  1.0
  C  C316  1  0.73829000  0.02703000  0.07611000  1.0
  C  C317  1  0.26514000  0.07614000  0.47299000  1.0
  C  C318  1  0.84133000  0.47287000  0.42384000  1.0
  C  C319  1  0.81430000  0.42379000  0.02705000  1.0
  C  C320  1  0.12624000  0.91015000  0.95259000  1.0
  C  C321  1  0.53653000  0.95274000  0.58981000  1.0
  C  C322  1  0.98938000  0.58967000  0.54707000  1.0
  C  C323  1  0.07858000  0.54743000  0.91046000  1.0
  C  C324  1  0.87376000  0.08985000  0.04741000  1.0
  C  C325  1  0.46347000  0.04726000  0.41019000  1.0
  C  C326  1  0.01062000  0.41033000  0.45293000  1.0
  C  C327  1  0.92142000  0.45257000  0.08954000  1.0
  N  N328  1  0.83074000  0.75222000  0.07364000  1.0
  N  N329  1  0.08337000  0.07367000  0.74779000  1.0
  N  N330  1  0.65680000  0.74786000  0.42626000  1.0
  N  N331  1  0.90483000  0.42632000  0.75219000  1.0
  N  N332  1  0.16925000  0.24778000  0.92636000  1.0
  N  N333  1  0.91663000  0.92633000  0.25221000  1.0
  N  N334  1  0.34321000  0.25213000  0.57374000  1.0
  N  N335  1  0.09516000  0.57368000  0.24781000  1.0
  N  N336  1  0.69393000  0.94368000  0.87858000  1.0
  N  N337  1  0.13780000  0.87847000  0.55620000  1.0
  N  N338  1  0.51626000  0.55617000  0.62139000  1.0
  N  N339  1  0.57273000  0.62144000  0.94362000  1.0
  N  N340  1  0.30607000  0.05633000  0.12142000  1.0
  N  N341  1  0.86220000  0.12153000  0.44380000  1.0
  N  N342  1  0.48373000  0.44383000  0.37862000  1.0
  N  N343  1  0.42727000  0.37856000  0.05638000  1.0
  N  N344  1  0.23954000  0.90905000  0.93362000  1.0
  N  N345  1  0.64872000  0.93372000  0.59091000  1.0
  N  N346  1  0.08231000  0.59097000  0.56625000  1.0
  N  N347  1  0.17299000  0.56641000  0.90913000  1.0
  N  N348  1  0.76047000  0.09095000  0.06638000  1.0
  N  N349  1  0.35128000  0.06628000  0.40909000  1.0
  N  N350  1  0.91769000  0.40903000  0.43375000  1.0
  N  N351  1  0.82701000  0.43359000  0.09087000  1.0
  O  O352  1  0.78207000  0.79608000  0.79608000  1.0
  O  O353  1  0.07838000  0.79607000  0.70392000  1.0
  O  O354  1  0.37435000  0.70398000  0.70385000  1.0
  O  O355  1  0.57820000  0.70385000  0.79598000  1.0
  O  O356  1  0.21793000  0.20392000  0.20392000  1.0
  O  O357  1  0.92162000  0.20393000  0.29608000  1.0
  O  O358  1  0.62565000  0.29602000  0.29615000  1.0
  O  O359  1  0.42179000  0.29615000  0.20403000  1.0
  O  O360  1  0.65714000  0.77756000  0.88920000  1.0
  O  O361  1  0.93491000  0.88917000  0.72256000  1.0
  O  O362  1  0.32395000  0.72254000  0.61078000  1.0
  O  O363  1  0.54651000  0.61074000  0.77727000  1.0
  O  O364  1  0.34286000  0.22244000  0.11080000  1.0
  O  O365  1  0.06509000  0.11083000  0.27744000  1.0
  O  O366  1  0.67605000  0.27746000  0.38922000  1.0
  O  O367  1  0.45348000  0.38926000  0.22273000  1.0
  O  O368  1  0.17627000  0.71044000  0.80495000  1.0
  O  O369  1  0.38682000  0.80492000  0.78958000  1.0
  O  O370  1  0.69166000  0.78961000  0.69504000  1.0
  O  O371  1  0.98115000  0.69513000  0.71052000  1.0
  O  O372  1  0.82373000  0.28956000  0.19505000  1.0
  O  O373  1  0.61317000  0.19507000  0.21043000  1.0
  O  O374  1  0.30833000  0.21040000  0.30496000  1.0
  O  O375  1  0.01884000  0.30487000  0.28948000  1.0
  O  O376  1  0.19323000  0.74324000  0.89750000  1.0
  O  O377  1  0.43686000  0.89738000  0.75664000  1.0
  O  O378  1  0.83402000  0.75685000  0.60249000  1.0
  O  O379  1  0.09072000  0.60265000  0.74335000  1.0
  O  O380  1  0.80676000  0.25676000  0.10251000  1.0
  O  O381  1  0.56314000  0.10262000  0.24336000  1.0
  O  O382  1  0.16597000  0.24317000  0.39751000  1.0
  O  O383  1  0.90928000  0.39735000  0.25665000  1.0
  O  O384  1  0.89025000  0.63712000  0.07104000  1.0
  O  O385  1  0.02738000  0.07116000  0.86287000  1.0
  O  O386  1  0.59895000  0.86296000  0.42885000  1.0
  O  O387  1  0.96180000  0.42886000  0.63712000  1.0
  O  O388  1  0.10975000  0.36288000  0.92896000  1.0
  O  O389  1  0.97262000  0.92885000  0.13713000  1.0
  O  O390  1  0.40104000  0.13704000  0.57115000  1.0
  O  O391  1  0.03820000  0.57114000  0.36288000  1.0
  O  O392  1  0.77019000  0.86727000  0.07405000  1.0
  O  O393  1  0.13755000  0.07402000  0.63275000  1.0
  O  O394  1  0.71117000  0.63281000  0.42581000  1.0
  O  O395  1  0.84471000  0.42600000  0.86724000  1.0
  O  O396  1  0.22979000  0.13273000  0.92595000  1.0
  O  O397  1  0.86247000  0.92598000  0.36725000  1.0
  O  O398  1  0.28883000  0.36719000  0.57419000  1.0
  O  O399  1  0.15529000  0.57401000  0.13276000  1.0
  O  O400  1  0.59296000  0.92382000  0.81834000  1.0
  O  O401  1  0.01656000  0.81849000  0.57626000  1.0
  O  O402  1  0.33511000  0.57624000  0.68151000  1.0
  O  O403  1  0.41160000  0.68152000  0.92363000  1.0
  O  O404  1  0.40704000  0.07618000  0.18166000  1.0
  O  O405  1  0.98344000  0.18151000  0.42374000  1.0
  O  O406  1  0.66488000  0.42376000  0.31850000  1.0
  O  O407  1  0.58840000  0.31848000  0.07637000  1.0
  O  O408  1  0.41953000  0.84605000  0.91051000  1.0
  O  O409  1  0.76565000  0.91065000  0.65393000  1.0
  O  O410  1  0.17579000  0.65415000  0.58952000  1.0
  O  O411  1  0.32981000  0.58947000  0.84590000  1.0
  O  O412  1  0.58048000  0.15395000  0.08949000  1.0
  O  O413  1  0.23435000  0.08936000  0.34607000  1.0
  O  O414  1  0.82421000  0.34585000  0.41048000  1.0
  O  O415  1  0.67019000  0.41053000  0.15410000  1.0
