# generated using pymatgen
data_Zn4H52C87(N10O)2
_symmetry_space_group_name_H-M   'P 1'
_cell_length_a   18.73990000
_cell_length_b   19.06370000
_cell_length_c   21.35899942
_cell_angle_alpha   106.50152356
_cell_angle_beta   106.58383571
_cell_angle_gamma   110.68800000
_symmetry_Int_Tables_number   1
_chemical_formula_structural   Zn4H52C87(N10O)2
_chemical_formula_sum   'Zn4 H52 C87 N20 O2'
_cell_volume   6179.18641219
_cell_formula_units_Z   1
loop_
 _symmetry_equiv_pos_site_id
 _symmetry_equiv_pos_as_xyz
  1  'x, y, z'
loop_
 _atom_site_type_symbol
 _atom_site_label
 _atom_site_symmetry_multiplicity
 _atom_site_fract_x
 _atom_site_fract_y
 _atom_site_fract_z
 _atom_site_occupancy
  Zn  Zn0  1  0.39906000  0.39977000  0.50882000  1.0
  Zn  Zn1  1  0.62719000  0.59537000  0.52012000  1.0
  Zn  Zn2  1  0.40975000  0.45596000  0.36392000  1.0
  Zn  Zn3  1  0.60782000  0.49516000  0.62128000  1.0
  H  H4  1  0.20422000  0.24734000  0.39624000  1.0
  H  H5  1  0.66759000  0.75989000  0.48954000  1.0
  H  H6  1  0.21661000  0.43876000  0.32100000  1.0
  H  H7  1  0.75240000  0.66413000  0.78442000  1.0
  H  H8  1  0.67867000  0.76991000  0.63873000  1.0
  H  H9  1  0.29340000  0.48000000  0.54496000  1.0
  H  H10  1  0.60161000  0.62907000  0.74347000  1.0
  H  H11  1  0.39722000  0.60874000  0.36185000  1.0
  H  H12  1  0.66143000  0.86035000  0.45146000  1.0
  H  H13  1  0.38993000  0.73190000  0.36927000  1.0
  H  H14  1  0.30754000  0.80672000  0.34855000  1.0
  H  H15  1  0.63914000  0.46990000  0.38874000  1.0
  H  H16  1  0.30477000  0.94034000  0.37432000  1.0
  H  H17  1  0.38224000  0.09445000  0.43768000  1.0
  H  H18  1  0.65398000  0.22417000  0.52658000  1.0
  H  H19  1  0.73380000  0.14466000  0.51244000  1.0
  H  H20  1  0.73616000  0.01073000  0.48373000  1.0
  H  H21  1  0.10066000  0.47301000  0.34057000  1.0
  H  H22  1  0.14167000  0.37481000  0.49829000  1.0
  H  H23  1  0.02924000  0.31832000  0.53688000  1.0
  H  H24  1  0.89466000  0.30416000  0.54121000  1.0
  H  H25  1  0.77950000  0.34209000  0.51398000  1.0
  H  H26  1  0.35314000  0.48869000  0.21945000  1.0
  H  H27  1  0.73868000  0.43991000  0.35556000  1.0
  H  H28  1  0.82834000  0.45578000  0.28971000  1.0
  H  H29  1  0.96283000  0.46983000  0.28530000  1.0
  H  H30  1  0.37738000  0.58394000  0.16745000  1.0
  H  H31  1  0.34247000  0.63398000  0.87601000  1.0
  H  H32  1  0.63229000  0.62138000  0.22382000  1.0
  H  H33  1  0.59805000  0.67820000  0.97207000  1.0
  H  H34  1  0.64591000  0.69367000  0.14433000  1.0
  H  H35  1  0.61945000  0.31925000  0.62994000  1.0
  H  H36  1  0.59445000  0.62721000  0.85004000  1.0
  H  H37  1  0.72924000  0.75833000  0.86684000  1.0
  H  H38  1  0.79721000  0.88511000  0.98190000  1.0
  H  H39  1  0.93263000  0.04633000  0.18505000  1.0
  H  H40  1  0.07318000  0.13458000  0.29098000  1.0
  H  H41  1  0.78014000  0.91078000  0.75304000  1.0
  H  H42  1  0.02861000  0.15812000  0.05826000  1.0
  H  H43  1  0.84620000  0.03716000  0.86880000  1.0
  H  H44  1  0.16931000  0.24672000  0.16339000  1.0
  H  H45  1  0.61185000  0.53432000  0.27797000  1.0
  H  H46  1  0.41012000  0.24044000  0.42812000  1.0
  H  H47  1  0.71201000  0.40204000  0.56535000  1.0
  H  H48  1  0.30557000  0.28977000  0.24388000  1.0
  H  H49  1  0.33609000  0.45437000  0.64652000  1.0
  H  H50  1  0.26075000  0.63441000  0.05409000  1.0
  H  H51  1  0.23012000  0.51033000  0.76360000  1.0
  H  H52  1  0.10460000  0.48283000  0.66015000  1.0
  H  H53  1  0.12349000  0.54584000  0.57502000  1.0
  H  H54  1  0.26863000  0.63681000  0.59378000  1.0
  H  H55  1  0.39365000  0.66419000  0.69703000  1.0
  C  C56  1  0.24219000  0.26578000  0.36805000  1.0
  C  C57  1  0.69663000  0.42049000  0.46321000  1.0
  C  C58  1  0.48802000  0.53654000  0.23326000  1.0
  C  C59  1  0.51651000  0.24668000  0.51596000  1.0
  C  C60  1  0.40238000  0.48988000  0.65977000  1.0
  C  C61  1  0.60210000  0.71191000  0.45921000  1.0
  C  C62  1  0.24927000  0.45231000  0.37735000  1.0
  C  C63  1  0.72938000  0.67731000  0.73866000  1.0
  C  C64  1  0.69300000  0.73228000  0.66499000  1.0
  C  C65  1  0.28818000  0.47102000  0.49104000  1.0
  C  C66  1  0.53813000  0.57848000  0.70941000  1.0
  C  C67  1  0.65363000  0.46102000  0.43800000  1.0
  C  C68  1  0.46429000  0.63455000  0.39479000  1.0
  C  C69  1  0.46638000  0.56111000  0.72294000  1.0
  C  C70  1  0.53048000  0.71489000  0.41935000  1.0
  C  C71  1  0.21778000  0.45035000  0.42952000  1.0
  C  C72  1  0.72756000  0.75067000  0.73873000  1.0
  C  C73  1  0.60084000  0.86076000  0.43601000  1.0
  C  C74  1  0.52628000  0.78768000  0.41262000  1.0
  C  C75  1  0.44869000  0.78848000  0.38890000  1.0
  C  C76  1  0.44472000  0.86188000  0.39420000  1.0
  C  C77  1  0.52158000  0.93761000  0.42488000  1.0
  C  C78  1  0.41498000  0.49191000  0.23965000  1.0
  C  C79  1  0.60029000  0.93593000  0.44336000  1.0
  C  C80  1  0.36636000  0.86498000  0.37423000  1.0
  C  C81  1  0.36481000  0.93883000  0.38860000  1.0
  C  C82  1  0.44147000  0.01622000  0.42450000  1.0
  C  C83  1  0.52009000  0.01448000  0.44062000  1.0
  C  C84  1  0.59744000  0.09063000  0.47601000  1.0
  C  C85  1  0.67509000  0.08669000  0.48868000  1.0
  C  C86  1  0.67644000  0.01264000  0.47269000  1.0
  C  C87  1  0.44210000  0.09311000  0.44750000  1.0
  C  C88  1  0.51806000  0.16802000  0.48661000  1.0
  C  C89  1  0.56803000  0.31281000  0.58517000  1.0
  C  C90  1  0.59482000  0.16597000  0.49874000  1.0
  C  C91  1  0.07789000  0.44396000  0.37310000  1.0
  C  C92  1  0.13156000  0.42793000  0.42131000  1.0
  C  C93  1  0.10122000  0.38976000  0.46229000  1.0
  C  C94  1  0.02093000  0.37216000  0.45955000  1.0
  C  C95  1  0.96870000  0.39339000  0.41362000  1.0
  C  C96  1  0.99692000  0.42728000  0.36822000  1.0
  C  C97  1  0.99033000  0.33689000  0.50357000  1.0
  C  C98  1  0.91594000  0.32914000  0.50597000  1.0
  C  C99  1  0.86562000  0.35626000  0.46472000  1.0
  C  C100  1  0.54684000  0.51497000  0.27048000  1.0
  C  C101  1  0.89141000  0.38527000  0.41609000  1.0
  C  C102  1  0.84170000  0.41131000  0.37351000  1.0
  C  C103  1  0.86814000  0.43892000  0.32419000  1.0
  C  C104  1  0.94252000  0.44676000  0.32181000  1.0
  C  C105  1  0.79631000  0.36111000  0.47437000  1.0
  C  C106  1  0.75267000  0.39506000  0.43842000  1.0
  C  C107  1  0.77318000  0.41535000  0.38537000  1.0
  C  C108  1  0.46671000  0.60261000  0.79245000  1.0
  C  C109  1  0.54007000  0.63198000  0.85571000  1.0
  C  C110  1  0.54260000  0.65970000  0.92394000  1.0
  C  C111  1  0.46062000  0.27199000  0.48242000  1.0
  C  C112  1  0.46924000  0.65640000  0.93114000  1.0
  C  C113  1  0.39776000  0.63298000  0.86935000  1.0
  C  C114  1  0.39593000  0.60823000  0.80028000  1.0
  C  C115  1  0.44408000  0.64861000  0.11860000  1.0
  C  C116  1  0.43606000  0.60596000  0.16141000  1.0
  C  C117  1  0.51917000  0.67525000  0.10831000  1.0
  C  C118  1  0.50101000  0.59019000  0.19663000  1.0
  C  C119  1  0.57910000  0.62816000  0.19422000  1.0
  C  C120  1  0.58777000  0.66988000  0.15098000  1.0
  C  C121  1  0.13269000  0.19550000  0.23447000  1.0
  C  C122  1  0.68839000  0.42538000  0.52781000  1.0
  C  C123  1  0.11757000  0.20282000  0.16845000  1.0
  C  C124  1  0.03926000  0.15456000  0.10987000  1.0
  C  C125  1  0.97227000  0.09606000  0.11498000  1.0
  C  C126  1  0.98506000  0.09141000  0.18158000  1.0
  C  C127  1  0.06382000  0.14069000  0.24038000  1.0
  C  C128  1  0.79225000  0.88957000  0.93126000  1.0
  C  C129  1  0.75580000  0.81946000  0.86707000  1.0
  C  C130  1  0.82873000  0.96885000  0.93261000  1.0
  C  C131  1  0.75427000  0.82538000  0.80228000  1.0
  C  C132  1  0.78258000  0.90450000  0.80273000  1.0
  C  C133  1  0.29351000  0.28763000  0.29030000  1.0
  C  C134  1  0.81931000  0.97532000  0.86706000  1.0
  C  C135  1  0.21735000  0.24435000  0.29360000  1.0
  C  C136  1  0.37798000  0.67218000  0.09048000  1.0
  C  C137  1  0.32062000  0.58906000  0.73744000  1.0
  C  C138  1  0.23849000  0.53832000  0.72645000  1.0
  C  C139  1  0.16804000  0.52289000  0.66840000  1.0
  C  C140  1  0.17847000  0.55820000  0.62049000  1.0
  C  C141  1  0.25989000  0.60897000  0.63093000  1.0
  C  C142  1  0.33021000  0.62411000  0.68873000  1.0
  N  N143  1  0.32538000  0.31855000  0.40505000  1.0
  N  N144  1  0.57934000  0.63533000  0.45697000  1.0
  N  N145  1  0.33122000  0.47141000  0.40607000  1.0
  N  N146  1  0.69724000  0.61928000  0.67082000  1.0
  N  N147  1  0.67486000  0.65388000  0.62497000  1.0
  N  N148  1  0.35645000  0.48291000  0.47659000  1.0
  N  N149  1  0.51918000  0.52221000  0.64415000  1.0
  N  N150  1  0.49400000  0.58732000  0.41753000  1.0
  N  N151  1  0.45973000  0.66221000  0.99524000  1.0
  N  N152  1  0.52866000  0.69190000  0.05062000  1.0
  N  N153  1  0.89755000  0.03313000  0.05453000  1.0
  N  N154  1  0.62409000  0.48928000  0.48546000  1.0
  N  N155  1  0.88647000  0.04204000  0.99622000  1.0
  N  N156  1  0.43046000  0.44865000  0.27768000  1.0
  N  N157  1  0.54383000  0.37235000  0.59268000  1.0
  N  N158  1  0.51328000  0.46355000  0.29740000  1.0
  N  N159  1  0.47763000  0.34723000  0.52816000  1.0
  N  N160  1  0.64611000  0.46725000  0.54090000  1.0
  N  N161  1  0.35826000  0.33332000  0.35736000  1.0
  N  N162  1  0.43484000  0.46681000  0.61371000  1.0
  O  O163  1  0.39176000  0.74051000  0.09266000  1.0
  O  O164  1  0.29785000  0.61020000  0.06690000  1.0
