# generated using pymatgen
data_YbPH6C2O7
_symmetry_space_group_name_H-M   'P 1'
_cell_length_a   6.78741000
_cell_length_b   6.97563000
_cell_length_c   15.25850000
_cell_angle_alpha   90.00000000
_cell_angle_beta   90.00130000
_cell_angle_gamma   89.99970000
_symmetry_Int_Tables_number   1
_chemical_formula_structural   YbPH6C2O7
_chemical_formula_sum   'Yb4 P4 H24 C8 O28'
_cell_volume   722.43597220
_cell_formula_units_Z   4
loop_
 _symmetry_equiv_pos_site_id
 _symmetry_equiv_pos_as_xyz
  1  'x, y, z'
loop_
 _atom_site_type_symbol
 _atom_site_label
 _atom_site_symmetry_multiplicity
 _atom_site_fract_x
 _atom_site_fract_y
 _atom_site_fract_z
 _atom_site_occupancy
  Yb  Yb0  1  0.25000000  0.50463000  0.14503000  1.0
  Yb  Yb1  1  0.75000000  0.00463000  0.35497000  1.0
  Yb  Yb2  1  0.74999000  0.49537000  0.85497000  1.0
  Yb  Yb3  1  0.25001000  0.99538000  0.64503000  1.0
  P  P4  1  0.74999000  0.68743000  0.16576000  1.0
  P  P5  1  0.25000000  0.18744000  0.33423000  1.0
  P  P6  1  0.25000000  0.31256000  0.83424000  1.0
  P  P7  1  0.75001000  0.81256000  0.66577000  1.0
  H  H8  1  0.13610000  0.81817000  0.27226000  1.0
  H  H9  1  0.86391000  0.31817000  0.22773000  1.0
  H  H10  1  0.63609000  0.18183000  0.72774000  1.0
  H  H11  1  0.36391000  0.68182000  0.77226000  1.0
  H  H12  1  0.86390000  0.18183000  0.72774000  1.0
  H  H13  1  0.13609000  0.68182000  0.77226000  1.0
  H  H14  1  0.36391000  0.81817000  0.27226000  1.0
  H  H15  1  0.63609000  0.31818000  0.22774000  1.0
  H  H16  1  0.12757000  0.71999000  0.99429000  1.0
  H  H17  1  0.87244000  0.21998000  0.50571000  1.0
  H  H18  1  0.62754000  0.28001000  0.00571000  1.0
  H  H19  1  0.37245000  0.78001000  0.49430000  1.0
  H  H20  1  0.87243000  0.28001000  0.00571000  1.0
  H  H21  1  0.12758000  0.78002000  0.49430000  1.0
  H  H22  1  0.37246000  0.71999000  0.99429000  1.0
  H  H23  1  0.62756000  0.21999000  0.50570000  1.0
  H  H24  1  0.61801000  0.95218000  0.08471000  1.0
  H  H25  1  0.38194000  0.45216000  0.41529000  1.0
  H  H26  1  0.11802000  0.04783000  0.91530000  1.0
  H  H27  1  0.88200000  0.54784000  0.58471000  1.0
  H  H28  1  0.38197000  0.04782000  0.91530000  1.0
  H  H29  1  0.61806000  0.54784000  0.58470000  1.0
  H  H30  1  0.88195000  0.95217000  0.08470000  1.0
  H  H31  1  0.11801000  0.45216000  0.41530000  1.0
  C  C32  1  0.75001000  0.86319000  0.07594000  1.0
  C  C33  1  0.25000000  0.36318000  0.42406000  1.0
  C  C34  1  0.24999000  0.13681000  0.92406000  1.0
  C  C35  1  0.75000000  0.63682000  0.57595000  1.0
  C  C36  1  0.74996000  0.77105000  0.98724000  1.0
  C  C37  1  0.25003000  0.27103000  0.51275000  1.0
  C  C38  1  0.25003000  0.22896000  0.01275000  1.0
  C  C39  1  0.74998000  0.72897000  0.48725000  1.0
  O  O40  1  0.25000000  0.74765000  0.24912000  1.0
  O  O41  1  0.75000000  0.24765000  0.25088000  1.0
  O  O42  1  0.75000000  0.25235000  0.75088000  1.0
  O  O43  1  0.25000000  0.75235000  0.74912000  1.0
  O  O44  1  0.24999000  0.70567000  0.03067000  1.0
  O  O45  1  0.75001000  0.20567000  0.46932000  1.0
  O  O46  1  0.75001000  0.29433000  0.96933000  1.0
  O  O47  1  0.25000000  0.79433000  0.53068000  1.0
  O  O48  1  0.56400000  0.56441000  0.15806000  1.0
  O  O49  1  0.43600000  0.06441000  0.34194000  1.0
  O  O50  1  0.06400000  0.43558000  0.84194000  1.0
  O  O51  1  0.93600000  0.93560000  0.65807000  1.0
  O  O52  1  0.43600000  0.43559000  0.84194000  1.0
  O  O53  1  0.56400000  0.93559000  0.65806000  1.0
  O  O54  1  0.93600000  0.56442000  0.15806000  1.0
  O  O55  1  0.06401000  0.06440000  0.34193000  1.0
  O  O56  1  0.74999000  0.80508000  0.25025000  1.0
  O  O57  1  0.25000000  0.30509000  0.24976000  1.0
  O  O58  1  0.25000000  0.19491000  0.74976000  1.0
  O  O59  1  0.75001000  0.69491000  0.75024000  1.0
  O  O60  1  0.58857000  0.72569000  0.94904000  1.0
  O  O61  1  0.41143000  0.22568000  0.55095000  1.0
  O  O62  1  0.08855000  0.27432000  0.05096000  1.0
  O  O63  1  0.91147000  0.77433000  0.44904000  1.0
  O  O64  1  0.41142000  0.27431000  0.05096000  1.0
  O  O65  1  0.58859000  0.77432000  0.44905000  1.0
  O  O66  1  0.91144000  0.72568000  0.94904000  1.0
  O  O67  1  0.08855000  0.22568000  0.55096000  1.0
