# generated using pymatgen
data_SnH13C9NO2
_symmetry_space_group_name_H-M   'P 1'
_cell_length_a   6.39353000
_cell_length_b   9.09950000
_cell_length_c   9.74829000
_cell_angle_alpha   79.56930000
_cell_angle_beta   71.35150000
_cell_angle_gamma   75.81300000
_symmetry_Int_Tables_number   1
_chemical_formula_structural   SnH13C9NO2
_chemical_formula_sum   'Sn2 H26 C18 N2 O4'
_cell_volume   517.70601701
_cell_formula_units_Z   2
loop_
 _symmetry_equiv_pos_site_id
 _symmetry_equiv_pos_as_xyz
  1  'x, y, z'
loop_
 _atom_site_type_symbol
 _atom_site_label
 _atom_site_symmetry_multiplicity
 _atom_site_fract_x
 _atom_site_fract_y
 _atom_site_fract_z
 _atom_site_occupancy
  Sn  Sn0  1  0.28274000  0.15018000  0.22928000  1.0
  Sn  Sn1  1  0.71729000  0.84979000  0.77070000  1.0
  H  H2  1  0.58740000  0.33753000  0.10856000  1.0
  H  H3  1  0.41260000  0.66246000  0.89145000  1.0
  H  H4  1  0.65042000  0.18278000  0.00227000  1.0
  H  H5  1  0.34958000  0.81721000  0.99773000  1.0
  H  H6  1  0.42864000  0.34166000  0.98571000  1.0
  H  H7  1  0.57136000  0.65833000  0.01430000  1.0
  H  H8  1  0.12928000  0.03796000  0.05284000  1.0
  H  H9  1  0.87073000  0.96205000  0.94714000  1.0
  H  H10  1  0.02523000  0.95440000  0.23741000  1.0
  H  H11  1  0.97479000  0.04559000  0.76256000  1.0
  H  H12  1  0.88930000  0.13964000  0.17660000  1.0
  H  H13  1  0.11072000  0.86036000  0.82339000  1.0
  H  H14  1  0.36709000  0.23828000  0.45435000  1.0
  H  H15  1  0.63288000  0.76172000  0.54564000  1.0
  H  H16  1  0.08283000  0.20877000  0.50972000  1.0
  H  H17  1  0.91716000  0.79120000  0.49028000  1.0
  H  H18  1  0.31217000  0.04891000  0.50237000  1.0
  H  H19  1  0.68784000  0.95108000  0.49763000  1.0
  H  H20  1  0.44035000  0.52323000  0.38028000  1.0
  H  H21  1  0.55965000  0.47678000  0.61974000  1.0
  H  H22  1  0.74671000  0.28745000  0.36178000  1.0
  H  H23  1  0.25328000  0.71256000  0.63823000  1.0
  H  H24  1  0.23498000  0.53796000  0.12789000  1.0
  H  H25  1  0.76501000  0.46208000  0.87210000  1.0
  H  H26  1  0.94915000  0.78217000  0.14116000  1.0
  H  H27  1  0.05081000  0.21785000  0.85886000  1.0
  C  C28  1  0.51550000  0.26832000  0.06132000  1.0
  C  C29  1  0.48450000  0.73167000  0.93869000  1.0
  C  C30  1  0.05094000  0.06028000  0.16670000  1.0
  C  C31  1  0.94906000  0.93971000  0.83327000  1.0
  C  C32  1  0.25814000  0.16345000  0.45150000  1.0
  C  C33  1  0.74185000  0.83654000  0.54849000  1.0
  C  C34  1  0.67179000  0.67073000  0.26166000  1.0
  C  C35  1  0.32821000  0.32927000  0.73836000  1.0
  C  C36  1  0.61514000  0.52922000  0.32246000  1.0
  C  C37  1  0.38486000  0.47080000  0.67756000  1.0
  C  C38  1  0.78449000  0.39878000  0.31124000  1.0
  C  C39  1  0.21549000  0.60123000  0.68878000  1.0
  C  C40  1  0.05716000  0.53840000  0.18266000  1.0
  C  C41  1  0.94285000  0.46161000  0.81734000  1.0
  C  C42  1  0.89811000  0.67430000  0.18943000  1.0
  C  C43  1  0.10187000  0.32572000  0.81058000  1.0
  C  C44  1  0.49025000  0.81414000  0.28139000  1.0
  C  C45  1  0.50976000  0.18586000  0.71860000  1.0
  N  N46  1  0.00257000  0.40250000  0.24219000  1.0
  N  N47  1  0.99742000  0.59751000  0.75781000  1.0
  O  O48  1  0.54646000  0.93574000  0.19943000  1.0
  O  O49  1  0.45356000  0.06425000  0.80057000  1.0
  O  O50  1  0.30469000  0.80670000  0.37369000  1.0
  O  O51  1  0.69527000  0.19331000  0.62630000  1.0
