# generated using pymatgen
data_AgH16C20N7O3
_symmetry_space_group_name_H-M   'P 1'
_cell_length_a   8.30739000
_cell_length_b   10.77750000
_cell_length_c   11.33730000
_cell_angle_alpha   84.63790000
_cell_angle_beta   68.76510000
_cell_angle_gamma   73.86220000
_symmetry_Int_Tables_number   1
_chemical_formula_structural   AgH16C20N7O3
_chemical_formula_sum   'Ag2 H32 C40 N14 O6'
_cell_volume   908.83069561
_cell_formula_units_Z   2
loop_
 _symmetry_equiv_pos_site_id
 _symmetry_equiv_pos_as_xyz
  1  'x, y, z'
loop_
 _atom_site_type_symbol
 _atom_site_label
 _atom_site_symmetry_multiplicity
 _atom_site_fract_x
 _atom_site_fract_y
 _atom_site_fract_z
 _atom_site_occupancy
  Ag  Ag0  1  0.07985000  0.48193000  0.30729000  1.0
  Ag  Ag1  1  0.92015000  0.51806000  0.69271000  1.0
  H  H2  1  0.22416000  0.38524000  0.78621000  1.0
  H  H3  1  0.77584000  0.61476000  0.21379000  1.0
  H  H4  1  0.98326000  0.17869000  0.10045000  1.0
  H  H5  1  0.01674000  0.82131000  0.89955000  1.0
  H  H6  1  0.48747000  0.90464000  0.76134000  1.0
  H  H7  1  0.51253000  0.09536000  0.23866000  1.0
  H  H8  1  0.71530000  0.38672000  0.55983000  1.0
  H  H9  1  0.28470000  0.61328000  0.44017000  1.0
  H  H10  1  0.11363000  0.90447000  0.23218000  1.0
  H  H11  1  0.88637000  0.09553000  0.76782000  1.0
  H  H12  1  0.31617000  0.94166000  0.20831000  1.0
  H  H13  1  0.68383000  0.05834000  0.79169000  1.0
  H  H14  1  0.57854000  0.02201000  0.59117000  1.0
  H  H15  1  0.42146000  0.97799000  0.40883000  1.0
  H  H16  1  0.03289000  0.23525000  0.87524000  1.0
  H  H17  1  0.96711000  0.76475000  0.12476000  1.0
  H  H18  1  0.28699000  0.10320000  0.70612000  1.0
  H  H19  1  0.71301000  0.89680000  0.29388000  1.0
  H  H20  1  0.59392000  0.77859000  0.90828000  1.0
  H  H21  1  0.40608000  0.22140000  0.09172000  1.0
  H  H22  1  0.50583000  0.81446000  0.07260000  1.0
  H  H23  1  0.49417000  0.18554000  0.92740000  1.0
  H  H24  1  0.85129000  0.92699000  0.41341000  1.0
  H  H25  1  0.14871000  0.07301000  0.58659000  1.0
  H  H26  1  0.48078000  0.69346000  0.73845000  1.0
  H  H27  1  0.51922000  0.30654000  0.26155000  1.0
  H  H28  1  0.51123000  0.24639000  0.66666667  1.0
  H  H29  1  0.48877000  0.75361000  0.33329000  1.0
  H  H30  1  0.38778000  0.53585000  0.65036000  1.0
  H  H31  1  0.61222000  0.46415000  0.34964000  1.0
  H  H32  1  0.14332000  0.38754000  0.02170000  1.0
  H  H33  1  0.85668000  0.61246000  0.97830000  1.0
  C  C34  1  0.25992000  0.45401000  0.83047000  1.0
  C  C35  1  0.74008000  0.54599000  0.16953000  1.0
  C  C36  1  0.09512000  0.11856000  0.02648000  1.0
  C  C37  1  0.90488000  0.88143000  0.97352000  1.0
  C  C38  1  0.35604000  0.63170000  0.93344000  1.0
  C  C39  1  0.64396000  0.36830000  0.06656000  1.0
  C  C40  1  0.37714000  0.96565000  0.83570000  1.0
  C  C41  1  0.62286000  0.03435000  0.16430000  1.0
  C  C42  1  0.74300000  0.28886000  0.52689000  1.0
  C  C43  1  0.25700000  0.71114000  0.47311000  1.0
  C  C44  1  0.26123000  0.54650000  0.01217000  1.0
  C  C45  1  0.73877000  0.45350000  0.98783000  1.0
  C  C46  1  0.18578000  0.97942000  0.19653000  1.0
  C  C47  1  0.81422000  0.02058000  0.80347000  1.0
  C  C48  1  0.20986000  0.01058000  0.05927000  1.0
  C  C49  1  0.79014000  0.98941000  0.94073000  1.0
  C  C50  1  0.66944000  0.08139000  0.54323000  1.0
  C  C51  1  0.33056000  0.91861000  0.45677000  1.0
  C  C52  1  0.89491000  0.23657000  0.42159000  1.0
  C  C53  1  0.10509000  0.76343000  0.57841000  1.0
  C  C54  1  0.93119000  0.10835000  0.38095000  1.0
  C  C55  1  0.06881000  0.89165000  0.61905000  1.0
  C  C56  1  0.12232000  0.15087000  0.90012000  1.0
  C  C57  1  0.87768000  0.84913000  0.09988000  1.0
  C  C58  1  0.26550000  0.07565000  0.80432000  1.0
  C  C59  1  0.73450000  0.92435000  0.19568000  1.0
  C  C60  1  0.46949000  0.80730000  0.99006000  1.0
  C  C61  1  0.53052000  0.19270000  0.00994000  1.0
  C  C62  1  0.82091000  0.02713000  0.44185000  1.0
  C  C63  1  0.17909000  0.97287000  0.55815000  1.0
  C  C64  1  0.35032000  0.93161000  0.96239000  1.0
  C  C65  1  0.64968000  0.06839000  0.03761000  1.0
  C  C66  1  0.40480000  0.63050000  0.80125000  1.0
  C  C67  1  0.59520000  0.36950000  0.19875000  1.0
  C  C68  1  0.63150000  0.20949000  0.58532000  1.0
  C  C69  1  0.36850000  0.79051000  0.41468000  1.0
  C  C70  1  0.35353000  0.54056000  0.75242000  1.0
  C  C71  1  0.64646000  0.45945000  0.24758000  1.0
  C  C72  1  0.21332000  0.45467000  0.96095000  1.0
  C  C73  1  0.78667000  0.54533000  0.03905000  1.0
  N  N74  1  0.03076000  0.28721000  0.34141000  1.0
  N  N75  1  0.96924000  0.71279000  0.65859000  1.0
  N  N76  1  0.08715000  0.09130000  0.27919000  1.0
  N  N77  1  0.91285000  0.90870000  0.72081000  1.0
  N  N78  1  0.38180000  0.70216000  0.01668000  1.0
  N  N79  1  0.61820000  0.29784000  0.98332000  1.0
  N  N80  1  0.23244000  0.31071000  0.51848000  1.0
  N  N81  1  0.76756000  0.68929000  0.48152000  1.0
  N  N82  1  0.14514000  0.19927000  0.25713000  1.0
  N  N83  1  0.85486000  0.80073000  0.74287000  1.0
  N  N84  1  0.30698000  0.66632000  0.13724000  1.0
  N  N85  1  0.69302000  0.33368000  0.86276000  1.0
  N  N86  1  0.23465000  0.57286000  0.13567000  1.0
  N  N87  1  0.76535000  0.42714000  0.86433000  1.0
  O  O88  1  0.22269000  0.42811000  0.48342000  1.0
  O  O89  1  0.77731000  0.57189000  0.51658000  1.0
  O  O90  1  0.34974000  0.21947000  0.45101000  1.0
  O  O91  1  0.65026000  0.78053000  0.54899000  1.0
  O  O92  1  0.11876000  0.28854000  0.62424000  1.0
  O  O93  1  0.88124000  0.71146000  0.37576000  1.0
