# generated using pymatgen
data_CdH13C14(NO2)2
_symmetry_space_group_name_H-M   'P 1'
_cell_length_a   10.22780000
_cell_length_b   10.34890000
_cell_length_c   13.75990000
_cell_angle_alpha   109.25700000
_cell_angle_beta   90.00000000
_cell_angle_gamma   89.99990000
_symmetry_Int_Tables_number   1
_chemical_formula_structural   CdH13C14(NO2)2
_chemical_formula_sum   'Cd4 H52 C56 N8 O16'
_cell_volume   1374.94747978
_cell_formula_units_Z   4
loop_
 _symmetry_equiv_pos_site_id
 _symmetry_equiv_pos_as_xyz
  1  'x, y, z'
loop_
 _atom_site_type_symbol
 _atom_site_label
 _atom_site_symmetry_multiplicity
 _atom_site_fract_x
 _atom_site_fract_y
 _atom_site_fract_z
 _atom_site_occupancy
  Cd  Cd0  1  0.63041000  0.01971000  0.40187000  1.0
  Cd  Cd1  1  0.13041000  0.98029000  0.09813000  1.0
  Cd  Cd2  1  0.36959000  0.98029000  0.59813000  1.0
  Cd  Cd3  1  0.86959000  0.01971000  0.90187000  1.0
  H  H4  1  0.99545000  0.50734000  0.38989000  1.0
  H  H5  1  0.49545000  0.49267000  0.11011000  1.0
  H  H6  1  0.00455000  0.49267000  0.61011000  1.0
  H  H7  1  0.50455000  0.50734000  0.88989000  1.0
  H  H8  1  0.86219000  0.53887000  0.47575000  1.0
  H  H9  1  0.36219000  0.46114000  0.02425000  1.0
  H  H10  1  0.13781000  0.46114000  0.52425000  1.0
  H  H11  1  0.63781000  0.53886000  0.97575000  1.0
  H  H12  1  0.99016000  0.73325000  0.60238000  1.0
  H  H13  1  0.49016000  0.26675000  0.89762000  1.0
  H  H14  1  0.00983000  0.26675000  0.39762000  1.0
  H  H15  1  0.50984000  0.73325000  0.10238000  1.0
  H  H16  1  0.11955000  0.70166000  0.51198000  1.0
  H  H17  1  0.61955000  0.29834000  0.98802000  1.0
  H  H18  1  0.88045000  0.29834000  0.48802000  1.0
  H  H19  1  0.38045000  0.70166000  0.01198000  1.0
  H  H20  1  0.93147000  0.96579000  0.31635000  1.0
  H  H21  1  0.43147000  0.03421000  0.18365000  1.0
  H  H22  1  0.06853000  0.03421000  0.68365000  1.0
  H  H23  1  0.56853000  0.96579000  0.81635000  1.0
  H  H24  1  0.11573000  0.81059000  0.37921000  1.0
  H  H25  1  0.61573000  0.18941000  0.12080000  1.0
  H  H26  1  0.88427000  0.18941000  0.62080000  1.0
  H  H27  1  0.38427000  0.81059000  0.87921000  1.0
  H  H28  1  0.63970000  0.85430000  0.55077000  1.0
  H  H29  1  0.13970000  0.14570000  0.94923000  1.0
  H  H30  1  0.36030000  0.14570000  0.44923000  1.0
  H  H31  1  0.86030000  0.85430000  0.05077000  1.0
  H  H32  1  0.76749000  0.84182000  0.63415000  1.0
  H  H33  1  0.26749000  0.15817000  0.86585000  1.0
  H  H34  1  0.23251000  0.15817000  0.36585000  1.0
  H  H35  1  0.73251000  0.84182000  0.13415000  1.0
  H  H36  1  0.71309000  0.69272000  0.53410000  1.0
  H  H37  1  0.21309000  0.30728000  0.96590000  1.0
  H  H38  1  0.28691000  0.30728000  0.46590000  1.0
  H  H39  1  0.78691000  0.69272000  0.03410000  1.0
  H  H40  1  0.10667000  0.53977000  0.13282000  1.0
  H  H41  1  0.60667000  0.46023000  0.36718000  1.0
  H  H42  1  0.89333000  0.46023000  0.86718000  1.0
  H  H43  1  0.39333000  0.53977000  0.63283000  1.0
  H  H44  1  0.15948000  0.35354000  0.20704000  1.0
  H  H45  1  0.65948000  0.64646000  0.29296000  1.0
  H  H46  1  0.84052000  0.64646000  0.79296000  1.0
  H  H47  1  0.34052000  0.35354000  0.70704000  1.0
  H  H48  1  0.32867000  0.39532000  0.34305000  1.0
  H  H49  1  0.82867000  0.60468000  0.15695000  1.0
  H  H50  1  0.67133000  0.60468000  0.65695000  1.0
  H  H51  1  0.17133000  0.39531000  0.84305000  1.0
  H  H52  1  0.44336000  0.61972000  0.40587000  1.0
  H  H53  1  0.94336000  0.38028000  0.09413000  1.0
  H  H54  1  0.55664000  0.38028000  0.59413000  1.0
  H  H55  1  0.05664000  0.61972000  0.90586000  1.0
  C  C56  1  0.96931000  0.54515000  0.47209000  1.0
  C  C57  1  0.46931000  0.45485000  0.02791000  1.0
  C  C58  1  0.03069000  0.45485000  0.52791000  1.0
  C  C59  1  0.53069000  0.54515000  0.97209000  1.0
  C  C60  1  0.01320000  0.69370000  0.51976000  1.0
  C  C61  1  0.51319000  0.30630000  0.98024000  1.0
  C  C62  1  0.98680000  0.30630000  0.48024000  1.0
  C  C63  1  0.48680000  0.69370000  0.01976000  1.0
  C  C64  1  0.82795000  0.83103000  0.48280000  1.0
  C  C65  1  0.32795000  0.16897000  0.01721000  1.0
  C  C66  1  0.17205000  0.16897000  0.51720000  1.0
  C  C67  1  0.67205000  0.83103000  0.98280000  1.0
  C  C68  1  0.92300000  0.90885000  0.36957000  1.0
  C  C69  1  0.42301000  0.09116000  0.13043000  1.0
  C  C70  1  0.07699000  0.09116000  0.63043000  1.0
  C  C71  1  0.57700000  0.90885000  0.86956000  1.0
  C  C72  1  0.01408000  0.83253000  0.39947000  1.0
  C  C73  1  0.51407000  0.16747000  0.10053000  1.0
  C  C74  1  0.98593000  0.16747000  0.60053000  1.0
  C  C75  1  0.48593000  0.83252000  0.89947000  1.0
  C  C76  1  0.73216000  0.80294000  0.55429000  1.0
  C  C77  1  0.23216000  0.19705000  0.94571000  1.0
  C  C78  1  0.26784000  0.19706000  0.44571000  1.0
  C  C79  1  0.76784000  0.80294000  0.05429000  1.0
  C  C80  1  0.34728000  0.70032000  0.29899000  1.0
  C  C81  1  0.84728000  0.29967000  0.20101000  1.0
  C  C82  1  0.65272000  0.29968000  0.70101000  1.0
  C  C83  1  0.15272000  0.70032000  0.79899000  1.0
  C  C84  1  0.24952000  0.67825000  0.22310000  1.0
  C  C85  1  0.74952000  0.32175000  0.27690000  1.0
  C  C86  1  0.75048000  0.32175000  0.77690000  1.0
  C  C87  1  0.25048000  0.67825000  0.72310000  1.0
  C  C88  1  0.18281000  0.55318000  0.19064000  1.0
  C  C89  1  0.68282000  0.44682000  0.30935000  1.0
  C  C90  1  0.81719000  0.44682000  0.80935000  1.0
  C  C91  1  0.31719000  0.55318000  0.69064000  1.0
  C  C92  1  0.21142000  0.45078000  0.23247000  1.0
  C  C93  1  0.71143000  0.54921000  0.26753000  1.0
  C  C94  1  0.78858000  0.54921000  0.76753000  1.0
  C  C95  1  0.28857000  0.45078000  0.73247000  1.0
  C  C96  1  0.30579000  0.47463000  0.30977000  1.0
  C  C97  1  0.80579000  0.52537000  0.19023000  1.0
  C  C98  1  0.69421000  0.52537000  0.69023000  1.0
  C  C99  1  0.19421000  0.47463000  0.80977000  1.0
  C  C100  1  0.37194000  0.59939000  0.34384000  1.0
  C  C101  1  0.87194000  0.40060000  0.15616000  1.0
  C  C102  1  0.62806000  0.40061000  0.65616000  1.0
  C  C103  1  0.12806000  0.59939000  0.84384000  1.0
  C  C104  1  0.43590000  0.82265000  0.32927000  1.0
  C  C105  1  0.93590000  0.17735000  0.17073000  1.0
  C  C106  1  0.56410000  0.17735000  0.67073000  1.0
  C  C107  1  0.06410000  0.82265000  0.82927000  1.0
  C  C108  1  0.20857000  0.79081000  0.18393000  1.0
  C  C109  1  0.70857000  0.20919000  0.31607000  1.0
  C  C110  1  0.79143000  0.20919000  0.81607000  1.0
  C  C111  1  0.29143000  0.79081000  0.68393000  1.0
  N  N112  1  0.95324000  0.78399000  0.47012000  1.0
  N  N113  1  0.45323000  0.21601000  0.02988000  1.0
  N  N114  1  0.04677000  0.21600000  0.52988000  1.0
  N  N115  1  0.54677000  0.78399000  0.97012000  1.0
  N  N116  1  0.80773000  0.90699000  0.42183000  1.0
  N  N117  1  0.30773000  0.09300000  0.07816000  1.0
  N  N118  1  0.19227000  0.09300000  0.57816000  1.0
  N  N119  1  0.69227000  0.90699000  0.92183000  1.0
  O  O120  1  0.52050000  0.83513000  0.26590000  1.0
  O  O121  1  0.02050000  0.16486000  0.23410000  1.0
  O  O122  1  0.47950000  0.16487000  0.73410000  1.0
  O  O123  1  0.97950000  0.83513000  0.76590000  1.0
  O  O124  1  0.43549000  0.90444000  0.42277000  1.0
  O  O125  1  0.93549000  0.09556000  0.07723000  1.0
  O  O126  1  0.56451000  0.09556000  0.57723000  1.0
  O  O127  1  0.06451000  0.90444000  0.92277000  1.0
  O  O128  1  0.24338000  0.91236000  0.23351000  1.0
  O  O129  1  0.74338000  0.08764000  0.26649000  1.0
  O  O130  1  0.75662000  0.08764000  0.76649000  1.0
  O  O131  1  0.25662000  0.91236000  0.73351000  1.0
  O  O132  1  0.13689000  0.76098000  0.10246000  1.0
  O  O133  1  0.63689000  0.23902000  0.39754000  1.0
  O  O134  1  0.86311000  0.23902000  0.89754000  1.0
  O  O135  1  0.36311000  0.76098000  0.60246000  1.0
