# generated using pymatgen
data_Zn2H14C21N6O5F6
_symmetry_space_group_name_H-M   'P 1'
_cell_length_a   7.09864000
_cell_length_b   10.09210000
_cell_length_c   17.64004877
_cell_angle_alpha   73.38658956
_cell_angle_beta   88.37659313
_cell_angle_gamma   84.31100000
_symmetry_Int_Tables_number   1
_chemical_formula_structural   Zn2H14C21N6O5F6
_chemical_formula_sum   'Zn4 H28 C42 N12 O10 F12'
_cell_volume   1205.01798988
_cell_formula_units_Z   2
loop_
 _symmetry_equiv_pos_site_id
 _symmetry_equiv_pos_as_xyz
  1  'x, y, z'
loop_
 _atom_site_type_symbol
 _atom_site_label
 _atom_site_symmetry_multiplicity
 _atom_site_fract_x
 _atom_site_fract_y
 _atom_site_fract_z
 _atom_site_occupancy
  Zn  Zn0  1  0.82901000  0.70499000  0.95961000  1.0
  Zn  Zn1  1  0.32892000  0.66444000  0.04029000  1.0
  Zn  Zn2  1  0.71533000  0.08720000  0.16977000  1.0
  Zn  Zn3  1  0.21546000  0.25701000  0.83027000  1.0
  H  H4  1  0.91094000  0.95023000  0.03954000  1.0
  H  H5  1  0.41137000  0.98968000  0.96035000  1.0
  H  H6  1  0.57400000  0.91009000  0.41400000  1.0
  H  H7  1  0.07402000  0.32422000  0.58600000  1.0
  H  H8  1  0.43777000  0.06442000  0.71026000  1.0
  H  H9  1  0.93765000  0.77451000  0.28943000  1.0
  H  H10  1  0.87943000  0.00893000  0.43720000  1.0
  H  H11  1  0.37945000  0.44602000  0.56291000  1.0
  H  H12  1  0.38927000  0.87801000  0.15536000  1.0
  H  H13  1  0.88960000  0.03344000  0.84458000  1.0
  H  H14  1  0.22149000  0.06186000  0.60416000  1.0
  H  H15  1  0.72172000  0.66607000  0.39572000  1.0
  H  H16  1  0.18521000  0.62248000  0.71030000  1.0
  H  H17  1  0.68508000  0.33243000  0.28986000  1.0
  H  H18  1  0.41229000  0.62620000  0.81209000  1.0
  H  H19  1  0.91204000  0.43764000  0.18797000  1.0
  H  H20  1  0.41836000  0.82578000  0.54378000  1.0
  H  H21  1  0.91845000  0.37001000  0.45620000  1.0
  H  H22  1  0.10874000  0.07260000  0.19218000  1.0
  H  H23  1  0.60886000  0.26510000  0.80783000  1.0
  H  H24  1  0.03788000  0.93745000  0.17361000  1.0
  H  H25  1  0.53809000  0.11139000  0.82632000  1.0
  H  H26  1  0.89103000  0.48398000  0.85519000  1.0
  H  H27  1  0.39094000  0.33912000  0.14474000  1.0
  H  H28  1  0.03562000  0.09273000  0.30938000  1.0
  H  H29  1  0.53567000  0.40199000  0.69072000  1.0
  H  H30  1  0.44474000  0.39745000  0.94658000  1.0
  H  H31  1  0.94497000  0.34393000  0.05366000  1.0
  C  C32  1  0.77646000  0.91000000  0.05869000  1.0
  C  C33  1  0.27684000  0.96868000  0.94123000  1.0
  C  C34  1  0.13810000  0.91224000  0.50056000  1.0
  C  C35  1  0.63815000  0.41301000  0.49948000  1.0
  C  C36  1  0.57696000  0.84274000  0.83128000  1.0
  C  C37  1  0.07655000  0.67376000  0.16852000  1.0
  C  C38  1  0.18485000  0.84273000  0.64932000  1.0
  C  C39  1  0.68487000  0.49190000  0.35073000  1.0
  C  C40  1  0.86451000  0.93852000  0.59705000  1.0
  C  C41  1  0.36460000  0.53598000  0.40298000  1.0
  C  C42  1  0.42193000  0.93196000  0.41977000  1.0
  C  C43  1  0.92193000  0.35182000  0.58028000  1.0
  C  C44  1  0.43748000  0.84473000  0.76897000  1.0
  C  C45  1  0.93717000  0.61335000  0.23087000  1.0
  C  C46  1  0.99038000  0.70570000  0.58215000  1.0
  C  C47  1  0.49008000  0.28809000  0.41793000  1.0
  C  C48  1  0.38098000  0.96788000  0.71045000  1.0
  C  C49  1  0.88085000  0.67811000  0.28936000  1.0
  C  C50  1  0.03180000  0.98679000  0.43349000  1.0
  C  C51  1  0.53185000  0.42022000  0.56661000  1.0
  C  C52  1  0.51286000  0.87277000  0.11861000  1.0
  C  C53  1  0.01319000  0.99145000  0.88132000  1.0
  C  C54  1  0.04755000  0.85059000  0.58180000  1.0
  C  C55  1  0.54751000  0.43258000  0.41826000  1.0
  C  C56  1  0.25822000  0.96630000  0.65083000  1.0
  C  C57  1  0.75830000  0.61701000  0.34910000  1.0
  C  C58  1  0.23865000  0.72043000  0.70880000  1.0
  C  C59  1  0.73853000  0.42890000  0.29128000  1.0
  C  C60  1  0.36588000  0.72172000  0.76712000  1.0
  C  C61  1  0.86571000  0.48836000  0.23289000  1.0
  C  C62  1  0.33385000  0.88509000  0.49264000  1.0
  C  C63  1  0.83394000  0.37804000  0.50738000  1.0
  C  C64  1  0.31624000  0.00628000  0.35270000  1.0
  C  C65  1  0.81629000  0.35893000  0.64738000  1.0
  C  C66  1  0.01873000  0.48684000  0.88689000  1.0
  C  C67  1  0.51873000  0.37360000  0.11310000  1.0
  C  C68  1  0.12034000  0.03365000  0.36054000  1.0
  C  C69  1  0.62039000  0.39414000  0.63955000  1.0
  C  C70  1  0.29978000  0.44223000  0.93397000  1.0
  C  C71  1  0.79992000  0.37610000  0.06617000  1.0
  C  C72  1  0.41221000  0.05574000  0.27445000  1.0
  C  C73  1  0.91233000  0.33021000  0.72561000  1.0
  N  N74  1  0.70737000  0.80993000  0.03565000  1.0
  N  N75  1  0.20762000  0.84560000  0.96428000  1.0
  N  N76  1  0.65944000  0.95253000  0.11083000  1.0
  N  N77  1  0.15985000  0.06336000  0.88910000  1.0
  N  N78  1  0.03698000  0.56992000  0.93208000  1.0
  N  N79  1  0.53701000  0.50186000  0.06791000  1.0
  N  N80  1  0.21684000  0.54238000  0.96234000  1.0
  N  N81  1  0.71696000  0.50459000  0.03773000  1.0
  N  N82  1  0.18112000  0.40395000  0.88636000  1.0
  N  N83  1  0.68117000  0.29021000  0.11371000  1.0
  N  N84  1  0.53668000  0.78646000  0.07386000  1.0
  N  N85  1  0.03690000  0.86043000  0.92608000  1.0
  O  O86  1  0.62498000  0.95494000  0.83961000  1.0
  O  O87  1  0.12457000  0.79428000  0.16026000  1.0
  O  O88  1  0.64249000  0.72182000  0.87436000  1.0
  O  O89  1  0.14210000  0.59599000  0.12540000  1.0
  O  O90  1  0.99622000  0.03604000  0.17388000  1.0
  O  O91  1  0.49634000  0.21023000  0.82609000  1.0
  O  O92  1  0.59541000  0.04145000  0.27515000  1.0
  O  O93  1  0.09552000  0.31655000  0.72490000  1.0
  O  O94  1  0.31687000  0.10825000  0.21154000  1.0
  O  O95  1  0.81698000  0.31992000  0.78850000  1.0
  F  F96  1  0.88447000  0.71164000  0.51790000  1.0
  F  F97  1  0.38379000  0.23006000  0.48210000  1.0
  F  F98  1  0.71014000  0.92419000  0.55678000  1.0
  F  F99  1  0.21000000  0.48147000  0.44310000  1.0
  F  F100  1  0.14622000  0.61651000  0.58054000  1.0
  F  F101  1  0.64576000  0.19706000  0.41973000  1.0
  F  F102  1  0.88875000  0.07595000  0.57545000  1.0
  F  F103  1  0.38905000  0.65159000  0.42478000  1.0
  F  F104  1  0.81741000  0.90240000  0.67503000  1.0
  F  F105  1  0.31774000  0.57816000  0.32497000  1.0
  F  F106  1  0.88711000  0.64734000  0.64743000  1.0
  F  F107  1  0.38705000  0.29498000  0.35257000  1.0
