# generated using pymatgen
data_AgH16C12S2NO4
_symmetry_space_group_name_H-M   'P 1'
_cell_length_a   7.50736000
_cell_length_b   9.41360000
_cell_length_c   10.97238327
_cell_angle_alpha   115.40061676
_cell_angle_beta   89.99998579
_cell_angle_gamma   89.99990000
_symmetry_Int_Tables_number   1
_chemical_formula_structural   AgH16C12S2NO4
_chemical_formula_sum   'Ag2 H32 C24 S4 N2 O8'
_cell_volume   700.47188724
_cell_formula_units_Z   2
loop_
 _symmetry_equiv_pos_site_id
 _symmetry_equiv_pos_as_xyz
  1  'x, y, z'
loop_
 _atom_site_type_symbol
 _atom_site_label
 _atom_site_symmetry_multiplicity
 _atom_site_fract_x
 _atom_site_fract_y
 _atom_site_fract_z
 _atom_site_occupancy
  Ag  Ag0  1  0.74306000  0.83155000  0.66356000  1.0
  Ag  Ag1  1  0.24306000  0.16845000  0.33644000  1.0
  H  H2  1  0.74292000  0.18317000  0.90867000  1.0
  H  H3  1  0.24292000  0.81683000  0.09133000  1.0
  H  H4  1  0.74260000  0.72520000  0.90868000  1.0
  H  H5  1  0.24261000  0.27480000  0.09132000  1.0
  H  H6  1  0.52973000  0.10166000  0.90506000  1.0
  H  H7  1  0.02973000  0.89833000  0.09494000  1.0
  H  H8  1  0.52938000  0.80307000  0.90509000  1.0
  H  H9  1  0.02938000  0.19693000  0.09491000  1.0
  H  H10  1  0.37960000  0.33207000  0.89853000  1.0
  H  H11  1  0.87961000  0.66792000  0.10147000  1.0
  H  H12  1  0.37945000  0.56597000  0.89852000  1.0
  H  H13  1  0.87946000  0.43403000  0.10148000  1.0
  H  H14  1  0.52122000  0.38674000  0.04176000  1.0
  H  H15  1  0.02122000  0.61326000  0.95824000  1.0
  H  H16  1  0.52100000  0.65464000  0.04172000  1.0
  H  H17  1  0.02100000  0.34535000  0.95828000  1.0
  H  H18  1  0.33043000  0.98692000  0.68364000  1.0
  H  H19  1  0.83043000  0.01308000  0.31636000  1.0
  H  H20  1  0.33005000  0.69637000  0.68370000  1.0
  H  H21  1  0.83005000  0.30363000  0.31630000  1.0
  H  H22  1  0.41121000  0.96096000  0.52414000  1.0
  H  H23  1  0.91121000  0.03904000  0.47586000  1.0
  H  H24  1  0.41083000  0.56290000  0.52418000  1.0
  H  H25  1  0.91083000  0.43709000  0.47581000  1.0
  H  H26  1  0.52548000  0.29711000  0.59443000  1.0
  H  H27  1  0.02548000  0.70289000  0.40557000  1.0
  H  H28  1  0.04886000  0.11819000  0.69590000  1.0
  H  H29  1  0.54886000  0.88181000  0.30410000  1.0
  H  H30  1  0.04856000  0.57703000  0.69595000  1.0
  H  H31  1  0.54857000  0.42297000  0.30405000  1.0
  H  H32  1  0.88571000  0.36061000  0.72201000  1.0
  H  H33  1  0.38572000  0.63939000  0.27799000  1.0
  C  C34  1  0.60569000  0.17911000  0.87259000  1.0
  C  C35  1  0.10569000  0.82089000  0.12741000  1.0
  C  C36  1  0.60540000  0.69316000  0.87257000  1.0
  C  C37  1  0.10540000  0.30684000  0.12743000  1.0
  C  C38  1  0.52016000  0.34030000  0.93047000  1.0
  C  C39  1  0.02017000  0.65970000  0.06953000  1.0
  C  C40  1  0.52002000  0.58980000  0.93045000  1.0
  C  C41  1  0.02002000  0.41020000  0.06955000  1.0
  C  C42  1  0.39795000  0.04673000  0.63019000  1.0
  C  C43  1  0.89796000  0.95328000  0.36982000  1.0
  C  C44  1  0.39760000  0.58311000  0.63025000  1.0
  C  C45  1  0.89760000  0.41688000  0.36975000  1.0
  C  C46  1  0.29805000  0.19134000  0.64257000  1.0
  C  C47  1  0.79806000  0.80866000  0.35743000  1.0
  C  C48  1  0.29790000  0.45082000  0.64264000  1.0
  C  C49  1  0.79790000  0.54918000  0.35736000  1.0
  C  C50  1  0.38441000  0.31002000  0.62039000  1.0
  C  C51  1  0.88441000  0.68998000  0.37961000  1.0
  C  C52  1  0.11748000  0.21069000  0.67938000  1.0
  C  C53  1  0.61749000  0.78931000  0.32062000  1.0
  C  C54  1  0.11732000  0.46804000  0.67940000  1.0
  C  C55  1  0.61732000  0.53195000  0.32060000  1.0
  C  C56  1  0.02672000  0.34711000  0.69495000  1.0
  C  C57  1  0.52672000  0.65289000  0.30505000  1.0
  S  S58  1  0.62796000  0.08590000  0.68914000  1.0
  S  S59  1  0.12796000  0.91410000  0.31086000  1.0
  S  S60  1  0.62763000  0.60291000  0.68914000  1.0
  S  S61  1  0.12764000  0.39709000  0.31086000  1.0
  N  N62  1  0.08888000  0.90481000  0.80981000  1.0
  N  N63  1  0.58889000  0.09519000  0.19019000  1.0
  O  O64  1  0.61360000  0.44475000  0.88979000  1.0
  O  O65  1  0.11360000  0.55525000  0.11021000  1.0
  O  O66  1  0.95272000  0.94244000  0.88534000  1.0
  O  O67  1  0.45272000  0.05757000  0.11466000  1.0
  O  O68  1  0.06724000  0.84013000  0.68031000  1.0
  O  O69  1  0.56724000  0.15987000  0.31969000  1.0
  O  O70  1  0.24393000  0.92870000  0.85744000  1.0
  O  O71  1  0.74394000  0.07130000  0.14256000  1.0
