# generated using pymatgen
data_AgH12C12N3O2
_symmetry_space_group_name_H-M   'P 1'
_cell_length_a   8.01272000
_cell_length_b   8.77083000
_cell_length_c   17.15000000
_cell_angle_alpha   90.00000000
_cell_angle_beta   90.00000000
_cell_angle_gamma   98.16930000
_symmetry_Int_Tables_number   1
_chemical_formula_structural   AgH12C12N3O2
_chemical_formula_sum   'Ag4 H48 C48 N12 O8'
_cell_volume   1193.04073947
_cell_formula_units_Z   4
loop_
 _symmetry_equiv_pos_site_id
 _symmetry_equiv_pos_as_xyz
  1  'x, y, z'
loop_
 _atom_site_type_symbol
 _atom_site_label
 _atom_site_symmetry_multiplicity
 _atom_site_fract_x
 _atom_site_fract_y
 _atom_site_fract_z
 _atom_site_occupancy
  Ag  Ag0  1  0.65380000  0.87269000  0.54104000  1.0
  Ag  Ag1  1  0.34620000  0.62731000  0.04104000  1.0
  Ag  Ag2  1  0.34620000  0.12731000  0.45896000  1.0
  Ag  Ag3  1  0.65380000  0.37269000  0.95896000  1.0
  H  H4  1  0.06669000  0.90833000  0.54951000  1.0
  H  H5  1  0.93331000  0.59166000  0.04951000  1.0
  H  H6  1  0.93330000  0.09166000  0.45049000  1.0
  H  H7  1  0.06669000  0.40833000  0.95049000  1.0
  H  H8  1  0.23979000  0.08382000  0.77423000  1.0
  H  H9  1  0.76020000  0.41617000  0.27423000  1.0
  H  H10  1  0.76020000  0.91617000  0.22577000  1.0
  H  H11  1  0.23979000  0.58383000  0.72577000  1.0
  H  H12  1  0.94300000  0.13328000  0.80167000  1.0
  H  H13  1  0.05700000  0.36673000  0.30168000  1.0
  H  H14  1  0.05699000  0.86672000  0.19833000  1.0
  H  H15  1  0.94300000  0.63327000  0.69833000  1.0
  H  H16  1  0.72140000  0.05819000  0.70093000  1.0
  H  H17  1  0.27860000  0.44181000  0.20093000  1.0
  H  H18  1  0.27860000  0.94180000  0.29907000  1.0
  H  H19  1  0.72139000  0.55819000  0.79907000  1.0
  H  H20  1  0.82390000  0.33668000  0.45041000  1.0
  H  H21  1  0.17610000  0.16332000  0.95041000  1.0
  H  H22  1  0.17610000  0.66332000  0.54959000  1.0
  H  H23  1  0.82390000  0.83668000  0.04959000  1.0
  H  H24  1  0.70489000  0.18559000  0.56672000  1.0
  H  H25  1  0.29510000  0.31442000  0.06672000  1.0
  H  H26  1  0.29511000  0.81442000  0.43329000  1.0
  H  H27  1  0.70489000  0.68559000  0.93328000  1.0
  H  H28  1  0.57569000  0.32212000  0.67467000  1.0
  H  H29  1  0.42431000  0.17789000  0.17467000  1.0
  H  H30  1  0.42431000  0.67789000  0.32534000  1.0
  H  H31  1  0.57569000  0.82212000  0.82534000  1.0
  H  H32  1  0.71700000  0.67988000  0.39174000  1.0
  H  H33  1  0.28300000  0.82012000  0.89174000  1.0
  H  H34  1  0.28300000  0.32012000  0.60826000  1.0
  H  H35  1  0.71700000  0.17988000  0.10827000  1.0
  H  H36  1  0.89783000  0.58245000  0.38745000  1.0
  H  H37  1  0.10217000  0.91754000  0.88745000  1.0
  H  H38  1  0.10217000  0.41754000  0.61255000  1.0
  H  H39  1  0.89783000  0.08246000  0.11255000  1.0
  H  H40  1  0.90010000  0.75043000  0.44565000  1.0
  H  H41  1  0.09991000  0.74957000  0.94565000  1.0
  H  H42  1  0.09990000  0.24957000  0.55435000  1.0
  H  H43  1  0.90010000  0.25043000  0.05435000  1.0
  H  H44  1  0.53447000  0.73217000  0.66788000  1.0
  H  H45  1  0.46553000  0.76784000  0.16788000  1.0
  H  H46  1  0.46553000  0.26784000  0.33212000  1.0
  H  H47  1  0.53447000  0.23217000  0.83212000  1.0
  H  H48  1  0.49828000  0.55649000  0.72008000  1.0
  H  H49  1  0.50172000  0.94352000  0.22009000  1.0
  H  H50  1  0.50172000  0.44352000  0.27992000  1.0
  H  H51  1  0.49828000  0.05649000  0.77992000  1.0
  C  C52  1  0.04302000  0.95747000  0.60627000  1.0
  C  C53  1  0.95698000  0.54253000  0.10627000  1.0
  C  C54  1  0.95698000  0.04253000  0.39373000  1.0
  C  C55  1  0.04302000  0.45746000  0.89373000  1.0
  C  C56  1  0.17562000  0.99267000  0.65926000  1.0
  C  C57  1  0.82438000  0.50732000  0.15926000  1.0
  C  C58  1  0.82438000  0.00731000  0.34074000  1.0
  C  C59  1  0.17562000  0.49268000  0.84074000  1.0
  C  C60  1  0.13990000  0.05568000  0.73133000  1.0
  C  C61  1  0.86011000  0.44432000  0.23133000  1.0
  C  C62  1  0.86010000  0.94431000  0.26867000  1.0
  C  C63  1  0.13990000  0.55568000  0.76867000  1.0
  C  C64  1  0.97613000  0.08276000  0.74675000  1.0
  C  C65  1  0.02388000  0.41724000  0.24676000  1.0
  C  C66  1  0.02389000  0.91723000  0.25325000  1.0
  C  C67  1  0.97610000  0.58276000  0.75324000  1.0
  C  C68  1  0.85198000  0.04272000  0.69062000  1.0
  C  C69  1  0.14802000  0.45728000  0.19062000  1.0
  C  C70  1  0.14801000  0.95727000  0.30938000  1.0
  C  C71  1  0.85199000  0.54271000  0.80938000  1.0
  C  C72  1  0.35008000  0.96096000  0.63877000  1.0
  C  C73  1  0.64993000  0.53903000  0.13877000  1.0
  C  C74  1  0.64992000  0.03903000  0.36123000  1.0
  C  C75  1  0.35008000  0.46097000  0.86123000  1.0
  C  C76  1  0.75434000  0.54874000  0.49393000  1.0
  C  C77  1  0.24566000  0.95126000  0.99393000  1.0
  C  C78  1  0.24565000  0.45126000  0.50607000  1.0
  C  C79  1  0.75434000  0.04874000  0.00607000  1.0
  C  C80  1  0.76564000  0.39239000  0.49783000  1.0
  C  C81  1  0.23436000  0.10761000  0.99783000  1.0
  C  C82  1  0.23436000  0.60761000  0.50217000  1.0
  C  C83  1  0.76564000  0.89239000  0.00217000  1.0
  C  C84  1  0.69926000  0.30880000  0.56310000  1.0
  C  C85  1  0.30074000  0.19120000  0.06310000  1.0
  C  C86  1  0.30074000  0.69120000  0.43690000  1.0
  C  C87  1  0.69926000  0.80880000  0.93690000  1.0
  C  C88  1  0.62652000  0.38272000  0.62249000  1.0
  C  C89  1  0.37348000  0.11728000  0.12249000  1.0
  C  C90  1  0.37348000  0.61728000  0.37751000  1.0
  C  C91  1  0.62652000  0.88272000  0.87750000  1.0
  C  C92  1  0.61682000  0.54221000  0.61498000  1.0
  C  C93  1  0.38318000  0.95780000  0.11498000  1.0
  C  C94  1  0.38318000  0.45779000  0.38502000  1.0
  C  C95  1  0.61683000  0.04222000  0.88502000  1.0
  C  C96  1  0.82148000  0.64470000  0.42575000  1.0
  C  C97  1  0.17852000  0.85530000  0.92575000  1.0
  C  C98  1  0.17852000  0.35530000  0.57425000  1.0
  C  C99  1  0.82149000  0.14470000  0.07425000  1.0
  N  N100  1  0.67983000  0.62203000  0.55115000  1.0
  N  N101  1  0.32017000  0.87797000  0.05115000  1.0
  N  N102  1  0.32017000  0.37797000  0.44885000  1.0
  N  N103  1  0.67983000  0.12203000  0.94885000  1.0
  N  N104  1  0.54486000  0.61757000  0.67195000  1.0
  N  N105  1  0.45514000  0.88243000  0.17195000  1.0
  N  N106  1  0.45515000  0.38243000  0.32805000  1.0
  N  N107  1  0.54486000  0.11757000  0.82805000  1.0
  N  N108  1  0.88395000  0.98032000  0.62140000  1.0
  N  N109  1  0.11606000  0.51968000  0.12141000  1.0
  N  N110  1  0.11606000  0.01968000  0.37859000  1.0
  N  N111  1  0.88393000  0.48032000  0.87859000  1.0
  O  O112  1  0.38902000  0.96107000  0.56655000  1.0
  O  O113  1  0.61099000  0.53893000  0.06655000  1.0
  O  O114  1  0.61099000  0.03893000  0.43344000  1.0
  O  O115  1  0.38901000  0.46108000  0.93345000  1.0
  O  O116  1  0.44657000  0.93255000  0.69387000  1.0
  O  O117  1  0.55343000  0.56745000  0.19388000  1.0
  O  O118  1  0.55343000  0.06745000  0.30613000  1.0
  O  O119  1  0.44657000  0.43256000  0.80613000  1.0
