# generated using pymatgen
data_CdH20C30SN4O7
_symmetry_space_group_name_H-M   'P 1'
_cell_length_a   10.60980000
_cell_length_b   12.08770000
_cell_length_c   13.54960000
_cell_angle_alpha   90.53920000
_cell_angle_beta   112.52900000
_cell_angle_gamma   111.21700000
_symmetry_Int_Tables_number   1
_chemical_formula_structural   CdH20C30SN4O7
_chemical_formula_sum   'Cd2 H40 C60 S2 N8 O14'
_cell_volume   1474.00897218
_cell_formula_units_Z   2
loop_
 _symmetry_equiv_pos_site_id
 _symmetry_equiv_pos_as_xyz
  1  'x, y, z'
loop_
 _atom_site_type_symbol
 _atom_site_label
 _atom_site_symmetry_multiplicity
 _atom_site_fract_x
 _atom_site_fract_y
 _atom_site_fract_z
 _atom_site_occupancy
  Cd  Cd0  1  0.49552000  0.50921000  0.81249000  1.0
  Cd  Cd1  1  0.50446000  0.49078000  0.18750000  1.0
  H  H2  1  0.44565000  0.66333000  0.97900000  1.0
  H  H3  1  0.55435000  0.33666000  0.02100000  1.0
  H  H4  1  0.45831000  0.78980000  0.10973000  1.0
  H  H5  1  0.54170000  0.21020000  0.89028000  1.0
  H  H6  1  0.80218000  0.72571000  0.57633000  1.0
  H  H7  1  0.19781000  0.27429000  0.42367000  1.0
  H  H8  1  0.78069000  0.02556000  0.07947000  1.0
  H  H9  1  0.21933000  0.97441000  0.92054000  1.0
  H  H10  1  0.88157000  0.97056000  0.95446000  1.0
  H  H11  1  0.11844000  0.02941000  0.04554000  1.0
  H  H12  1  0.76125000  0.75912000  0.85177000  1.0
  H  H13  1  0.23875000  0.24086000  0.14824000  1.0
  H  H14  1  0.40436000  0.78238000  0.23615000  1.0
  H  H15  1  0.59563000  0.21762000  0.76385000  1.0
  H  H16  1  0.28086000  0.79728000  0.35542000  1.0
  H  H17  1  0.71911000  0.20272000  0.64456000  1.0
  H  H18  1  0.44465000  0.18117000  0.37336000  1.0
  H  H19  1  0.55537000  0.81884000  0.62664000  1.0
  H  H20  1  0.56773000  0.16654000  0.25120000  1.0
  H  H21  1  0.43232000  0.83347000  0.74882000  1.0
  H  H22  1  0.06044000  0.88711000  0.26016000  1.0
  H  H23  1  0.93954000  0.11292000  0.73984000  1.0
  H  H24  1  0.80910000  0.76970000  0.25328000  1.0
  H  H25  1  0.19088000  0.23031000  0.74672000  1.0
  H  H26  1  0.99195000  0.85005000  0.60373000  1.0
  H  H27  1  0.00807000  0.14994000  0.39627000  1.0
  H  H28  1  0.23792000  0.96464000  0.60902000  1.0
  H  H29  1  0.76207000  0.03536000  0.39096000  1.0
  H  H30  1  0.68896000  0.62348000  0.68192000  1.0
  H  H31  1  0.31103000  0.37651000  0.31807000  1.0
  H  H32  1  0.24329000  0.53902000  0.59821000  1.0
  H  H33  1  0.75669000  0.46098000  0.40177000  1.0
  H  H34  1  0.20504000  0.59097000  0.41142000  1.0
  H  H35  1  0.79495000  0.40904000  0.58857000  1.0
  H  H36  1  0.42413000  0.66726000  0.36343000  1.0
  H  H37  1  0.57588000  0.33277000  0.63657000  1.0
  H  H38  1  0.86208000  0.27397000  0.96277000  1.0
  H  H39  1  0.13793000  0.72604000  0.03725000  1.0
  H  H40  1  0.10782000  0.28217000  0.94601000  1.0
  H  H41  1  0.89220000  0.71786000  0.05403000  1.0
  C  C42  1  0.54269000  0.73354000  0.97563000  1.0
  C  C43  1  0.45731000  0.26645000  0.02438000  1.0
  C  C44  1  0.60582000  0.84835000  0.03973000  1.0
  C  C45  1  0.39418000  0.15164000  0.96028000  1.0
  C  C46  1  0.73093000  0.93577000  0.03229000  1.0
  C  C47  1  0.26907000  0.06420000  0.96772000  1.0
  C  C48  1  0.78626000  0.90417000  0.96325000  1.0
  C  C49  1  0.21375000  0.09580000  0.03675000  1.0
  C  C50  1  0.71910000  0.78817000  0.90449000  1.0
  C  C51  1  0.28090000  0.21181000  0.09551000  1.0
  C  C52  1  0.57625000  0.97477000  0.16660000  1.0
  C  C53  1  0.42377000  0.02523000  0.83340000  1.0
  C  C54  1  0.49255000  0.97371000  0.23412000  1.0
  C  C55  1  0.50746000  0.02630000  0.76588000  1.0
  C  C56  1  0.41104000  0.87005000  0.26362000  1.0
  C  C57  1  0.58896000  0.12996000  0.73638000  1.0
  C  C58  1  0.34230000  0.87767000  0.33137000  1.0
  C  C59  1  0.65770000  0.12234000  0.66862000  1.0
  C  C60  1  0.35620000  0.99061000  0.37061000  1.0
  C  C61  1  0.64380000  0.00939000  0.62939000  1.0
  C  C62  1  0.43625000  0.09470000  0.34172000  1.0
  C  C63  1  0.56377000  0.90530000  0.65829000  1.0
  C  C64  1  0.50402000  0.08618000  0.27407000  1.0
  C  C65  1  0.49600000  0.91382000  0.72595000  1.0
  C  C66  1  0.16373000  0.93274000  0.43555000  1.0
  C  C67  1  0.83626000  0.06727000  0.56444000  1.0
  C  C68  1  0.04398000  0.87802000  0.33471000  1.0
  C  C69  1  0.95600000  0.12199000  0.66528000  1.0
  C  C70  1  0.90388000  0.81223000  0.33096000  1.0
  C  C71  1  0.09611000  0.18777000  0.66903000  1.0
  C  C72  1  0.88110000  0.79905000  0.42651000  1.0
  C  C73  1  0.11888000  0.20095000  0.57348000  1.0
  C  C74  1  0.00313000  0.85452000  0.52689000  1.0
  C  C75  1  0.99686000  0.14548000  0.47310000  1.0
  C  C76  1  0.14347000  0.92095000  0.53171000  1.0
  C  C77  1  0.85652000  0.07905000  0.46828000  1.0
  C  C78  1  0.72667000  0.73054000  0.41383000  1.0
  C  C79  1  0.27332000  0.26946000  0.58617000  1.0
  C  C80  1  0.57576000  0.65765000  0.52074000  1.0
  C  C81  1  0.42423000  0.34235000  0.47926000  1.0
  C  C82  1  0.58454000  0.62116000  0.62029000  1.0
  C  C83  1  0.41545000  0.37883000  0.37970000  1.0
  C  C84  1  0.33369000  0.57094000  0.57209000  1.0
  C  C85  1  0.66630000  0.42907000  0.42789000  1.0
  C  C86  1  0.31499000  0.60158000  0.47010000  1.0
  C  C87  1  0.68500000  0.39843000  0.52989000  1.0
  C  C88  1  0.43590000  0.64439000  0.44271000  1.0
  C  C89  1  0.56410000  0.35563000  0.55728000  1.0
  C  C90  1  0.74220000  0.44625000  0.86354000  1.0
  C  C91  1  0.25780000  0.55376000  0.13646000  1.0
  C  C92  1  0.87054000  0.42055000  0.87058000  1.0
  C  C93  1  0.12945000  0.57945000  0.12942000  1.0
  C  C94  1  0.91874000  0.33490000  0.92044000  1.0
  C  C95  1  0.08126000  0.66511000  0.07957000  1.0
  C  C96  1  0.04857000  0.33907000  0.91157000  1.0
  C  C97  1  0.95144000  0.66094000  0.08845000  1.0
  C  C98  1  0.09680000  0.42676000  0.85408000  1.0
  C  C99  1  0.90320000  0.57325000  0.14593000  1.0
  C  C100  1  0.22676000  0.45899000  0.82707000  1.0
  C  C101  1  0.77324000  0.54100000  0.17295000  1.0
  S  S102  1  0.98384000  0.50470000  0.81209000  1.0
  S  S103  1  0.01615000  0.49530000  0.18791000  1.0
  N  N104  1  0.59874000  0.70479000  0.91108000  1.0
  N  N105  1  0.40125000  0.29520000  0.08892000  1.0
  N  N106  1  0.53996000  0.86658000  0.10646000  1.0
  N  N107  1  0.46006000  0.13341000  0.89355000  1.0
  N  N108  1  0.70834000  0.70727000  0.50780000  1.0
  N  N109  1  0.29165000  0.29273000  0.49220000  1.0
  N  N110  1  0.46693000  0.57913000  0.64504000  1.0
  N  N111  1  0.53305000  0.42086000  0.35495000  1.0
  O  O112  1  0.72907000  0.53830000  0.82126000  1.0
  O  O113  1  0.27092000  0.46171000  0.17873000  1.0
  O  O114  1  0.64817000  0.37722000  0.89559000  1.0
  O  O115  1  0.35184000  0.62279000  0.10442000  1.0
  O  O116  1  0.32486000  0.41648000  0.87773000  1.0
  O  O117  1  0.67514000  0.58352000  0.12230000  1.0
  O  O118  1  0.23664000  0.52648000  0.75739000  1.0
  O  O119  1  0.76336000  0.47349000  0.24261000  1.0
  O  O120  1  0.67365000  0.07053000  0.16649000  1.0
  O  O121  1  0.32638000  0.92946000  0.83351000  1.0
  O  O122  1  0.30353000  0.00694000  0.44650000  1.0
  O  O123  1  0.69645000  0.99307000  0.55349000  1.0
  O  O124  1  0.61898000  0.69636000  0.32351000  1.0
  O  O125  1  0.38101000  0.30364000  0.67649000  1.0
