# generated using pymatgen
data_CdH8C10I2(NCl)2
_symmetry_space_group_name_H-M   'P 1'
_cell_length_a   4.17086000
_cell_length_b   12.38020000
_cell_length_c   14.51770000
_cell_angle_alpha   89.99940000
_cell_angle_beta   90.00000000
_cell_angle_gamma   94.51880000
_symmetry_Int_Tables_number   1
_chemical_formula_structural   CdH8C10I2(NCl)2
_chemical_formula_sum   'Cd2 H16 C20 I4 N4 Cl4'
_cell_volume   747.30691259
_cell_formula_units_Z   2
loop_
 _symmetry_equiv_pos_site_id
 _symmetry_equiv_pos_as_xyz
  1  'x, y, z'
loop_
 _atom_site_type_symbol
 _atom_site_label
 _atom_site_symmetry_multiplicity
 _atom_site_fract_x
 _atom_site_fract_y
 _atom_site_fract_z
 _atom_site_occupancy
  Cd  Cd0  1  0.00001000  0.00000000  0.00000000  1.0
  Cd  Cd1  1  0.00000000  0.50000000  0.50000000  1.0
  H  H2  1  0.22083000  0.89765000  0.19699000  1.0
  H  H3  1  0.22082000  0.39764000  0.30301000  1.0
  H  H4  1  0.77919000  0.10235000  0.80302000  1.0
  H  H5  1  0.77915000  0.60236000  0.69698000  1.0
  H  H6  1  0.04355000  0.10477000  0.42850000  1.0
  H  H7  1  0.04351000  0.60476000  0.07150000  1.0
  H  H8  1  0.95643000  0.89523000  0.57151000  1.0
  H  H9  1  0.95649000  0.39525000  0.92850000  1.0
  H  H10  1  0.82494000  0.23401000  0.31653000  1.0
  H  H11  1  0.82492000  0.73400000  0.18348000  1.0
  H  H12  1  0.17503000  0.76598000  0.68348000  1.0
  H  H13  1  0.17509000  0.26601000  0.81653000  1.0
  H  H14  1  0.82103000  0.18835000  0.14766000  1.0
  H  H15  1  0.82104000  0.68833000  0.35234000  1.0
  H  H16  1  0.17896000  0.81165000  0.85234000  1.0
  H  H17  1  0.17898000  0.31167000  0.64766000  1.0
  C  C18  1  0.13367000  0.97129000  0.22576000  1.0
  C  C19  1  0.13364000  0.47128000  0.27424000  1.0
  C  C20  1  0.86634000  0.02871000  0.77424000  1.0
  C  C21  1  0.86635000  0.52872000  0.72576000  1.0
  C  C22  1  0.14788000  0.99195000  0.32026000  1.0
  C  C23  1  0.14785000  0.49194000  0.17974000  1.0
  C  C24  1  0.85213000  0.00805000  0.67975000  1.0
  C  C25  1  0.85214000  0.50807000  0.82025000  1.0
  C  C26  1  0.03633000  0.08709000  0.35493000  1.0
  C  C27  1  0.03630000  0.58708000  0.14507000  1.0
  C  C28  1  0.96365000  0.91291000  0.64508000  1.0
  C  C29  1  0.96370000  0.41293000  0.85493000  1.0
  C  C30  1  0.91700000  0.15909000  0.29219000  1.0
  C  C31  1  0.91697000  0.65909000  0.20781000  1.0
  C  C32  1  0.08299000  0.84090000  0.70781000  1.0
  C  C33  1  0.08304000  0.34092000  0.79218000  1.0
  C  C34  1  0.91298000  0.13400000  0.19868000  1.0
  C  C35  1  0.91298000  0.63399000  0.30133000  1.0
  C  C36  1  0.08702000  0.86600000  0.80133000  1.0
  C  C37  1  0.08704000  0.36602000  0.69867000  1.0
  I  I38  1  0.52739000  0.16913000  0.97150000  1.0
  I  I39  1  0.52739000  0.66913000  0.52850000  1.0
  I  I40  1  0.47262000  0.83087000  0.02851000  1.0
  I  I41  1  0.47261000  0.33087000  0.47150000  1.0
  N  N42  1  0.01803000  0.04132000  0.16619000  1.0
  N  N43  1  0.01803000  0.54131000  0.33381000  1.0
  N  N44  1  0.98197000  0.95868000  0.83382000  1.0
  N  N45  1  0.98197000  0.45868000  0.66619000  1.0
  Cl  Cl46  1  0.30262000  0.89787000  0.39258000  1.0
  Cl  Cl47  1  0.30258000  0.39785000  0.10742000  1.0
  Cl  Cl48  1  0.69739000  0.10214000  0.60743000  1.0
  Cl  Cl49  1  0.69741000  0.60215000  0.89257000  1.0
