# generated using pymatgen
data_CaH14C12(NO4)2
_symmetry_space_group_name_H-M   'P 1'
_cell_length_a   6.63999000
_cell_length_b   8.67928000
_cell_length_c   13.30107350
_cell_angle_alpha   86.04831311
_cell_angle_beta   75.58450328
_cell_angle_gamma   73.92360000
_symmetry_Int_Tables_number   1
_chemical_formula_structural   CaH14C12(NO4)2
_chemical_formula_sum   'Ca2 H28 C24 N4 O16'
_cell_volume   713.37801370
_cell_formula_units_Z   2
loop_
 _symmetry_equiv_pos_site_id
 _symmetry_equiv_pos_as_xyz
  1  'x, y, z'
loop_
 _atom_site_type_symbol
 _atom_site_label
 _atom_site_symmetry_multiplicity
 _atom_site_fract_x
 _atom_site_fract_y
 _atom_site_fract_z
 _atom_site_occupancy
  Ca  Ca0  1  0.79682000  0.49987000  0.40629000  1.0
  Ca  Ca1  1  0.20318000  0.50013000  0.59371000  1.0
  H  H2  1  0.69252000  0.92914000  0.29010000  1.0
  H  H3  1  0.01687000  0.07072000  0.29017000  1.0
  H  H4  1  0.30748000  0.07086000  0.70990000  1.0
  H  H5  1  0.98313000  0.92928000  0.70983000  1.0
  H  H6  1  0.46421000  0.04658000  0.44068000  1.0
  H  H7  1  0.09476000  0.95321000  0.44077000  1.0
  H  H8  1  0.53580000  0.95342000  0.55932000  1.0
  H  H9  1  0.90525000  0.04679000  0.55923000  1.0
  H  H10  1  0.32737000  0.20745000  0.37395000  1.0
  H  H11  1  0.29817000  0.79234000  0.37405000  1.0
  H  H12  1  0.67263000  0.79254000  0.62605000  1.0
  H  H13  1  0.70184000  0.20766000  0.62595000  1.0
  H  H14  1  0.64866000  0.22759000  0.99996000  1.0
  H  H15  1  0.35134000  0.77241000  0.00004000  1.0
  H  H16  1  0.76221000  0.77820000  0.16593000  1.0
  H  H17  1  0.07119000  0.22177000  0.16602000  1.0
  H  H18  1  0.23778000  0.22180000  0.83407000  1.0
  H  H19  1  0.92880000  0.77823000  0.83398000  1.0
  H  H20  1  0.90778000  0.63426000  0.99997000  1.0
  H  H21  1  0.09222000  0.36574000  0.00003000  1.0
  H  H22  1  0.61235000  0.43495000  0.23478000  1.0
  H  H23  1  0.15254000  0.56484000  0.23489000  1.0
  H  H24  1  0.38766000  0.56505000  0.76521000  1.0
  H  H25  1  0.84746000  0.43516000  0.76511000  1.0
  H  H26  1  0.50155000  0.61808000  0.24018000  1.0
  H  H27  1  0.25829000  0.38177000  0.24020000  1.0
  H  H28  1  0.49846000  0.38192000  0.75981000  1.0
  H  H29  1  0.74171000  0.61823000  0.75980000  1.0
  C  C30  1  0.61276000  0.24051000  0.40452000  1.0
  C  C31  1  0.98229000  0.75939000  0.40446000  1.0
  C  C32  1  0.38724000  0.75949000  0.59548000  1.0
  C  C33  1  0.01771000  0.24061000  0.59554000  1.0
  C  C34  1  0.48836000  0.13168000  0.37695000  1.0
  C  C35  1  0.13428000  0.86822000  0.37698000  1.0
  C  C36  1  0.51164000  0.86832000  0.62305000  1.0
  C  C37  1  0.86573000  0.13178000  0.62302000  1.0
  C  C38  1  0.59669000  0.11499000  0.19003000  1.0
  C  C39  1  0.21301000  0.88497000  0.19010000  1.0
  C  C40  1  0.40331000  0.88501000  0.80997000  1.0
  C  C41  1  0.78699000  0.11503000  0.80990000  1.0
  C  C42  1  0.69691000  0.01536000  0.09428000  1.0
  C  C43  1  0.20847000  0.98461000  0.09436000  1.0
  C  C44  1  0.30309000  0.98464000  0.90572000  1.0
  C  C45  1  0.79153000  0.01540000  0.90564000  1.0
  C  C46  1  0.70831000  0.09758000  0.99996000  1.0
  C  C47  1  0.29169000  0.90242000  0.00004000  1.0
  C  C48  1  0.77041000  0.84718000  0.09409000  1.0
  C  C49  1  0.13510000  0.15280000  0.09416000  1.0
  C  C50  1  0.22958000  0.15282000  0.90591000  1.0
  C  C51  1  0.86489000  0.84720000  0.90584000  1.0
  C  C52  1  0.85359000  0.76476000  0.99996000  1.0
  C  C53  1  0.14641000  0.23524000  0.00004000  1.0
  N  N54  1  0.59208000  0.04141000  0.28247000  1.0
  N  N55  1  0.12503000  0.95850000  0.28253000  1.0
  N  N56  1  0.40792000  0.95859000  0.71753000  1.0
  N  N57  1  0.87498000  0.04150000  0.71747000  1.0
  O  O58  1  0.51654000  0.33944000  0.47862000  1.0
  O  O59  1  0.00428000  0.66064000  0.47868000  1.0
  O  O60  1  0.48348000  0.66056000  0.52137000  1.0
  O  O61  1  0.99573000  0.33936000  0.52131000  1.0
  O  O62  1  0.80403000  0.23217000  0.35269000  1.0
  O  O63  1  0.84302000  0.76756000  0.35248000  1.0
  O  O64  1  0.19596000  0.76783000  0.64731000  1.0
  O  O65  1  0.15698000  0.23244000  0.64752000  1.0
  O  O66  1  0.51260000  0.26371000  0.18383000  1.0
  O  O67  1  0.30347000  0.73628000  0.18391000  1.0
  O  O68  1  0.48738000  0.73629000  0.81618000  1.0
  O  O69  1  0.69652000  0.26372000  0.81609000  1.0
  O  O70  1  0.61531000  0.53472000  0.26438000  1.0
  O  O71  1  0.12028000  0.46500000  0.26446000  1.0
  O  O72  1  0.38469000  0.46528000  0.73562000  1.0
  O  O73  1  0.87972000  0.53500000  0.73554000  1.0
