# generated using pymatgen
data_CdH28C28(N4Cl)2
_symmetry_space_group_name_H-M   'P 1'
_cell_length_a   7.68692000
_cell_length_b   12.67840000
_cell_length_c   14.46280000
_cell_angle_alpha   89.99990000
_cell_angle_beta   75.03200000
_cell_angle_gamma   89.99990000
_symmetry_Int_Tables_number   1
_chemical_formula_structural   CdH28C28(N4Cl)2
_chemical_formula_sum   'Cd2 H56 C56 N16 Cl4'
_cell_volume   1361.68887564
_cell_formula_units_Z   2
loop_
 _symmetry_equiv_pos_site_id
 _symmetry_equiv_pos_as_xyz
  1  'x, y, z'
loop_
 _atom_site_type_symbol
 _atom_site_label
 _atom_site_symmetry_multiplicity
 _atom_site_fract_x
 _atom_site_fract_y
 _atom_site_fract_z
 _atom_site_occupancy
  Cd  Cd0  1  1.00000000  0.50000000  1.00000000  1.0
  Cd  Cd1  1  0.00000000  0.00000000  0.50000000  1.0
  H  H2  1  0.45655000  0.40508000  0.93764000  1.0
  H  H3  1  0.54344000  0.90508000  0.56236000  1.0
  H  H4  1  0.54345000  0.59492000  0.06236000  1.0
  H  H5  1  0.45656000  0.09492000  0.43765000  1.0
  H  H6  1  0.08249000  0.40209000  0.76914000  1.0
  H  H7  1  0.91750000  0.90209000  0.73086000  1.0
  H  H8  1  0.91750000  0.59791000  0.23086000  1.0
  H  H9  1  0.08250000  0.09791000  0.26914000  1.0
  H  H10  1  0.62349000  0.32610000  0.75821000  1.0
  H  H11  1  0.37651000  0.82610000  0.74179000  1.0
  H  H12  1  0.37651000  0.67390000  0.24179000  1.0
  H  H13  1  0.62349000  0.17390000  0.25821000  1.0
  H  H14  1  0.26078000  0.29381000  0.62558000  1.0
  H  H15  1  0.73922000  0.79381000  0.87442000  1.0
  H  H16  1  0.73922000  0.70619000  0.37441000  1.0
  H  H17  1  0.26078000  0.20619000  0.12558000  1.0
  H  H18  1  0.48858000  0.26175000  0.61656000  1.0
  H  H19  1  0.51142000  0.76175000  0.88345000  1.0
  H  H20  1  0.51142000  0.73825000  0.38344000  1.0
  H  H21  1  0.48858000  0.23825000  0.11655000  1.0
  H  H22  1  0.30941000  0.53864000  0.66307000  1.0
  H  H23  1  0.69060000  0.03864000  0.83693000  1.0
  H  H24  1  0.69059000  0.46136000  0.33693000  1.0
  H  H25  1  0.30941000  0.96136000  0.16307000  1.0
  H  H26  1  0.60093000  0.31666000  0.45414000  1.0
  H  H27  1  0.39907000  0.81666000  0.04585000  1.0
  H  H28  1  0.39907000  0.68334000  0.54585000  1.0
  H  H29  1  0.60094000  0.18334000  0.95415000  1.0
  H  H30  1  0.81239000  0.30336000  0.15782000  1.0
  H  H31  1  0.18760000  0.80337000  0.34218000  1.0
  H  H32  1  0.18760000  0.69664000  0.84218000  1.0
  H  H33  1  0.81240000  0.19664000  0.65782000  1.0
  H  H34  1  0.90279000  0.26738000  0.33284000  1.0
  H  H35  1  0.09720000  0.76739000  0.16716000  1.0
  H  H36  1  0.09720000  0.73261000  0.66716000  1.0
  H  H37  1  0.90280000  0.23261000  0.83284000  1.0
  H  H38  1  0.28600000  0.47056000  0.15483000  1.0
  H  H39  1  0.71400000  0.97057000  0.34517000  1.0
  H  H40  1  0.71400000  0.52944000  0.84517000  1.0
  H  H41  1  0.28601000  0.02944000  0.65483000  1.0
  H  H42  1  0.24316000  0.30027000  0.36408000  1.0
  H  H43  1  0.75684000  0.80027000  0.13592000  1.0
  H  H44  1  0.75684000  0.69973000  0.63592000  1.0
  H  H45  1  0.24316000  0.19973000  0.86408000  1.0
  H  H46  1  0.34592000  0.41786000  0.30933000  1.0
  H  H47  1  0.65409000  0.91786000  0.19067000  1.0
  H  H48  1  0.65409000  0.58214000  0.69066000  1.0
  H  H49  1  0.34592000  0.08214000  0.80934000  1.0
  H  H50  1  0.15077000  0.59051000  0.34833000  1.0
  H  H51  1  0.84923000  0.09052000  0.15167000  1.0
  H  H52  1  0.84923000  0.40948000  0.65167000  1.0
  H  H53  1  0.15077000  0.90948000  0.84833000  1.0
  H  H54  1  0.03254000  0.30582000  0.51500000  1.0
  H  H55  1  0.96745000  0.80582000  0.98500000  1.0
  H  H56  1  0.96746000  0.69418000  0.48499000  1.0
  H  H57  1  0.03255000  0.19418000  0.01500000  1.0
  C  C58  1  0.40189000  0.39394000  0.87622000  1.0
  C  C59  1  0.59811000  0.89394000  0.62379000  1.0
  C  C60  1  0.59811000  0.60606000  0.12378000  1.0
  C  C61  1  0.40189000  0.10606000  0.37622000  1.0
  C  C62  1  0.20528000  0.39332000  0.79205000  1.0
  C  C63  1  0.79471000  0.89331000  0.70795000  1.0
  C  C64  1  0.79471000  0.60669000  0.20795000  1.0
  C  C65  1  0.20529000  0.10669000  0.29205000  1.0
  C  C66  1  0.48777000  0.35491000  0.78723000  1.0
  C  C67  1  0.51223000  0.85490000  0.71277000  1.0
  C  C68  1  0.51223000  0.64510000  0.21277000  1.0
  C  C69  1  0.48777000  0.14510000  0.28723000  1.0
  C  C70  1  0.38908000  0.32583000  0.63393000  1.0
  C  C71  1  0.61091000  0.82582000  0.86607000  1.0
  C  C72  1  0.61092000  0.67418000  0.36607000  1.0
  C  C73  1  0.38909000  0.17418000  0.13393000  1.0
  C  C74  1  0.44860000  0.41741000  0.56618000  1.0
  C  C75  1  0.55140000  0.91741000  0.93382000  1.0
  C  C76  1  0.55140000  0.58259000  0.43382000  1.0
  C  C77  1  0.44860000  0.08259000  0.06618000  1.0
  C  C78  1  0.39395000  0.52093000  0.59176000  1.0
  C  C79  1  0.60606000  0.02092000  0.90824000  1.0
  C  C80  1  0.60605000  0.47907000  0.40824000  1.0
  C  C81  1  0.39395000  0.97908000  0.09176000  1.0
  C  C82  1  0.55514000  0.39710000  0.47382000  1.0
  C  C83  1  0.44486000  0.89710000  0.02618000  1.0
  C  C84  1  0.44486000  0.60290000  0.52618000  1.0
  C  C85  1  0.55515000  0.10290000  0.97382000  1.0
  C  C86  1  0.92483000  0.33097000  0.18382000  1.0
  C  C87  1  0.07516000  0.83097000  0.31618000  1.0
  C  C88  1  0.07516000  0.66903000  0.81618000  1.0
  C  C89  1  0.92484000  0.16903000  0.68382000  1.0
  C  C90  1  0.96706000  0.31323000  0.26949000  1.0
  C  C91  1  0.03294000  0.81323000  0.23051000  1.0
  C  C92  1  0.03293000  0.68677000  0.73051000  1.0
  C  C93  1  0.96707000  0.18677000  0.76949000  1.0
  C  C94  1  0.17001000  0.41904000  0.17769000  1.0
  C  C95  1  0.82999000  0.91905000  0.32231000  1.0
  C  C96  1  0.82999000  0.58095000  0.82231000  1.0
  C  C97  1  0.17001000  0.08095000  0.67769000  1.0
  C  C98  1  0.21603000  0.37934000  0.34043000  1.0
  C  C99  1  0.78397000  0.87935000  0.15957000  1.0
  C  C100  1  0.78397000  0.62065000  0.65957000  1.0
  C  C101  1  0.21604000  0.12065000  0.84043000  1.0
  C  C102  1  0.10559000  0.44194000  0.42350000  1.0
  C  C103  1  0.89441000  0.94195000  0.07650000  1.0
  C  C104  1  0.89441000  0.55805000  0.57650000  1.0
  C  C105  1  0.10559000  0.05805000  0.92350000  1.0
  C  C106  1  0.08418000  0.55078000  0.41505000  1.0
  C  C107  1  0.91582000  0.05079000  0.08495000  1.0
  C  C108  1  0.91582000  0.44921000  0.58495000  1.0
  C  C109  1  0.08418000  0.94922000  0.91505000  1.0
  C  C110  1  0.97976000  0.60882000  0.49099000  1.0
  C  C111  1  0.02024000  0.10882000  0.00901000  1.0
  C  C112  1  0.02024000  0.39117000  0.50901000  1.0
  C  C113  1  0.97976000  0.89118000  0.99099000  1.0
  N  N114  1  0.22593000  0.41742000  0.87801000  1.0
  N  N115  1  0.77407000  0.91741000  0.62199000  1.0
  N  N116  1  0.77407000  0.58259000  0.12199000  1.0
  N  N117  1  0.22593000  0.08258000  0.37801000  1.0
  N  N118  1  0.36078000  0.35443000  0.73452000  1.0
  N  N119  1  0.63921000  0.85443000  0.76548000  1.0
  N  N120  1  0.63921000  0.64557000  0.26547000  1.0
  N  N121  1  0.36079000  0.14557000  0.23452000  1.0
  N  N122  1  0.05225000  0.39678000  0.12741000  1.0
  N  N123  1  0.94774000  0.89679000  0.37259000  1.0
  N  N124  1  0.94774000  0.60321000  0.87259000  1.0
  N  N125  1  0.05226000  0.10322000  0.62741000  1.0
  N  N126  1  0.12385000  0.36932000  0.26395000  1.0
  N  N127  1  0.87615000  0.86932000  0.23605000  1.0
  N  N128  1  0.87615000  0.63068000  0.73605000  1.0
  N  N129  1  0.12385000  0.13068000  0.76395000  1.0
  Cl  Cl130  1  0.23798000  0.64078000  0.02477000  1.0
  Cl  Cl131  1  0.76202000  0.14079000  0.47523000  1.0
  Cl  Cl132  1  0.76201000  0.35922000  0.97523000  1.0
  Cl  Cl133  1  0.23799000  0.85922000  0.52477000  1.0
