# generated using pymatgen
data_CdH20C29(N3O2)2
_symmetry_space_group_name_H-M   'P 1'
_cell_length_a   21.91300000
_cell_length_b   21.92020000
_cell_length_c   22.64152476
_cell_angle_alpha   118.95919481
_cell_angle_beta   118.94157095
_cell_angle_gamma   89.98520000
_symmetry_Int_Tables_number   1
_chemical_formula_structural   CdH20C29(N3O2)2
_chemical_formula_sum   'Cd8 H160 C232 N48 O32'
_cell_volume   7928.79174889
_cell_formula_units_Z   8
loop_
 _symmetry_equiv_pos_site_id
 _symmetry_equiv_pos_as_xyz
  1  'x, y, z'
loop_
 _atom_site_type_symbol
 _atom_site_label
 _atom_site_symmetry_multiplicity
 _atom_site_fract_x
 _atom_site_fract_y
 _atom_site_fract_z
 _atom_site_occupancy
  Cd  Cd0  1  0.58049000  0.35028000  0.49250000  1.0
  Cd  Cd1  1  0.10033000  0.16227000  0.99269000  1.0
  Cd  Cd2  1  0.91216000  0.14218000  0.49266000  1.0
  Cd  Cd3  1  0.89222000  0.83038000  0.99243000  1.0
  Cd  Cd4  1  0.23337000  0.52424000  0.79337000  1.0
  Cd  Cd5  1  0.27434000  0.80980000  0.29327000  1.0
  Cd  Cd6  1  0.55975000  0.26922000  0.79330000  1.0
  Cd  Cd7  1  0.01886000  0.48331000  0.29306000  1.0
  H  H8  1  0.21548000  0.53873000  0.11517000  1.0
  H  H9  1  0.28847000  0.14986000  0.61476000  1.0
  H  H10  1  0.89967000  0.57654000  0.11470000  1.0
  H  H11  1  0.32611000  0.46506000  0.61487000  1.0
  H  H12  1  0.34738000  0.44851000  0.97827000  1.0
  H  H13  1  0.19882000  0.88120000  0.47830000  1.0
  H  H14  1  0.63092000  0.52950000  0.97833000  1.0
  H  H15  1  0.27923000  0.59709000  0.47820000  1.0
  H  H16  1  0.37753000  0.43580000  0.09266000  1.0
  H  H17  1  0.18564000  0.96542000  0.59233000  1.0
  H  H18  1  0.71502000  0.65676000  0.09215000  1.0
  H  H19  1  0.40647000  0.62686000  0.59213000  1.0
  H  H20  1  0.31137000  0.48213000  0.16159000  1.0
  H  H21  1  0.23168000  0.10045000  0.66102000  1.0
  H  H22  1  0.85009000  0.67955000  0.16080000  1.0
  H  H23  1  0.42915000  0.56063000  0.66094000  1.0
  H  H24  1  0.63722000  0.59632000  0.77384000  1.0
  H  H25  1  0.34662000  0.38672000  0.27407000  1.0
  H  H26  1  0.13667000  0.17761000  0.77405000  1.0
  H  H27  1  0.92748000  0.88723000  0.27397000  1.0
  H  H28  1  0.48470000  0.29404000  0.54957000  1.0
  H  H29  1  0.04413000  0.31526000  0.05015000  1.0
  H  H30  1  0.06493000  0.25553000  0.54967000  1.0
  H  H31  1  0.00574000  0.73496000  0.04980000  1.0
  H  H32  1  0.49000000  0.38454000  0.69115000  1.0
  H  H33  1  0.13478000  0.45137000  0.19185000  1.0
  H  H34  1  0.20106000  0.30692000  0.69148000  1.0
  H  H35  1  0.05676000  0.74023000  0.19135000  1.0
  H  H36  1  0.57153000  0.51210000  0.63573000  1.0
  H  H37  1  0.26218000  0.31433000  0.13584000  1.0
  H  H38  1  0.06437000  0.12368000  0.63593000  1.0
  H  H39  1  0.87363000  0.82163000  0.13584000  1.0
  H  H40  1  0.45606000  0.48366000  0.74894000  1.0
  H  H41  1  0.23383000  0.54293000  0.24922000  1.0
  H  H42  1  0.29288000  0.26547000  0.74916000  1.0
  H  H43  1  0.01519000  0.70600000  0.24881000  1.0
  H  H44  1  0.57303000  0.71065000  0.94189000  1.0
  H  H45  1  0.46095000  0.61888000  0.44201000  1.0
  H  H46  1  0.36888000  0.23145000  0.94214000  1.0
  H  H47  1  0.98133000  0.82304000  0.44197000  1.0
  H  H48  1  0.35814000  0.53440000  0.75484000  1.0
  H  H49  1  0.28448000  0.64641000  0.25477000  1.0
  H  H50  1  0.39660000  0.22049000  0.75491000  1.0
  H  H51  1  0.97038000  0.60816000  0.25463000  1.0
  H  H52  1  0.99409000  0.42379000  0.49038000  1.0
  H  H53  1  0.17353000  0.74654000  0.99090000  1.0
  H  H54  1  0.49644000  0.06718000  0.49076000  1.0
  H  H55  1  0.81674000  0.24417000  0.99030000  1.0
  H  H56  1  0.75799000  0.34389000  0.32754000  1.0
  H  H57  1  0.09405000  0.81979000  0.82810000  1.0
  H  H58  1  0.56978000  0.98390000  0.32798000  1.0
  H  H59  1  0.73356000  0.00813000  0.82747000  1.0
  H  H60  1  0.75054000  0.38120000  0.53099000  1.0
  H  H61  1  0.13140000  0.03090000  0.03132000  1.0
  H  H62  1  0.78081000  0.14982000  0.53114000  1.0
  H  H63  1  0.89931000  0.00037000  0.03096000  1.0
  H  H64  1  0.86156000  0.33639000  0.53998000  1.0
  H  H65  1  0.08653000  0.92900000  0.04058000  1.0
  H  H66  1  0.67876000  0.20390000  0.54033000  1.0
  H  H67  1  0.95348000  0.11142000  0.03995000  1.0
  H  H68  1  0.12066000  0.46928000  0.87163000  1.0
  H  H69  1  0.21975000  0.00098000  0.37146000  1.0
  H  H70  1  0.75085000  0.40230000  0.87173000  1.0
  H  H71  1  0.15181000  0.37038000  0.37156000  1.0
  H  H72  1  0.66514000  0.44056000  0.73443000  1.0
  H  H73  1  0.19050000  0.31914000  0.23435000  1.0
  H  H74  1  0.06927000  0.29423000  0.73460000  1.0
  H  H75  1  0.04405000  0.91491000  0.23425000  1.0
  H  H76  1  0.71624000  0.51397000  0.88249000  1.0
  H  H77  1  0.26379000  0.41613000  0.38239000  1.0
  H  H78  1  0.16621000  0.36893000  0.88262000  1.0
  H  H79  1  0.11863000  0.96579000  0.38222000  1.0
  H  H80  1  0.90421000  0.63326000  0.92473000  1.0
  H  H81  1  0.38362000  0.27075000  0.42483000  1.0
  H  H82  1  0.02080000  0.29161000  0.92504000  1.0
  H  H83  1  0.04146000  0.15376000  0.42486000  1.0
  H  H84  1  0.83851000  0.61002000  0.97825000  1.0
  H  H85  1  0.36015000  0.38985000  0.47823000  1.0
  H  H86  1  0.13992000  0.36846000  0.97847000  1.0
  H  H87  1  0.11816000  0.08790000  0.47815000  1.0
  H  H88  1  0.96978000  0.71577000  0.80836000  1.0
  H  H89  1  0.46617000  0.08874000  0.30866000  1.0
  H  H90  1  0.83887000  0.09281000  0.80878000  1.0
  H  H91  1  0.84263000  0.21949000  0.30865000  1.0
  H  H92  1  0.10610000  0.39752000  0.75605000  1.0
  H  H93  1  0.14756000  0.90000000  0.25655000  1.0
  H  H94  1  0.64990000  0.35902000  0.75623000  1.0
  H  H95  1  0.10854000  0.35612000  0.25602000  1.0
  H  H96  1  0.06976000  0.49274000  0.62440000  1.0
  H  H97  1  0.24260000  0.80472000  0.12460000  1.0
  H  H98  1  0.55459000  0.13214000  0.62457000  1.0
  H  H99  1  0.88162000  0.31975000  0.12412000  1.0
  H  H100  1  0.01839000  0.51332000  0.81239000  1.0
  H  H101  1  0.26392000  0.04420000  0.31244000  1.0
  H  H102  1  0.79369000  0.29889000  0.81228000  1.0
  H  H103  1  0.04862000  0.26815000  0.31252000  1.0
  H  H104  1  0.99787000  0.42537000  0.39877000  1.0
  H  H105  1  0.17501000  0.65098000  0.89927000  1.0
  H  H106  1  0.40085000  0.97393000  0.39900000  1.0
  H  H107  1  0.72384000  0.24792000  0.89812000  1.0
  H  H108  1  0.00621000  0.62973000  0.90356000  1.0
  H  H109  1  0.38011000  0.14779000  0.40381000  1.0
  H  H110  1  0.89720000  0.27369000  0.90331000  1.0
  H  H111  1  0.02355000  0.25609000  0.40385000  1.0
  H  H112  1  0.96638000  0.32200000  0.61777000  1.0
  H  H113  1  0.07215000  0.90195000  0.11857000  1.0
  H  H114  1  0.65163000  0.29622000  0.61811000  1.0
  H  H115  1  0.04587000  0.21630000  0.11790000  1.0
  H  H116  1  0.91997000  0.48455000  0.64349000  1.0
  H  H117  1  0.23495000  0.97363000  0.14380000  1.0
  H  H118  1  0.72378000  0.15876000  0.64352000  1.0
  H  H119  1  0.90914000  0.17004000  0.14391000  1.0
  H  H120  1  0.98229000  0.61370000  0.70280000  1.0
  H  H121  1  0.36415000  0.97065000  0.20323000  1.0
  H  H122  1  0.72079000  0.08913000  0.70306000  1.0
  H  H123  1  0.83910000  0.23211000  0.20314000  1.0
  H  H124  1  0.84713000  0.45861000  0.68944000  1.0
  H  H125  1  0.20886000  0.09234000  0.18955000  1.0
  H  H126  1  0.84252000  0.23073000  0.68949000  1.0
  H  H127  1  0.98115000  0.09721000  0.18976000  1.0
  H  H128  1  0.67402000  0.22849000  0.28447000  1.0
  H  H129  1  0.97842000  0.86068000  0.78500000  1.0
  H  H130  1  0.61054000  0.05628000  0.28480000  1.0
  H  H131  1  0.80603000  0.92421000  0.78463000  1.0
  H  H132  1  0.53340000  0.66545000  0.00291000  1.0
  H  H133  1  0.41554000  0.71967000  0.50298000  1.0
  H  H134  1  0.46958000  0.33760000  0.00305000  1.0
  H  H135  1  0.08768000  0.78321000  0.50281000  1.0
  H  H136  1  0.40006000  0.63931000  0.98867000  1.0
  H  H137  1  0.38929000  0.83857000  0.48838000  1.0
  H  H138  1  0.58864000  0.34908000  0.98862000  1.0
  H  H139  1  0.09929000  0.64975000  0.48829000  1.0
  H  H140  1  0.55882000  0.22498000  0.30642000  1.0
  H  H141  1  0.97481000  0.99765000  0.80663000  1.0
  H  H142  1  0.74752000  0.08154000  0.30637000  1.0
  H  H143  1  0.83135000  0.80887000  0.80630000  1.0
  H  H144  1  0.83138000  0.45167000  0.22308000  1.0
  H  H145  1  0.20221000  0.64197000  0.72415000  1.0
  H  H146  1  0.39222000  0.77181000  0.22396000  1.0
  H  H147  1  0.52138000  0.08208000  0.72375000  1.0
  H  H148  1  0.77016000  0.40457000  0.28271000  1.0
  H  H149  1  0.15493000  0.76278000  0.78357000  1.0
  H  H150  1  0.51311000  0.87856000  0.28370000  1.0
  H  H151  1  0.62798000  0.02068000  0.78334000  1.0
  H  H152  1  0.74750000  0.68343000  0.87954000  1.0
  H  H153  1  0.43374000  0.38235000  0.38003000  1.0
  H  H154  1  0.13216000  0.19630000  0.88000000  1.0
  H  H155  1  0.94601000  0.99758000  0.37977000  1.0
  H  H156  1  0.09559000  0.69661000  0.05303000  1.0
  H  H157  1  0.44684000  0.20776000  0.55326000  1.0
  H  H158  1  0.95763000  0.35642000  0.05284000  1.0
  H  H159  1  0.10623000  0.34557000  0.55329000  1.0
  H  H160  1  0.75981000  0.90014000  0.03009000  1.0
  H  H161  1  0.65058000  0.52001000  0.52949000  1.0
  H  H162  1  0.27039000  0.12968000  0.03002000  1.0
  H  H163  1  0.87964000  0.00956000  0.53007000  1.0
  H  H164  1  0.62236000  0.80848000  0.95715000  1.0
  H  H165  1  0.55877000  0.58448000  0.45659000  1.0
  H  H166  1  0.33477000  0.14866000  0.95707000  1.0
  H  H167  1  0.89862000  0.87224000  0.45711000  1.0
  C  C168  1  0.23034000  0.53040000  0.02462000  1.0
  C  C169  1  0.28053000  0.04447000  0.52451000  1.0
  C  C170  1  0.79436000  0.49417000  0.02468000  1.0
  C  C171  1  0.24380000  0.48011000  0.52455000  1.0
  C  C172  1  0.25638000  0.51272000  0.91952000  1.0
  C  C173  1  0.26331000  0.91334000  0.41976000  1.0
  C  C174  1  0.66334000  0.40651000  0.92007000  1.0
  C  C175  1  0.15627000  0.50626000  0.41963000  1.0
  C  C176  1  0.26839000  0.50423000  0.98619000  1.0
  C  C177  1  0.25452000  0.96801000  0.48619000  1.0
  C  C178  1  0.71787000  0.48179000  0.98641000  1.0
  C  C179  1  0.23148000  0.51819000  0.48617000  1.0
  C  C180  1  0.24671000  0.52123000  0.08742000  1.0
  C  C181  1  0.27106000  0.09090000  0.58708000  1.0
  C  C182  1  0.84071000  0.56622000  0.08713000  1.0
  C  C183  1  0.31583000  0.49632000  0.58716000  1.0
  C  C184  1  0.32017000  0.46954000  0.01040000  1.0
  C  C185  1  0.21970000  0.94049000  0.51031000  1.0
  C  C186  1  0.69024000  0.54068000  0.01038000  1.0
  C  C187  1  0.29039000  0.56984000  0.51025000  1.0
  C  C188  1  0.33650000  0.46215000  0.07377000  1.0
  C  C189  1  0.21207000  0.98751000  0.57349000  1.0
  C  C190  1  0.73720000  0.61151000  0.07341000  1.0
  C  C191  1  0.36120000  0.58601000  0.57342000  1.0
  C  C192  1  0.29953000  0.48829000  0.11248000  1.0
  C  C193  1  0.23803000  0.06317000  0.61206000  1.0
  C  C194  1  0.81287000  0.62421000  0.11197000  1.0
  C  C195  1  0.37383000  0.54898000  0.61204000  1.0
  C  C196  1  0.60106000  0.59694000  0.79410000  1.0
  C  C197  1  0.34719000  0.44313000  0.29435000  1.0
  C  C198  1  0.19308000  0.19734000  0.79435000  1.0
  C  C199  1  0.94718000  0.85110000  0.29423000  1.0
  C  C200  1  0.50180000  0.35319000  0.58813000  1.0
  C  C201  1  0.10330000  0.33661000  0.08865000  1.0
  C  C202  1  0.08639000  0.23505000  0.58833000  1.0
  C  C203  1  0.98513000  0.75205000  0.08836000  1.0
  C  C204  1  0.61074000  0.66053000  0.86189000  1.0
  C  C205  1  0.41079000  0.50120000  0.36206000  1.0
  C  C206  1  0.25119000  0.20157000  0.86215000  1.0
  C  C207  1  0.95143000  0.86078000  0.36203000  1.0
  C  C208  1  0.54511000  0.53354000  0.75383000  1.0
  C  C209  1  0.28374000  0.45880000  0.25414000  1.0
  C  C210  1  0.20877000  0.22051000  0.75411000  1.0
  C  C211  1  0.97026000  0.79513000  0.25387000  1.0
  C  C212  1  0.50333000  0.39737000  0.65737000  1.0
  C  C213  1  0.14755000  0.40425000  0.15790000  1.0
  C  C214  1  0.15404000  0.26019000  0.65762000  1.0
  C  C215  1  0.01011000  0.75350000  0.15753000  1.0
  C  C216  1  0.54791000  0.46469000  0.63024000  1.0
  C  C217  1  0.21478000  0.33249000  0.13047000  1.0
  C  C218  1  0.08243000  0.16563000  0.63043000  1.0
  C  C219  1  0.91558000  0.79804000  0.13036000  1.0
  C  C220  1  0.49947000  0.53311000  0.78044000  1.0
  C  C221  1  0.28330000  0.53103000  0.28073000  1.0
  C  C222  1  0.28100000  0.24753000  0.78069000  1.0
  C  C223  1  0.99730000  0.74945000  0.28039000  1.0
  C  C224  1  0.50989000  0.59748000  0.84763000  1.0
  C  C225  1  0.34769000  0.58777000  0.34785000  1.0
  C  C226  1  0.33775000  0.25036000  0.84787000  1.0
  C  C227  1  0.00020000  0.75990000  0.34762000  1.0
  C  C228  1  0.56557000  0.66120000  0.88927000  1.0
  C  C229  1  0.41147000  0.57374000  0.38944000  1.0
  C  C230  1  0.32373000  0.22829000  0.88953000  1.0
  C  C231  1  0.97814000  0.81558000  0.38934000  1.0
  C  C232  1  0.38736000  0.56516000  0.82032000  1.0
  C  C233  1  0.31527000  0.68278000  0.32024000  1.0
  C  C234  1  0.43289000  0.25514000  0.82039000  1.0
  C  C235  1  0.00512000  0.63731000  0.32010000  1.0
  C  C236  1  0.89227000  0.70981000  0.86646000  1.0
  C  C237  1  0.46005000  0.22427000  0.36654000  1.0
  C  C238  1  0.97438000  0.15697000  0.86696000  1.0
  C  C239  1  0.90675000  0.14196000  0.36657000  1.0
  C  C240  1  0.94032000  0.40000000  0.47371000  1.0
  C  C241  1  0.14990000  0.78371000  0.97427000  1.0
  C  C242  1  0.53363000  0.07420000  0.47414000  1.0
  C  C243  1  0.82378000  0.19037000  0.97365000  1.0
  C  C244  1  0.80376000  0.33703000  0.43150000  1.0
  C  C245  1  0.08717000  0.87816000  0.93207000  1.0
  C  C246  1  0.62805000  0.09472000  0.43190000  1.0
  C  C247  1  0.84433000  0.05376000  0.93155000  1.0
  C  C248  1  0.80803000  0.35400000  0.38136000  1.0
  C  C249  1  0.10410000  0.82363000  0.88193000  1.0
  C  C250  1  0.57358000  0.02766000  0.38180000  1.0
  C  C251  1  0.77729000  0.05811000  0.88134000  1.0
  C  C252  1  0.71396000  0.33730000  0.46757000  1.0
  C  C253  1  0.08745000  0.00396000  0.96790000  1.0
  C  C254  1  0.75386000  0.13032000  0.46771000  1.0
  C  C255  1  0.87987000  0.96386000  0.96754000  1.0
  C  C256  1  0.86611000  0.35034000  0.50193000  1.0
  C  C257  1  0.10046000  0.88633000  0.00253000  1.0
  C  C258  1  0.63617000  0.15191000  0.50232000  1.0
  C  C259  1  0.90150000  0.11605000  0.00195000  1.0
  C  C260  1  0.93432000  0.38272000  0.52289000  1.0
  C  C261  1  0.13272000  0.83902000  0.02347000  1.0
  C  C262  1  0.58885000  0.14060000  0.52328000  1.0
  C  C263  1  0.89019000  0.18430000  0.02286000  1.0
  C  C264  1  0.87684000  0.38606000  0.40320000  1.0
  C  C265  1  0.13603000  0.77661000  0.90377000  1.0
  C  C266  1  0.52660000  0.01755000  0.40367000  1.0
  C  C267  1  0.76717000  0.12696000  0.90313000  1.0
  C  C268  1  0.16981000  0.56021000  0.99483000  1.0
  C  C269  1  0.31046000  0.07517000  0.49476000  1.0
  C  C270  1  0.82511000  0.43457000  0.99487000  1.0
  C  C271  1  0.18419000  0.41962000  0.49482000  1.0
  C  C272  1  0.11636000  0.52070000  0.91113000  1.0
  C  C273  1  0.27113000  0.04486000  0.41107000  1.0
  C  C274  1  0.79471000  0.39037000  0.91116000  1.0
  C  C275  1  0.13997000  0.36616000  0.41115000  1.0
  C  C276  1  0.71721000  0.48401000  0.77699000  1.0
  C  C277  1  0.23402000  0.30971000  0.27695000  1.0
  C  C278  1  0.05980000  0.29327000  0.77717000  1.0
  C  C279  1  0.04314000  0.96695000  0.27687000  1.0
  C  C280  1  0.75297000  0.49797000  0.74548000  1.0
  C  C281  1  0.24816000  0.24251000  0.24553000  1.0
  C  C282  1  0.99263000  0.24768000  0.74571000  1.0
  C  C283  1  0.99766000  0.00277000  0.24547000  1.0
  C  C284  1  0.71170000  0.45520000  0.65420000  1.0
  C  C285  1  0.20546000  0.19248000  0.15426000  1.0
  C  C286  1  0.94269000  0.19906000  0.65443000  1.0
  C  C287  1  0.94912000  0.96162000  0.15420000  1.0
  C  C288  1  0.74596000  0.52485000  0.85974000  1.0
  C  C289  1  0.27484000  0.36374000  0.35970000  1.0
  C  C290  1  0.11380000  0.33521000  0.85991000  1.0
  C  C291  1  0.08495000  0.99556000  0.35958000  1.0
  C  C292  1  0.89820000  0.64480000  0.80420000  1.0
  C  C293  1  0.39508000  0.15609000  0.30430000  1.0
  C  C294  1  0.90625000  0.15960000  0.80456000  1.0
  C  C295  1  0.90948000  0.14792000  0.30433000  1.0
  C  C296  1  0.82060000  0.55411000  0.79891000  1.0
  C  C297  1  0.30436000  0.22838000  0.29898000  1.0
  C  C298  1  0.97852000  0.24497000  0.79920000  1.0
  C  C299  1  0.99493000  0.07035000  0.29899000  1.0
  C  C300  1  0.85051000  0.59229000  0.88253000  1.0
  C  C301  1  0.34255000  0.28215000  0.38258000  1.0
  C  C302  1  0.03222000  0.29041000  0.88280000  1.0
  C  C303  1  0.04026000  0.10010000  0.38257000  1.0
  C  C304  1  0.86238000  0.57179000  0.77064000  1.0
  C  C305  1  0.32202000  0.15831000  0.27072000  1.0
  C  C306  1  0.90850000  0.19897000  0.77092000  1.0
  C  C307  1  0.94903000  0.11221000  0.27081000  1.0
  C  C308  1  0.81386000  0.57891000  0.91303000  1.0
  C  C309  1  0.32903000  0.34925000  0.41303000  1.0
  C  C310  1  0.09931000  0.33439000  0.91326000  1.0
  C  C311  1  0.08413000  0.06337000  0.41297000  1.0
  C  C312  1  0.94130000  0.65893000  0.77976000  1.0
  C  C313  1  0.40928000  0.08859000  0.28001000  1.0
  C  C314  1  0.83872000  0.12099000  0.78010000  1.0
  C  C315  1  0.87088000  0.19104000  0.27998000  1.0
  C  C316  1  0.07605000  0.40658000  0.70808000  1.0
  C  C317  1  0.15663000  0.88220000  0.20860000  1.0
  C  C318  1  0.63201000  0.30199000  0.70830000  1.0
  C  C319  1  0.05151000  0.32605000  0.20805000  1.0
  C  C320  1  0.06104000  0.45710000  0.64186000  1.0
  C  C321  1  0.20701000  0.83096000  0.14218000  1.0
  C  C322  1  0.58079000  0.18525000  0.64206000  1.0
  C  C323  1  0.93476000  0.31105000  0.14168000  1.0
  C  C324  1  0.05814000  0.54487000  0.87773000  1.0
  C  C325  1  0.29534000  0.06979000  0.37777000  1.0
  C  C326  1  0.81945000  0.33275000  0.87764000  1.0
  C  C327  1  0.08245000  0.30795000  0.37784000  1.0
  C  C328  1  0.94437000  0.42659000  0.35965000  1.0
  C  C329  1  0.17651000  0.66543000  0.86032000  1.0
  C  C330  1  0.41539000  0.93355000  0.36007000  1.0
  C  C331  1  0.68333000  0.19457000  0.85934000  1.0
  C  C332  1  0.05079000  0.60935000  0.92854000  1.0
  C  C333  1  0.35975000  0.12805000  0.42870000  1.0
  C  C334  1  0.87770000  0.31911000  0.92839000  1.0
  C  C335  1  0.06886000  0.30069000  0.42875000  1.0
  C  C336  1  0.00681000  0.36904000  0.63945000  1.0
  C  C337  1  0.11913000  0.88305000  0.14010000  1.0
  C  C338  1  0.63280000  0.27087000  0.63975000  1.0
  C  C339  1  0.02046000  0.25676000  0.13948000  1.0
  C  C340  1  0.91351000  0.52966000  0.68797000  1.0
  C  C341  1  0.28004000  0.02455000  0.18822000  1.0
  C  C342  1  0.77471000  0.15825000  0.68812000  1.0
  C  C343  1  0.90845000  0.16345000  0.18828000  1.0
  C  C344  1  0.94853000  0.60196000  0.72126000  1.0
  C  C345  1  0.35238000  0.02287000  0.22160000  1.0
  C  C346  1  0.77300000  0.11935000  0.72152000  1.0
  C  C347  1  0.86935000  0.19835000  0.22155000  1.0
  C  C348  1  0.87174000  0.51513000  0.71305000  1.0
  C  C349  1  0.26542000  0.09136000  0.21320000  1.0
  C  C350  1  0.84154000  0.19790000  0.71321000  1.0
  C  C351  1  0.94814000  0.12169000  0.21332000  1.0
  C  C352  1  0.67174000  0.25909000  0.33753000  1.0
  C  C353  1  0.00911000  0.91603000  0.83795000  1.0
  C  C354  1  0.66591000  0.07861000  0.33775000  1.0
  C  C355  1  0.82832000  0.92179000  0.83758000  1.0
  C  C356  1  0.47760000  0.63580000  0.95063000  1.0
  C  C357  1  0.38590000  0.72308000  0.45062000  1.0
  C  C358  1  0.47306000  0.31488000  0.95074000  1.0
  C  C359  1  0.06494000  0.72745000  0.45047000  1.0
  C  C360  1  0.41204000  0.62209000  0.94275000  1.0
  C  C361  1  0.37216000  0.78066000  0.44258000  1.0
  C  C362  1  0.53072000  0.32050000  0.94277000  1.0
  C  C363  1  0.07063000  0.66184000  0.44246000  1.0
  C  C364  1  0.61621000  0.25698000  0.34948000  1.0
  C  C365  1  0.00694000  0.98343000  0.84977000  1.0
  C  C366  1  0.73332000  0.09263000  0.34955000  1.0
  C  C367  1  0.84234000  0.86623000  0.84943000  1.0
  C  C368  1  0.85585000  0.43893000  0.26875000  1.0
  C  C369  1  0.18930000  0.66316000  0.76971000  1.0
  C  C370  1  0.41330000  0.83025000  0.26952000  1.0
  C  C371  1  0.57985000  0.10638000  0.76914000  1.0
  C  C372  1  0.82531000  0.41460000  0.29682000  1.0
  C  C373  1  0.16488000  0.72174000  0.79766000  1.0
  C  C374  1  0.47192000  0.88265000  0.29761000  1.0
  C  C375  1  0.63218000  0.07574000  0.79717000  1.0
  C  C376  1  0.16100000  0.62418000  0.04606000  1.0
  C  C377  1  0.37436000  0.13530000  0.54612000  1.0
  C  C378  1  0.88525000  0.42189000  0.04604000  1.0
  C  C379  1  0.17159000  0.41090000  0.54617000  1.0
  C  C380  1  0.21525000  0.67519000  0.13631000  1.0
  C  C381  1  0.42509000  0.17136000  0.63640000  1.0
  C  C382  1  0.92136000  0.46124000  0.13630000  1.0
  C  C383  1  0.21099000  0.46515000  0.63644000  1.0
  C  C384  1  0.73224000  0.73011000  0.91024000  1.0
  C  C385  1  0.48043000  0.42813000  0.41042000  1.0
  C  C386  1  0.17809000  0.18023000  0.91053000  1.0
  C  C387  1  0.93004000  0.98223000  0.41040000  1.0
  C  C388  1  0.10109000  0.64719000  0.01192000  1.0
  C  C389  1  0.39746000  0.16110000  0.51208000  1.0
  C  C390  1  0.91095000  0.36471000  0.01180000  1.0
  C  C391  1  0.11446000  0.35103000  0.51212000  1.0
  C  C392  1  0.73539000  0.84138000  0.98710000  1.0
  C  C393  1  0.59177000  0.50152000  0.48671000  1.0
  C  C394  1  0.25180000  0.14560000  0.98715000  1.0
  C  C395  1  0.89551000  0.98525000  0.48714000  1.0
  C  C396  1  0.66869000  0.79661000  0.95326000  1.0
  C  C397  1  0.54695000  0.53438000  0.45290000  1.0
  C  C398  1  0.28458000  0.15662000  0.95328000  1.0
  C  C399  1  0.90658000  0.91860000  0.45331000  1.0
  N  N400  1  0.35690000  0.57859000  0.86154000  1.0
  N  N401  1  0.32863000  0.75443000  0.36133000  1.0
  N  N402  1  0.50457000  0.28276000  0.86154000  1.0
  N  N403  1  0.03286000  0.60679000  0.36123000  1.0
  N  N404  1  0.46129000  0.59871000  0.87211000  1.0
  N  N405  1  0.34886000  0.66080000  0.37218000  1.0
  N  N406  1  0.41081000  0.27353000  0.87226000  1.0
  N  N407  1  0.02346000  0.71123000  0.37200000  1.0
  N  N408  1  0.52934000  0.39557000  0.57186000  1.0
  N  N409  1  0.14562000  0.29277000  0.07216000  1.0
  N  N410  1  0.04264000  0.17630000  0.57200000  1.0
  N  N411  1  0.92642000  0.77954000  0.07205000  1.0
  N  N412  1  0.53314000  0.46880000  0.68428000  1.0
  N  N413  1  0.21896000  0.40126000  0.18468000  1.0
  N  N414  1  0.15118000  0.21568000  0.68456000  1.0
  N  N415  1  0.96552000  0.78325000  0.18440000  1.0
  N  N416  1  0.10862000  0.46110000  0.70898000  1.0
  N  N417  1  0.21100000  0.85032000  0.20925000  1.0
  N  N418  1  0.60021000  0.24837000  0.70911000  1.0
  N  N419  1  0.99785000  0.35865000  0.20880000  1.0
  N  N420  1  0.99780000  0.40103000  0.59672000  1.0
  N  N421  1  0.15105000  0.84932000  0.09727000  1.0
  N  N422  1  0.59909000  0.19616000  0.59703000  1.0
  N  N423  1  0.94573000  0.24775000  0.09665000  1.0
  N  N424  1  0.73385000  0.31021000  0.41317000  1.0
  N  N425  1  0.06035000  0.92968000  0.91363000  1.0
  N  N426  1  0.67957000  0.10311000  0.41345000  1.0
  N  N427  1  0.85272000  0.98383000  0.91323000  1.0
  N  N428  1  0.88199000  0.40673000  0.35507000  1.0
  N  N429  1  0.15673000  0.72324000  0.85571000  1.0
  N  N430  1  0.47330000  0.94879000  0.35562000  1.0
  N  N431  1  0.69843000  0.13222000  0.85499000  1.0
  N  N432  1  0.92974000  0.44603000  0.30851000  1.0
  N  N433  1  0.19614000  0.62896000  0.80932000  1.0
  N  N434  1  0.37899000  0.86294000  0.30904000  1.0
  N  N435  1  0.61271000  0.18011000  0.80849000  1.0
  N  N436  1  0.64351000  0.30589000  0.43047000  1.0
  N  N437  1  0.05593000  0.03720000  0.93069000  1.0
  N  N438  1  0.78710000  0.12460000  0.43048000  1.0
  N  N439  1  0.87421000  0.89341000  0.93036000  1.0
  N  N440  1  0.66697000  0.72554000  0.90435000  1.0
  N  N441  1  0.47585000  0.48741000  0.40437000  1.0
  N  N442  1  0.23744000  0.17895000  0.90457000  1.0
  N  N443  1  0.92883000  0.91697000  0.40450000  1.0
  N  N444  1  0.77403000  0.79910000  0.95978000  1.0
  N  N445  1  0.54947000  0.43577000  0.45975000  1.0
  N  N446  1  0.18587000  0.16063000  0.95997000  1.0
  N  N447  1  0.91047000  0.02393000  0.45988000  1.0
  O  O448  1  0.68459000  0.38517000  0.61626000  1.0
  O  O449  1  0.13540000  0.18163000  0.11626000  1.0
  O  O450  1  0.93163000  0.23103000  0.61634000  1.0
  O  O451  1  0.98112000  0.93463000  0.11610000  1.0
  O  O452  1  0.70165000  0.48887000  0.62015000  1.0
  O  O453  1  0.23921000  0.16854000  0.12029000  1.0
  O  O454  1  0.91902000  0.13131000  0.62054000  1.0
  O  O455  1  0.88137000  0.95145000  0.12023000  1.0
  O  O456  1  0.95228000  0.75582000  0.93421000  1.0
  O  O457  1  0.50607000  0.23203000  0.43430000  1.0
  O  O458  1  0.98196000  0.17863000  0.93462000  1.0
  O  O459  1  0.92853000  0.20200000  0.43434000  1.0
  O  O460  1  0.82964000  0.71698000  0.84937000  1.0
  O  O461  1  0.46717000  0.26979000  0.34945000  1.0
  O  O462  1  0.02005000  0.13285000  0.85004000  1.0
  O  O463  1  0.88249000  0.07938000  0.34948000  1.0
  O  O464  1  0.26045000  0.57574000  0.93099000  1.0
  O  O465  1  0.32634000  0.92085000  0.43123000  1.0
  O  O466  1  0.67117000  0.35498000  0.93151000  1.0
  O  O467  1  0.10461000  0.51002000  0.43092000  1.0
  O  O468  1  0.24394000  0.45535000  0.85460000  1.0
  O  O469  1  0.20603000  0.86067000  0.35493000  1.0
  O  O470  1  0.61048000  0.39891000  0.85528000  1.0
  O  O471  1  0.14880000  0.49413000  0.35484000  1.0
  O  O472  1  0.28182000  0.69834000  0.16365000  1.0
  O  O473  1  0.44771000  0.13217000  0.66391000  1.0
  O  O474  1  0.88219000  0.46612000  0.16386000  1.0
  O  O475  1  0.21541000  0.53176000  0.66385000  1.0
  O  O476  1  0.18804000  0.69637000  0.17969000  1.0
  O  O477  1  0.44648000  0.24193000  0.67967000  1.0
  O  O478  1  0.99194000  0.48295000  0.17954000  1.0
  O  O479  1  0.23320000  0.43795000  0.67982000  1.0
