# generated using pymatgen
data_SmH16C15O11
_symmetry_space_group_name_H-M   'P 1'
_cell_length_a   8.01155000
_cell_length_b   9.42704000
_cell_length_c   12.82000000
_cell_angle_alpha   105.29200000
_cell_angle_beta   95.69620000
_cell_angle_gamma   109.46300000
_symmetry_Int_Tables_number   1
_chemical_formula_structural   SmH16C15O11
_chemical_formula_sum   'Sm2 H32 C30 O22'
_cell_volume   861.74135201
_cell_formula_units_Z   2
loop_
 _symmetry_equiv_pos_site_id
 _symmetry_equiv_pos_as_xyz
  1  'x, y, z'
loop_
 _atom_site_type_symbol
 _atom_site_label
 _atom_site_symmetry_multiplicity
 _atom_site_fract_x
 _atom_site_fract_y
 _atom_site_fract_z
 _atom_site_occupancy
  Sm  Sm0  1  0.63729000  0.22398000  0.51463000  1.0
  Sm  Sm1  1  0.36271000  0.77601000  0.48537000  1.0
  H  H2  1  0.53420000  0.01331000  0.80929000  1.0
  H  H3  1  0.46580000  0.98668000  0.19071000  1.0
  H  H4  1  0.71174000  0.94417000  0.77925000  1.0
  H  H5  1  0.28827000  0.05584000  0.22076000  1.0
  H  H6  1  0.59161000  0.88568000  0.92898000  1.0
  H  H7  1  0.40840000  0.11431000  0.07102000  1.0
  H  H8  1  0.66180000  0.80609000  0.08780000  1.0
  H  H9  1  0.33821000  0.19391000  0.91220000  1.0
  H  H10  1  0.09421000  0.26187000  0.24082000  1.0
  H  H11  1  0.90581000  0.73813000  0.75917000  1.0
  H  H12  1  0.03279000  0.33809000  0.07291000  1.0
  H  H13  1  0.96721000  0.66191000  0.92709000  1.0
  H  H14  1  0.93722000  0.80866000  0.32278000  1.0
  H  H15  1  0.06277000  0.19134000  0.67722000  1.0
  H  H16  1  0.75221000  0.76204000  0.21647000  1.0
  H  H17  1  0.24779000  0.23797000  0.78353000  1.0
  H  H18  1  0.35560000  0.33737000  0.21570000  1.0
  H  H19  1  0.64441000  0.66263000  0.78430000  1.0
  H  H20  1  0.50247000  0.53057000  0.30203000  1.0
  H  H21  1  0.49753000  0.46943000  0.69796000  1.0
  H  H22  1  0.75063000  0.40107000  0.00834000  1.0
  H  H23  1  0.24935000  0.59894000  0.99165000  1.0
  H  H24  1  0.34081000  0.53499000  0.15616000  1.0
  H  H25  1  0.65917000  0.46500000  0.84383000  1.0
  H  H26  1  0.68655000  0.57395000  0.58538000  1.0
  H  H27  1  0.31345000  0.42605000  0.41462000  1.0
  H  H28  1  0.87051000  0.55919000  0.55940000  1.0
  H  H29  1  0.12949000  0.44080000  0.44059000  1.0
  H  H30  1  0.06680000  0.37116000  0.59367000  1.0
  H  H31  1  0.93320000  0.62884000  0.40634000  1.0
  H  H32  1  0.97321000  0.22419000  0.48210000  1.0
  H  H33  1  0.02680000  0.77581000  0.51791000  1.0
  C  C34  1  0.68856000  0.11117000  0.70199000  1.0
  C  C35  1  0.31145000  0.88883000  0.29801000  1.0
  C  C36  1  0.67692000  0.05066000  0.80015000  1.0
  C  C37  1  0.32308000  0.94934000  0.19986000  1.0
  C  C38  1  0.81432000  0.11496000  0.98765000  1.0
  C  C39  1  0.18568000  0.88504000  0.01235000  1.0
  C  C40  1  0.70666000  0.96814000  0.99457000  1.0
  C  C41  1  0.29335000  0.03186000  0.00543000  1.0
  C  C42  1  0.74544000  0.92354000  0.08745000  1.0
  C  C43  1  0.25457000  0.07646000  0.91256000  1.0
  C  C44  1  0.89054000  0.02677000  0.17367000  1.0
  C  C45  1  0.10948000  0.97324000  0.82633000  1.0
  C  C46  1  0.98917000  0.17838000  0.16983000  1.0
  C  C47  1  0.01084000  0.82163000  0.83017000  1.0
  C  C48  1  0.95288000  0.22185000  0.07747000  1.0
  C  C49  1  0.04712000  0.77816000  0.92253000  1.0
  C  C50  1  0.84486000  0.85745000  0.28925000  1.0
  C  C51  1  0.15514000  0.14255000  0.71075000  1.0
  C  C52  1  0.73706000  0.90099000  0.37591000  1.0
  C  C53  1  0.26294000  0.09900000  0.62409000  1.0
  C  C54  1  0.54951000  0.34164000  0.34310000  1.0
  C  C55  1  0.45049000  0.65837000  0.65690000  1.0
  C  C56  1  0.49718000  0.41117000  0.25795000  1.0
  C  C57  1  0.50282000  0.58883000  0.74204000  1.0
  C  C58  1  0.55328000  0.46237000  0.09312000  1.0
  C  C59  1  0.44669000  0.53763000  0.90688000  1.0
  C  C60  1  0.64236000  0.44622000  0.00509000  1.0
  C  C61  1  0.35762000  0.55377000  0.99491000  1.0
  C  C62  1  0.41072000  0.51729000  0.08817000  1.0
  C  C63  1  0.58926000  0.48270000  0.91182000  1.0
  O  O64  1  0.78200000  0.25106000  0.70722000  1.0
  O  O65  1  0.21800000  0.74893000  0.29277000  1.0
  O  O66  1  0.59023000  0.00919000  0.60911000  1.0
  O  O67  1  0.40978000  0.99082000  0.39090000  1.0
  O  O68  1  0.79517000  0.16641000  0.89731000  1.0
  O  O69  1  0.20483000  0.83359000  0.10269000  1.0
  O  O70  1  0.95559000  0.99073000  0.26374000  1.0
  O  O71  1  0.04440000  0.00927000  0.73626000  1.0
  O  O72  1  0.78334000  0.04674000  0.43066000  1.0
  O  O73  1  0.21665000  0.95325000  0.56934000  1.0
  O  O74  1  0.60901000  0.78766000  0.38839000  1.0
  O  O75  1  0.39099000  0.21233000  0.61161000  1.0
  O  O76  1  0.44546000  0.32576000  0.41343000  1.0
  O  O77  1  0.55455000  0.67423000  0.58656000  1.0
  O  O78  1  0.68564000  0.30247000  0.34733000  1.0
  O  O79  1  0.31437000  0.69755000  0.65267000  1.0
  O  O80  1  0.61188000  0.41928000  0.18058000  1.0
  O  O81  1  0.38810000  0.58073000  0.81941000  1.0
  O  O82  1  0.76540000  0.51075000  0.59017000  1.0
  O  O83  1  0.23461000  0.48925000  0.40982000  1.0
  O  O84  1  0.98942000  0.33574000  0.52082000  1.0
  O  O85  1  0.01059000  0.66426000  0.47918000  1.0
