# generated using pymatgen
data_NiH24C27(N2O3)2
_symmetry_space_group_name_H-M   'P 1'
_cell_length_a   10.38880000
_cell_length_b   10.65870000
_cell_length_c   11.82680000
_cell_angle_alpha   101.55100000
_cell_angle_beta   108.47700000
_cell_angle_gamma   100.33400000
_symmetry_Int_Tables_number   1
_chemical_formula_structural   NiH24C27(N2O3)2
_chemical_formula_sum   'Ni2 H48 C54 N8 O12'
_cell_volume   1174.63830086
_cell_formula_units_Z   2
loop_
 _symmetry_equiv_pos_site_id
 _symmetry_equiv_pos_as_xyz
  1  'x, y, z'
loop_
 _atom_site_type_symbol
 _atom_site_label
 _atom_site_symmetry_multiplicity
 _atom_site_fract_x
 _atom_site_fract_y
 _atom_site_fract_z
 _atom_site_occupancy
  Ni  Ni0  1  0.50000000  0.00000000  0.00000000  1.0
  Ni  Ni1  1  0.50000000  0.00000000  0.50000000  1.0
  H  H2  1  0.58378000  0.31779000  0.33930000  1.0
  H  H3  1  0.41622000  0.68221000  0.66070000  1.0
  H  H4  1  0.59428000  0.52702000  0.48452000  1.0
  H  H5  1  0.40572000  0.47298000  0.51548000  1.0
  H  H6  1  0.69726000  0.54323000  0.10552000  1.0
  H  H7  1  0.30274000  0.45677000  0.89448000  1.0
  H  H8  1  0.47229000  0.74817000  0.10510000  1.0
  H  H9  1  0.52771000  0.25183000  0.89490000  1.0
  H  H10  1  0.84558000  0.15317000  0.16177000  1.0
  H  H11  1  0.15442000  0.84683000  0.83823000  1.0
  H  H12  1  0.09332000  0.17846000  0.29933000  1.0
  H  H13  1  0.90668000  0.82155000  0.70066000  1.0
  H  H14  1  0.15440000  0.01279000  0.41005000  1.0
  H  H15  1  0.84560000  0.98721000  0.58994000  1.0
  H  H16  1  0.97235000  0.81292000  0.38874000  1.0
  H  H17  1  0.02765000  0.18709000  0.61126000  1.0
  H  H18  1  0.34022000  0.73752000  0.30820000  1.0
  H  H19  1  0.65978000  0.26248000  0.69179000  1.0
  H  H20  1  0.15661000  0.53609000  0.28319000  1.0
  H  H21  1  0.84339000  0.46391000  0.71681000  1.0
  H  H22  1  0.12670000  0.74500000  0.62273000  1.0
  H  H23  1  0.87330000  0.25500000  0.37727000  1.0
  H  H24  1  0.31427000  0.93192000  0.63587000  1.0
  H  H25  1  0.68573000  0.06808000  0.36412000  1.0
  H  H26  1  0.92009000  0.48714000  0.36247000  1.0
  H  H27  1  0.07991000  0.51286000  0.63753000  1.0
  H  H28  1  0.05718000  0.41327000  0.41676000  1.0
  H  H29  1  0.94282000  0.58673000  0.58324000  1.0
  H  H30  1  0.72926000  0.99155000  0.94190000  1.0
  H  H31  1  0.27073000  0.00845000  0.05810000  1.0
  H  H32  1  0.63571000  0.89826000  0.65325000  1.0
  H  H33  1  0.36429000  0.10174000  0.34675000  1.0
  H  H34  1  0.70227000  0.14160000  0.97550000  1.0
  H  H35  1  0.29773000  0.85840000  0.02450000  1.0
  H  H36  1  0.60727000  0.00639000  0.75609000  1.0
  H  H37  1  0.39273000  0.99362000  0.24391000  1.0
  H  H38  1  0.62554000  0.74426000  0.81782000  1.0
  H  H39  1  0.37446000  0.25574000  0.18217000  1.0
  H  H40  1  0.68102000  0.53082000  0.84085000  1.0
  H  H41  1  0.31898000  0.46918000  0.15915000  1.0
  H  H42  1  0.08477000  0.76242000  0.11714000  1.0
  H  H43  1  0.91523000  0.23757000  0.88286000  1.0
  H  H44  1  0.01333000  0.96191000  0.08117000  1.0
  H  H45  1  0.98667000  0.03809000  0.91883000  1.0
  H  H46  1  0.92528000  0.49227000  0.09279000  1.0
  H  H47  1  0.07472000  0.50772000  0.90721000  1.0
  H  H48  1  0.84587000  0.41574000  0.93417000  1.0
  H  H49  1  0.15413000  0.58425000  0.06583000  1.0
  C  C50  1  0.64430000  0.28951000  0.12990000  1.0
  C  C51  1  0.35571000  0.71049000  0.87010000  1.0
  C  C52  1  0.64295000  0.41582000  0.21385000  1.0
  C  C53  1  0.35705000  0.58418000  0.78615000  1.0
  C  C54  1  0.61013000  0.41237000  0.31950000  1.0
  C  C55  1  0.38987000  0.58763000  0.68050000  1.0
  C  C56  1  0.61296000  0.52863000  0.39929000  1.0
  C  C57  1  0.38704000  0.47137000  0.60072000  1.0
  C  C58  1  0.63796000  0.65123000  0.37277000  1.0
  C  C59  1  0.36204000  0.34877000  0.62723000  1.0
  C  C60  1  0.66505000  0.65312000  0.26364000  1.0
  C  C61  1  0.33495000  0.34688000  0.73637000  1.0
  C  C62  1  0.67186000  0.53780000  0.18735000  1.0
  C  C63  1  0.32814000  0.46220000  0.81265000  1.0
  C  C64  1  0.62713000  0.76935000  0.46173000  1.0
  C  C65  1  0.37287000  0.23065000  0.53827000  1.0
  C  C66  1  0.58019000  0.80858000  0.14612000  1.0
  C  C67  1  0.41982000  0.19142000  0.85388000  1.0
  C  C68  1  0.76947000  0.96670000  0.19709000  1.0
  C  C69  1  0.23053000  0.03330000  0.80291000  1.0
  C  C70  1  0.87213000  0.07946000  0.21070000  1.0
  C  C71  1  0.12787000  0.92054000  0.78931000  1.0
  C  C72  1  0.00973000  0.09336000  0.28798000  1.0
  C  C73  1  0.99027000  0.90664000  0.71202000  1.0
  C  C74  1  0.04550000  0.99844000  0.35137000  1.0
  C  C75  1  0.95450000  0.00156000  0.64863000  1.0
  C  C76  1  0.94488000  0.88584000  0.33917000  1.0
  C  C77  1  0.05513000  0.11416000  0.66083000  1.0
  C  C78  1  0.80772000  0.87172000  0.26106000  1.0
  C  C79  1  0.19229000  0.12828000  0.73894000  1.0
  C  C80  1  0.28939000  0.73367000  0.37561000  1.0
  C  C81  1  0.71061000  0.26633000  0.62439000  1.0
  C  C82  1  0.18629000  0.62282000  0.36210000  1.0
  C  C83  1  0.81372000  0.37718000  0.63790000  1.0
  C  C84  1  0.12438000  0.62154000  0.45170000  1.0
  C  C85  1  0.87562000  0.37846000  0.54830000  1.0
  C  C86  1  0.16947000  0.73665000  0.54972000  1.0
  C  C87  1  0.83054000  0.26335000  0.45028000  1.0
  C  C88  1  0.27496000  0.84310000  0.55818000  1.0
  C  C89  1  0.72504000  0.15690000  0.44182000  1.0
  C  C90  1  0.01733000  0.49979000  0.44175000  1.0
  C  C91  1  0.98267000  0.50021000  0.55825000  1.0
  C  C92  1  0.72695000  0.74361000  0.88201000  1.0
  C  C93  1  0.27305000  0.25639000  0.11799000  1.0
  C  C94  1  0.75869000  0.62460000  0.89612000  1.0
  C  C95  1  0.24131000  0.37540000  0.10388000  1.0
  C  C96  1  0.88876000  0.62685000  0.98157000  1.0
  C  C97  1  0.11123000  0.37315000  0.01843000  1.0
  C  C98  1  0.98182000  0.75167000  0.04825000  1.0
  C  C99  1  0.01818000  0.24833000  0.95175000  1.0
  C  C100  1  0.94186000  0.86505000  0.02819000  1.0
  C  C101  1  0.05814000  0.13495000  0.97181000  1.0
  C  C102  1  0.92742000  0.50207000  0.00235000  1.0
  C  C103  1  0.07258000  0.49793000  0.99765000  1.0
  N  N104  1  0.68457000  0.77214000  0.22546000  1.0
  N  N105  1  0.31544000  0.22786000  0.77454000  1.0
  N  N106  1  0.62600000  0.92315000  0.12581000  1.0
  N  N107  1  0.37400000  0.07685000  0.87419000  1.0
  N  N108  1  0.33593000  0.84192000  0.47371000  1.0
  N  N109  1  0.66407000  0.15808000  0.52629000  1.0
  N  N110  1  0.81615000  0.86292000  0.94716000  1.0
  N  N111  1  0.18385000  0.13708000  0.05283000  1.0
  O  O112  1  0.56756000  0.18310000  0.13257000  1.0
  O  O113  1  0.43244000  0.81690000  0.86743000  1.0
  O  O114  1  0.71861000  0.29730000  0.06304000  1.0
  O  O115  1  0.28139000  0.70270000  0.93696000  1.0
  O  O116  1  0.64993000  0.76226000  0.57160000  1.0
  O  O117  1  0.35007000  0.23774000  0.42840000  1.0
  O  O118  1  0.59075000  0.86349000  0.41777000  1.0
  O  O119  1  0.40925000  0.13651000  0.58223000  1.0
  O  O120  1  0.65848000  0.04641000  0.92525000  1.0
  O  O121  1  0.34152000  0.95359000  0.07475000  1.0
  O  O122  1  0.61886000  0.98866000  0.67512000  1.0
  O  O123  1  0.38114000  0.01134000  0.32488000  1.0
