# generated using pymatgen
data_ZnH18C35(NO2)2
_symmetry_space_group_name_H-M   'P 1'
_cell_length_a   14.12610000
_cell_length_b   15.20410000
_cell_length_c   15.66140000
_cell_angle_alpha   77.01600000
_cell_angle_beta   89.89140000
_cell_angle_gamma   79.97700000
_symmetry_Int_Tables_number   1
_chemical_formula_structural   ZnH18C35(NO2)2
_chemical_formula_sum   'Zn2 H36 C70 N4 O8'
_cell_volume   3225.22055630
_cell_formula_units_Z   2
loop_
 _symmetry_equiv_pos_site_id
 _symmetry_equiv_pos_as_xyz
  1  'x, y, z'
loop_
 _atom_site_type_symbol
 _atom_site_label
 _atom_site_symmetry_multiplicity
 _atom_site_fract_x
 _atom_site_fract_y
 _atom_site_fract_z
 _atom_site_occupancy
  Zn  Zn0  1  0.47174000  0.60147000  0.50972000  1.0
  Zn  Zn1  1  0.52227000  0.40707000  0.48746000  1.0
  H  H2  1  0.97554000  0.60050000  0.52304000  1.0
  H  H3  1  0.36069000  0.72211000  0.24088000  1.0
  H  H4  1  0.30273000  0.75723000  0.08363000  1.0
  H  H5  1  0.57446000  0.20461000  0.92540000  1.0
  H  H6  1  0.35007000  0.59731000  0.85296000  1.0
  H  H7  1  0.49119000  0.35096000  0.16220000  1.0
  H  H8  1  0.40018000  0.65916000  0.65937000  1.0
  H  H9  1  0.66935000  0.32624000  0.39524000  1.0
  H  H10  1  0.85211000  0.03807000  0.44263000  1.0
  H  H11  1  0.99400000  0.00190000  0.35485000  1.0
  H  H12  1  0.97582000  0.94308000  0.22059000  1.0
  H  H13  1  0.01946000  0.41869000  0.46167000  1.0
  H  H14  1  0.81414000  0.92132000  0.17462000  1.0
  H  H15  1  0.67220000  0.95769000  0.26235000  1.0
  H  H16  1  0.51565000  0.83152000  0.82132000  1.0
  H  H17  1  0.46981000  0.84489000  0.97129000  1.0
  H  H18  1  0.34573000  0.97509000  0.99318000  1.0
  H  H19  1  0.26628000  0.09089000  0.86324000  1.0
  H  H20  1  0.31186000  0.07759000  0.71320000  1.0
  H  H21  1  0.38424000  0.91922000  0.37826000  1.0
  H  H22  1  0.40121000  0.94439000  0.21708000  1.0
  H  H23  1  0.53624000  0.85090000  0.15659000  1.0
  H  H24  1  0.73457000  0.17890000  0.35306000  1.0
  H  H25  1  0.65313000  0.73168000  0.25845000  1.0
  H  H26  1  0.63478000  0.70591000  0.41927000  1.0
  H  H27  1  0.36120000  0.17500000  0.41656000  1.0
  H  H28  1  0.19051000  0.19887000  0.45792000  1.0
  H  H29  1  0.14558000  0.25652000  0.59228000  1.0
  H  H30  1  0.27245000  0.29203000  0.68304000  1.0
  H  H31  1  0.44244000  0.27058000  0.63985000  1.0
  H  H32  1  0.38329000  0.79178000  0.73175000  1.0
  H  H33  1  0.64388000  0.88073000  0.42676000  1.0
  H  H34  1  0.46762000  0.09044000  0.64474000  1.0
  H  H35  1  0.44043000  0.52864000  0.78160000  1.0
  H  H36  1  0.49194000  0.45173000  0.22553000  1.0
  H  H37  1  0.57477000  0.25991000  0.76274000  1.0
  C  C38  1  0.46709000  0.56100000  0.33374000  1.0
  C  C39  1  0.48355000  0.37363000  0.09115000  1.0
  C  C40  1  0.33921000  0.64230000  0.97237000  1.0
  C  C41  1  0.51096000  0.30981000  0.04124000  1.0
  C  C42  1  0.67470000  0.18296000  0.39675000  1.0
  C  C43  1  0.41861000  0.79456000  0.66951000  1.0
  C  C44  1  0.63756000  0.26507000  0.41752000  1.0
  C  C45  1  0.42543000  0.72219000  0.62925000  1.0
  C  C46  1  0.51351000  0.20431000  0.49581000  1.0
  C  C47  1  0.49303000  0.80060000  0.50496000  1.0
  C  C48  1  0.55628000  0.11408000  0.48926000  1.0
  C  C49  1  0.51042000  0.43465000  0.66709000  1.0
  C  C50  1  0.49938000  0.87439000  0.54593000  1.0
  C  C51  1  0.63495000  0.10422000  0.43275000  1.0
  C  C52  1  0.45643000  0.87307000  0.62911000  1.0
  C  C53  1  0.68100000  0.50586000  0.49826000  1.0
  C  C54  1  0.31437000  0.50696000  0.50019000  1.0
  C  C55  1  0.52082000  0.03331000  0.53553000  1.0
  C  C56  1  0.54423000  0.95166000  0.50531000  1.0
  C  C57  1  0.61878000  0.94578000  0.44435000  1.0
  C  C58  1  0.47515000  0.03043000  0.61680000  1.0
  C  C59  1  0.66805000  0.01635000  0.41294000  1.0
  C  C60  1  0.41886000  0.53441000  0.10377000  1.0
  C  C61  1  0.44959000  0.95199000  0.66678000  1.0
  C  C62  1  0.21464000  0.49843000  0.49368000  1.0
  C  C63  1  0.78027000  0.51787000  0.49821000  1.0
  C  C64  1  0.03466000  0.47904000  0.48249000  1.0
  C  C65  1  0.96005000  0.53997000  0.50277000  1.0
  C  C66  1  0.86393000  0.52844000  0.49952000  1.0
  C  C67  1  0.13076000  0.48996000  0.48764000  1.0
  C  C68  1  0.42998000  0.58417000  0.24025000  1.0
  C  C69  1  0.50691000  0.39831000  0.76417000  1.0
  C  C70  1  0.34410000  0.69006000  0.11472000  1.0
  C  C71  1  0.46419000  0.42891000  0.90668000  1.0
  C  C72  1  0.54368000  0.27542000  0.89396000  1.0
  C  C73  1  0.37571000  0.67108000  0.20143000  1.0
  C  C74  1  0.54397000  0.30573000  0.80396000  1.0
  C  C75  1  0.44948000  0.51728000  0.19229000  1.0
  C  C76  1  0.46669000  0.45770000  0.81502000  1.0
  C  C77  1  0.27953000  0.72690000  0.93132000  1.0
  C  C78  1  0.54617000  0.21660000  0.08408000  1.0
  C  C79  1  0.75245000  0.99996000  0.35855000  1.0
  C  C80  1  0.84357000  0.01338000  0.38330000  1.0
  C  C81  1  0.92341000  0.99267000  0.33407000  1.0
  C  C82  1  0.36629000  0.62342000  0.06408000  1.0
  C  C83  1  0.91333000  0.95926000  0.25900000  1.0
  C  C84  1  0.82287000  0.94658000  0.23352000  1.0
  C  C85  1  0.74298000  0.96651000  0.28295000  1.0
  C  C86  1  0.41671000  0.95350000  0.75653000  1.0
  C  C87  1  0.45998000  0.88781000  0.83028000  1.0
  C  C88  1  0.43477000  0.89589000  0.91474000  1.0
  C  C89  1  0.36540000  0.96899000  0.92710000  1.0
  C  C90  1  0.32111000  0.03398000  0.85431000  1.0
  C  C91  1  0.34656000  0.02650000  0.76983000  1.0
  C  C92  1  0.50830000  0.81069000  0.40914000  1.0
  C  C93  1  0.50607000  0.33639000  0.94694000  1.0
  C  C94  1  0.44285000  0.87793000  0.35154000  1.0
  C  C95  1  0.45250000  0.89195000  0.26110000  1.0
  C  C96  1  0.52822000  0.83942000  0.22729000  1.0
  C  C97  1  0.59363000  0.77274000  0.28432000  1.0
  C  C98  1  0.58389000  0.75810000  0.37487000  1.0
  C  C99  1  0.41300000  0.22138000  0.52560000  1.0
  C  C100  1  0.34134000  0.20093000  0.47491000  1.0
  C  C101  1  0.24555000  0.21404000  0.49844000  1.0
  C  C102  1  0.22044000  0.24648000  0.57357000  1.0
  C  C103  1  0.29151000  0.26644000  0.62439000  1.0
  C  C104  1  0.44312000  0.46628000  0.05212000  1.0
  C  C105  1  0.38726000  0.25436000  0.60051000  1.0
  C  C106  1  0.42593000  0.49203000  0.96008000  1.0
  C  C107  1  0.37081000  0.57954000  0.92240000  1.0
  N  N108  1  0.55659000  0.27649000  0.46415000  1.0
  N  N109  1  0.46076000  0.72518000  0.54795000  1.0
  N  N110  1  0.22994000  0.79576000  0.89720000  1.0
  N  N111  1  0.57409000  0.13981000  0.11858000  1.0
  O  O112  1  0.44379000  0.62150000  0.37809000  1.0
  O  O113  1  0.52971000  0.37493000  0.62110000  1.0
  O  O114  1  0.51831000  0.48189000  0.36090000  1.0
  O  O115  1  0.49317000  0.52096000  0.63895000  1.0
  O  O116  1  0.61937000  0.57650000  0.50302000  1.0
  O  O117  1  0.37468000  0.44267000  0.48022000  1.0
  O  O118  1  0.66482000  0.42747000  0.49376000  1.0
  O  O119  1  0.33225000  0.57706000  0.52447000  1.0
