# generated using pymatgen
data_CdH19C15S2N3O7
_symmetry_space_group_name_H-M   'P 1'
_cell_length_a   4.96243000
_cell_length_b   10.53910000
_cell_length_c   18.40700000
_cell_angle_alpha   95.98580000
_cell_angle_beta   90.00000000
_cell_angle_gamma   90.00000000
_symmetry_Int_Tables_number   1
_chemical_formula_structural   CdH19C15S2N3O7
_chemical_formula_sum   'Cd2 H38 C30 S4 N6 O14'
_cell_volume   957.42900378
_cell_formula_units_Z   2
loop_
 _symmetry_equiv_pos_site_id
 _symmetry_equiv_pos_as_xyz
  1  'x, y, z'
loop_
 _atom_site_type_symbol
 _atom_site_label
 _atom_site_symmetry_multiplicity
 _atom_site_fract_x
 _atom_site_fract_y
 _atom_site_fract_z
 _atom_site_occupancy
  Cd  Cd0  1  0.54785000  0.29367000  0.85937000  1.0
  Cd  Cd1  1  0.04784000  0.70633000  0.14063000  1.0
  H  H2  1  0.74800000  0.56614000  0.79734000  1.0
  H  H3  1  0.24800000  0.43386000  0.20266000  1.0
  H  H4  1  0.49904000  0.68473000  0.70245000  1.0
  H  H5  1  0.99903000  0.31527000  0.29755000  1.0
  H  H6  1  0.09423000  0.55938000  0.64943000  1.0
  H  H7  1  0.59423000  0.44062000  0.35057000  1.0
  H  H8  1  0.08735000  0.33799000  0.72151000  1.0
  H  H9  1  0.58735000  0.66201000  0.27849000  1.0
  H  H10  1  0.72357000  0.01343000  0.78609000  1.0
  H  H11  1  0.22356000  0.98657000  0.21391000  1.0
  H  H12  1  0.84154000  0.01507000  0.91441000  1.0
  H  H13  1  0.34153000  0.98494000  0.08559000  1.0
  H  H14  1  0.14345000  0.92627000  0.89188000  1.0
  H  H15  1  0.64345000  0.07373000  0.10812000  1.0
  H  H16  1  0.52322000  0.91186000  0.97421000  1.0
  H  H17  1  0.02322000  0.08814000  0.02579000  1.0
  H  H18  1  0.40021000  0.75233000  0.95358000  1.0
  H  H19  1  0.90022000  0.24767000  0.04642000  1.0
  H  H20  1  0.24846000  0.90368000  0.73706000  1.0
  H  H21  1  0.74846000  0.09632000  0.26293000  1.0
  H  H22  1  0.56221000  0.10742000  0.68231000  1.0
  H  H23  1  0.06221000  0.89257000  0.31769000  1.0
  H  H24  1  0.59475000  0.30659000  0.62287000  1.0
  H  H25  1  0.09475000  0.69341000  0.37713000  1.0
  H  H26  1  0.28173000  0.15719000  0.49918000  1.0
  H  H27  1  0.78173000  0.84281000  0.50082000  1.0
  H  H28  1  0.25247000  0.95654000  0.55866000  1.0
  H  H29  1  0.75247000  0.04346000  0.44134000  1.0
  H  H30  1  0.15689000  0.40338000  0.51959000  1.0
  H  H31  1  0.65689000  0.59662000  0.48041000  1.0
  H  H32  1  0.81188000  0.43639000  0.54074000  1.0
  H  H33  1  0.31188000  0.56361000  0.45926000  1.0
  H  H34  1  0.90119000  0.34031000  0.45910000  1.0
  H  H35  1  0.40119000  0.65969000  0.54090000  1.0
  H  H36  1  0.98280000  0.41880000  0.93383000  1.0
  H  H37  1  0.48280000  0.58120000  0.06617000  1.0
  H  H38  1  0.76338000  0.52433000  0.95361000  1.0
  H  H39  1  0.26338000  0.47567000  0.04639000  1.0
  C  C40  1  0.57092000  0.53256000  0.76677000  1.0
  C  C41  1  0.07092000  0.46744000  0.23323000  1.0
  C  C42  1  0.22799000  0.52491000  0.68943000  1.0
  C  C43  1  0.72799000  0.47509000  0.31057000  1.0
  C  C44  1  0.22729000  0.41720000  0.72565000  1.0
  C  C45  1  0.72729000  0.58280000  0.27435000  1.0
  C  C46  1  0.09410000  0.11895000  0.80573000  1.0
  C  C47  1  0.59410000  0.88105000  0.19427000  1.0
  C  C48  1  0.93394000  0.99407000  0.79953000  1.0
  C  C49  1  0.43393000  0.00593000  0.20047000  1.0
  C  C50  1  0.93611000  0.94377000  0.87481000  1.0
  C  C51  1  0.43612000  0.05623000  0.12519000  1.0
  C  C52  1  0.58160000  0.81213000  0.95923000  1.0
  C  C53  1  0.08161000  0.18787000  0.04077000  1.0
  C  C54  1  0.76800000  0.76522000  0.01595000  1.0
  C  C55  1  0.26800000  0.23478000  0.98405000  1.0
  C  C56  1  0.90482000  0.01999000  0.62334000  1.0
  C  C57  1  0.40482000  0.98001000  0.37666000  1.0
  C  C58  1  0.72073000  0.11825000  0.64246000  1.0
  C  C59  1  0.22073000  0.88175000  0.35754000  1.0
  C  C60  1  0.74016000  0.23032000  0.60861000  1.0
  C  C61  1  0.24016000  0.76968000  0.39139000  1.0
  C  C62  1  0.93848000  0.24531000  0.55603000  1.0
  C  C63  1  0.43848000  0.75469000  0.44398000  1.0
  C  C64  1  0.12365000  0.14590000  0.53909000  1.0
  C  C65  1  0.62366000  0.85410000  0.46091000  1.0
  C  C66  1  0.10919000  0.03357000  0.57235000  1.0
  C  C67  1  0.60918000  0.96643000  0.42765000  1.0
  C  C68  1  0.95258000  0.36322000  0.51709000  1.0
  C  C69  1  0.45258000  0.63678000  0.48291000  1.0
  S  S70  1  0.73538000  0.79930000  0.86937000  1.0
  S  S71  1  0.23539000  0.20070000  0.13063000  1.0
  S  S72  1  0.88730000  0.87621000  0.66484000  1.0
  S  S73  1  0.38729000  0.12379000  0.33516000  1.0
  N  N74  1  0.44195000  0.42352000  0.77376000  1.0
  N  N75  1  0.94194000  0.57648000  0.22624000  1.0
  N  N76  1  0.44621000  0.59617000  0.71622000  1.0
  N  N77  1  0.94621000  0.40383000  0.28378000  1.0
  N  N78  1  0.04296000  0.89752000  0.74381000  1.0
  N  N79  1  0.54295000  0.10248000  0.25619000  1.0
  O  O80  1  0.33920000  0.11452000  0.78611000  1.0
  O  O81  1  0.83919000  0.88548000  0.21389000  1.0
  O  O82  1  0.97959000  0.21958000  0.83480000  1.0
  O  O83  1  0.47959000  0.78042000  0.16520000  1.0
  O  O84  1  0.93191000  0.84270000  0.04984000  1.0
  O  O85  1  0.43191000  0.15730000  0.95016000  1.0
  O  O86  1  0.75460000  0.64751000  0.02841000  1.0
  O  O87  1  0.25460000  0.35249000  0.97159000  1.0
  O  O88  1  0.03440000  0.77851000  0.62027000  1.0
  O  O89  1  0.53440000  0.22149000  0.37973000  1.0
  O  O90  1  0.60486000  0.85357000  0.68091000  1.0
  O  O91  1  0.10486000  0.14643000  0.31909000  1.0
  O  O92  1  0.81989000  0.45827000  0.91432000  1.0
  O  O93  1  0.31989000  0.54173000  0.08568000  1.0
