# generated using pymatgen
data_AlH3C12O5F4
_symmetry_space_group_name_H-M   'P 1'
_cell_length_a   6.66472000
_cell_length_b   20.92060000
_cell_length_c   23.47100000
_cell_angle_alpha   76.76700000
_cell_angle_beta   89.99980000
_cell_angle_gamma   89.99990000
_symmetry_Int_Tables_number   1
_chemical_formula_structural   AlH3C12O5F4
_chemical_formula_sum   'Al4 H12 C48 O20 F16'
_cell_volume   3185.66458334
_cell_formula_units_Z   4
loop_
 _symmetry_equiv_pos_site_id
 _symmetry_equiv_pos_as_xyz
  1  'x, y, z'
loop_
 _atom_site_type_symbol
 _atom_site_label
 _atom_site_symmetry_multiplicity
 _atom_site_fract_x
 _atom_site_fract_y
 _atom_site_fract_z
 _atom_site_occupancy
  Al  Al0  1  0.28449000  0.24852000  0.25095000  1.0
  Al  Al1  1  0.71551000  0.75148000  0.74905000  1.0
  Al  Al2  1  0.78449000  0.25149000  0.24905000  1.0
  Al  Al3  1  0.21552000  0.74852000  0.75094000  1.0
  H  H4  1  0.66279000  0.51831000  0.60128000  1.0
  H  H5  1  0.33721000  0.48169000  0.39872000  1.0
  H  H6  1  0.16278000  0.98168000  0.89873000  1.0
  H  H7  1  0.83722000  0.01831000  0.10127000  1.0
  H  H8  1  0.75678000  0.40611000  0.46803000  1.0
  H  H9  1  0.24323000  0.59390000  0.53198000  1.0
  H  H10  1  0.25678000  0.09390000  0.03197000  1.0
  H  H11  1  0.74323000  0.90610000  0.96803000  1.0
  H  H12  1  0.52994000  0.33104000  0.25749000  1.0
  H  H13  1  0.47006000  0.66897000  0.74251000  1.0
  H  H14  1  0.02994000  0.16897000  0.24251000  1.0
  H  H15  1  0.97005000  0.83103000  0.75749000  1.0
  C  C16  1  0.53558000  0.17908000  0.18186000  1.0
  C  C17  1  0.46442000  0.82092000  0.81814000  1.0
  C  C18  1  0.03556000  0.32092000  0.31814000  1.0
  C  C19  1  0.96443000  0.67908000  0.68186000  1.0
  C  C20  1  0.53811000  0.16271000  0.33784000  1.0
  C  C21  1  0.46189000  0.83729000  0.66216000  1.0
  C  C22  1  0.03810000  0.33729000  0.16216000  1.0
  C  C23  1  0.96189000  0.66271000  0.83784000  1.0
  C  C24  1  0.95339000  0.61169000  0.89074000  1.0
  C  C25  1  0.04662000  0.38831000  0.10926000  1.0
  C  C26  1  0.45337000  0.88832000  0.60925000  1.0
  C  C27  1  0.54662000  0.11169000  0.39074000  1.0
  C  C28  1  0.92219000  0.51550000  0.98348000  1.0
  C  C29  1  0.07780000  0.48450000  0.01652000  1.0
  C  C30  1  0.42219000  0.98452000  0.51653000  1.0
  C  C31  1  0.57782000  0.01548000  0.48347000  1.0
  C  C32  1  0.06004000  0.43310000  0.06581000  1.0
  C  C33  1  0.93994000  0.56690000  0.93419000  1.0
  C  C34  1  0.56005000  0.06689000  0.43418000  1.0
  C  C35  1  0.43994000  0.93311000  0.56582000  1.0
  C  C36  1  0.96090000  0.63465000  0.64025000  1.0
  C  C37  1  0.03910000  0.36535000  0.35975000  1.0
  C  C38  1  0.46091000  0.86534000  0.85976000  1.0
  C  C39  1  0.53909000  0.13466000  0.14025000  1.0
  C  C40  1  0.11724000  0.63213000  0.60045000  1.0
  C  C41  1  0.88276000  0.36787000  0.39956000  1.0
  C  C42  1  0.61724000  0.86787000  0.89956000  1.0
  C  C43  1  0.38276000  0.13213000  0.10044000  1.0
  C  C44  1  0.11634000  0.59165000  0.56128000  1.0
  C  C45  1  0.88367000  0.40835000  0.43873000  1.0
  C  C46  1  0.61635000  0.90835000  0.93873000  1.0
  C  C47  1  0.38366000  0.09165000  0.06127000  1.0
  C  C48  1  0.95151000  0.54971000  0.56047000  1.0
  C  C49  1  0.04850000  0.45029000  0.43953000  1.0
  C  C50  1  0.45151000  0.95028000  0.93954000  1.0
  C  C51  1  0.54850000  0.04972000  0.06046000  1.0
  C  C52  1  0.79217000  0.55023000  0.59980000  1.0
  C  C53  1  0.20783000  0.44977000  0.40020000  1.0
  C  C54  1  0.29217000  0.94976000  0.90021000  1.0
  C  C55  1  0.70784000  0.05024000  0.09979000  1.0
  C  C56  1  0.79998000  0.59180000  0.63791000  1.0
  C  C57  1  0.20002000  0.40820000  0.36209000  1.0
  C  C58  1  0.29997000  0.90819000  0.86210000  1.0
  C  C59  1  0.70003000  0.09181000  0.13791000  1.0
  C  C60  1  0.93620000  0.50546000  0.52108000  1.0
  C  C61  1  0.06381000  0.49454000  0.47893000  1.0
  C  C62  1  0.43620000  0.99454000  0.97893000  1.0
  C  C63  1  0.56381000  0.00546000  0.02107000  1.0
  O  O64  1  0.70742000  0.18314000  0.31596000  1.0
  O  O65  1  0.29258000  0.81685000  0.68404000  1.0
  O  O66  1  0.20743000  0.31685000  0.18404000  1.0
  O  O67  1  0.79257000  0.68315000  0.81596000  1.0
  O  O68  1  0.36523000  0.19295000  0.20010000  1.0
  O  O69  1  0.63477000  0.80704000  0.79990000  1.0
  O  O70  1  0.86524000  0.30704000  0.29991000  1.0
  O  O71  1  0.13475000  0.69296000  0.70009000  1.0
  O  O72  1  0.36442000  0.18095000  0.31811000  1.0
  O  O73  1  0.63558000  0.81905000  0.68188000  1.0
  O  O74  1  0.86442000  0.31906000  0.18189000  1.0
  O  O75  1  0.13557000  0.68094000  0.81811000  1.0
  O  O76  1  0.20433000  0.30121000  0.30392000  1.0
  O  O77  1  0.79567000  0.69879000  0.69608000  1.0
  O  O78  1  0.70431000  0.19880000  0.19608000  1.0
  O  O79  1  0.29568000  0.80120000  0.80392000  1.0
  O  O80  1  0.53305000  0.28911000  0.24648000  1.0
  O  O81  1  0.46695000  0.71089000  0.75352000  1.0
  O  O82  1  0.03305000  0.21089000  0.25352000  1.0
  O  O83  1  0.96695000  0.78911000  0.74648000  1.0
  F  F84  1  0.26677000  0.50567000  0.00018000  1.0
  F  F85  1  0.73320000  0.49432000  0.99982000  1.0
  F  F86  1  0.76677000  0.99425000  0.49976000  1.0
  F  F87  1  0.23321000  0.00575000  0.50024000  1.0
  F  F88  1  0.27739000  0.67232000  0.59837000  1.0
  F  F89  1  0.72260000  0.32768000  0.40164000  1.0
  F  F90  1  0.77740000  0.82768000  0.90164000  1.0
  F  F91  1  0.22261000  0.17232000  0.09837000  1.0
  F  F92  1  0.35567000  0.41161000  0.32431000  1.0
  F  F93  1  0.64433000  0.58838000  0.67569000  1.0
  F  F94  1  0.85568000  0.08839000  0.17569000  1.0
  F  F95  1  0.14433000  0.91161000  0.82432000  1.0
  F  F96  1  0.23684000  0.53078000  0.47177000  1.0
  F  F97  1  0.76317000  0.46922000  0.52823000  1.0
  F  F98  1  0.73685000  0.96923000  0.02822000  1.0
  F  F99  1  0.26315000  0.03077000  0.97178000  1.0
