# generated using pymatgen
data_ZnH20C22(NO2)2
_symmetry_space_group_name_H-M   'P 1'
_cell_length_a   7.65682000
_cell_length_b   8.82203000
_cell_length_c   15.40680000
_cell_angle_alpha   93.17730000
_cell_angle_beta   90.59670000
_cell_angle_gamma   97.61720000
_symmetry_Int_Tables_number   1
_chemical_formula_structural   ZnH20C22(NO2)2
_chemical_formula_sum   'Zn2 H40 C44 N4 O8'
_cell_volume   1029.77427238
_cell_formula_units_Z   2
loop_
 _symmetry_equiv_pos_site_id
 _symmetry_equiv_pos_as_xyz
  1  'x, y, z'
loop_
 _atom_site_type_symbol
 _atom_site_label
 _atom_site_symmetry_multiplicity
 _atom_site_fract_x
 _atom_site_fract_y
 _atom_site_fract_z
 _atom_site_occupancy
  Zn  Zn0  1  0.38098000  0.19626000  0.24501000  1.0
  Zn  Zn1  1  0.61903000  0.80373000  0.75499000  1.0
  H  H2  1  0.50428000  0.50948000  0.20266000  1.0
  H  H3  1  0.49571000  0.49051000  0.79734000  1.0
  H  H4  1  0.72382000  0.64248000  0.10534000  1.0
  H  H5  1  0.27615000  0.35753000  0.89467000  1.0
  H  H6  1  0.75206000  0.20487000  0.96926000  1.0
  H  H7  1  0.24793000  0.79516000  0.03073000  1.0
  H  H8  1  0.52675000  0.09001000  0.07168000  1.0
  H  H9  1  0.47326000  0.91000000  0.92831000  1.0
  H  H10  1  0.89994000  0.63225000  0.97498000  1.0
  H  H11  1  0.10003000  0.36779000  0.02503000  1.0
  H  H12  1  0.90504000  0.46241000  0.91117000  1.0
  H  H13  1  0.09494000  0.53762000  0.08883000  1.0
  H  H14  1  0.77984000  0.18690000  0.22667000  1.0
  H  H15  1  0.22017000  0.81311000  0.77334000  1.0
  H  H16  1  0.02491000  0.13802000  0.32387000  1.0
  H  H17  1  0.97510000  0.86197000  0.67613000  1.0
  H  H18  1  0.66536000  0.12562000  0.53698000  1.0
  H  H19  1  0.33466000  0.87437000  0.46302000  1.0
  H  H20  1  0.42821000  0.16647000  0.43009000  1.0
  H  H21  1  0.57181000  0.83353000  0.56992000  1.0
  H  H22  1  0.99535000  0.14048000  0.56259000  1.0
  H  H23  1  0.00467000  0.85950000  0.43741000  1.0
  H  H24  1  0.13658000  0.13065000  0.47154000  1.0
  H  H25  1  0.86344000  0.86933000  0.52846000  1.0
  H  H26  1  0.09594000  0.48641000  0.42020000  1.0
  H  H27  1  0.90403000  0.51356000  0.57980000  1.0
  H  H28  1  0.21637000  0.63220000  0.36414000  1.0
  H  H29  1  0.78362000  0.36778000  0.63587000  1.0
  H  H30  1  0.79299000  0.47043000  0.43219000  1.0
  H  H31  1  0.20699000  0.52956000  0.56781000  1.0
  H  H32  1  0.51810000  0.58522000  0.41361000  1.0
  H  H33  1  0.48189000  0.41478000  0.58638000  1.0
  H  H34  1  0.50960000  0.79344000  0.30969000  1.0
  H  H35  1  0.49041000  0.20657000  0.69031000  1.0
  H  H36  1  0.76997000  0.86644000  0.21876000  1.0
  H  H37  1  0.23004000  0.13356000  0.78124000  1.0
  H  H38  1  0.03530000  0.77987000  0.15180000  1.0
  H  H39  1  0.96470000  0.22011000  0.84820000  1.0
  H  H40  1  0.17087000  0.67490000  0.21141000  1.0
  H  H41  1  0.82914000  0.32510000  0.78859000  1.0
  C  C42  1  0.56041000  0.44680000  0.14926000  1.0
  C  C43  1  0.43958000  0.55320000  0.85074000  1.0
  C  C44  1  0.68398000  0.51964000  0.09502000  1.0
  C  C45  1  0.31599000  0.48037000  0.90499000  1.0
  C  C46  1  0.76139000  0.43483000  0.03021000  1.0
  C  C47  1  0.23859000  0.56520000  0.96979000  1.0
  C  C48  1  0.70069000  0.27736000  0.01998000  1.0
  C  C49  1  0.29930000  0.72266000  0.98002000  1.0
  C  C50  1  0.57523000  0.21234000  0.07635000  1.0
  C  C51  1  0.42476000  0.78767000  0.92365000  1.0
  C  C52  1  0.91026000  0.50965000  0.97859000  1.0
  C  C53  1  0.08973000  0.49039000  0.02141000  1.0
  C  C54  1  0.75727000  0.16928000  0.29537000  1.0
  C  C55  1  0.24274000  0.83073000  0.70464000  1.0
  C  C56  1  0.89455000  0.14414000  0.34987000  1.0
  C  C57  1  0.10546000  0.85585000  0.65013000  1.0
  C  C58  1  0.86469000  0.12608000  0.43828000  1.0
  C  C59  1  0.13532000  0.87390000  0.56173000  1.0
  C  C60  1  0.69429000  0.13719000  0.46832000  1.0
  C  C61  1  0.30573000  0.86280000  0.53168000  1.0
  C  C62  1  0.56274000  0.15961000  0.40965000  1.0
  C  C63  1  0.43728000  0.84039000  0.59036000  1.0
  C  C64  1  0.00717000  0.08792000  0.49712000  1.0
  C  C65  1  0.99284000  0.91207000  0.50288000  1.0
  C  C66  1  0.16252000  0.41882000  0.29126000  1.0
  C  C67  1  0.83748000  0.58118000  0.70874000  1.0
  C  C68  1  0.10554000  0.53864000  0.35706000  1.0
  C  C69  1  0.89445000  0.46135000  0.64294000  1.0
  C  C70  1  0.93841000  0.60332000  0.33727000  1.0
  C  C71  1  0.06159000  0.39668000  0.66272000  1.0
  C  C72  1  0.78775000  0.55820000  0.38536000  1.0
  C  C73  1  0.21225000  0.44180000  0.61463000  1.0
  C  C74  1  0.63328000  0.62382000  0.37568000  1.0
  C  C75  1  0.36672000  0.37618000  0.62432000  1.0
  C  C76  1  0.62746000  0.73752000  0.31655000  1.0
  C  C77  1  0.37254000  0.26248000  0.68344000  1.0
  C  C78  1  0.77458000  0.77925000  0.26610000  1.0
  C  C79  1  0.22543000  0.22076000  0.73390000  1.0
  C  C80  1  0.93015000  0.71323000  0.27490000  1.0
  C  C81  1  0.06985000  0.28677000  0.72510000  1.0
  C  C82  1  0.08335000  0.76401000  0.21765000  1.0
  C  C83  1  0.91666000  0.23598000  0.78235000  1.0
  C  C84  1  0.19670000  0.91216000  0.25038000  1.0
  C  C85  1  0.80330000  0.08784000  0.74962000  1.0
  N  N86  1  0.50826000  0.29481000  0.14123000  1.0
  N  N87  1  0.49174000  0.70518000  0.85877000  1.0
  N  N88  1  0.59252000  0.17358000  0.32406000  1.0
  N  N89  1  0.40750000  0.82642000  0.67594000  1.0
  O  O90  1  0.28311000  0.34507000  0.32293000  1.0
  O  O91  1  0.71689000  0.65493000  0.67707000  1.0
  O  O92  1  0.10031000  0.39786000  0.21595000  1.0
  O  O93  1  0.89968000  0.60214000  0.78404000  1.0
  O  O94  1  0.24866000  0.00644000  0.19082000  1.0
  O  O95  1  0.75136000  0.99355000  0.80917000  1.0
  O  O96  1  0.23594000  0.93667000  0.32929000  1.0
  O  O97  1  0.76404000  0.06334000  0.67071000  1.0
