# generated using pymatgen
data_H14RuC19N5(OF)4
_symmetry_space_group_name_H-M   'P 1'
_cell_length_a   10.14300000
_cell_length_b   10.80600000
_cell_length_c   10.84180000
_cell_angle_alpha   90.50270000
_cell_angle_beta   105.28700000
_cell_angle_gamma   111.48400000
_symmetry_Int_Tables_number   1
_chemical_formula_structural   H14RuC19N5(OF)4
_chemical_formula_sum   'H28 Ru2 C38 N10 O8 F8'
_cell_volume   1059.25917896
_cell_formula_units_Z   2
loop_
 _symmetry_equiv_pos_site_id
 _symmetry_equiv_pos_as_xyz
  1  'x, y, z'
loop_
 _atom_site_type_symbol
 _atom_site_label
 _atom_site_symmetry_multiplicity
 _atom_site_fract_x
 _atom_site_fract_y
 _atom_site_fract_z
 _atom_site_occupancy
  H  H0  1  0.29779000  0.61800000  0.75078000  1.0
  H  H1  1  0.70223000  0.38205000  0.24924000  1.0
  H  H2  1  0.10230000  0.48466000  0.85214000  1.0
  H  H3  1  0.89771000  0.51538000  0.14786000  1.0
  H  H4  1  0.17217000  0.45587000  0.08481000  1.0
  H  H5  1  0.82784000  0.54414000  0.91519000  1.0
  H  H6  1  0.45711000  0.19709000  0.71419000  1.0
  H  H7  1  0.54287000  0.80290000  0.28580000  1.0
  H  H8  1  0.23215000  0.98739000  0.64545000  1.0
  H  H9  1  0.76783000  0.01259000  0.35454000  1.0
  H  H10  1  0.25360000  0.77404000  0.58164000  1.0
  H  H11  1  0.74639000  0.22595000  0.41835000  1.0
  H  H12  1  0.00916000  0.68151000  0.36026000  1.0
  H  H13  1  0.99085000  0.31849000  0.63974000  1.0
  H  H14  1  0.89961000  0.48704000  0.68628000  1.0
  H  H15  1  0.10039000  0.51295000  0.31372000  1.0
  H  H16  1  0.83821000  0.75580000  0.37146000  1.0
  H  H17  1  0.16178000  0.24418000  0.62854000  1.0
  H  H18  1  0.84352000  0.86141000  0.50087000  1.0
  H  H19  1  0.15648000  0.13858000  0.49913000  1.0
  H  H20  1  0.01321000  0.86430000  0.47755000  1.0
  H  H21  1  0.98679000  0.13569000  0.52245000  1.0
  H  H22  1  0.06341000  0.81884000  0.71732000  1.0
  H  H23  1  0.93659000  0.18115000  0.28268000  1.0
  H  H24  1  0.88146000  0.81311000  0.70706000  1.0
  H  H25  1  0.11854000  0.18688000  0.29294000  1.0
  H  H26  1  0.92982000  0.67587000  0.75694000  1.0
  H  H27  1  0.07018000  0.32412000  0.24306000  1.0
  Ru  Ru28  1  0.62482000  0.55237000  0.51031000  1.0
  Ru  Ru29  1  0.37517000  0.44761000  0.48970000  1.0
  C  C30  1  0.43891000  0.54973000  0.25536000  1.0
  C  C31  1  0.56110000  0.45027000  0.74465000  1.0
  C  C32  1  0.40258000  0.57473000  0.11844000  1.0
  C  C33  1  0.59743000  0.42529000  0.88157000  1.0
  C  C34  1  0.50920000  0.65226000  0.06049000  1.0
  C  C35  1  0.49082000  0.34775000  0.93952000  1.0
  C  C36  1  0.46936000  0.66680000  0.92965000  1.0
  C  C37  1  0.53067000  0.33323000  0.07037000  1.0
  C  C38  1  0.32425000  0.60721000  0.85319000  1.0
  C  C39  1  0.67577000  0.39283000  0.14683000  1.0
  C  C40  1  0.21673000  0.53243000  0.91069000  1.0
  C  C41  1  0.78328000  0.46760000  0.08932000  1.0
  C  C42  1  0.25520000  0.51644000  0.04055000  1.0
  C  C43  1  0.74481000  0.48358000  0.95946000  1.0
  C  C44  1  0.49463000  0.73250000  0.57728000  1.0
  C  C45  1  0.50536000  0.26749000  0.42272000  1.0
  C  C46  1  0.48895000  0.86141000  0.61828000  1.0
  C  C47  1  0.51104000  0.13858000  0.38172000  1.0
  C  C48  1  0.61464000  0.98037000  0.65930000  1.0
  C  C49  1  0.38535000  0.01962000  0.34069000  1.0
  C  C50  1  0.60138000  0.09900000  0.69421000  1.0
  C  C51  1  0.39861000  0.90099000  0.30578000  1.0
  C  C52  1  0.46528000  0.10304000  0.68964000  1.0
  C  C53  1  0.53470000  0.89695000  0.31035000  1.0
  C  C54  1  0.33965000  0.98498000  0.64968000  1.0
  C  C55  1  0.66033000  0.01500000  0.35031000  1.0
  C  C56  1  0.35119000  0.86628000  0.61472000  1.0
  C  C57  1  0.64880000  0.13371000  0.38527000  1.0
  C  C58  1  0.94848000  0.59935000  0.52871000  1.0
  C  C59  1  0.05152000  0.40064000  0.47128000  1.0
  C  C60  1  0.00220000  0.60157000  0.42158000  1.0
  C  C61  1  0.99780000  0.39842000  0.57842000  1.0
  C  C62  1  0.94754000  0.49601000  0.60638000  1.0
  C  C63  1  0.05246000  0.50399000  0.39362000  1.0
  C  C64  1  0.89770000  0.80010000  0.47133000  1.0
  C  C65  1  0.10230000  0.19989000  0.52867000  1.0
  C  C66  1  0.94496000  0.75402000  0.69278000  1.0
  C  C67  1  0.05504000  0.24597000  0.30722000  1.0
  N  N68  1  0.88906000  0.69431000  0.55682000  1.0
  N  N69  1  0.11094000  0.30568000  0.44318000  1.0
  N  N70  1  0.96726000  0.81541000  0.06957000  1.0
  N  N71  1  0.03275000  0.18458000  0.93042000  1.0
  N  N72  1  0.95347000  0.89860000  0.11904000  1.0
  N  N73  1  0.04653000  0.10140000  0.88095000  1.0
  N  N74  1  0.27972000  0.95021000  0.01375000  1.0
  N  N75  1  0.72029000  0.04980000  0.98624000  1.0
  N  N76  1  0.31877000  0.90800000  0.94301000  1.0
  N  N77  1  0.68123000  0.09202000  0.05699000  1.0
  O  O78  1  0.57525000  0.59006000  0.32159000  1.0
  O  O79  1  0.42475000  0.40993000  0.67842000  1.0
  O  O80  1  0.33062000  0.48846000  0.30049000  1.0
  O  O81  1  0.66939000  0.51153000  0.69951000  1.0
  O  O82  1  0.61718000  0.73066000  0.56830000  1.0
  O  O83  1  0.38282000  0.26933000  0.43170000  1.0
  O  O84  1  0.37366000  0.62884000  0.55134000  1.0
  O  O85  1  0.62634000  0.37115000  0.44867000  1.0
  F  F86  1  0.65344000  0.71582000  0.12745000  1.0
  F  F87  1  0.34658000  0.28420000  0.87257000  1.0
  F  F88  1  0.57806000  0.74028000  0.87816000  1.0
  F  F89  1  0.42195000  0.25976000  0.12186000  1.0
  F  F90  1  0.75244000  0.98661000  0.66714000  1.0
  F  F91  1  0.24754000  0.01338000  0.33285000  1.0
  F  F92  1  0.72620000  0.21221000  0.73227000  1.0
  F  F93  1  0.27379000  0.78778000  0.26772000  1.0
