# generated using pymatgen
data_HgH11C11N3Cl2
_symmetry_space_group_name_H-M   'P 1'
_cell_length_a   7.74864000
_cell_length_b   12.08860000
_cell_length_c   13.83160000
_cell_angle_alpha   92.18490000
_cell_angle_beta   90.00000000
_cell_angle_gamma   90.00000000
_symmetry_Int_Tables_number   1
_chemical_formula_structural   HgH11C11N3Cl2
_chemical_formula_sum   'Hg4 H44 C44 N12 Cl8'
_cell_volume   1294.66696033
_cell_formula_units_Z   4
loop_
 _symmetry_equiv_pos_site_id
 _symmetry_equiv_pos_as_xyz
  1  'x, y, z'
loop_
 _atom_site_type_symbol
 _atom_site_label
 _atom_site_symmetry_multiplicity
 _atom_site_fract_x
 _atom_site_fract_y
 _atom_site_fract_z
 _atom_site_occupancy
  Hg  Hg0  1  0.11801000  0.00751000  0.25877000  1.0
  Hg  Hg1  1  0.61801000  0.49249000  0.24123000  1.0
  Hg  Hg2  1  0.88199000  0.99249000  0.74123000  1.0
  Hg  Hg3  1  0.38199000  0.50751000  0.75877000  1.0
  H  H4  1  0.61011000  0.31998000  0.36736000  1.0
  H  H5  1  0.11011000  0.18002000  0.13264000  1.0
  H  H6  1  0.38989000  0.68003000  0.63264000  1.0
  H  H7  1  0.88989000  0.81998000  0.86736000  1.0
  H  H8  1  0.33674000  0.18414000  0.39441000  1.0
  H  H9  1  0.83675000  0.31586000  0.10559000  1.0
  H  H10  1  0.66326000  0.81587000  0.60559000  1.0
  H  H11  1  0.16326000  0.68413000  0.89441000  1.0
  H  H12  1  0.83666000  0.05504000  0.46619000  1.0
  H  H13  1  0.33666000  0.44496000  0.03381000  1.0
  H  H14  1  0.16334000  0.94496000  0.53381000  1.0
  H  H15  1  0.66334000  0.55504000  0.96619000  1.0
  H  H16  1  0.76640000  0.88585000  0.36142000  1.0
  H  H17  1  0.26640000  0.61415000  0.13858000  1.0
  H  H18  1  0.23360000  0.11415000  0.63858000  1.0
  H  H19  1  0.73360000  0.38585000  0.86142000  1.0
  H  H20  1  0.47636000  0.87339000  0.28304000  1.0
  H  H21  1  0.97636000  0.62661000  0.21696000  1.0
  H  H22  1  0.52364000  0.12661000  0.71696000  1.0
  H  H23  1  0.02364000  0.37339000  0.78304000  1.0
  H  H24  1  0.52376000  0.25035000  0.55343000  1.0
  H  H25  1  0.02377000  0.24965000  0.94657000  1.0
  H  H26  1  0.47624000  0.74965000  0.44657000  1.0
  H  H27  1  0.97624000  0.75035000  0.05343000  1.0
  H  H28  1  0.74791000  0.22529000  0.54124000  1.0
  H  H29  1  0.24791000  0.27471000  0.95876000  1.0
  H  H30  1  0.25209000  0.77471000  0.45876000  1.0
  H  H31  1  0.75209000  0.72529000  0.04124000  1.0
  H  H32  1  0.73007000  0.39191000  0.62169000  1.0
  H  H33  1  0.23008000  0.10809000  0.87831000  1.0
  H  H34  1  0.26993000  0.60809000  0.37831000  1.0
  H  H35  1  0.76992000  0.89191000  0.12169000  1.0
  H  H36  1  0.85066000  0.57722000  0.66887000  1.0
  H  H37  1  0.35066000  0.92278000  0.83113000  1.0
  H  H38  1  0.14935000  0.42279000  0.33112000  1.0
  H  H39  1  0.64934000  0.07722000  0.16887000  1.0
  H  H40  1  0.89407000  0.71756000  0.54205000  1.0
  H  H41  1  0.39407000  0.78244000  0.95795000  1.0
  H  H42  1  0.10593000  0.28244000  0.45795000  1.0
  H  H43  1  0.60593000  0.21756000  0.04205000  1.0
  H  H44  1  0.78993000  0.67060000  0.37337000  1.0
  H  H45  1  0.28993000  0.82940000  0.12663000  1.0
  H  H46  1  0.21006000  0.32940000  0.62662000  1.0
  H  H47  1  0.71007000  0.17060000  0.87337000  1.0
  C  C48  1  0.43525000  0.11962000  0.39031000  1.0
  C  C49  1  0.93525000  0.38038000  0.10969000  1.0
  C  C50  1  0.56475000  0.88038000  0.60969000  1.0
  C  C51  1  0.06475000  0.61962000  0.89031000  1.0
  C  C52  1  0.59202000  0.13275000  0.43940000  1.0
  C  C53  1  0.09203000  0.36725000  0.06061000  1.0
  C  C54  1  0.40798000  0.86725000  0.56060000  1.0
  C  C55  1  0.90798000  0.63275000  0.93940000  1.0
  C  C56  1  0.71263000  0.04724000  0.42933000  1.0
  C  C57  1  0.21263000  0.45276000  0.07067000  1.0
  C  C58  1  0.28737000  0.95276000  0.57067000  1.0
  C  C59  1  0.78737000  0.54724000  0.92933000  1.0
  C  C60  1  0.67348000  0.95298000  0.37214000  1.0
  C  C61  1  0.17348000  0.54702000  0.12786000  1.0
  C  C62  1  0.32652000  0.04702000  0.62786000  1.0
  C  C63  1  0.82652000  0.45298000  0.87214000  1.0
  C  C64  1  0.51353000  0.94657000  0.32673000  1.0
  C  C65  1  0.01353000  0.55343000  0.17327000  1.0
  C  C66  1  0.48647000  0.05343000  0.67327000  1.0
  C  C67  1  0.98647000  0.44657000  0.82674000  1.0
  C  C68  1  0.62822000  0.23644000  0.49984000  1.0
  C  C69  1  0.12823000  0.26356000  0.00016000  1.0
  C  C70  1  0.37178000  0.76356000  0.50016000  1.0
  C  C71  1  0.87178000  0.73644000  0.99984000  1.0
  C  C72  1  0.70068000  0.43151000  0.47023000  1.0
  C  C73  1  0.20068000  0.06849000  0.02977000  1.0
  C  C74  1  0.29932000  0.56849000  0.52977000  1.0
  C  C75  1  0.79932000  0.93151000  0.97023000  1.0
  C  C76  1  0.74656000  0.45493000  0.56824000  1.0
  C  C77  1  0.24656000  0.04508000  0.93176000  1.0
  C  C78  1  0.25344000  0.54508000  0.43176000  1.0
  C  C79  1  0.75343000  0.95492000  0.06824000  1.0
  C  C80  1  0.81452000  0.55773000  0.59396000  1.0
  C  C81  1  0.31452000  0.94227000  0.90604000  1.0
  C  C82  1  0.18549000  0.44227000  0.40603000  1.0
  C  C83  1  0.68548000  0.05773000  0.09396000  1.0
  C  C84  1  0.83588000  0.63751000  0.52383000  1.0
  C  C85  1  0.33588000  0.86249000  0.97617000  1.0
  C  C86  1  0.16412000  0.36249000  0.47617000  1.0
  C  C87  1  0.66412000  0.13751000  0.02383000  1.0
  C  C88  1  0.78105000  0.61104000  0.43061000  1.0
  C  C89  1  0.28105000  0.88896000  0.06939000  1.0
  C  C90  1  0.21894000  0.38896000  0.56938000  1.0
  C  C91  1  0.71895000  0.11104000  0.93062000  1.0
  N  N92  1  0.39705000  0.02882000  0.33585000  1.0
  N  N93  1  0.89705000  0.47118000  0.16414000  1.0
  N  N94  1  0.60295000  0.97118000  0.66415000  1.0
  N  N95  1  0.10295000  0.52882000  0.83586000  1.0
  N  N96  1  0.64354000  0.33085000  0.43852000  1.0
  N  N97  1  0.14354000  0.16915000  0.06148000  1.0
  N  N98  1  0.35646000  0.66915000  0.56148000  1.0
  N  N99  1  0.85646000  0.83085000  0.93852000  1.0
  N  N100  1  0.71406000  0.51156000  0.40402000  1.0
  N  N101  1  0.21406000  0.98844000  0.09598000  1.0
  N  N102  1  0.28594000  0.48844000  0.59598000  1.0
  N  N103  1  0.78594000  0.01156000  0.90402000  1.0
  Cl  Cl104  1  0.98638000  0.18821000  0.28845000  1.0
  Cl  Cl105  1  0.48638000  0.31179000  0.21155000  1.0
  Cl  Cl106  1  0.01362000  0.81179000  0.71155000  1.0
  Cl  Cl107  1  0.51362000  0.68821000  0.78845000  1.0
  Cl  Cl108  1  0.07002000  0.81387000  0.29780000  1.0
  Cl  Cl109  1  0.57002000  0.68613000  0.20220000  1.0
  Cl  Cl110  1  0.92998000  0.18613000  0.70220000  1.0
  Cl  Cl111  1  0.42998000  0.31387000  0.79780000  1.0
