# generated using pymatgen
data_AgH13C10(SO)2
_symmetry_space_group_name_H-M   'P 1'
_cell_length_a   6.76983000
_cell_length_b   7.55936000
_cell_length_c   12.24180000
_cell_angle_alpha   78.52000000
_cell_angle_beta   87.56480000
_cell_angle_gamma   74.58970000
_symmetry_Int_Tables_number   1
_chemical_formula_structural   AgH13C10(SO)2
_chemical_formula_sum   'Ag2 H26 C20 S4 O4'
_cell_volume   591.83928714
_cell_formula_units_Z   2
loop_
 _symmetry_equiv_pos_site_id
 _symmetry_equiv_pos_as_xyz
  1  'x, y, z'
loop_
 _atom_site_type_symbol
 _atom_site_label
 _atom_site_symmetry_multiplicity
 _atom_site_fract_x
 _atom_site_fract_y
 _atom_site_fract_z
 _atom_site_occupancy
  Ag  Ag0  1  0.42542000  0.33855000  0.53851000  1.0
  Ag  Ag1  1  0.57458000  0.66143000  0.46149000  1.0
  H  H2  1  0.93219000  0.30347000  0.51174000  1.0
  H  H3  1  0.06782000  0.69652000  0.48827000  1.0
  H  H4  1  0.92068000  0.42468000  0.62475000  1.0
  H  H5  1  0.07933000  0.57531000  0.37526000  1.0
  H  H6  1  0.35351000  0.28325000  0.17174000  1.0
  H  H7  1  0.64649000  0.71675000  0.82826000  1.0
  H  H8  1  0.95307000  0.36765000  0.18521000  1.0
  H  H9  1  0.04692000  0.63237000  0.81479000  1.0
  H  H10  1  0.81469000  0.98887000  0.53455000  1.0
  H  H11  1  0.18532000  0.01112000  0.46546000  1.0
  H  H12  1  0.69138000  0.89390000  0.65496000  1.0
  H  H13  1  0.30863000  0.10608000  0.34504000  1.0
  H  H14  1  0.95919000  0.88019000  0.66153000  1.0
  H  H15  1  0.04082000  0.11981000  0.33848000  1.0
  H  H16  1  0.02359000  0.30119000  0.99358000  1.0
  H  H17  1  0.97640000  0.69885000  0.00641000  1.0
  H  H18  1  0.75633000  0.22245000  0.89127000  1.0
  H  H19  1  0.24366000  0.77755000  0.10873000  1.0
  H  H20  1  0.42145000  0.21444000  0.98056000  1.0
  H  H21  1  0.57855000  0.78557000  0.01943000  1.0
  H  H22  1  0.18150000  0.32667000  0.78417000  1.0
  H  H23  1  0.81851000  0.67332000  0.21583000  1.0
  H  H24  1  0.37201000  0.10684000  0.81259000  1.0
  H  H25  1  0.62800000  0.89315000  0.18741000  1.0
  H  H26  1  0.10972000  0.10957000  0.83644000  1.0
  H  H27  1  0.89029000  0.89042000  0.16356000  1.0
  C  C28  1  0.65002000  0.32734000  0.19076000  1.0
  C  C29  1  0.35000000  0.67266000  0.80924000  1.0
  C  C30  1  0.94594000  0.28665000  0.60256000  1.0
  C  C31  1  0.05406000  0.71334000  0.39745000  1.0
  C  C32  1  0.61064000  0.36554000  0.30696000  1.0
  C  C33  1  0.38934000  0.63447000  0.69302000  1.0
  C  C34  1  0.50035000  0.28508000  0.13218000  1.0
  C  C35  1  0.49964000  0.71493000  0.86781000  1.0
  C  C36  1  0.83815000  0.33312000  0.13954000  1.0
  C  C37  1  0.16183000  0.66690000  0.86046000  1.0
  C  C38  1  0.81055000  0.96584000  0.62582000  1.0
  C  C39  1  0.18946000  0.03415000  0.37419000  1.0
  C  C40  1  0.87699000  0.29505000  0.03261000  1.0
  C  C41  1  0.12301000  0.70495000  0.96739000  1.0
  C  C42  1  0.72759000  0.25131000  0.97524000  1.0
  C  C43  1  0.27239000  0.74870000  0.02476000  1.0
  C  C44  1  0.53916000  0.24681000  0.02536000  1.0
  C  C45  1  0.46086000  0.75318000  0.97464000  1.0
  C  C46  1  0.21458000  0.17682000  0.78369000  1.0
  C  C47  1  0.78542000  0.82317000  0.21631000  1.0
  S  S48  1  0.74291000  0.18883000  0.66852000  1.0
  S  S49  1  0.25710000  0.81117000  0.33149000  1.0
  S  S50  1  0.20083000  0.14417000  0.64277000  1.0
  S  S51  1  0.79918000  0.85582000  0.35724000  1.0
  O  O52  1  0.43860000  0.35074000  0.35014000  1.0
  O  O53  1  0.56139000  0.64928000  0.64985000  1.0
  O  O54  1  0.74819000  0.41109000  0.35417000  1.0
  O  O55  1  0.25181000  0.58892000  0.64582000  1.0
