# generated using pymatgen
data_NiH18C18(NO)4
_symmetry_space_group_name_H-M   'P 1'
_cell_length_a   8.88288000
_cell_length_b   8.88287000
_cell_length_c   12.75750000
_cell_angle_alpha   77.69230000
_cell_angle_beta   77.69240000
_cell_angle_gamma   64.03840000
_symmetry_Int_Tables_number   1
_chemical_formula_structural   NiH18C18(NO)4
_chemical_formula_sum   'Ni2 H36 C36 N8 O8'
_cell_volume   875.98534764
_cell_formula_units_Z   2
loop_
 _symmetry_equiv_pos_site_id
 _symmetry_equiv_pos_as_xyz
  1  'x, y, z'
loop_
 _atom_site_type_symbol
 _atom_site_label
 _atom_site_symmetry_multiplicity
 _atom_site_fract_x
 _atom_site_fract_y
 _atom_site_fract_z
 _atom_site_occupancy
  Ni  Ni0  1  0.00000000  0.00000000  0.50000000  1.0
  Ni  Ni1  1  0.00000000  0.00000000  0.00000000  1.0
  H  H2  1  0.91269000  0.90591000  0.75782000  1.0
  H  H3  1  0.09409000  0.08731000  0.74218000  1.0
  H  H4  1  0.08731000  0.09409000  0.24218000  1.0
  H  H5  1  0.90591000  0.91269000  0.25782000  1.0
  H  H6  1  0.79853000  0.55015000  0.88850000  1.0
  H  H7  1  0.44985000  0.20148000  0.61150000  1.0
  H  H8  1  0.20147000  0.44985000  0.11150000  1.0
  H  H9  1  0.55014000  0.79853000  0.38850000  1.0
  H  H10  1  0.80327000  0.74032000  0.90896000  1.0
  H  H11  1  0.25968000  0.19673000  0.59104000  1.0
  H  H12  1  0.19673000  0.25968000  0.09104000  1.0
  H  H13  1  0.74032000  0.80327000  0.40896000  1.0
  H  H14  1  0.11346000  0.58037000  0.92545000  1.0
  H  H15  1  0.41963000  0.88654000  0.57455000  1.0
  H  H16  1  0.88654000  0.41963000  0.07455000  1.0
  H  H17  1  0.58037000  0.11347000  0.42545000  1.0
  H  H18  1  0.10221000  0.39201000  0.90855000  1.0
  H  H19  1  0.60799000  0.89779000  0.59145000  1.0
  H  H20  1  0.89778000  0.60799000  0.09145000  1.0
  H  H21  1  0.39200000  0.10221000  0.40855000  1.0
  H  H22  1  0.50384000  0.43505000  0.56898000  1.0
  H  H23  1  0.56496000  0.49615000  0.93102000  1.0
  H  H24  1  0.49615000  0.56496000  0.43102000  1.0
  H  H25  1  0.43505000  0.50384000  0.06898000  1.0
  H  H26  1  0.04459000  0.61170000  0.50573000  1.0
  H  H27  1  0.38830000  0.95541000  0.99426000  1.0
  H  H28  1  0.95541000  0.38830000  0.49427000  1.0
  H  H29  1  0.61170000  0.04459000  0.00573000  1.0
  H  H30  1  0.28764000  0.67913000  0.65800000  1.0
  H  H31  1  0.32087000  0.71235000  0.84201000  1.0
  H  H32  1  0.71235000  0.32087000  0.34201000  1.0
  H  H33  1  0.67913000  0.28764000  0.15800000  1.0
  H  H34  1  0.96888000  0.43041000  0.70151000  1.0
  H  H35  1  0.56959000  0.03112000  0.79849000  1.0
  H  H36  1  0.03112000  0.56959000  0.29849000  1.0
  H  H37  1  0.43041000  0.96888000  0.20151000  1.0
  C  C38  1  0.78500000  0.20175000  0.62834000  1.0
  C  C39  1  0.79825000  0.21500000  0.87166000  1.0
  C  C40  1  0.21500000  0.79825000  0.37165000  1.0
  C  C41  1  0.20175000  0.78500000  0.12834000  1.0
  C  C42  1  0.65523000  0.32966000  0.69754000  1.0
  C  C43  1  0.67034000  0.34477000  0.80246000  1.0
  C  C44  1  0.34477000  0.67034000  0.30246000  1.0
  C  C45  1  0.32966000  0.65523000  0.19754000  1.0
  C  C46  1  0.93930000  0.80348000  0.71326000  1.0
  C  C47  1  0.19652000  0.06070000  0.78673000  1.0
  C  C48  1  0.06070000  0.19652000  0.28673000  1.0
  C  C49  1  0.80348000  0.93930000  0.21327000  1.0
  C  C50  1  0.87868000  0.61875000  0.87799000  1.0
  C  C51  1  0.38125000  0.12132000  0.62201000  1.0
  C  C52  1  0.12132000  0.38125000  0.12201000  1.0
  C  C53  1  0.61875000  0.87868000  0.37799000  1.0
  C  C54  1  0.02971000  0.51442000  0.93943000  1.0
  C  C55  1  0.48558000  0.97029000  0.56057000  1.0
  C  C56  1  0.97029000  0.48558000  0.06057000  1.0
  C  C57  1  0.51442000  0.02971000  0.43943000  1.0
  C  C58  1  0.51490000  0.45057000  0.64888000  1.0
  C  C59  1  0.54944000  0.48510000  0.85113000  1.0
  C  C60  1  0.48510000  0.54944000  0.35113000  1.0
  C  C61  1  0.45056000  0.51490000  0.14888000  1.0
  C  C62  1  0.00691000  0.64556000  0.58688000  1.0
  C  C63  1  0.35444000  0.99309000  0.91312000  1.0
  C  C64  1  0.99309000  0.35444000  0.41312000  1.0
  C  C65  1  0.64556000  0.00691000  0.08688000  1.0
  C  C66  1  0.39389000  0.58737000  0.69918000  1.0
  C  C67  1  0.41263000  0.60610000  0.80083000  1.0
  C  C68  1  0.60610000  0.41263000  0.30083000  1.0
  C  C69  1  0.58737000  0.39389000  0.19918000  1.0
  C  C70  1  0.97041000  0.55469000  0.68290000  1.0
  C  C71  1  0.44531000  0.02959000  0.81709000  1.0
  C  C72  1  0.02959000  0.44531000  0.31710000  1.0
  C  C73  1  0.55469000  0.97041000  0.18290000  1.0
  N  N74  1  0.92713000  0.65720000  0.76177000  1.0
  N  N75  1  0.34280000  0.07288000  0.73823000  1.0
  N  N76  1  0.07288000  0.34280000  0.23823000  1.0
  N  N77  1  0.65720000  0.92713000  0.26177000  1.0
  N  N78  1  0.98648000  0.80098000  0.60680000  1.0
  N  N79  1  0.19902000  0.01352000  0.89319000  1.0
  N  N80  1  0.01352000  0.19902000  0.39320000  1.0
  N  N81  1  0.80098000  0.98648000  0.10680000  1.0
  O  O82  1  0.94288000  0.15136000  0.63226000  1.0
  O  O83  1  0.84864000  0.05711000  0.86774000  1.0
  O  O84  1  0.05711000  0.84864000  0.36774000  1.0
  O  O85  1  0.15136000  0.94289000  0.13226000  1.0
  O  O86  1  0.73657000  0.15191000  0.56017000  1.0
  O  O87  1  0.84810000  0.26342000  0.93983000  1.0
  O  O88  1  0.26342000  0.84810000  0.43983000  1.0
  O  O89  1  0.15190000  0.73657000  0.06017000  1.0
