# generated using pymatgen
data_Al2H17C35(NO2)5
_symmetry_space_group_name_H-M   'P 1'
_cell_length_a   6.74958000
_cell_length_b   21.60380000
_cell_length_c   25.11220000
_cell_angle_alpha   83.69820000
_cell_angle_beta   89.99970000
_cell_angle_gamma   89.99920000
_symmetry_Int_Tables_number   1
_chemical_formula_structural   Al2H17C35(NO2)5
_chemical_formula_sum   'Al4 H34 C70 N10 O20'
_cell_volume   3639.64878166
_cell_formula_units_Z   2
loop_
 _symmetry_equiv_pos_site_id
 _symmetry_equiv_pos_as_xyz
  1  'x, y, z'
loop_
 _atom_site_type_symbol
 _atom_site_label
 _atom_site_symmetry_multiplicity
 _atom_site_fract_x
 _atom_site_fract_y
 _atom_site_fract_z
 _atom_site_occupancy
  Al  Al0  1  0.90378000  0.50050000  0.50104000  1.0
  Al  Al1  1  0.40377000  0.49950000  0.49896000  1.0
  Al  Al2  1  0.30155000  0.99949000  0.99912000  1.0
  Al  Al3  1  0.80155000  0.00050000  0.00089000  1.0
  H  H4  1  0.76428000  0.19246000  0.18895000  1.0
  H  H5  1  0.26430000  0.80752000  0.81106000  1.0
  H  H6  1  0.40176000  0.17955000  0.18760000  1.0
  H  H7  1  0.90176000  0.82048000  0.81237000  1.0
  H  H8  1  0.45749000  0.37750000  0.38366000  1.0
  H  H9  1  0.95748000  0.62250000  0.61634000  1.0
  H  H10  1  0.77431000  0.19239000  0.76378000  1.0
  H  H11  1  0.27431000  0.80761000  0.23622000  1.0
  H  H12  1  0.95521000  0.15893000  0.72483000  1.0
  H  H13  1  0.45521000  0.84106000  0.27517000  1.0
  H  H14  1  0.89305000  0.28013000  0.81200000  1.0
  H  H15  1  0.39306000  0.71987000  0.18800000  1.0
  H  H16  1  0.29280000  0.33279000  0.77054000  1.0
  H  H17  1  0.79281000  0.66721000  0.22946000  1.0
  H  H18  1  0.43472000  0.26251000  0.70180000  1.0
  H  H19  1  0.93472000  0.73749000  0.29820000  1.0
  H  H20  1  0.74668000  0.12170000  0.11647000  1.0
  H  H21  1  0.24669000  0.87827000  0.88355000  1.0
  H  H22  1  0.05208000  0.36415000  0.76012000  1.0
  H  H23  1  0.55209000  0.63585000  0.23988000  1.0
  H  H24  1  0.38119000  0.10937000  0.11480000  1.0
  H  H25  1  0.88117000  0.89065000  0.88518000  1.0
  H  H26  1  0.80219000  0.32030000  0.31234000  1.0
  H  H27  1  0.30219000  0.67970000  0.68767000  1.0
  H  H28  1  0.82301000  0.39067000  0.38493000  1.0
  H  H29  1  0.32300000  0.60932000  0.61509000  1.0
  H  H30  1  0.43935000  0.30650000  0.31141000  1.0
  H  H31  1  0.93936000  0.69350000  0.68858000  1.0
  H  H32  1  0.26115000  0.21205000  0.67617000  1.0
  H  H33  1  0.76115000  0.78795000  0.32383000  1.0
  H  H34  1  0.65590000  0.41768000  0.50641000  1.0
  H  H35  1  0.15590000  0.58233000  0.49360000  1.0
  H  H36  1  0.54976000  0.08235000  0.99103000  1.0
  H  H37  1  0.04976000  0.91764000  0.00896000  1.0
  C  C38  1  0.65587000  0.57656000  0.42248000  1.0
  C  C39  1  0.15587000  0.42345000  0.57752000  1.0
  C  C40  1  0.65033000  0.57130000  0.56740000  1.0
  C  C41  1  0.15034000  0.42870000  0.43261000  1.0
  C  C42  1  0.89876000  0.17403000  0.17258000  1.0
  C  C43  1  0.39877000  0.82596000  0.82742000  1.0
  C  C44  1  0.88884000  0.13491000  0.13238000  1.0
  C  C45  1  0.38885000  0.86508000  0.86764000  1.0
  C  C46  1  0.06303000  0.11199000  0.11122000  1.0
  C  C47  1  0.56302000  0.88801000  0.88878000  1.0
  C  C48  1  0.24769000  0.12802000  0.13148000  1.0
  C  C49  1  0.74769000  0.87199000  0.86851000  1.0
  C  C50  1  0.25881000  0.16690000  0.17177000  1.0
  C  C51  1  0.75881000  0.83313000  0.82821000  1.0
  C  C52  1  0.08420000  0.19100000  0.19271000  1.0
  C  C53  1  0.58421000  0.80901000  0.80729000  1.0
  C  C54  1  0.09570000  0.23186000  0.23286000  1.0
  C  C55  1  0.59570000  0.76815000  0.76713000  1.0
  C  C56  1  0.10786000  0.26756000  0.26722000  1.0
  C  C57  1  0.60787000  0.73246000  0.73277000  1.0
  C  C58  1  0.94521000  0.33282000  0.32821000  1.0
  C  C59  1  0.44521000  0.66718000  0.67180000  1.0
  C  C60  1  0.95654000  0.37182000  0.36843000  1.0
  C  C61  1  0.45654000  0.62817000  0.63158000  1.0
  C  C62  1  0.14126000  0.38780000  0.38876000  1.0
  C  C63  1  0.64124000  0.61220000  0.61125000  1.0
  C  C64  1  0.31515000  0.36447000  0.36773000  1.0
  C  C65  1  0.81515000  0.63553000  0.63227000  1.0
  C  C66  1  0.30498000  0.32519000  0.32763000  1.0
  C  C67  1  0.80498000  0.67481000  0.67237000  1.0
  C  C68  1  0.11954000  0.30840000  0.30736000  1.0
  C  C69  1  0.61955000  0.69160000  0.69264000  1.0
  C  C70  1  0.28636000  0.19883000  0.76381000  1.0
  C  C71  1  0.78637000  0.80117000  0.23619000  1.0
  C  C72  1  0.92066000  0.19966000  0.74569000  1.0
  C  C73  1  0.42065000  0.80034000  0.25431000  1.0
  C  C74  1  0.92219000  0.25954000  0.70417000  1.0
  C  C75  1  0.42219000  0.74046000  0.29583000  1.0
  C  C76  1  0.15763000  0.37857000  0.62482000  1.0
  C  C77  1  0.65762000  0.62143000  0.37518000  1.0
  C  C78  1  0.07471000  0.20576000  0.79034000  1.0
  C  C79  1  0.57471000  0.79424000  0.20966000  1.0
  C  C80  1  0.28950000  0.24090000  0.70871000  1.0
  C  C81  1  0.78950000  0.75910000  0.29128000  1.0
  C  C82  1  0.13186000  0.29254000  0.70862000  1.0
  C  C83  1  0.63186000  0.70746000  0.29138000  1.0
  C  C84  1  0.13820000  0.32094000  0.76267000  1.0
  C  C85  1  0.63821000  0.67906000  0.23733000  1.0
  C  C86  1  0.05390000  0.27322000  0.80763000  1.0
  C  C87  1  0.55391000  0.72678000  0.19237000  1.0
  C  C88  1  0.15620000  0.33987000  0.66363000  1.0
  C  C89  1  0.65620000  0.66013000  0.33636000  1.0
  C  C90  1  0.05029000  0.15873000  0.83542000  1.0
  C  C91  1  0.55030000  0.84127000  0.16458000  1.0
  C  C92  1  0.04876000  0.12048000  0.87452000  1.0
  C  C93  1  0.54876000  0.87952000  0.12548000  1.0
  C  C94  1  0.55453000  0.92864000  0.93284000  1.0
  C  C95  1  0.05449000  0.07136000  0.06717000  1.0
  C  C96  1  0.55014000  0.92400000  0.07789000  1.0
  C  C97  1  0.05010000  0.07600000  0.92211000  1.0
  C  C98  1  0.32208000  0.13386000  0.75444000  1.0
  C  C99  1  0.82208000  0.86614000  0.24556000  1.0
  C  C100  1  0.89005000  0.24173000  0.65009000  1.0
  C  C101  1  0.39005000  0.75827000  0.34990000  1.0
  C  C102  1  0.76859000  0.30486000  0.71452000  1.0
  C  C103  1  0.26859000  0.69514000  0.28548000  1.0
  C  C104  1  0.13788000  0.28087000  0.85997000  1.0
  C  C105  1  0.63789000  0.71914000  0.14003000  1.0
  C  C106  1  0.44225000  0.21644000  0.80007000  1.0
  C  C107  1  0.94225000  0.78355000  0.19993000  1.0
  N  N108  1  0.35219000  0.08323000  0.74462000  1.0
  N  N109  1  0.85218000  0.91676000  0.25538000  1.0
  N  N110  1  0.86417000  0.22568000  0.60784000  1.0
  N  N111  1  0.36415000  0.77432000  0.39216000  1.0
  N  N112  1  0.65063000  0.34168000  0.72351000  1.0
  N  N113  1  0.15064000  0.65831000  0.27650000  1.0
  N  N114  1  0.19914000  0.28873000  0.90207000  1.0
  N  N115  1  0.69916000  0.71127000  0.09793000  1.0
  N  N116  1  0.56983000  0.23094000  0.82734000  1.0
  N  N117  1  0.06984000  0.76905000  0.17266000  1.0
  O  O118  1  0.48487000  0.55523000  0.54852000  1.0
  O  O119  1  0.98489000  0.44477000  0.45148000  1.0
  O  O120  1  0.82385000  0.56049000  0.44205000  1.0
  O  O121  1  0.32386000  0.43951000  0.55795000  1.0
  O  O122  1  0.82113000  0.55587000  0.55130000  1.0
  O  O123  1  0.32115000  0.44414000  0.44870000  1.0
  O  O124  1  0.98557000  0.44113000  0.56050000  1.0
  O  O125  1  0.48556000  0.55888000  0.43950000  1.0
  O  O126  1  0.65436000  0.46278000  0.50222000  1.0
  O  O127  1  0.15435000  0.53723000  0.49778000  1.0
  O  O128  1  0.72016000  0.94147000  0.06063000  1.0
  O  O129  1  0.22019000  0.05852000  0.93937000  1.0
  O  O130  1  0.38393000  0.94381000  0.94920000  1.0
  O  O131  1  0.88394000  0.05619000  0.05081000  1.0
  O  O132  1  0.38187000  0.94004000  0.05849000  1.0
  O  O133  1  0.88190000  0.05996000  0.94151000  1.0
  O  O134  1  0.22028000  0.05538000  0.04846000  1.0
  O  O135  1  0.72027000  0.94463000  0.95154000  1.0
  O  O136  1  0.55103000  0.03732000  0.99755000  1.0
  O  O137  1  0.05104000  0.96268000  0.00245000  1.0
