# generated using pymatgen
data_CoH24C29N4(ClO4)2
_symmetry_space_group_name_H-M   'P 1'
_cell_length_a   13.05570000
_cell_length_b   13.05570000
_cell_length_c   25.91100000
_cell_angle_alpha   90.00000000
_cell_angle_beta   90.00000000
_cell_angle_gamma   89.99990000
_symmetry_Int_Tables_number   1
_chemical_formula_structural   CoH24C29N4(ClO4)2
_chemical_formula_sum   'Co4 H96 C116 N16 Cl8 O32'
_cell_volume   4416.56369881
_cell_formula_units_Z   4
loop_
 _symmetry_equiv_pos_site_id
 _symmetry_equiv_pos_as_xyz
  1  'x, y, z'
loop_
 _atom_site_type_symbol
 _atom_site_label
 _atom_site_symmetry_multiplicity
 _atom_site_fract_x
 _atom_site_fract_y
 _atom_site_fract_z
 _atom_site_occupancy
  Co  Co0  1  0.25000000  0.75000000  0.38104000  1.0
  Co  Co1  1  0.75000000  0.25000000  0.88104000  1.0
  Co  Co2  1  0.75000000  0.25000000  0.61896000  1.0
  Co  Co3  1  0.25000000  0.75000000  0.11896000  1.0
  H  H4  1  0.11335000  0.74790000  0.47818000  1.0
  H  H5  1  0.06986000  0.86533000  0.55281000  1.0
  H  H6  1  0.24150000  0.10186000  0.47528000  1.0
  H  H7  1  0.28341000  0.97334000  0.40638000  1.0
  H  H8  1  0.13538000  0.30205000  0.57516000  1.0
  H  H9  1  0.08852000  0.21071000  0.62002000  1.0
  H  H10  1  0.29829000  0.36476000  0.68628000  1.0
  H  H11  1  0.20786000  0.41137000  0.64067000  1.0
  H  H12  1  0.01773000  0.20534000  0.73221000  1.0
  H  H13  1  0.87218000  0.15698000  0.79019000  1.0
  H  H14  1  0.87162000  0.44206000  0.85935000  1.0
  H  H15  1  0.01995000  0.50180000  0.80585000  1.0
  H  H16  1  0.38665000  0.75210000  0.47818000  1.0
  H  H17  1  0.43014000  0.63467000  0.55281000  1.0
  H  H18  1  0.25850000  0.39814000  0.47528000  1.0
  H  H19  1  0.21659000  0.52666000  0.40638000  1.0
  H  H20  1  0.36462000  0.19795000  0.57516000  1.0
  H  H21  1  0.41148000  0.28929000  0.62002000  1.0
  H  H22  1  0.20171000  0.13524000  0.68628000  1.0
  H  H23  1  0.29214000  0.08863000  0.64067000  1.0
  H  H24  1  0.48227000  0.29466000  0.73221000  1.0
  H  H25  1  0.62782000  0.34302000  0.79019000  1.0
  H  H26  1  0.62838000  0.05794000  0.85935000  1.0
  H  H27  1  0.48005000  0.99820000  0.80585000  1.0
  H  H28  1  0.75210000  0.11335000  0.97818000  1.0
  H  H29  1  0.63467000  0.06986000  0.05281000  1.0
  H  H30  1  0.39814000  0.24150000  0.97528000  1.0
  H  H31  1  0.52666000  0.28341000  0.90638000  1.0
  H  H32  1  0.19795000  0.13538000  0.07516000  1.0
  H  H33  1  0.28929000  0.08852000  0.12002000  1.0
  H  H34  1  0.13524000  0.29829000  0.18628000  1.0
  H  H35  1  0.08863000  0.20786000  0.14068000  1.0
  H  H36  1  0.29466000  0.01773000  0.23221000  1.0
  H  H37  1  0.34302000  0.87218000  0.29019000  1.0
  H  H38  1  0.05794000  0.87162000  0.35935000  1.0
  H  H39  1  0.99820000  0.01995000  0.30585000  1.0
  H  H40  1  0.74790000  0.38665000  0.97818000  1.0
  H  H41  1  0.86533000  0.43014000  0.05281000  1.0
  H  H42  1  0.10186000  0.25850000  0.97528000  1.0
  H  H43  1  0.97334000  0.21659000  0.90638000  1.0
  H  H44  1  0.30205000  0.36462000  0.07516000  1.0
  H  H45  1  0.21071000  0.41148000  0.12002000  1.0
  H  H46  1  0.36476000  0.20171000  0.18628000  1.0
  H  H47  1  0.41137000  0.29214000  0.14068000  1.0
  H  H48  1  0.20534000  0.48227000  0.23221000  1.0
  H  H49  1  0.15698000  0.62782000  0.29019000  1.0
  H  H50  1  0.44206000  0.62838000  0.35935000  1.0
  H  H51  1  0.50180000  0.48005000  0.30585000  1.0
  H  H52  1  0.88665000  0.25210000  0.52182000  1.0
  H  H53  1  0.93014000  0.13467000  0.44719000  1.0
  H  H54  1  0.75850000  0.89814000  0.52472000  1.0
  H  H55  1  0.71659000  0.02666000  0.59361000  1.0
  H  H56  1  0.86462000  0.69795000  0.42484000  1.0
  H  H57  1  0.91148000  0.78929000  0.37998000  1.0
  H  H58  1  0.70171000  0.63524000  0.31372000  1.0
  H  H59  1  0.79214000  0.58863000  0.35932000  1.0
  H  H60  1  0.98227000  0.79466000  0.26779000  1.0
  H  H61  1  0.12782000  0.84302000  0.20981000  1.0
  H  H62  1  0.12838000  0.55794000  0.14065000  1.0
  H  H63  1  0.98005000  0.49821000  0.19415000  1.0
  H  H64  1  0.61335000  0.24790000  0.52182000  1.0
  H  H65  1  0.56986000  0.36533000  0.44719000  1.0
  H  H66  1  0.74150000  0.60186000  0.52472000  1.0
  H  H67  1  0.78341000  0.47334000  0.59361000  1.0
  H  H68  1  0.63538000  0.80205000  0.42484000  1.0
  H  H69  1  0.58852000  0.71070000  0.37998000  1.0
  H  H70  1  0.79829000  0.86476000  0.31372000  1.0
  H  H71  1  0.70786000  0.91137000  0.35932000  1.0
  H  H72  1  0.51773000  0.70534000  0.26779000  1.0
  H  H73  1  0.37218000  0.65698000  0.20981000  1.0
  H  H74  1  0.37162000  0.94206000  0.14065000  1.0
  H  H75  1  0.51995000  0.00179000  0.19415000  1.0
  H  H76  1  0.24790000  0.88665000  0.02182000  1.0
  H  H77  1  0.36533000  0.93014000  0.94719000  1.0
  H  H78  1  0.60186000  0.75850000  0.02472000  1.0
  H  H79  1  0.47334000  0.71659000  0.09362000  1.0
  H  H80  1  0.80205000  0.86462000  0.92484000  1.0
  H  H81  1  0.71070000  0.91148000  0.87998000  1.0
  H  H82  1  0.86476000  0.70171000  0.81372000  1.0
  H  H83  1  0.91137000  0.79214000  0.85933000  1.0
  H  H84  1  0.70534000  0.98227000  0.76779000  1.0
  H  H85  1  0.65698000  0.12782000  0.70981000  1.0
  H  H86  1  0.94206000  0.12838000  0.64065000  1.0
  H  H87  1  0.00180000  0.98005000  0.69415000  1.0
  H  H88  1  0.25210000  0.61335000  0.02182000  1.0
  H  H89  1  0.13467000  0.56986000  0.94719000  1.0
  H  H90  1  0.89814000  0.74150000  0.02472000  1.0
  H  H91  1  0.02666000  0.78341000  0.09362000  1.0
  H  H92  1  0.69795000  0.63538000  0.92484000  1.0
  H  H93  1  0.78930000  0.58852000  0.87998000  1.0
  H  H94  1  0.63524000  0.79829000  0.81372000  1.0
  H  H95  1  0.58863000  0.70786000  0.85933000  1.0
  H  H96  1  0.79466000  0.51773000  0.76779000  1.0
  H  H97  1  0.84302000  0.37218000  0.70981000  1.0
  H  H98  1  0.55794000  0.37162000  0.64065000  1.0
  H  H99  1  0.49820000  0.51995000  0.69415000  1.0
  C  C100  1  0.14114000  0.82664000  0.47989000  1.0
  C  C101  1  0.11621000  0.89173000  0.52049000  1.0
  C  C102  1  0.15286000  0.99247000  0.51969000  1.0
  C  C103  1  0.21217000  0.02403000  0.47759000  1.0
  C  C104  1  0.23458000  0.95356000  0.43900000  1.0
  C  C105  1  0.12969000  0.06133000  0.56406000  1.0
  C  C106  1  0.15462000  0.23212000  0.59647000  1.0
  C  C107  1  0.23010000  0.34432000  0.66378000  1.0
  C  C108  1  0.11671000  0.39368000  0.73114000  1.0
  C  C109  1  0.03016000  0.35815000  0.76430000  1.0
  C  C110  1  0.98796000  0.25994000  0.76003000  1.0
  C  C111  1  0.90607000  0.23305000  0.79159000  1.0
  C  C112  1  0.90638000  0.39218000  0.83066000  1.0
  C  C113  1  0.98849000  0.42520000  0.80078000  1.0
  C  C114  1  0.35886000  0.67336000  0.47989000  1.0
  C  C115  1  0.38379000  0.60827000  0.52049000  1.0
  C  C116  1  0.34713000  0.50753000  0.51969000  1.0
  C  C117  1  0.28783000  0.47597000  0.47759000  1.0
  C  C118  1  0.26542000  0.54644000  0.43900000  1.0
  C  C119  1  0.37031000  0.43867000  0.56406000  1.0
  C  C120  1  0.34538000  0.26788000  0.59647000  1.0
  C  C121  1  0.26990000  0.15569000  0.66378000  1.0
  C  C122  1  0.38329000  0.10632000  0.73114000  1.0
  C  C123  1  0.46984000  0.14186000  0.76430000  1.0
  C  C124  1  0.51204000  0.24006000  0.76003000  1.0
  C  C125  1  0.59393000  0.26695000  0.79159000  1.0
  C  C126  1  0.59362000  0.10782000  0.83066000  1.0
  C  C127  1  0.51151000  0.07480000  0.80078000  1.0
  C  C128  1  0.67336000  0.14114000  0.97989000  1.0
  C  C129  1  0.60827000  0.11621000  0.02049000  1.0
  C  C130  1  0.50753000  0.15286000  0.01969000  1.0
  C  C131  1  0.47597000  0.21217000  0.97759000  1.0
  C  C132  1  0.54644000  0.23458000  0.93900000  1.0
  C  C133  1  0.43867000  0.12969000  0.06406000  1.0
  C  C134  1  0.26788000  0.15462000  0.09647000  1.0
  C  C135  1  0.15568000  0.23010000  0.16378000  1.0
  C  C136  1  0.10632000  0.11671000  0.23115000  1.0
  C  C137  1  0.14185000  0.03016000  0.26430000  1.0
  C  C138  1  0.24006000  0.98796000  0.26003000  1.0
  C  C139  1  0.26695000  0.90607000  0.29159000  1.0
  C  C140  1  0.10782000  0.90638000  0.33066000  1.0
  C  C141  1  0.07480000  0.98849000  0.30078000  1.0
  C  C142  1  0.82664000  0.35886000  0.97989000  1.0
  C  C143  1  0.89173000  0.38379000  0.02049000  1.0
  C  C144  1  0.99247000  0.34714000  0.01969000  1.0
  C  C145  1  0.02403000  0.28783000  0.97759000  1.0
  C  C146  1  0.95356000  0.26542000  0.93900000  1.0
  C  C147  1  0.06133000  0.37031000  0.06406000  1.0
  C  C148  1  0.23212000  0.34538000  0.09647000  1.0
  C  C149  1  0.34432000  0.26990000  0.16378000  1.0
  C  C150  1  0.39368000  0.38329000  0.23114000  1.0
  C  C151  1  0.35815000  0.46984000  0.26430000  1.0
  C  C152  1  0.25994000  0.51204000  0.26003000  1.0
  C  C153  1  0.23305000  0.59393000  0.29159000  1.0
  C  C154  1  0.39218000  0.59362000  0.33066000  1.0
  C  C155  1  0.42520000  0.51151000  0.30078000  1.0
  C  C156  1  0.25000000  0.25000000  0.62990000  1.0
  C  C157  1  0.25000000  0.25000000  0.12990000  1.0
  C  C158  1  0.85886000  0.17336000  0.52011000  1.0
  C  C159  1  0.88379000  0.10827000  0.47951000  1.0
  C  C160  1  0.84714000  0.00753000  0.48031000  1.0
  C  C161  1  0.78783000  0.97597000  0.52241000  1.0
  C  C162  1  0.76543000  0.04644000  0.56100000  1.0
  C  C163  1  0.87031000  0.93867000  0.43595000  1.0
  C  C164  1  0.84538000  0.76788000  0.40353000  1.0
  C  C165  1  0.76990000  0.65568000  0.33622000  1.0
  C  C166  1  0.88329000  0.60632000  0.26885000  1.0
  C  C167  1  0.96984000  0.64186000  0.23570000  1.0
  C  C168  1  0.01204000  0.74006000  0.23997000  1.0
  C  C169  1  0.09393000  0.76695000  0.20841000  1.0
  C  C170  1  0.09362000  0.60782000  0.16934000  1.0
  C  C171  1  0.01151000  0.57480000  0.19922000  1.0
  C  C172  1  0.64114000  0.32664000  0.52011000  1.0
  C  C173  1  0.61621000  0.39173000  0.47951000  1.0
  C  C174  1  0.65287000  0.49247000  0.48031000  1.0
  C  C175  1  0.71217000  0.52403000  0.52241000  1.0
  C  C176  1  0.73457000  0.45356000  0.56100000  1.0
  C  C177  1  0.62969000  0.56133000  0.43594000  1.0
  C  C178  1  0.65462000  0.73212000  0.40353000  1.0
  C  C179  1  0.73010000  0.84432000  0.33622000  1.0
  C  C180  1  0.61671000  0.89368000  0.26885000  1.0
  C  C181  1  0.53016000  0.85814000  0.23570000  1.0
  C  C182  1  0.48796000  0.75994000  0.23997000  1.0
  C  C183  1  0.40607000  0.73305000  0.20841000  1.0
  C  C184  1  0.40638000  0.89218000  0.16934000  1.0
  C  C185  1  0.48849000  0.92520000  0.19922000  1.0
  C  C186  1  0.32664000  0.85886000  0.02011000  1.0
  C  C187  1  0.39173000  0.88379000  0.97951000  1.0
  C  C188  1  0.49247000  0.84714000  0.98031000  1.0
  C  C189  1  0.52403000  0.78783000  0.02241000  1.0
  C  C190  1  0.45356000  0.76542000  0.06100000  1.0
  C  C191  1  0.56133000  0.87031000  0.93595000  1.0
  C  C192  1  0.73212000  0.84538000  0.90354000  1.0
  C  C193  1  0.84432000  0.76990000  0.83622000  1.0
  C  C194  1  0.89368000  0.88328000  0.76886000  1.0
  C  C195  1  0.85814000  0.96984000  0.73570000  1.0
  C  C196  1  0.75994000  0.01204000  0.73997000  1.0
  C  C197  1  0.73305000  0.09393000  0.70841000  1.0
  C  C198  1  0.89218000  0.09362000  0.66934000  1.0
  C  C199  1  0.92520000  0.01151000  0.69922000  1.0
  C  C200  1  0.17336000  0.64114000  0.02011000  1.0
  C  C201  1  0.10827000  0.61621000  0.97951000  1.0
  C  C202  1  0.00753000  0.65287000  0.98031000  1.0
  C  C203  1  0.97597000  0.71217000  0.02241000  1.0
  C  C204  1  0.04644000  0.73458000  0.06100000  1.0
  C  C205  1  0.93867000  0.62970000  0.93595000  1.0
  C  C206  1  0.76789000  0.65462000  0.90353000  1.0
  C  C207  1  0.65568000  0.73010000  0.83622000  1.0
  C  C208  1  0.60632000  0.61671000  0.76886000  1.0
  C  C209  1  0.64185000  0.53016000  0.73570000  1.0
  C  C210  1  0.74006000  0.48796000  0.73997000  1.0
  C  C211  1  0.76695000  0.40607000  0.70841000  1.0
  C  C212  1  0.60782000  0.40638000  0.66934000  1.0
  C  C213  1  0.57480000  0.48849000  0.69922000  1.0
  C  C214  1  0.75000000  0.75000000  0.37010000  1.0
  C  C215  1  0.75000000  0.75000000  0.87010000  1.0
  N  N216  1  0.20038000  0.85627000  0.43999000  1.0
  N  N217  1  0.86504000  0.29792000  0.82639000  1.0
  N  N218  1  0.29962000  0.64373000  0.43999000  1.0
  N  N219  1  0.63496000  0.20208000  0.82639000  1.0
  N  N220  1  0.64373000  0.20038000  0.93999000  1.0
  N  N221  1  0.20208000  0.86504000  0.32639000  1.0
  N  N222  1  0.85627000  0.29961000  0.93999000  1.0
  N  N223  1  0.29792000  0.63496000  0.32639000  1.0
  N  N224  1  0.79961000  0.14373000  0.56001000  1.0
  N  N225  1  0.13497000  0.70208000  0.17361000  1.0
  N  N226  1  0.70038000  0.35627000  0.56001000  1.0
  N  N227  1  0.36503000  0.79792000  0.17361000  1.0
  N  N228  1  0.35627000  0.79962000  0.06001000  1.0
  N  N229  1  0.79792000  0.13496000  0.67361000  1.0
  N  N230  1  0.14373000  0.70039000  0.06001000  1.0
  N  N231  1  0.70208000  0.36504000  0.67361000  1.0
  Cl  Cl232  1  0.08460000  0.67334000  0.38223000  1.0
  Cl  Cl233  1  0.41540000  0.82666000  0.38223000  1.0
  Cl  Cl234  1  0.82666000  0.08461000  0.88223000  1.0
  Cl  Cl235  1  0.67334000  0.41539000  0.88223000  1.0
  Cl  Cl236  1  0.91539000  0.32666000  0.61777000  1.0
  Cl  Cl237  1  0.58461000  0.17334000  0.61777000  1.0
  Cl  Cl238  1  0.17334000  0.91539000  0.11777000  1.0
  Cl  Cl239  1  0.32666000  0.58460000  0.11777000  1.0
  O  O240  1  0.07963000  0.03577000  0.60183000  1.0
  O  O241  1  0.17256000  0.15495000  0.55723000  1.0
  O  O242  1  0.14744000  0.31845000  0.69846000  1.0
  O  O243  1  0.15524000  0.47875000  0.73289000  1.0
  O  O244  1  0.42037000  0.46423000  0.60183000  1.0
  O  O245  1  0.32744000  0.34505000  0.55723000  1.0
  O  O246  1  0.35256000  0.18155000  0.69846000  1.0
  O  O247  1  0.34476000  0.02125000  0.73289000  1.0
  O  O248  1  0.46423000  0.07963000  0.10183000  1.0
  O  O249  1  0.34505000  0.17256000  0.05723000  1.0
  O  O250  1  0.18155000  0.14744000  0.19846000  1.0
  O  O251  1  0.02125000  0.15524000  0.23289000  1.0
  O  O252  1  0.03577000  0.42037000  0.10183000  1.0
  O  O253  1  0.15495000  0.32744000  0.05723000  1.0
  O  O254  1  0.31845000  0.35256000  0.19846000  1.0
  O  O255  1  0.47875000  0.34476000  0.23289000  1.0
  O  O256  1  0.92037000  0.96423000  0.39817000  1.0
  O  O257  1  0.82744000  0.84505000  0.44277000  1.0
  O  O258  1  0.85256000  0.68155000  0.30154000  1.0
  O  O259  1  0.84476000  0.52125000  0.26711000  1.0
  O  O260  1  0.57963000  0.53577000  0.39817000  1.0
  O  O261  1  0.67256000  0.65495000  0.44277000  1.0
  O  O262  1  0.64744000  0.81845000  0.30154000  1.0
  O  O263  1  0.65524000  0.97875000  0.26711000  1.0
  O  O264  1  0.53577000  0.92037000  0.89817000  1.0
  O  O265  1  0.65495000  0.82744000  0.94277000  1.0
  O  O266  1  0.81845000  0.85256000  0.80154000  1.0
  O  O267  1  0.97875000  0.84476000  0.76712000  1.0
  O  O268  1  0.96423000  0.57963000  0.89817000  1.0
  O  O269  1  0.84505000  0.67256000  0.94277000  1.0
  O  O270  1  0.68155000  0.64744000  0.80154000  1.0
  O  O271  1  0.52125000  0.65524000  0.76712000  1.0
