# generated using pymatgen
data_Hg2H8C10S(I2N)2
_symmetry_space_group_name_H-M   'P 1'
_cell_length_a   8.86328000
_cell_length_b   13.84850000
_cell_length_c   17.37295616
_cell_angle_alpha   66.71982240
_cell_angle_beta   75.23869556
_cell_angle_gamma   89.98880000
_symmetry_Int_Tables_number   1
_chemical_formula_structural   Hg2H8C10S(I2N)2
_chemical_formula_sum   'Hg8 H32 C40 S4 I16 N8'
_cell_volume   1881.98419379
_cell_formula_units_Z   4
loop_
 _symmetry_equiv_pos_site_id
 _symmetry_equiv_pos_as_xyz
  1  'x, y, z'
loop_
 _atom_site_type_symbol
 _atom_site_label
 _atom_site_symmetry_multiplicity
 _atom_site_fract_x
 _atom_site_fract_y
 _atom_site_fract_z
 _atom_site_occupancy
  Hg  Hg0  1  0.90114000  0.69261000  0.50019000  1.0
  Hg  Hg1  1  0.09859000  0.19277000  0.50007000  1.0
  Hg  Hg2  1  0.02918000  0.49274000  0.13114000  1.0
  Hg  Hg3  1  0.96977000  0.62413000  0.86811000  1.0
  Hg  Hg4  1  0.34025000  0.99272000  0.13114000  1.0
  Hg  Hg5  1  0.66167000  0.12432000  0.86817000  1.0
  Hg  Hg6  1  0.31728000  0.84333000  0.50042000  1.0
  Hg  Hg7  1  0.68283000  0.34387000  0.49947000  1.0
  H  H8  1  0.47826000  0.58295000  0.37715000  1.0
  H  H9  1  0.52219000  0.96040000  0.62275000  1.0
  H  H10  1  0.64489000  0.08289000  0.37717000  1.0
  H  H11  1  0.35445000  0.46042000  0.62271000  1.0
  H  H12  1  0.67370000  0.63453000  0.43597000  1.0
  H  H13  1  0.32690000  0.07051000  0.56404000  1.0
  H  H14  1  0.39067000  0.13442000  0.43596000  1.0
  H  H15  1  0.60842000  0.57030000  0.56399000  1.0
  H  H16  1  0.92967000  0.84097000  0.17069000  1.0
  H  H17  1  0.06964000  0.01197000  0.82957000  1.0
  H  H18  1  0.40001000  0.34124000  0.17073000  1.0
  H  H19  1  0.60060000  0.51175000  0.82952000  1.0
  H  H20  1  0.71681000  0.78808000  0.12202000  1.0
  H  H21  1  0.28213000  0.91046000  0.87822000  1.0
  H  H22  1  0.66141000  0.28830000  0.12204000  1.0
  H  H23  1  0.33956000  0.41040000  0.87817000  1.0
  H  H24  1  0.41376000  0.56126000  0.07101000  1.0
  H  H25  1  0.58579000  0.63352000  0.92839000  1.0
  H  H26  1  0.01550000  0.06142000  0.07087000  1.0
  H  H27  1  0.98546000  0.13367000  0.92863000  1.0
  H  H28  1  0.63208000  0.63331000  0.10837000  1.0
  H  H29  1  0.36762000  0.74285000  0.89113000  1.0
  H  H30  1  0.75977000  0.13337000  0.10829000  1.0
  H  H31  1  0.24076000  0.24291000  0.89139000  1.0
  H  H32  1  0.27746000  0.65793000  0.32196000  1.0
  H  H33  1  0.72259000  0.97980000  0.67836000  1.0
  H  H34  1  0.90092000  0.15777000  0.32198000  1.0
  H  H35  1  0.09875000  0.47954000  0.67818000  1.0
  H  H36  1  0.07666000  0.58296000  0.27625000  1.0
  H  H37  1  0.92326000  0.85919000  0.72390000  1.0
  H  H38  1  0.14740000  0.08281000  0.27627000  1.0
  H  H39  1  0.85276000  0.35899000  0.72368000  1.0
  C  C40  1  0.57734000  0.64234000  0.33477000  1.0
  C  C41  1  0.42289000  0.97742000  0.66523000  1.0
  C  C42  1  0.58817000  0.14233000  0.33477000  1.0
  C  C43  1  0.41142000  0.47734000  0.66521000  1.0
  C  C44  1  0.68879000  0.67112000  0.36613000  1.0
  C  C45  1  0.31146000  0.03743000  0.63392000  1.0
  C  C46  1  0.44538000  0.17111000  0.36613000  1.0
  C  C47  1  0.55416000  0.53725000  0.63388000  1.0
  C  C48  1  0.82139000  0.74376000  0.30930000  1.0
  C  C49  1  0.17867000  0.05338000  0.69085000  1.0
  C  C50  1  0.36959000  0.24385000  0.30930000  1.0
  C  C51  1  0.63020000  0.55312000  0.69080000  1.0
  C  C52  1  0.83042000  0.78510000  0.21907000  1.0
  C  C53  1  0.16922000  0.00453000  0.78112000  1.0
  C  C54  1  0.45088000  0.28530000  0.21910000  1.0
  C  C55  1  0.54946000  0.50432000  0.78105000  1.0
  C  C56  1  0.71520000  0.75505000  0.19052000  1.0
  C  C57  1  0.28426000  0.94593000  0.80964000  1.0
  C  C58  1  0.59460000  0.25523000  0.19054000  1.0
  C  C59  1  0.40589000  0.44582000  0.80959000  1.0
  C  C60  1  0.38929000  0.58519000  0.12544000  1.0
  C  C61  1  0.61036000  0.71159000  0.87417000  1.0
  C  C62  1  0.98552000  0.08526000  0.12536000  1.0
  C  C63  1  0.01514000  0.21166000  0.87429000  1.0
  C  C64  1  0.51024000  0.62534000  0.14607000  1.0
  C  C65  1  0.48948000  0.77234000  0.85361000  1.0
  C  C66  1  0.84391000  0.12534000  0.14604000  1.0
  C  C67  1  0.15653000  0.27237000  0.85374000  1.0
  C  C68  1  0.46981000  0.64976000  0.21885000  1.0
  C  C69  1  0.53006000  0.86919000  0.78109000  1.0
  C  C70  1  0.81156000  0.14972000  0.21885000  1.0
  C  C71  1  0.18854000  0.36911000  0.78109000  1.0
  C  C72  1  0.31288000  0.63663000  0.26636000  1.0
  C  C73  1  0.68707000  0.90324000  0.73378000  1.0
  C  C74  1  0.92106000  0.13652000  0.26637000  1.0
  C  C75  1  0.07892000  0.40305000  0.73366000  1.0
  C  C76  1  0.20076000  0.59595000  0.24044000  1.0
  C  C77  1  0.79910000  0.83667000  0.75960000  1.0
  C  C78  1  0.05911000  0.09585000  0.24042000  1.0
  C  C79  1  0.94112000  0.33650000  0.75949000  1.0
  S  S80  1  0.97037000  0.78329000  0.34108000  1.0
  S  S81  1  0.02986000  0.12478000  0.65925000  1.0
  S  S82  1  0.18882000  0.28343000  0.34095000  1.0
  S  S83  1  0.81062000  0.62438000  0.65933000  1.0
  I  I84  1  0.20844000  0.38057000  0.05221000  1.0
  I  I85  1  0.78962000  0.43404000  0.94828000  1.0
  I  I86  1  0.23992000  0.88083000  0.05202000  1.0
  I  I87  1  0.76126000  0.93411000  0.94864000  1.0
  I  I88  1  0.77552000  0.43620000  0.27480000  1.0
  I  I89  1  0.22438000  0.71082000  0.72528000  1.0
  I  I90  1  0.44998000  0.93619000  0.27488000  1.0
  I  I91  1  0.55048000  0.21105000  0.72514000  1.0
  I  I92  1  0.00004000  0.69819000  0.00007000  1.0
  I  I93  1  0.50011000  0.19841000  0.00026000  1.0
  I  I94  1  0.24273000  0.64512000  0.50008000  1.0
  I  I95  1  0.75700000  0.14500000  0.50031000  1.0
  I  I96  1  0.62241000  0.86513000  0.49979000  1.0
  I  I97  1  0.37785000  0.36519000  0.49978000  1.0
  I  I98  1  0.06109000  0.95144000  0.50048000  1.0
  I  I99  1  0.93894000  0.45144000  0.50008000  1.0
  N  N100  1  0.58894000  0.68423000  0.24788000  1.0
  N  N101  1  0.41093000  0.93253000  0.75216000  1.0
  N  N102  1  0.66345000  0.18423000  0.24790000  1.0
  N  N103  1  0.33657000  0.43242000  0.75213000  1.0
  N  N104  1  0.23839000  0.56969000  0.17201000  1.0
  N  N105  1  0.76131000  0.74235000  0.82776000  1.0
  N  N106  1  0.08992000  0.06968000  0.17195000  1.0
  N  N107  1  0.91065000  0.24228000  0.82779000  1.0
