# generated using pymatgen
data_Zn4H3C24S4NCl4O15
_symmetry_space_group_name_H-M   'P 1'
_cell_length_a   19.59950000
_cell_length_b   19.75070000
_cell_length_c   33.30880000
_cell_angle_alpha   78.95430000
_cell_angle_beta   79.41550000
_cell_angle_gamma   64.11860000
_symmetry_Int_Tables_number   1
_chemical_formula_structural   Zn4H3C24S4NCl4O15
_chemical_formula_sum   'Zn16 H12 C96 S16 N4 Cl16 O60'
_cell_volume   11312.46314394
_cell_formula_units_Z   4
loop_
 _symmetry_equiv_pos_site_id
 _symmetry_equiv_pos_as_xyz
  1  'x, y, z'
loop_
 _atom_site_type_symbol
 _atom_site_label
 _atom_site_symmetry_multiplicity
 _atom_site_fract_x
 _atom_site_fract_y
 _atom_site_fract_z
 _atom_site_occupancy
  Zn  Zn0  1  0.05699000  0.40141000  0.47801000  1.0
  Zn  Zn1  1  0.98399000  0.48365000  0.56000000  1.0
  Zn  Zn2  1  0.06024000  0.56022000  0.48206000  1.0
  Zn  Zn3  1  0.89900000  0.55416000  0.48003000  1.0
  Zn  Zn4  1  0.69332000  0.34942000  0.27123000  1.0
  Zn  Zn5  1  0.69281000  0.18684000  0.26706000  1.0
  Zn  Zn6  1  0.76820000  0.26732000  0.18993000  1.0
  Zn  Zn7  1  0.84827000  0.19614000  0.27311000  1.0
  Zn  Zn8  1  0.26474000  0.76722000  0.68977000  1.0
  Zn  Zn9  1  0.34869000  0.69662000  0.77121000  1.0
  Zn  Zn10  1  0.19229000  0.85033000  0.77056000  1.0
  Zn  Zn11  1  0.19053000  0.68826000  0.76675000  1.0
  Zn  Zn12  1  0.55908000  0.06213000  0.98298000  1.0
  Zn  Zn13  1  0.40171000  0.05368000  0.97766000  1.0
  Zn  Zn14  1  0.55662000  0.90141000  0.97835000  1.0
  Zn  Zn15  1  0.48143000  0.98561000  0.06040000  1.0
  H  H16  1  0.95142000  0.25027000  0.35234000  1.0
  H  H17  1  0.74655000  0.45711000  0.34996000  1.0
  H  H18  1  0.99904000  0.29855000  0.40087000  1.0
  H  H19  1  0.09837000  0.59517000  0.69971000  1.0
  H  H20  1  0.19967000  0.70259000  0.59734000  1.0
  H  H21  1  0.05112000  0.54824000  0.65029000  1.0
  H  H22  1  0.54856000  0.05240000  0.15262000  1.0
  H  H23  1  0.65396000  0.15259000  0.04867000  1.0
  H  H24  1  0.59849000  0.10031000  0.20015000  1.0
  H  H25  1  0.50252000  0.79635000  0.89778000  1.0
  H  H26  1  0.29558000  0.00097000  0.89978000  1.0
  H  H27  1  0.45182000  0.75100000  0.84936000  1.0
  C  C28  1  0.06285000  0.31750000  0.56165000  1.0
  C  C29  1  0.06969000  0.56886000  0.56842000  1.0
  C  C30  1  0.18426000  0.43996000  0.43769000  1.0
  C  C31  1  0.93608000  0.68231000  0.43903000  1.0
  C  C32  1  0.93033000  0.42993000  0.43222000  1.0
  C  C33  1  0.81662000  0.56008000  0.56323000  1.0
  C  C34  1  0.56647000  0.30796000  0.31034000  1.0
  C  C35  1  0.68168000  0.18104000  0.18109000  1.0
  C  C36  1  0.69117000  0.43418000  0.18821000  1.0
  C  C37  1  0.93452000  0.18629000  0.19004000  1.0
  C  C38  1  0.81751000  0.32188000  0.31959000  1.0
  C  C39  1  0.81428000  0.06573000  0.31286000  1.0
  C  C40  1  0.43251000  0.69087000  0.68830000  1.0
  C  C41  1  0.31869000  0.82040000  0.81814000  1.0
  C  C42  1  0.18616000  0.93350000  0.68691000  1.0
  C  C43  1  0.06703000  0.80875000  0.81188000  1.0
  C  C44  1  0.17998000  0.68015000  0.68047000  1.0
  C  C45  1  0.31414000  0.56543000  0.81020000  1.0
  C  C46  1  0.43672000  0.18407000  0.93833000  1.0
  C  C47  1  0.43153000  0.92970000  0.93026000  1.0
  C  C48  1  0.68369000  0.94192000  0.93833000  1.0
  C  C49  1  0.56008000  0.81817000  0.06212000  1.0
  C  C50  1  0.56877000  0.07130000  0.06920000  1.0
  C  C51  1  0.31437000  0.06267000  0.06025000  1.0
  C  C52  1  0.90079000  0.40455000  0.40223000  1.0
  C  C53  1  0.84638000  0.35069000  0.34828000  1.0
  C  C54  1  0.82984000  0.44856000  0.38725000  1.0
  C  C55  1  0.91769000  0.30593000  0.36247000  1.0
  C  C56  1  0.80205000  0.42239000  0.36091000  1.0
  C  C57  1  0.94407000  0.33275000  0.38921000  1.0
  C  C58  1  0.09751000  0.59964000  0.59652000  1.0
  C  C59  1  0.15156000  0.65162000  0.65147000  1.0
  C  C60  1  0.13928000  0.64357000  0.58221000  1.0
  C  C61  1  0.10962000  0.60824000  0.66657000  1.0
  C  C62  1  0.16688000  0.66902000  0.60899000  1.0
  C  C63  1  0.08334000  0.58252000  0.63924000  1.0
  C  C64  1  0.30630000  0.45356000  0.39968000  1.0
  C  C65  1  0.44493000  0.29380000  0.34905000  1.0
  C  C66  1  0.25931000  0.41536000  0.41314000  1.0
  C  C67  1  0.49194000  0.33190000  0.33544000  1.0
  C  C68  1  0.37737000  0.33808000  0.37260000  1.0
  C  C69  1  0.37418000  0.40899000  0.37638000  1.0
  C  C70  1  0.72530000  0.57535000  0.63114000  1.0
  C  C71  1  0.52402000  0.67545000  0.62059000  1.0
  C  C72  1  0.74235000  0.58513000  0.58852000  1.0
  C  C73  1  0.50692000  0.66603000  0.66323000  1.0
  C  C74  1  0.60378000  0.64278000  0.60893000  1.0
  C  C75  1  0.64561000  0.60877000  0.64285000  1.0
  C  C76  1  0.07638000  0.22528000  0.62945000  1.0
  C  C77  1  0.17301000  0.02549000  0.61905000  1.0
  C  C78  1  0.08636000  0.24312000  0.58685000  1.0
  C  C79  1  0.16257000  0.00778000  0.66165000  1.0
  C  C80  1  0.14118000  0.10491000  0.60731000  1.0
  C  C81  1  0.10771000  0.14583000  0.64116000  1.0
  C  C82  1  0.84298000  0.79997000  0.39650000  1.0
  C  C83  1  0.90778000  0.94741000  0.35482000  1.0
  C  C84  1  0.91079000  0.75710000  0.41417000  1.0
  C  C85  1  0.83973000  0.99076000  0.33745000  1.0
  C  C86  1  0.90880000  0.87798000  0.37653000  1.0
  C  C87  1  0.84184000  0.86960000  0.37503000  1.0
  C  C88  1  0.65490000  0.15195000  0.15154000  1.0
  C  C89  1  0.59829000  0.09950000  0.09790000  1.0
  C  C90  1  0.67009000  0.16576000  0.10863000  1.0
  C  C91  1  0.58271000  0.08451000  0.14061000  1.0
  C  C92  1  0.64198000  0.14079000  0.08186000  1.0
  C  C93  1  0.61058000  0.11082000  0.16688000  1.0
  C  C94  1  0.67453000  0.52605000  0.12013000  1.0
  C  C95  1  0.57551000  0.72606000  0.13014000  1.0
  C  C96  1  0.66578000  0.50852000  0.16282000  1.0
  C  C97  1  0.58447000  0.74382000  0.08748000  1.0
  C  C98  1  0.60823000  0.64666000  0.14202000  1.0
  C  C99  1  0.64143000  0.60551000  0.10825000  1.0
  C  C100  1  0.08224000  0.12284000  0.17802000  1.0
  C  C101  1  0.16655000  0.12564000  0.07212000  1.0
  C  C102  1  0.00945000  0.16081000  0.16532000  1.0
  C  C103  1  0.23936000  0.08763000  0.08482000  1.0
  C  C104  1  0.10920000  0.13837000  0.10615000  1.0
  C  C105  1  0.13949000  0.10997000  0.14398000  1.0
  C  C106  1  0.34547000  0.84909000  0.84789000  1.0
  C  C107  1  0.40218000  0.90124000  0.90163000  1.0
  C  C108  1  0.30214000  0.91930000  0.86278000  1.0
  C  C109  1  0.44628000  0.83056000  0.88762000  1.0
  C  C110  1  0.32975000  0.94599000  0.88892000  1.0
  C  C111  1  0.41807000  0.80538000  0.86094000  1.0
  C  C112  1  0.40824000  0.44773000  0.85216000  1.0
  C  C113  1  0.34244000  0.30206000  0.89672000  1.0
  C  C114  1  0.33964000  0.49094000  0.83535000  1.0
  C  C115  1  0.41110000  0.25878000  0.91347000  1.0
  C  C116  1  0.34142000  0.37108000  0.87443000  1.0
  C  C117  1  0.40916000  0.37888000  0.87465000  1.0
  C  C118  1  0.94469000  0.79562000  0.84989000  1.0
  C  C119  1  0.80627000  0.95510000  0.90068000  1.0
  C  C120  1  0.99234000  0.83319000  0.83691000  1.0
  C  C121  1  0.75860000  0.91752000  0.91360000  1.0
  C  C122  1  0.87430000  0.91051000  0.87750000  1.0
  C  C123  1  0.87692000  0.84008000  0.87321000  1.0
  S  S124  1  0.29823000  0.32522000  0.39762000  1.0
  S  S125  1  0.45354000  0.42159000  0.35152000  1.0
  S  S126  1  0.66123000  0.63490000  0.56286000  1.0
  S  S127  1  0.58812000  0.61723000  0.68893000  1.0
  S  S128  1  0.13381000  0.16296000  0.56125000  1.0
  S  S129  1  0.11432000  0.08790000  0.68722000  1.0
  S  S130  1  0.97287000  0.80171000  0.40446000  1.0
  S  S131  1  0.77743000  0.94637000  0.34752000  1.0
  S  S132  1  0.61682000  0.58887000  0.18822000  1.0
  S  S133  1  0.63270000  0.66341000  0.06207000  1.0
  S  S134  1  0.01110000  0.18030000  0.11192000  1.0
  S  S135  1  0.23755000  0.06776000  0.13824000  1.0
  S  S136  1  0.27651000  0.44753000  0.84706000  1.0
  S  S137  1  0.47399000  0.30249000  0.90210000  1.0
  S  S138  1  0.95439000  0.92250000  0.85336000  1.0
  S  S139  1  0.79697000  0.82792000  0.89744000  1.0
  N  N140  1  0.78113000  0.52670000  0.39734000  1.0
  N  N141  1  0.15427000  0.66801000  0.53777000  1.0
  N  N142  1  0.71922000  0.20550000  0.08905000  1.0
  N  N143  1  0.22323000  0.96859000  0.85281000  1.0
  Cl  Cl144  1  0.28878000  0.54172000  0.40927000  1.0
  Cl  Cl145  1  0.46261000  0.20515000  0.33995000  1.0
  Cl  Cl146  1  0.78881000  0.53015000  0.66666667  1.0
  Cl  Cl147  1  0.46069000  0.72007000  0.58501000  1.0
  Cl  Cl148  1  0.03203000  0.28764000  0.66487000  1.0
  Cl  Cl149  1  0.21754000  0.96306000  0.58368000  1.0
  Cl  Cl150  1  0.76893000  0.77540000  0.39910000  1.0
  Cl  Cl151  1  0.98288000  0.97084000  0.35162000  1.0
  Cl  Cl152  1  0.71757000  0.46331000  0.08492000  1.0
  Cl  Cl153  1  0.53152000  0.78854000  0.16553000  1.0
  Cl  Cl154  1  0.10433000  0.09336000  0.22744000  1.0
  Cl  Cl155  1  0.14463000  0.15520000  0.02270000  1.0
  Cl  Cl156  1  0.48383000  0.47083000  0.84773000  1.0
  Cl  Cl157  1  0.26680000  0.27905000  0.90116000  1.0
  Cl  Cl158  1  0.96164000  0.70749000  0.84026000  1.0
  Cl  Cl159  1  0.78902000  0.04325000  0.91028000  1.0
  O  O160  1  0.00037000  0.49933000  0.49971000  1.0
  O  O161  1  0.07404000  0.31634000  0.52257000  1.0
  O  O162  1  0.02248000  0.54050000  0.58516000  1.0
  O  O163  1  0.15294000  0.50791000  0.44620000  1.0
  O  O164  1  0.03405000  0.37589000  0.58053000  1.0
  O  O165  1  0.15695000  0.38991000  0.44818000  1.0
  O  O166  1  0.09610000  0.57263000  0.53062000  1.0
  O  O167  1  0.00072000  0.65887000  0.45273000  1.0
  O  O168  1  0.88272000  0.48688000  0.44991000  1.0
  O  O169  1  0.89277000  0.64763000  0.44474000  1.0
  O  O170  1  0.00032000  0.39142000  0.43782000  1.0
  O  O171  1  0.87581000  0.51928000  0.58156000  1.0
  O  O172  1  0.81461000  0.58188000  0.52450000  1.0
  O  O173  1  0.74986000  0.25046000  0.25044000  1.0
  O  O174  1  0.59693000  0.35542000  0.30371000  1.0
  O  O175  1  0.67447000  0.15484000  0.21892000  1.0
  O  O176  1  0.73132000  0.37585000  0.16986000  1.0
  O  O177  1  0.59398000  0.24339000  0.29747000  1.0
  O  O178  1  0.67046000  0.43529000  0.22702000  1.0
  O  O179  1  0.70828000  0.23003000  0.16598000  1.0
  O  O180  1  0.87660000  0.21786000  0.16959000  1.0
  O  O181  1  0.86104000  0.25597000  0.30961000  1.0
  O  O182  1  0.93352000  0.17543000  0.22906000  1.0
  O  O183  1  0.75232000  0.36544000  0.30773000  1.0
  O  O184  1  0.74731000  0.09197000  0.30156000  1.0
  O  O185  1  0.85988000  0.09813000  0.30489000  1.0
  O  O186  1  0.24870000  0.75078000  0.75016000  1.0
  O  O187  1  0.37327000  0.72202000  0.66936000  1.0
  O  O188  1  0.35914000  0.75185000  0.81143000  1.0
  O  O189  1  0.16600000  0.93472000  0.72571000  1.0
  O  O190  1  0.43436000  0.67854000  0.72743000  1.0
  O  O191  1  0.22418000  0.87498000  0.66839000  1.0
  O  O192  1  0.25890000  0.86690000  0.80177000  1.0
  O  O193  1  0.09807000  0.85572000  0.80515000  1.0
  O  O194  1  0.16563000  0.66163000  0.71884000  1.0
  O  O195  1  0.09389000  0.74416000  0.79912000  1.0
  O  O196  1  0.21601000  0.72075000  0.66414000  1.0
  O  O197  1  0.36043000  0.59692000  0.80103000  1.0
  O  O198  1  0.24653000  0.59182000  0.79973000  1.0
  O  O199  1  0.50060000  0.99983000  0.99990000  1.0
  O  O200  1  0.50291000  0.15900000  0.95041000  1.0
  O  O201  1  0.38752000  0.99477000  0.94122000  1.0
  O  O202  1  0.65371000  0.89394000  0.94592000  1.0
  O  O203  1  0.39184000  0.15098000  0.94560000  1.0
  O  O204  1  0.65528000  0.00754000  0.94997000  1.0
  O  O205  1  0.49760000  0.88671000  0.94115000  1.0
  O  O206  1  0.57687000  0.81663000  0.02312000  1.0
  O  O207  1  0.52950000  0.03391000  0.08569000  1.0
  O  O208  1  0.52502000  0.87689000  0.08072000  1.0
  O  O209  1  0.58557000  0.08710000  0.03079000  1.0
  O  O210  1  0.31576000  0.07549000  0.02120000  1.0
  O  O211  1  0.37224000  0.02962000  0.08077000  1.0
  O  O212  1  0.80223000  0.57677000  0.38034000  1.0
  O  O213  1  0.72135000  0.53599000  0.42023000  1.0
  O  O214  1  0.10011000  0.71947000  0.52114000  1.0
  O  O215  1  0.22059000  0.63769000  0.52159000  1.0
  O  O216  1  0.78865000  0.16917000  0.09025000  1.0
  O  O217  1  0.68704000  0.27025000  0.07129000  1.0
  O  O218  1  0.17266000  0.94862000  0.87058000  1.0
  O  O219  1  0.21402000  0.02767000  0.82928000  1.0
