# generated using pymatgen
data_MnPH15C20N2O5
_symmetry_space_group_name_H-M   'P 1'
_cell_length_a   9.34428000
_cell_length_b   10.21910000
_cell_length_c   10.71520000
_cell_angle_alpha   74.95160000
_cell_angle_beta   69.24720000
_cell_angle_gamma   84.05290000
_symmetry_Int_Tables_number   1
_chemical_formula_structural   MnPH15C20N2O5
_chemical_formula_sum   'Mn2 P2 H30 C40 N4 O10'
_cell_volume   923.92037668
_cell_formula_units_Z   2
loop_
 _symmetry_equiv_pos_site_id
 _symmetry_equiv_pos_as_xyz
  1  'x, y, z'
loop_
 _atom_site_type_symbol
 _atom_site_label
 _atom_site_symmetry_multiplicity
 _atom_site_fract_x
 _atom_site_fract_y
 _atom_site_fract_z
 _atom_site_occupancy
  Mn  Mn0  1  0.58605000  0.12680000  0.13954000  1.0
  Mn  Mn1  1  0.41395000  0.87320000  0.86047000  1.0
  P  P2  1  0.28092000  0.11515000  0.04107000  1.0
  P  P3  1  0.71908000  0.88485000  0.95892000  1.0
  H  H4  1  0.15514000  0.91704000  0.16650000  1.0
  H  H5  1  0.84487000  0.08296000  0.83350000  1.0
  H  H6  1  0.21424000  0.31324000  0.89592000  1.0
  H  H7  1  0.78576000  0.68677000  0.10408000  1.0
  H  H8  1  0.05615000  0.20433000  0.99181000  1.0
  H  H9  1  0.94386000  0.79567000  0.00819000  1.0
  H  H10  1  0.94508000  0.19160000  0.26061000  1.0
  H  H11  1  0.05492000  0.80840000  0.73939000  1.0
  H  H12  1  0.85575000  0.33852000  0.42605000  1.0
  H  H13  1  0.14426000  0.66148000  0.57395000  1.0
  H  H14  1  0.95647000  0.57505000  0.35700000  1.0
  H  H15  1  0.04353000  0.42495000  0.64301000  1.0
  H  H16  1  0.23481000  0.51206000  0.96182000  1.0
  H  H17  1  0.76518000  0.48794000  0.03818000  1.0
  H  H18  1  0.82387000  0.89563000  0.22779000  1.0
  H  H19  1  0.17613000  0.10437000  0.77220000  1.0
  H  H20  1  0.93767000  0.82439000  0.41361000  1.0
  H  H21  1  0.06232000  0.17561000  0.58638000  1.0
  H  H22  1  0.84730000  0.94146000  0.61065000  1.0
  H  H23  1  0.15270000  0.05854000  0.38935000  1.0
  H  H24  1  0.49136000  0.30750000  0.70434000  1.0
  H  H25  1  0.50864000  0.69250000  0.29565000  1.0
  H  H26  1  0.68071000  0.12050000  0.71508000  1.0
  H  H27  1  0.31929000  0.87950000  0.28491000  1.0
  H  H28  1  0.32826000  0.45610000  0.57613000  1.0
  H  H29  1  0.67174000  0.54390000  0.42387000  1.0
  H  H30  1  0.24030000  0.51008000  0.37211000  1.0
  H  H31  1  0.75969000  0.48992000  0.62789000  1.0
  H  H32  1  0.33906000  0.36771000  0.19944000  1.0
  H  H33  1  0.66094000  0.63229000  0.80057000  1.0
  C  C34  1  0.15193000  0.25253000  0.99904000  1.0
  C  C35  1  0.84807000  0.74747000  0.00095000  1.0
  C  C36  1  0.09596000  0.34089000  0.09952000  1.0
  C  C37  1  0.90404000  0.65911000  0.90048000  1.0
  C  C38  1  0.98857000  0.29411000  0.23120000  1.0
  C  C39  1  0.01143000  0.70590000  0.76880000  1.0
  C  C40  1  0.93865000  0.37714000  0.32394000  1.0
  C  C41  1  0.06135000  0.62286000  0.67606000  1.0
  C  C42  1  0.99416000  0.50852000  0.28634000  1.0
  C  C43  1  0.00584000  0.49148000  0.71366000  1.0
  C  C44  1  0.10124000  0.55664000  0.15529000  1.0
  C  C45  1  0.89877000  0.44337000  0.84471000  1.0
  C  C46  1  0.16225000  0.69758000  0.11188000  1.0
  C  C47  1  0.83775000  0.30243000  0.88813000  1.0
  C  C48  1  0.15159000  0.47231000  0.06337000  1.0
  C  C49  1  0.84841000  0.52769000  0.93664000  1.0
  C  C50  1  0.78976000  0.94584000  0.31229000  1.0
  C  C51  1  0.21024000  0.05416000  0.68770000  1.0
  C  C52  1  0.85212000  0.90556000  0.41853000  1.0
  C  C53  1  0.14787000  0.09444000  0.58147000  1.0
  C  C54  1  0.80393000  0.97026000  0.52512000  1.0
  C  C55  1  0.19607000  0.02973000  0.47487000  1.0
  C  C56  1  0.69483000  0.07706000  0.52350000  1.0
  C  C57  1  0.30517000  0.92294000  0.47650000  1.0
  C  C58  1  0.63976000  0.11149000  0.41141000  1.0
  C  C59  1  0.36024000  0.88851000  0.58859000  1.0
  C  C60  1  0.52967000  0.22018000  0.40477000  1.0
  C  C61  1  0.47033000  0.77982000  0.59522000  1.0
  C  C62  1  0.47772000  0.29196000  0.51018000  1.0
  C  C63  1  0.52228000  0.70804000  0.48982000  1.0
  C  C64  1  0.53428000  0.25366000  0.62249000  1.0
  C  C65  1  0.46572000  0.74634000  0.37751000  1.0
  C  C66  1  0.63850000  0.15021000  0.62912000  1.0
  C  C67  1  0.36150000  0.84978000  0.37088000  1.0
  C  C68  1  0.37101000  0.39857000  0.49733000  1.0
  C  C69  1  0.62899000  0.60142000  0.50267000  1.0
  C  C70  1  0.32212000  0.42831000  0.38534000  1.0
  C  C71  1  0.67787000  0.57169000  0.61467000  1.0
  C  C72  1  0.37770000  0.34991000  0.28733000  1.0
  C  C73  1  0.62230000  0.65009000  0.71266000  1.0
  N  N74  1  0.68642000  0.04564000  0.30828000  1.0
  N  N75  1  0.31358000  0.95436000  0.69172000  1.0
  N  N76  1  0.47845000  0.24876000  0.29682000  1.0
  N  N77  1  0.52155000  0.75124000  0.70318000  1.0
  O  O78  1  0.17537000  0.01343000  0.17309000  1.0
  O  O79  1  0.82464000  0.98658000  0.82691000  1.0
  O  O80  1  0.39823000  0.17401000  0.07921000  1.0
  O  O81  1  0.60177000  0.82600000  0.92080000  1.0
  O  O82  1  0.34308000  0.05081000  0.91883000  1.0
  O  O83  1  0.65692000  0.94919000  0.08117000  1.0
  O  O84  1  0.26156000  0.73069000  0.99148000  1.0
  O  O85  1  0.73844000  0.26931000  0.00852000  1.0
  O  O86  1  0.11100000  0.77378000  0.19522000  1.0
  O  O87  1  0.88899000  0.22622000  0.80478000  1.0
