# generated using pymatgen
data_SrH2C5(NO2)2
_symmetry_space_group_name_H-M   'P 1'
_cell_length_a   9.60826000
_cell_length_b   16.36700000
_cell_length_c   16.36710000
_cell_angle_alpha   116.27200000
_cell_angle_beta   101.28700000
_cell_angle_gamma   101.28700000
_symmetry_Int_Tables_number   1
_chemical_formula_structural   SrH2C5(NO2)2
_chemical_formula_sum   'Sr12 H24 C60 N24 O48'
_cell_volume   2143.50161377
_cell_formula_units_Z   12
loop_
 _symmetry_equiv_pos_site_id
 _symmetry_equiv_pos_as_xyz
  1  'x, y, z'
loop_
 _atom_site_type_symbol
 _atom_site_label
 _atom_site_symmetry_multiplicity
 _atom_site_fract_x
 _atom_site_fract_y
 _atom_site_fract_z
 _atom_site_occupancy
  Sr  Sr0  1  0.41564000  0.41591000  0.28668000  1.0
  Sr  Sr1  1  0.99981000  0.87081000  0.58406000  1.0
  Sr  Sr2  1  0.12894000  0.71325000  0.12915000  1.0
  Sr  Sr3  1  0.49981000  0.58406000  0.87081000  1.0
  Sr  Sr4  1  0.62894000  0.12915000  0.71326000  1.0
  Sr  Sr5  1  0.91565000  0.28668000  0.41591000  1.0
  Sr  Sr6  1  0.35887000  0.53191000  0.58603000  1.0
  Sr  Sr7  1  0.82703000  0.05410000  0.46811000  1.0
  Sr  Sr8  1  0.77295000  0.41400000  0.94585000  1.0
  Sr  Sr9  1  0.32703000  0.46811000  0.05410000  1.0
  Sr  Sr10  1  0.27295000  0.94584000  0.41400000  1.0
  Sr  Sr11  1  0.85887000  0.58604000  0.53191000  1.0
  H  H12  1  0.92111000  0.58476000  0.19766000  1.0
  H  H13  1  0.33623000  0.61282000  0.41534000  1.0
  H  H14  1  0.72362000  0.80239000  0.38722000  1.0
  H  H15  1  0.83623000  0.41534000  0.61282000  1.0
  H  H16  1  0.22361000  0.38721000  0.80239000  1.0
  H  H17  1  0.42111000  0.19766000  0.58476000  1.0
  H  H18  1  0.89850000  0.24606000  0.19528000  1.0
  H  H19  1  0.65239000  0.94933000  0.75399000  1.0
  H  H20  1  0.70313000  0.80458000  0.05069000  1.0
  H  H21  1  0.15239000  0.75399000  0.94933000  1.0
  H  H22  1  0.20313000  0.05069000  0.80458000  1.0
  H  H23  1  0.39849000  0.19527000  0.24606000  1.0
  H  H24  1  0.76053000  0.58234000  0.30803000  1.0
  H  H25  1  0.17813000  0.72563000  0.41760000  1.0
  H  H26  1  0.45268000  0.69197000  0.27438000  1.0
  H  H27  1  0.67813000  0.41759000  0.72562000  1.0
  H  H28  1  0.95268000  0.27437000  0.69196000  1.0
  H  H29  1  0.26053000  0.30803000  0.58234000  1.0
  H  H30  1  0.99184000  0.29254000  0.07998000  1.0
  H  H31  1  0.69924000  0.78757000  0.70754000  1.0
  H  H32  1  0.91176000  0.91986000  0.21251000  1.0
  H  H33  1  0.19924000  0.70754000  0.78757000  1.0
  H  H34  1  0.41176000  0.21251000  0.91986000  1.0
  H  H35  1  0.49184000  0.07998000  0.29254000  1.0
  C  C36  1  0.86144000  0.56199000  0.30839000  1.0
  C  C37  1  0.29945000  0.74634000  0.43800000  1.0
  C  C38  1  0.55328000  0.69161000  0.25368000  1.0
  C  C39  1  0.79944000  0.43800000  0.74633000  1.0
  C  C40  1  0.05328000  0.25368000  0.69160000  1.0
  C  C41  1  0.36144000  0.30839000  0.56199000  1.0
  C  C42  1  0.04410000  0.51022000  0.33973000  1.0
  C  C43  1  0.53389000  0.82943000  0.48980000  1.0
  C  C44  1  0.70462000  0.66029000  0.17058000  1.0
  C  C45  1  0.03389000  0.48980000  0.82943000  1.0
  C  C46  1  0.20462000  0.17058000  0.66028000  1.0
  C  C47  1  0.54410000  0.33973000  0.51022000  1.0
  C  C48  1  0.06241000  0.53508000  0.27010000  1.0
  C  C49  1  0.52734000  0.73496000  0.46500000  1.0
  C  C50  1  0.79253000  0.72993000  0.26507000  1.0
  C  C51  1  0.02733000  0.46500000  0.73496000  1.0
  C  C52  1  0.29253000  0.26507000  0.72993000  1.0
  C  C53  1  0.56241000  0.27011000  0.53508000  1.0
  C  C54  1  0.14129000  0.47718000  0.39192000  1.0
  C  C55  1  0.66413000  0.91467000  0.52279000  1.0
  C  C56  1  0.74962000  0.60811000  0.08534000  1.0
  C  C57  1  0.16412000  0.52279000  0.91467000  1.0
  C  C58  1  0.24963000  0.08534000  0.60811000  1.0
  C  C59  1  0.64129000  0.39193000  0.47718000  1.0
  C  C60  1  0.17242000  0.53432000  0.21728000  1.0
  C  C61  1  0.63815000  0.68295000  0.46584000  1.0
  C  C62  1  0.95538000  0.78279000  0.31707000  1.0
  C  C63  1  0.13814000  0.46583000  0.68295000  1.0
  C  C64  1  0.45538000  0.31707000  0.78279000  1.0
  C  C65  1  0.67242000  0.21728000  0.53432000  1.0
  C  C66  1  0.89088000  0.30150000  0.09784000  1.0
  C  C67  1  0.58931000  0.79648000  0.69859000  1.0
  C  C68  1  0.79292000  0.90198000  0.20358000  1.0
  C  C69  1  0.08931000  0.69859000  0.79648000  1.0
  C  C70  1  0.29292000  0.20359000  0.90198000  1.0
  C  C71  1  0.39087000  0.09784000  0.30150000  1.0
  C  C72  1  0.71487000  0.29751000  0.16651000  1.0
  C  C73  1  0.41728000  0.86911000  0.70253000  1.0
  C  C74  1  0.54825000  0.83331000  0.13090000  1.0
  C  C75  1  0.91728000  0.70253000  0.86911000  1.0
  C  C76  1  0.04825000  0.13090000  0.83331000  1.0
  C  C77  1  0.21487000  0.16651000  0.29751000  1.0
  C  C78  1  0.69053000  0.34113000  0.11063000  1.0
  C  C79  1  0.34932000  0.76959000  0.65889000  1.0
  C  C80  1  0.57981000  0.88917000  0.23041000  1.0
  C  C81  1  0.84932000  0.65889000  0.76959000  1.0
  C  C82  1  0.07981000  0.23041000  0.88917000  1.0
  C  C83  1  0.19053000  0.11063000  0.34113000  1.0
  C  C84  1  0.63249000  0.26938000  0.22334000  1.0
  C  C85  1  0.36301000  0.95405000  0.73068000  1.0
  C  C86  1  0.40903000  0.77657000  0.04594000  1.0
  C  C87  1  0.86300000  0.73068000  0.95405000  1.0
  C  C88  1  0.90903000  0.04595000  0.77657000  1.0
  C  C89  1  0.13248000  0.22333000  0.26938000  1.0
  C  C90  1  0.58164000  0.39047000  0.09706000  1.0
  C  C91  1  0.19107000  0.70666000  0.60954000  1.0
  C  C92  1  0.48448000  0.90281000  0.29333000  1.0
  C  C93  1  0.69107000  0.60954000  0.70666000  1.0
  C  C94  1  0.98448000  0.29333000  0.90281000  1.0
  C  C95  1  0.08164000  0.09705000  0.39047000  1.0
  N  N96  1  0.91833000  0.52815000  0.36308000  1.0
  N  N97  1  0.39018000  0.83485000  0.47179000  1.0
  N  N98  1  0.55549000  0.63693000  0.16516000  1.0
  N  N99  1  0.89017000  0.47179000  0.83484000  1.0
  N  N100  1  0.05549000  0.16515000  0.63692000  1.0
  N  N101  1  0.41833000  0.36308000  0.52815000  1.0
  N  N102  1  0.94517000  0.56779000  0.25263000  1.0
  N  N103  1  0.37737000  0.68478000  0.43232000  1.0
  N  N104  1  0.69276000  0.74741000  0.31527000  1.0
  N  N105  1  0.87736000  0.43232000  0.68478000  1.0
  N  N106  1  0.19276000  0.31527000  0.74740000  1.0
  N  N107  1  0.44517000  0.25263000  0.56779000  1.0
  N  N108  1  0.84303000  0.27411000  0.15702000  1.0
  N  N109  1  0.56884000  0.88303000  0.72595000  1.0
  N  N110  1  0.68589000  0.84281000  0.11701000  1.0
  N  N111  1  0.06884000  0.72595000  0.88303000  1.0
  N  N112  1  0.18590000  0.11701000  0.84281000  1.0
  N  N113  1  0.34303000  0.15702000  0.27411000  1.0
  N  N114  1  0.80110000  0.34200000  0.06772000  1.0
  N  N115  1  0.45906000  0.72583000  0.65808000  1.0
  N  N116  1  0.73329000  0.93208000  0.27421000  1.0
  N  N117  1  0.95906000  0.65808000  0.72583000  1.0
  N  N118  1  0.23329000  0.27421000  0.93208000  1.0
  N  N119  1  0.30110000  0.06772000  0.34200000  1.0
  O  O120  1  0.28413000  0.50681000  0.40766000  1.0
  O  O121  1  0.77734000  0.90078000  0.49318000  1.0
  O  O122  1  0.87666000  0.59229000  0.09922000  1.0
  O  O123  1  0.27733000  0.49318000  0.90078000  1.0
  O  O124  1  0.37666000  0.09922000  0.59229000  1.0
  O  O125  1  0.78413000  0.40766000  0.50681000  1.0
  O  O126  1  0.08578000  0.42704000  0.42477000  1.0
  O  O127  1  0.65877000  0.99767000  0.57289000  1.0
  O  O128  1  0.66130000  0.57535000  0.00236000  1.0
  O  O129  1  0.15876000  0.57289000  0.99767000  1.0
  O  O130  1  0.16130000  0.00235000  0.57534000  1.0
  O  O131  1  0.58579000  0.42477000  0.42704000  1.0
  O  O132  1  0.24520000  0.47468000  0.20399000  1.0
  O  O133  1  0.77058000  0.72942000  0.52546000  1.0
  O  O134  1  0.04132000  0.79598000  0.27063000  1.0
  O  O135  1  0.27057000  0.52545000  0.72941000  1.0
  O  O136  1  0.54132000  0.27063000  0.79598000  1.0
  O  O137  1  0.74519000  0.20399000  0.47467000  1.0
  O  O138  1  0.18746000  0.59309000  0.18620000  1.0
  O  O139  1  0.59450000  0.59308000  0.40709000  1.0
  O  O140  1  0.00167000  0.81398000  0.40696000  1.0
  O  O141  1  0.09449000  0.40708000  0.59307000  1.0
  O  O142  1  0.50167000  0.40696000  0.81398000  1.0
  O  O143  1  0.68746000  0.18620000  0.59308000  1.0
  O  O144  1  0.49647000  0.26771000  0.21017000  1.0
  O  O145  1  0.22862000  0.94249000  0.73229000  1.0
  O  O146  1  0.28620000  0.78973000  0.05748000  1.0
  O  O147  1  0.72863000  0.73229000  0.94249000  1.0
  O  O148  1  0.78620000  0.05748000  0.78973000  1.0
  O  O149  1  0.99647000  0.21017000  0.26771000  1.0
  O  O150  1  0.70222000  0.24638000  0.27966000  1.0
  O  O151  1  0.45570000  0.03340000  0.75375000  1.0
  O  O152  1  0.42237000  0.72031000  0.96659000  1.0
  O  O153  1  0.95570000  0.75375000  0.03341000  1.0
  O  O154  1  0.92237000  0.96659000  0.72031000  1.0
  O  O155  1  0.20221000  0.27965000  0.24638000  1.0
  O  O156  1  0.50543000  0.41687000  0.15413000  1.0
  O  O157  1  0.08847000  0.73727000  0.58302000  1.0
  O  O158  1  0.35121000  0.84577000  0.26271000  1.0
  O  O159  1  0.58847000  0.58302000  0.73727000  1.0
  O  O160  1  0.85121000  0.26271000  0.84577000  1.0
  O  O161  1  0.00543000  0.15412000  0.41687000  1.0
  O  O162  1  0.57060000  0.40862000  0.02803000  1.0
  O  O163  1  0.16193000  0.61949000  0.59141000  1.0
  O  O164  1  0.54249000  0.97185000  0.38049000  1.0
  O  O165  1  0.66193000  0.59141000  0.61949000  1.0
  O  O166  1  0.04250000  0.38049000  0.97186000  1.0
  O  O167  1  0.07059000  0.02803000  0.40862000  1.0
