# generated using pymatgen
data_CuH14C22NO9
_symmetry_space_group_name_H-M   'P 1'
_cell_length_a   7.86468000
_cell_length_b   10.18670000
_cell_length_c   13.18580000
_cell_angle_alpha   73.11300000
_cell_angle_beta   80.07810000
_cell_angle_gamma   86.37280000
_symmetry_Int_Tables_number   1
_chemical_formula_structural   CuH14C22NO9
_chemical_formula_sum   'Cu2 H28 C44 N2 O18'
_cell_volume   995.61417854
_cell_formula_units_Z   2
loop_
 _symmetry_equiv_pos_site_id
 _symmetry_equiv_pos_as_xyz
  1  'x, y, z'
loop_
 _atom_site_type_symbol
 _atom_site_label
 _atom_site_symmetry_multiplicity
 _atom_site_fract_x
 _atom_site_fract_y
 _atom_site_fract_z
 _atom_site_occupancy
  Cu  Cu0  1  0.26598000  0.84694000  0.06160000  1.0
  Cu  Cu1  1  0.73402000  0.15306000  0.93840000  1.0
  H  H2  1  0.62258000  0.96596000  0.27856000  1.0
  H  H3  1  0.37742000  0.03403000  0.72144000  1.0
  H  H4  1  0.01037000  0.29854000  0.64989000  1.0
  H  H5  1  0.98962000  0.70145000  0.35011000  1.0
  H  H6  1  0.51693000  0.49348000  0.79828000  1.0
  H  H7  1  0.48306000  0.50652000  0.20172000  1.0
  H  H8  1  0.57716000  0.85159000  0.14641000  1.0
  H  H9  1  0.42285000  0.14841000  0.85359000  1.0
  H  H10  1  0.83197000  0.56106000  0.48679000  1.0
  H  H11  1  0.16803000  0.43893000  0.51321000  1.0
  H  H12  1  0.40820000  0.83739000  0.53555000  1.0
  H  H13  1  0.59181000  0.16261000  0.46445000  1.0
  H  H14  1  0.85596000  0.72272000  0.15033000  1.0
  H  H15  1  0.14404000  0.27728000  0.84966000  1.0
  H  H16  1  0.06396000  0.58289000  0.06685000  1.0
  H  H17  1  0.93605000  0.41711000  0.93314000  1.0
  H  H18  1  0.93282000  0.43797000  0.11960000  1.0
  H  H19  1  0.06718000  0.56203000  0.88040000  1.0
  H  H20  1  0.44373000  0.68290000  0.92096000  1.0
  H  H21  1  0.55626000  0.31710000  0.07904000  1.0
  H  H22  1  0.71626000  0.54624000  0.91524000  1.0
  H  H23  1  0.28373000  0.45376000  0.08476000  1.0
  H  H24  1  0.13796000  0.68945000  0.58313000  1.0
  H  H25  1  0.86204000  0.31055000  0.41687000  1.0
  H  H26  1  0.73892000  0.97237000  0.66114000  1.0
  H  H27  1  0.26108000  0.02763000  0.33887000  1.0
  H  H28  1  0.87092000  0.82376000  0.54570000  1.0
  H  H29  1  0.12907000  0.17624000  0.45430000  1.0
  C  C30  1  0.86132000  0.01717000  0.82480000  1.0
  C  C31  1  0.13868000  0.98283000  0.17520000  1.0
  C  C32  1  0.09939000  0.86053000  0.77488000  1.0
  C  C33  1  0.90061000  0.13947000  0.22512000  1.0
  C  C34  1  0.20241000  0.87504000  0.85743000  1.0
  C  C35  1  0.79759000  0.12496000  0.14257000  1.0
  C  C36  1  0.68562000  0.51446000  0.64660000  1.0
  C  C37  1  0.31437000  0.48553000  0.35340000  1.0
  C  C38  1  0.54508000  0.55129000  0.71387000  1.0
  C  C39  1  0.45492000  0.44871000  0.28613000  1.0
  C  C40  1  0.44182000  0.66405000  0.67238000  1.0
  C  C41  1  0.55818000  0.33595000  0.32762000  1.0
  C  C42  1  0.61264000  0.78090000  0.09808000  1.0
  C  C43  1  0.38736000  0.21910000  0.90191000  1.0
  C  C44  1  0.94214000  0.93001000  0.75675000  1.0
  C  C45  1  0.05786000  0.06999000  0.24325000  1.0
  C  C46  1  0.80753000  0.61649000  0.03707000  1.0
  C  C47  1  0.19247000  0.38351000  0.96293000  1.0
  C  C48  1  0.16640000  0.77310000  0.71266000  1.0
  C  C49  1  0.83360000  0.22691000  0.28734000  1.0
  C  C50  1  0.72164000  0.58960000  0.53836000  1.0
  C  C51  1  0.27835000  0.41040000  0.46164000  1.0
  C  C52  1  0.62308000  0.70683000  0.49920000  1.0
  C  C53  1  0.37692000  0.29318000  0.50079000  1.0
  C  C54  1  0.48211000  0.74463000  0.56618000  1.0
  C  C55  1  0.51790000  0.25537000  0.43382000  1.0
  C  C56  1  0.67749000  0.79806000  0.38817000  1.0
  C  C57  1  0.32251000  0.20194000  0.61183000  1.0
  C  C58  1  0.76759000  0.70803000  0.09956000  1.0
  C  C59  1  0.23242000  0.29197000  0.90044000  1.0
  C  C60  1  0.80646000  0.40382000  0.69428000  1.0
  C  C61  1  0.19354000  0.59618000  0.30572000  1.0
  C  C62  1  0.96553000  0.52624000  0.04819000  1.0
  C  C63  1  0.03447000  0.47376000  0.95181000  1.0
  C  C64  1  0.53834000  0.68746000  0.97109000  1.0
  C  C65  1  0.46166000  0.31254000  0.02891000  1.0
  C  C66  1  0.69115000  0.61129000  0.96893000  1.0
  C  C67  1  0.30885000  0.38870000  0.03107000  1.0
  C  C68  1  0.08473000  0.75828000  0.63071000  1.0
  C  C69  1  0.91528000  0.24173000  0.36929000  1.0
  C  C70  1  0.85984000  0.91651000  0.67418000  1.0
  C  C71  1  0.14016000  0.08349000  0.32582000  1.0
  C  C72  1  0.93307000  0.83303000  0.61075000  1.0
  C  C73  1  0.06693000  0.16696000  0.38926000  1.0
  N  N74  1  0.49718000  0.76823000  0.03668000  1.0
  N  N75  1  0.50282000  0.23177000  0.96331000  1.0
  O  O76  1  0.15991000  0.79876000  0.95318000  1.0
  O  O77  1  0.84009000  0.20124000  0.04682000  1.0
  O  O78  1  0.33045000  0.95378000  0.82790000  1.0
  O  O79  1  0.66956000  0.04622000  0.17210000  1.0
  O  O80  1  0.94293000  0.04791000  0.89062000  1.0
  O  O81  1  0.05707000  0.95209000  0.10938000  1.0
  O  O82  1  0.30912000  0.69514000  0.74499000  1.0
  O  O83  1  0.69088000  0.30486000  0.25502000  1.0
  O  O84  1  0.57424000  0.90362000  0.35860000  1.0
  O  O85  1  0.42577000  0.09637000  0.64140000  1.0
  O  O86  1  0.70606000  0.06343000  0.82072000  1.0
  O  O87  1  0.29394000  0.93657000  0.17929000  1.0
  O  O88  1  0.81384000  0.36670000  0.79134000  1.0
  O  O89  1  0.18616000  0.63330000  0.20866000  1.0
  O  O90  1  0.81238000  0.77717000  0.32918000  1.0
  O  O91  1  0.18762000  0.22283000  0.67082000  1.0
  O  O92  1  0.90833000  0.35551000  0.62101000  1.0
  O  O93  1  0.09166000  0.64448000  0.37899000  1.0
