# generated using pymatgen
data_BaH6C7N2O9
_symmetry_space_group_name_H-M   'P 1'
_cell_length_a   4.36425000
_cell_length_b   11.00910000
_cell_length_c   23.63840000
_cell_angle_alpha   93.64290000
_cell_angle_beta   89.99790000
_cell_angle_gamma   89.99850000
_symmetry_Int_Tables_number   1
_chemical_formula_structural   BaH6C7N2O9
_chemical_formula_sum   'Ba4 H24 C28 N8 O36'
_cell_volume   1133.44670917
_cell_formula_units_Z   4
loop_
 _symmetry_equiv_pos_site_id
 _symmetry_equiv_pos_as_xyz
  1  'x, y, z'
loop_
 _atom_site_type_symbol
 _atom_site_label
 _atom_site_symmetry_multiplicity
 _atom_site_fract_x
 _atom_site_fract_y
 _atom_site_fract_z
 _atom_site_occupancy
  Ba  Ba0  1  0.61404000  0.70720000  0.98844000  1.0
  Ba  Ba1  1  0.11407000  0.79280000  0.51156000  1.0
  Ba  Ba2  1  0.38595000  0.29281000  0.01155000  1.0
  Ba  Ba3  1  0.88594000  0.20720000  0.48845000  1.0
  H  H4  1  0.89118000  0.31198000  0.80759000  1.0
  H  H5  1  0.39116000  0.18801000  0.69241000  1.0
  H  H6  1  0.10886000  0.68801000  0.19239000  1.0
  H  H7  1  0.60887000  0.81200000  0.30761000  1.0
  H  H8  1  0.35293000  0.61737000  0.73981000  1.0
  H  H9  1  0.85294000  0.88263000  0.76018000  1.0
  H  H10  1  0.64715000  0.38262000  0.26018000  1.0
  H  H11  1  0.14712000  0.11739000  0.23983000  1.0
  H  H12  1  0.22953000  0.96248000  0.94936000  1.0
  H  H13  1  0.72956000  0.53752000  0.55064000  1.0
  H  H14  1  0.77033000  0.03751000  0.05063000  1.0
  H  H15  1  0.27040000  0.46249000  0.44937000  1.0
  H  H16  1  0.19562000  0.94669000  0.01380000  1.0
  H  H17  1  0.69567000  0.55330000  0.48619000  1.0
  H  H18  1  0.80415000  0.05329000  0.98618000  1.0
  H  H19  1  0.30416000  0.44671000  0.51382000  1.0
  H  H20  1  0.83414000  0.84967000  0.09686000  1.0
  H  H21  1  0.33426000  0.65033000  0.40314000  1.0
  H  H22  1  0.16583000  0.15033000  0.90314000  1.0
  H  H23  1  0.66577000  0.34968000  0.59686000  1.0
  H  H24  1  0.52465000  0.91640000  0.11328000  1.0
  H  H25  1  0.02475000  0.58360000  0.38672000  1.0
  H  H26  1  0.47534000  0.08359000  0.88672000  1.0
  H  H27  1  0.97530000  0.41641000  0.61328000  1.0
  C  C28  1  0.84143000  0.40217000  0.91640000  1.0
  C  C29  1  0.34141000  0.09783000  0.58361000  1.0
  C  C30  1  0.15856000  0.59783000  0.08359000  1.0
  C  C31  1  0.65860000  0.90218000  0.41641000  1.0
  C  C32  1  0.99086000  0.46038000  0.86778000  1.0
  C  C33  1  0.49084000  0.03961000  0.63221000  1.0
  C  C34  1  0.00916000  0.53961000  0.13220000  1.0
  C  C35  1  0.50918000  0.96040000  0.36780000  1.0
  C  C36  1  0.99253000  0.40185000  0.81451000  1.0
  C  C37  1  0.49250000  0.09814000  0.68549000  1.0
  C  C38  1  0.00751000  0.59813000  0.18548000  1.0
  C  C39  1  0.50751000  0.90187000  0.31452000  1.0
  C  C40  1  0.11948000  0.45908000  0.76831000  1.0
  C  C41  1  0.61949000  0.04091000  0.73169000  1.0
  C  C42  1  0.88055000  0.54091000  0.23168000  1.0
  C  C43  1  0.38054000  0.95910000  0.26833000  1.0
  C  C44  1  0.25328000  0.57388000  0.77547000  1.0
  C  C45  1  0.75326000  0.92611000  0.72452000  1.0
  C  C46  1  0.74679000  0.42611000  0.22452000  1.0
  C  C47  1  0.24679000  0.07390000  0.27549000  1.0
  C  C48  1  0.25800000  0.63106000  0.82931000  1.0
  C  C49  1  0.75799000  0.86893000  0.67068000  1.0
  C  C50  1  0.74205000  0.36893000  0.17068000  1.0
  C  C51  1  0.24205000  0.13108000  0.32933000  1.0
  C  C52  1  0.12295000  0.58011000  0.87833000  1.0
  C  C53  1  0.62294000  0.91988000  0.62167000  1.0
  C  C54  1  0.87708000  0.41987000  0.12166000  1.0
  C  C55  1  0.37708000  0.08013000  0.37835000  1.0
  N  N56  1  0.09502000  0.40193000  0.71253000  1.0
  N  N57  1  0.59505000  0.09806000  0.78747000  1.0
  N  N58  1  0.90501000  0.59806000  0.28746000  1.0
  N  N59  1  0.40497000  0.90194000  0.21255000  1.0
  N  N60  1  0.38072000  0.75314000  0.83477000  1.0
  N  N61  1  0.88072000  0.74684000  0.66522000  1.0
  N  N62  1  0.61927000  0.24685000  0.16522000  1.0
  N  N63  1  0.11929000  0.25317000  0.33479000  1.0
  O  O64  1  0.11411000  0.63782000  0.92701000  1.0
  O  O65  1  0.61410000  0.86217000  0.57299000  1.0
  O  O66  1  0.88590000  0.36216000  0.07298000  1.0
  O  O67  1  0.38591000  0.13785000  0.42703000  1.0
  O  O68  1  0.64122000  0.46403000  0.94467000  1.0
  O  O69  1  0.14119000  0.03596000  0.55534000  1.0
  O  O70  1  0.35880000  0.53596000  0.05532000  1.0
  O  O71  1  0.85881000  0.96404000  0.44468000  1.0
  O  O72  1  0.91888000  0.29440000  0.92794000  1.0
  O  O73  1  0.41885000  0.20559000  0.57206000  1.0
  O  O74  1  0.08112000  0.70559000  0.07204000  1.0
  O  O75  1  0.58117000  0.79440000  0.42795000  1.0
  O  O76  1  0.93610000  0.30794000  0.70505000  1.0
  O  O77  1  0.43611000  0.19205000  0.79495000  1.0
  O  O78  1  0.06394000  0.69206000  0.29494000  1.0
  O  O79  1  0.56389000  0.80795000  0.20506000  1.0
  O  O80  1  0.22870000  0.44984000  0.67217000  1.0
  O  O81  1  0.72874000  0.05016000  0.82782000  1.0
  O  O82  1  0.77133000  0.55016000  0.32781000  1.0
  O  O83  1  0.27127000  0.94985000  0.17219000  1.0
  O  O84  1  0.31565000  0.82349000  0.79758000  1.0
  O  O85  1  0.81563000  0.67650000  0.70241000  1.0
  O  O86  1  0.68434000  0.17650000  0.20241000  1.0
  O  O87  1  0.18439000  0.32351000  0.29759000  1.0
  O  O88  1  0.54593000  0.78343000  0.87663000  1.0
  O  O89  1  0.04592000  0.71655000  0.62336000  1.0
  O  O90  1  0.45404000  0.21658000  0.12336000  1.0
  O  O91  1  0.95405000  0.28346000  0.37665000  1.0
  O  O92  1  0.18689000  0.90006000  0.97737000  1.0
  O  O93  1  0.68695000  0.59993000  0.52263000  1.0
  O  O94  1  0.81295000  0.09992000  0.02262000  1.0
  O  O95  1  0.31300000  0.40008000  0.47739000  1.0
  O  O96  1  0.67670000  0.90361000  0.08212000  1.0
  O  O97  1  0.17681000  0.59639000  0.41788000  1.0
  O  O98  1  0.32327000  0.09638000  0.91788000  1.0
  O  O99  1  0.82323000  0.40362000  0.58212000  1.0
