# generated using pymatgen
data_SmH24C25S2N3O8
_symmetry_space_group_name_H-M   'P 1'
_cell_length_a   16.13950000
_cell_length_b   16.13960000
_cell_length_c   27.95060000
_cell_angle_alpha   80.33710000
_cell_angle_beta   80.33720000
_cell_angle_gamma   62.78460000
_symmetry_Int_Tables_number   1
_chemical_formula_structural   SmH24C25S2N3O8
_chemical_formula_sum   'Sm4 H96 C100 S8 N12 O32'
_cell_volume   6348.28693569
_cell_formula_units_Z   4
loop_
 _symmetry_equiv_pos_site_id
 _symmetry_equiv_pos_as_xyz
  1  'x, y, z'
loop_
 _atom_site_type_symbol
 _atom_site_label
 _atom_site_symmetry_multiplicity
 _atom_site_fract_x
 _atom_site_fract_y
 _atom_site_fract_z
 _atom_site_occupancy
  Sm  Sm0  1  0.93386000  0.47034000  0.95497000  1.0
  Sm  Sm1  1  0.52966000  0.06614000  0.54503000  1.0
  Sm  Sm2  1  0.06614000  0.52966000  0.04503000  1.0
  Sm  Sm3  1  0.47034000  0.93386000  0.45497000  1.0
  H  H4  1  0.93687000  0.37003000  0.79606000  1.0
  H  H5  1  0.62997000  0.06312000  0.70394000  1.0
  H  H6  1  0.06312000  0.62997000  0.20394000  1.0
  H  H7  1  0.37003000  0.93687000  0.29606000  1.0
  H  H8  1  0.89416000  0.29034000  0.74050000  1.0
  H  H9  1  0.70966000  0.10584000  0.75950000  1.0
  H  H10  1  0.10584000  0.70966000  0.25950000  1.0
  H  H11  1  0.29034000  0.89416000  0.24050000  1.0
  H  H12  1  0.79692000  0.15208000  0.86589000  1.0
  H  H13  1  0.84792000  0.20308000  0.63411000  1.0
  H  H14  1  0.20308000  0.84792000  0.13411000  1.0
  H  H15  1  0.15208000  0.79692000  0.36589000  1.0
  H  H16  1  0.83983000  0.23251000  0.92136000  1.0
  H  H17  1  0.76749000  0.16017000  0.57864000  1.0
  H  H18  1  0.16017000  0.76749000  0.07864000  1.0
  H  H19  1  0.23251000  0.83983000  0.42136000  1.0
  H  H20  1  0.16899000  0.68316000  0.91659000  1.0
  H  H21  1  0.31685000  0.83101000  0.58341000  1.0
  H  H22  1  0.83101000  0.31685000  0.08341000  1.0
  H  H23  1  0.68316000  0.16899000  0.41659000  1.0
  H  H24  1  0.23238000  0.75546000  0.84136000  1.0
  H  H25  1  0.24454000  0.76762000  0.65864000  1.0
  H  H26  1  0.76762000  0.24454000  0.15864000  1.0
  H  H27  1  0.75546000  0.23238000  0.34136000  1.0
  H  H28  1  0.14449000  0.62559000  0.75124000  1.0
  H  H29  1  0.37441000  0.85552000  0.74877000  1.0
  H  H30  1  0.85552000  0.37441000  0.24877000  1.0
  H  H31  1  0.62559000  0.14448000  0.25123000  1.0
  H  H32  1  0.08130000  0.55285000  0.82707000  1.0
  H  H33  1  0.44715000  0.91870000  0.67294000  1.0
  H  H34  1  0.91870000  0.44715000  0.17294000  1.0
  H  H35  1  0.55285000  0.08130000  0.32707000  1.0
  H  H36  1  0.20191000  0.16487000  0.94327000  1.0
  H  H37  1  0.83513000  0.79809000  0.55673000  1.0
  H  H38  1  0.79809000  0.83513000  0.05673000  1.0
  H  H39  1  0.16487000  0.20191000  0.44327000  1.0
  H  H40  1  0.36270000  0.03240000  0.95441000  1.0
  H  H41  1  0.96760000  0.63730000  0.54559000  1.0
  H  H42  1  0.63730000  0.96760000  0.04559000  1.0
  H  H43  1  0.03240000  0.36270000  0.45441000  1.0
  H  H44  1  0.41586000  0.19748000  0.03967000  1.0
  H  H45  1  0.80251000  0.58414000  0.46033000  1.0
  H  H46  1  0.58414000  0.80252000  0.96033000  1.0
  H  H47  1  0.19749000  0.41586000  0.53967000  1.0
  H  H48  1  0.25433000  0.32865000  0.02989000  1.0
  H  H49  1  0.67135000  0.74567000  0.47011000  1.0
  H  H50  1  0.74567000  0.67135000  0.97010000  1.0
  H  H51  1  0.32865000  0.25433000  0.52989000  1.0
  H  H52  1  0.64466000  0.71884000  0.88694000  1.0
  H  H53  1  0.28116000  0.35534000  0.61306000  1.0
  H  H54  1  0.35534000  0.28116000  0.11306000  1.0
  H  H55  1  0.71884000  0.64466000  0.38694000  1.0
  H  H56  1  0.65497000  0.71477000  0.82227000  1.0
  H  H57  1  0.28524000  0.34503000  0.67773000  1.0
  H  H58  1  0.34503000  0.28524000  0.17773000  1.0
  H  H59  1  0.71476000  0.65497000  0.32227000  1.0
  H  H60  1  0.71327000  0.76888000  0.84680000  1.0
  H  H61  1  0.23112000  0.28673000  0.65320000  1.0
  H  H62  1  0.28673000  0.23112000  0.15320000  1.0
  H  H63  1  0.76888000  0.71327000  0.34680000  1.0
  H  H64  1  0.86489000  0.67499000  0.79782000  1.0
  H  H65  1  0.32501000  0.13511000  0.70218000  1.0
  H  H66  1  0.13511000  0.32501000  0.20218000  1.0
  H  H67  1  0.67499000  0.86489000  0.29782000  1.0
  H  H68  1  0.81877000  0.61057000  0.77211000  1.0
  H  H69  1  0.38943000  0.18123000  0.72789000  1.0
  H  H70  1  0.18123000  0.38943000  0.22789000  1.0
  H  H71  1  0.61057000  0.81877000  0.27211000  1.0
  H  H72  1  0.92400000  0.54838000  0.80240000  1.0
  H  H73  1  0.45163000  0.07600000  0.69760000  1.0
  H  H74  1  0.07600000  0.45162000  0.19760000  1.0
  H  H75  1  0.54838000  0.92400000  0.30240000  1.0
  H  H76  1  0.59660000  0.53187000  0.94530000  1.0
  H  H77  1  0.46813000  0.40340000  0.55470000  1.0
  H  H78  1  0.40340000  0.46813000  0.05470000  1.0
  H  H79  1  0.53187000  0.59660000  0.44530000  1.0
  H  H80  1  0.60352000  0.42076000  0.97567000  1.0
  H  H81  1  0.57924000  0.39648000  0.52433000  1.0
  H  H82  1  0.39648000  0.57924000  0.02433000  1.0
  H  H83  1  0.42076000  0.60352000  0.47567000  1.0
  H  H84  1  0.68923000  0.42295000  0.92601000  1.0
  H  H85  1  0.57705000  0.31077000  0.57399000  1.0
  H  H86  1  0.31077000  0.57705000  0.07399000  1.0
  H  H87  1  0.42295000  0.68923000  0.42601000  1.0
  H  H88  1  0.66607000  0.53197000  0.07068000  1.0
  H  H89  1  0.46803000  0.33393000  0.42932000  1.0
  H  H90  1  0.33393000  0.46803000  0.92932000  1.0
  H  H91  1  0.53197000  0.66607000  0.57068000  1.0
  H  H92  1  0.59137000  0.48299000  0.06075000  1.0
  H  H93  1  0.51701000  0.40863000  0.43925000  1.0
  H  H94  1  0.40863000  0.51701000  0.93925000  1.0
  H  H95  1  0.48299000  0.59137000  0.56075000  1.0
  H  H96  1  0.58269000  0.59212000  0.02641000  1.0
  H  H97  1  0.40788000  0.41731000  0.47359000  1.0
  H  H98  1  0.41731000  0.40788000  0.97359000  1.0
  H  H99  1  0.59212000  0.58269000  0.52641000  1.0
  C  C100  1  0.90778000  0.35964000  0.89412000  1.0
  C  C101  1  0.64036000  0.09222000  0.60588000  1.0
  C  C102  1  0.09222000  0.64036000  0.10588000  1.0
  C  C103  1  0.35964000  0.90778000  0.39412000  1.0
  C  C104  1  0.88922000  0.30661000  0.86161000  1.0
  C  C105  1  0.69339000  0.11078000  0.63839000  1.0
  C  C106  1  0.11078000  0.69339000  0.13839000  1.0
  C  C107  1  0.30661000  0.88922000  0.36161000  1.0
  C  C108  1  0.90622000  0.32200000  0.81066000  1.0
  C  C109  1  0.67800000  0.09378000  0.68933000  1.0
  C  C110  1  0.09378000  0.67800000  0.18934000  1.0
  C  C111  1  0.32200000  0.90622000  0.31066000  1.0
  C  C112  1  0.88322000  0.27811000  0.78009000  1.0
  C  C113  1  0.72189000  0.11678000  0.71991000  1.0
  C  C114  1  0.11678000  0.72189000  0.21991000  1.0
  C  C115  1  0.27811000  0.88321000  0.28009000  1.0
  C  C116  1  0.84250000  0.21755000  0.80044000  1.0
  C  C117  1  0.78245000  0.15750000  0.69956000  1.0
  C  C118  1  0.15750000  0.78245000  0.19956000  1.0
  C  C119  1  0.21755000  0.84250000  0.30044000  1.0
  C  C120  1  0.82781000  0.19997000  0.85135000  1.0
  C  C121  1  0.80003000  0.17219000  0.64865000  1.0
  C  C122  1  0.17219000  0.80002000  0.14865000  1.0
  C  C123  1  0.19997000  0.82781000  0.35135000  1.0
  C  C124  1  0.85112000  0.24432000  0.88175000  1.0
  C  C125  1  0.75568000  0.14888000  0.61825000  1.0
  C  C126  1  0.14888000  0.75568000  0.11825000  1.0
  C  C127  1  0.24432000  0.85112000  0.38175000  1.0
  C  C128  1  0.08514000  0.56965000  0.92024000  1.0
  C  C129  1  0.43035000  0.91486000  0.57976000  1.0
  C  C130  1  0.91486000  0.43035000  0.07976000  1.0
  C  C131  1  0.56965000  0.08514000  0.42024000  1.0
  C  C132  1  0.12309000  0.61296000  0.87571000  1.0
  C  C133  1  0.38704000  0.87690000  0.62429000  1.0
  C  C134  1  0.87691000  0.38704000  0.12429000  1.0
  C  C135  1  0.61296000  0.12310000  0.37571000  1.0
  C  C136  1  0.16528000  0.67034000  0.88007000  1.0
  C  C137  1  0.32966000  0.83472000  0.61993000  1.0
  C  C138  1  0.83472000  0.32966000  0.11993000  1.0
  C  C139  1  0.67034000  0.16528000  0.38007000  1.0
  C  C140  1  0.20003000  0.71031000  0.83881000  1.0
  C  C141  1  0.28970000  0.79996000  0.66119000  1.0
  C  C142  1  0.79997000  0.28970000  0.16119000  1.0
  C  C143  1  0.71030000  0.20003000  0.33881000  1.0
  C  C144  1  0.19296000  0.69295000  0.79226000  1.0
  C  C145  1  0.30705000  0.80704000  0.70774000  1.0
  C  C146  1  0.80704000  0.30705000  0.20774000  1.0
  C  C147  1  0.69295000  0.19296000  0.29226000  1.0
  C  C148  1  0.14964000  0.63676000  0.78784000  1.0
  C  C149  1  0.36324000  0.85036000  0.71216000  1.0
  C  C150  1  0.85036000  0.36324000  0.21216000  1.0
  C  C151  1  0.63676000  0.14964000  0.28784000  1.0
  C  C152  1  0.11505000  0.59693000  0.82932000  1.0
  C  C153  1  0.40307000  0.88495000  0.67068000  1.0
  C  C154  1  0.88495000  0.40307000  0.17068000  1.0
  C  C155  1  0.59693000  0.11505000  0.32932000  1.0
  C  C156  1  0.12270000  0.33001000  0.98001000  1.0
  C  C157  1  0.66998000  0.87730000  0.51999000  1.0
  C  C158  1  0.87730000  0.66998000  0.01999000  1.0
  C  C159  1  0.33001000  0.12270000  0.48001000  1.0
  C  C160  1  0.21887000  0.25359000  0.98631000  1.0
  C  C161  1  0.74641000  0.78113000  0.51369000  1.0
  C  C162  1  0.78113000  0.74641000  0.01369000  1.0
  C  C163  1  0.25359000  0.21887000  0.48631000  1.0
  C  C164  1  0.24962000  0.17035000  0.96459000  1.0
  C  C165  1  0.82965000  0.75038000  0.53541000  1.0
  C  C166  1  0.75038000  0.82964000  0.03541000  1.0
  C  C167  1  0.17035000  0.24962000  0.46459000  1.0
  C  C168  1  0.33799000  0.09761000  0.97058000  1.0
  C  C169  1  0.90239000  0.66201000  0.52942000  1.0
  C  C170  1  0.66201000  0.90239000  0.02942000  1.0
  C  C171  1  0.09761000  0.33799000  0.47058000  1.0
  C  C172  1  0.39744000  0.10794000  0.99829000  1.0
  C  C173  1  0.89206000  0.60256000  0.50171000  1.0
  C  C174  1  0.60256000  0.89206000  0.00171000  1.0
  C  C175  1  0.10794000  0.39744000  0.49829000  1.0
  C  C176  1  0.36739000  0.19183000  0.01895000  1.0
  C  C177  1  0.80817000  0.63261000  0.48105000  1.0
  C  C178  1  0.63261000  0.80817000  0.98105000  1.0
  C  C179  1  0.19183000  0.36739000  0.51895000  1.0
  C  C180  1  0.27836000  0.26408000  0.01339000  1.0
  C  C181  1  0.73591000  0.72164000  0.48661000  1.0
  C  C182  1  0.72164000  0.73591000  0.98661000  1.0
  C  C183  1  0.26409000  0.27836000  0.51339000  1.0
  C  C184  1  0.69083000  0.71291000  0.85282000  1.0
  C  C185  1  0.28709000  0.30917000  0.64718000  1.0
  C  C186  1  0.30917000  0.28709000  0.14718000  1.0
  C  C187  1  0.71291000  0.69083000  0.35282000  1.0
  C  C188  1  0.85625000  0.61054000  0.80147000  1.0
  C  C189  1  0.38946000  0.14375000  0.69853000  1.0
  C  C190  1  0.14375000  0.38946000  0.19853000  1.0
  C  C191  1  0.61054000  0.85625000  0.30147000  1.0
  C  C192  1  0.64340000  0.45891000  0.95714000  1.0
  C  C193  1  0.54109000  0.35660000  0.54286000  1.0
  C  C194  1  0.35660000  0.54109000  0.04286000  1.0
  C  C195  1  0.45891000  0.64340000  0.45714000  1.0
  C  C196  1  0.62966000  0.52349000  0.04346000  1.0
  C  C197  1  0.47651000  0.37034000  0.45654000  1.0
  C  C198  1  0.37034000  0.47651000  0.95654000  1.0
  C  C199  1  0.52349000  0.62966000  0.54346000  1.0
  S  S200  1  0.79129000  0.60005000  0.85948000  1.0
  S  S201  1  0.39996000  0.20871000  0.64052000  1.0
  S  S202  1  0.20871000  0.39996000  0.14052000  1.0
  S  S203  1  0.60004000  0.79129000  0.35948000  1.0
  S  S204  1  0.71960000  0.45743000  0.99821000  1.0
  S  S205  1  0.54257000  0.28040000  0.50179000  1.0
  S  S206  1  0.28040000  0.54257000  0.00179000  1.0
  S  S207  1  0.45743000  0.71960000  0.49821000  1.0
  N  N208  1  0.80919000  0.17548000  0.77293000  1.0
  N  N209  1  0.82452000  0.19081000  0.72707000  1.0
  N  N210  1  0.19081000  0.82452000  0.22707000  1.0
  N  N211  1  0.17548000  0.80919000  0.27293000  1.0
  N  N212  1  0.22718000  0.72790000  0.74778000  1.0
  N  N213  1  0.27210000  0.77282000  0.75222000  1.0
  N  N214  1  0.77282000  0.27210000  0.25222000  1.0
  N  N215  1  0.72790000  0.22718000  0.24778000  1.0
  N  N216  1  0.48817000  0.03914000  0.00761000  1.0
  N  N217  1  0.96086000  0.51183000  0.49239000  1.0
  N  N218  1  0.51183000  0.96086000  0.99239000  1.0
  N  N219  1  0.03914000  0.48817000  0.50761000  1.0
  O  O220  1  0.94211000  0.41664000  0.87497000  1.0
  O  O221  1  0.58336000  0.05789000  0.62502000  1.0
  O  O222  1  0.05789000  0.58336000  0.12502000  1.0
  O  O223  1  0.41664000  0.94212000  0.37497000  1.0
  O  O224  1  0.88580000  0.34923000  0.93998000  1.0
  O  O225  1  0.65077000  0.11420000  0.56002000  1.0
  O  O226  1  0.11420000  0.65077000  0.06002000  1.0
  O  O227  1  0.34923000  0.88580000  0.43998000  1.0
  O  O228  1  0.09804000  0.58229000  0.96167000  1.0
  O  O229  1  0.41770000  0.90196000  0.53833000  1.0
  O  O230  1  0.90196000  0.41771000  0.03833000  1.0
  O  O231  1  0.58230000  0.09804000  0.46167000  1.0
  O  O232  1  0.04343000  0.52341000  0.91283000  1.0
  O  O233  1  0.47659000  0.95657000  0.58717000  1.0
  O  O234  1  0.95657000  0.47659000  0.08717000  1.0
  O  O235  1  0.52341000  0.04343000  0.41283000  1.0
  O  O236  1  0.09188000  0.40336000  0.00250000  1.0
  O  O237  1  0.59664000  0.90812000  0.49750000  1.0
  O  O238  1  0.90812000  0.59664000  0.99750000  1.0
  O  O239  1  0.40336000  0.09188000  0.50250000  1.0
  O  O240  1  0.07324000  0.32105000  0.95239000  1.0
  O  O241  1  0.67895000  0.92675000  0.54761000  1.0
  O  O242  1  0.92676000  0.67895000  0.04761000  1.0
  O  O243  1  0.32105000  0.07325000  0.45239000  1.0
  O  O244  1  0.84328000  0.60902000  0.89722000  1.0
  O  O245  1  0.39098000  0.15672000  0.60278000  1.0
  O  O246  1  0.15672000  0.39098000  0.10278000  1.0
  O  O247  1  0.60902000  0.84328000  0.39722000  1.0
  O  O248  1  0.75763000  0.52525000  0.97183000  1.0
  O  O249  1  0.47475000  0.24237000  0.52817000  1.0
  O  O250  1  0.24237000  0.47475000  0.02817000  1.0
  O  O251  1  0.52525000  0.75763000  0.47183000  1.0
