# generated using pymatgen
data_CdH11C13N3O7
_symmetry_space_group_name_H-M   'P 1'
_cell_length_a   7.93010000
_cell_length_b   10.09100000
_cell_length_c   10.48670000
_cell_angle_alpha   94.62050000
_cell_angle_beta   110.13500000
_cell_angle_gamma   109.80000000
_symmetry_Int_Tables_number   1
_chemical_formula_structural   CdH11C13N3O7
_chemical_formula_sum   'Cd2 H22 C26 N6 O14'
_cell_volume   722.60799054
_cell_formula_units_Z   2
loop_
 _symmetry_equiv_pos_site_id
 _symmetry_equiv_pos_as_xyz
  1  'x, y, z'
loop_
 _atom_site_type_symbol
 _atom_site_label
 _atom_site_symmetry_multiplicity
 _atom_site_fract_x
 _atom_site_fract_y
 _atom_site_fract_z
 _atom_site_occupancy
  Cd  Cd0  1  0.21727000  0.65210000  0.30989000  1.0
  Cd  Cd1  1  0.78273000  0.34790000  0.69012000  1.0
  H  H2  1  0.08153000  0.74045000  0.50317000  1.0
  H  H3  1  0.91846000  0.25955000  0.49684000  1.0
  H  H4  1  0.00758000  0.81211000  0.37466000  1.0
  H  H5  1  0.99243000  0.18791000  0.62536000  1.0
  H  H6  1  0.51222000  0.43683000  0.79483000  1.0
  H  H7  1  0.48777000  0.56318000  0.20518000  1.0
  H  H8  1  0.74412000  0.54409000  0.89795000  1.0
  H  H9  1  0.25587000  0.45591000  0.10206000  1.0
  H  H10  1  0.62935000  0.38759000  0.03983000  1.0
  H  H11  1  0.37065000  0.61242000  0.96018000  1.0
  H  H12  1  0.67875000  0.08894000  0.30756000  1.0
  H  H13  1  0.32122000  0.91105000  0.69243000  1.0
  H  H14  1  0.14918000  0.97771000  0.94431000  1.0
  H  H15  1  0.85082000  0.02229000  0.05567000  1.0
  H  H16  1  0.60761000  0.88879000  0.49304000  1.0
  H  H17  1  0.39245000  0.11121000  0.50696000  1.0
  H  H18  1  0.91697000  0.76830000  0.86236000  1.0
  H  H19  1  0.08304000  0.23169000  0.13765000  1.0
  H  H20  1  0.33642000  0.49000000  0.56761000  1.0
  H  H21  1  0.66358000  0.51001000  0.43240000  1.0
  H  H22  1  0.90260000  0.95127000  0.71342000  1.0
  H  H23  1  0.09746000  0.04871000  0.28658000  1.0
  C  C24  1  0.56725000  0.28445000  0.06454000  1.0
  C  C25  1  0.43274000  0.71555000  0.93547000  1.0
  C  C26  1  0.88215000  0.36200000  0.26887000  1.0
  C  C27  1  0.11785000  0.63799000  0.73114000  1.0
  C  C28  1  0.67769000  0.25055000  0.18290000  1.0
  C  C29  1  0.32230000  0.74945000  0.81711000  1.0
  C  C30  1  0.59596000  0.11750000  0.21523000  1.0
  C  C31  1  0.40402000  0.88249000  0.78476000  1.0
  C  C32  1  0.29730000  0.05210000  0.01000000  1.0
  C  C33  1  0.70269000  0.94790000  0.98999000  1.0
  C  C34  1  0.31049000  0.87958000  0.16795000  1.0
  C  C35  1  0.68947000  0.12041000  0.83202000  1.0
  C  C36  1  0.63195000  0.61357000  0.72423000  1.0
  C  C37  1  0.36805000  0.38642000  0.27578000  1.0
  C  C38  1  0.38121000  0.18447000  0.97978000  1.0
  C  C39  1  0.61879000  0.81553000  0.02022000  1.0
  C  C40  1  0.61798000  0.81397000  0.56182000  1.0
  C  C41  1  0.38206000  0.18603000  0.43818000  1.0
  C  C42  1  0.79046000  0.74654000  0.76582000  1.0
  C  C43  1  0.20956000  0.25345000  0.23419000  1.0
  C  C44  1  0.46751000  0.58953000  0.60290000  1.0
  C  C45  1  0.53251000  0.41048000  0.39711000  1.0
  C  C46  1  0.40507000  0.01925000  0.13008000  1.0
  C  C47  1  0.59490000  0.98074000  0.86990000  1.0
  C  C48  1  0.78232000  0.84702000  0.68357000  1.0
  C  C49  1  0.21773000  0.15297000  0.31643000  1.0
  N  N50  1  0.27445000  0.22075000  0.85454000  1.0
  N  N51  1  0.72555000  0.77928000  0.14547000  1.0
  N  N52  1  0.64355000  0.50464000  0.79758000  1.0
  N  N53  1  0.35644000  0.49536000  0.20242000  1.0
  N  N54  1  0.46337000  0.68732000  0.52353000  1.0
  N  N55  1  0.53666000  0.31268000  0.47648000  1.0
  O  O56  1  0.94344000  0.45953000  0.20529000  1.0
  O  O57  1  0.05655000  0.54046000  0.79472000  1.0
  O  O58  1  0.97766000  0.35531000  0.39010000  1.0
  O  O59  1  0.02234000  0.64468000  0.60990000  1.0
  O  O60  1  0.42622000  0.83815000  0.25913000  1.0
  O  O61  1  0.57372000  0.16183000  0.74085000  1.0
  O  O62  1  0.12752000  0.81288000  0.11173000  1.0
  O  O63  1  0.87244000  0.18712000  0.88824000  1.0
  O  O64  1  0.15838000  0.12105000  0.75100000  1.0
  O  O65  1  0.84162000  0.87899000  0.24900000  1.0
  O  O66  1  0.30645000  0.35061000  0.85493000  1.0
  O  O67  1  0.69356000  0.64942000  0.14510000  1.0
  O  O68  1  0.11991000  0.79312000  0.43336000  1.0
  O  O69  1  0.88009000  0.20688000  0.56664000  1.0
