# generated using pymatgen
data_AlH6C13BrO5F
_symmetry_space_group_name_H-M   'P 1'
_cell_length_a   6.63284000
_cell_length_b   11.11938761
_cell_length_c   15.22460000
_cell_angle_alpha   88.08562184
_cell_angle_beta   79.21210000
_cell_angle_gamma   72.81564534
_symmetry_Int_Tables_number   1
_chemical_formula_structural   AlH6C13BrO5F
_chemical_formula_sum   'Al2 H12 C26 Br2 O10 F2'
_cell_volume   1053.49066330
_cell_formula_units_Z   2
loop_
 _symmetry_equiv_pos_site_id
 _symmetry_equiv_pos_as_xyz
  1  'x, y, z'
loop_
 _atom_site_type_symbol
 _atom_site_label
 _atom_site_symmetry_multiplicity
 _atom_site_fract_x
 _atom_site_fract_y
 _atom_site_fract_z
 _atom_site_occupancy
  Al  Al0  1  0.00940000  0.49525000  0.49717000  1.0
  Al  Al1  1  0.50759000  0.49908000  0.49743000  1.0
  H  H2  1  0.35944000  0.34922000  0.44461000  1.0
  H  H3  1  0.67997000  0.55825000  0.60487000  1.0
  H  H4  1  0.68230000  0.46606000  0.04996000  1.0
  H  H5  1  0.37176000  0.42847000  0.94601000  1.0
  H  H6  1  0.80638000  0.58973000  0.76353000  1.0
  H  H7  1  0.70589000  0.60610000  0.92869000  1.0
  H  H8  1  0.15595000  0.55816000  0.23822000  1.0
  H  H9  1  0.24905000  0.57050000  0.07292000  1.0
  H  H10  1  0.53158000  0.22902000  0.61682000  1.0
  H  H11  1  0.75338000  0.76177000  0.59453000  1.0
  H  H12  1  0.36502000  0.87735000  0.43796000  1.0
  H  H13  1  0.24862000  0.11292000  0.44424000  1.0
  C  C14  1  0.87080000  0.26837000  0.50832000  1.0
  C  C15  1  0.81702000  0.50657000  0.33716000  1.0
  C  C16  1  0.13811000  0.72298000  0.49535000  1.0
  C  C17  1  0.19331000  0.49766000  0.66110000  1.0
  C  C18  1  0.86442000  0.51222000  0.23778000  1.0
  C  C19  1  0.14289000  0.50438000  0.76067000  1.0
  C  C20  1  0.73399000  0.48813000  0.18208000  1.0
  C  C21  1  0.78511000  0.49130000  0.08959000  1.0
  C  C22  1  0.29781000  0.46211000  0.81509000  1.0
  C  C23  1  0.24499000  0.46795000  0.90776000  1.0
  C  C24  1  0.92888000  0.55542000  0.80451000  1.0
  C  C25  1  0.87278000  0.56310000  0.89707000  1.0
  C  C26  1  0.05204000  0.54051000  0.19576000  1.0
  C  C27  1  0.10509000  0.54532000  0.10333000  1.0
  C  C28  1  0.97269000  0.51986000  0.04872000  1.0
  C  C29  1  0.03037000  0.51827000  0.95029000  1.0
  C  C30  1  0.93206000  0.12848000  0.51528000  1.0
  C  C31  1  0.78545000  0.06340000  0.55886000  1.0
  C  C32  1  0.13804000  0.06133000  0.47459000  1.0
  C  C33  1  0.58243000  0.12688000  0.61098000  1.0
  C  C34  1  0.44920000  0.06135000  0.65618000  1.0
  C  C35  1  0.06130000  0.86295000  0.50620000  1.0
  C  C36  1  0.20306000  0.92933000  0.47051000  1.0
  C  C37  1  0.85080000  0.92808000  0.55345000  1.0
  C  C38  1  0.70854000  0.86371000  0.59963000  1.0
  C  C39  1  0.51351000  0.92792000  0.65044000  1.0
  Br  Br40  1  0.18256000  0.15363000  0.72562000  1.0
  Br  Br41  1  0.33935000  0.83266000  0.71329000  1.0
  O  O42  1  0.01599000  0.32085000  0.51189000  1.0
  O  O43  1  0.62443000  0.51985000  0.37582000  1.0
  O  O44  1  0.33273000  0.66962000  0.50160000  1.0
  O  O45  1  0.03511000  0.50986000  0.62156000  1.0
  O  O46  1  0.00529000  0.66697000  0.48089000  1.0
  O  O47  1  0.38706000  0.48314000  0.62274000  1.0
  O  O48  1  0.68116000  0.32414000  0.49543000  1.0
  O  O49  1  0.97677000  0.48835000  0.37627000  1.0
  O  O50  1  0.30451000  0.43794000  0.46114000  1.0
  O  O51  1  0.71456000  0.54994000  0.54006000  1.0
  F  F52  1  0.55486000  0.45458000  0.21700000  1.0
  F  F53  1  0.50785000  0.40831000  0.77872000  1.0
