# generated using pymatgen
data_La2H54C51(NO2)12
_symmetry_space_group_name_H-M   'P 1'
_cell_length_a   16.54340000
_cell_length_b   16.54382497
_cell_length_c   19.28630000
_cell_angle_alpha   90.01650159
_cell_angle_beta   115.38290000
_cell_angle_gamma   119.99485105
_symmetry_Int_Tables_number   1
_chemical_formula_structural   La2H54C51(NO2)12
_chemical_formula_sum   'La4 H108 C102 N24 O48'
_cell_volume   3971.86625455
_cell_formula_units_Z   2
loop_
 _symmetry_equiv_pos_site_id
 _symmetry_equiv_pos_as_xyz
  1  'x, y, z'
loop_
 _atom_site_type_symbol
 _atom_site_label
 _atom_site_symmetry_multiplicity
 _atom_site_fract_x
 _atom_site_fract_y
 _atom_site_fract_z
 _atom_site_occupancy
  La  La0  1  0.14158000  0.07080000  0.21229000  1.0
  La  La1  1  0.85842000  0.92920000  0.78771000  1.0
  La  La2  1  0.56945000  0.78466000  0.35410000  1.0
  La  La3  1  0.43055000  0.21535000  0.64590000  1.0
  H  H4  1  0.20990000  0.07900000  0.05352000  1.0
  H  H5  1  0.97472000  0.13072000  0.05336000  1.0
  H  H6  1  0.92254000  0.84377000  0.05337000  1.0
  H  H7  1  0.79010000  0.92100000  0.94649000  1.0
  H  H8  1  0.02528000  0.86928000  0.94663000  1.0
  H  H9  1  0.07746000  0.15623000  0.94663000  1.0
  H  H10  1  0.34973000  0.14802000  0.01377000  1.0
  H  H11  1  0.86587000  0.20147000  0.01364000  1.0
  H  H12  1  0.81200000  0.66416000  0.01368000  1.0
  H  H13  1  0.65027000  0.85198000  0.98623000  1.0
  H  H14  1  0.13412000  0.79852000  0.98635000  1.0
  H  H15  1  0.18800000  0.33584000  0.98632000  1.0
  H  H16  1  0.47199000  0.32746000  0.04225000  1.0
  H  H17  1  0.71495000  0.14428000  0.04218000  1.0
  H  H18  1  0.89768000  0.57039000  0.04236000  1.0
  H  H19  1  0.52801000  0.67254000  0.95775000  1.0
  H  H20  1  0.28504000  0.85571000  0.95782000  1.0
  H  H21  1  0.10233000  0.42961000  0.95764000  1.0
  H  H22  1  0.45246000  0.43788000  0.11250000  1.0
  H  H23  1  0.67497000  0.01451000  0.11257000  1.0
  H  H24  1  0.09786000  0.66018000  0.11276000  1.0
  H  H25  1  0.54755000  0.56212000  0.88750000  1.0
  H  H26  1  0.32502000  0.98548000  0.88743000  1.0
  H  H27  1  0.90215000  0.33983000  0.88723000  1.0
  H  H28  1  0.36355000  0.46584000  0.16730000  1.0
  H  H29  1  0.70187000  0.89781000  0.16738000  1.0
  H  H30  1  0.26936000  0.80374000  0.16752000  1.0
  H  H31  1  0.63644000  0.53415000  0.83270000  1.0
  H  H32  1  0.29812000  0.10218000  0.83261000  1.0
  H  H33  1  0.73064000  0.19626000  0.83248000  1.0
  H  H34  1  0.26966000  0.49968000  0.20516000  1.0
  H  H35  1  0.70575000  0.77014000  0.20522000  1.0
  H  H36  1  0.43493000  0.93534000  0.20513000  1.0
  H  H37  1  0.73034000  0.50032000  0.79484000  1.0
  H  H38  1  0.29425000  0.22986000  0.79478000  1.0
  H  H39  1  0.56507000  0.06466000  0.79487000  1.0
  H  H40  1  0.07535000  0.38128000  0.10051000  1.0
  H  H41  1  0.71945000  0.69416000  0.10059000  1.0
  H  H42  1  0.40637000  0.02512000  0.10055000  1.0
  H  H43  1  0.92465000  0.61872000  0.89949000  1.0
  H  H44  1  0.28055000  0.30584000  0.89941000  1.0
  H  H45  1  0.59363000  0.97487000  0.89945000  1.0
  H  H46  1  0.08965000  0.44534000  0.18365000  1.0
  H  H47  1  0.73847000  0.64436000  0.18367000  1.0
  H  H48  1  0.53921000  0.09388000  0.18368000  1.0
  H  H49  1  0.91035000  0.55466000  0.81636000  1.0
  H  H50  1  0.26153000  0.35564000  0.81633000  1.0
  H  H51  1  0.46080000  0.90612000  0.81632000  1.0
  H  H52  1  0.05203000  0.32214000  0.17370000  1.0
  H  H53  1  0.85176000  0.72990000  0.17373000  1.0
  H  H54  1  0.44373000  0.12159000  0.17379000  1.0
  H  H55  1  0.94797000  0.67786000  0.82630000  1.0
  H  H56  1  0.14824000  0.27009000  0.82627000  1.0
  H  H57  1  0.55627000  0.87840000  0.82621000  1.0
  H  H58  1  0.22627000  0.47667000  0.31875000  1.0
  H  H59  1  0.84227000  0.74974000  0.31887000  1.0
  H  H60  1  0.56894000  0.09228000  0.31880000  1.0
  H  H61  1  0.77373000  0.52333000  0.68126000  1.0
  H  H62  1  0.15772000  0.25026000  0.68113000  1.0
  H  H63  1  0.43106000  0.90772000  0.68120000  1.0
  H  H64  1  0.21977000  0.36586000  0.31097000  1.0
  H  H65  1  0.94537000  0.85410000  0.31121000  1.0
  H  H66  1  0.45689000  0.09104000  0.31106000  1.0
  H  H67  1  0.78024000  0.63415000  0.68903000  1.0
  H  H68  1  0.05462000  0.14590000  0.68879000  1.0
  H  H69  1  0.54312000  0.90896000  0.68894000  1.0
  H  H70  1  0.38734000  0.37795000  0.36754000  1.0
  H  H71  1  0.98946000  0.00955000  0.36755000  1.0
  H  H72  1  0.35775000  0.97978000  0.36745000  1.0
  H  H73  1  0.61265000  0.62205000  0.63246000  1.0
  H  H74  1  0.01054000  0.99045000  0.63245000  1.0
  H  H75  1  0.64225000  0.02022000  0.63255000  1.0
  H  H76  1  0.54732000  0.38731000  0.44107000  1.0
  H  H77  1  0.05330000  0.16017000  0.44092000  1.0
  H  H78  1  0.28078000  0.89319000  0.44107000  1.0
  H  H79  1  0.45269000  0.61270000  0.55893000  1.0
  H  H80  1  0.94670000  0.83983000  0.55908000  1.0
  H  H81  1  0.71922000  0.10681000  0.55893000  1.0
  H  H82  1  0.74593000  0.47913000  0.52826000  1.0
  H  H83  1  0.04842000  0.26687000  0.52802000  1.0
  H  H84  1  0.26150000  0.78182000  0.52832000  1.0
  H  H85  1  0.25408000  0.52088000  0.47174000  1.0
  H  H86  1  0.95158000  0.73313000  0.47198000  1.0
  H  H87  1  0.73849000  0.21817000  0.47167000  1.0
  H  H88  1  0.85301000  0.66083000  0.56879000  1.0
  H  H89  1  0.90727000  0.19215000  0.56855000  1.0
  H  H90  1  0.37682000  0.71548000  0.56872000  1.0
  H  H91  1  0.14699000  0.33918000  0.43121000  1.0
  H  H92  1  0.09273000  0.80785000  0.43146000  1.0
  H  H93  1  0.62318000  0.28452000  0.43128000  1.0
  H  H94  1  0.76299000  0.74893000  0.52304000  1.0
  H  H95  1  0.77359000  0.01396000  0.52285000  1.0
  H  H96  1  0.50917000  0.75999000  0.52286000  1.0
  H  H97  1  0.23701000  0.25107000  0.47696000  1.0
  H  H98  1  0.22641000  0.98604000  0.47716000  1.0
  H  H99  1  0.49083000  0.24001000  0.47714000  1.0
  H  H100  1  0.19066000  0.28830000  0.17317000  1.0
  H  H101  1  0.88524000  0.90232000  0.17327000  1.0
  H  H102  1  0.27082000  0.98264000  0.17321000  1.0
  H  H103  1  0.80934000  0.71170000  0.82684000  1.0
  H  H104  1  0.11476000  0.09768000  0.82673000  1.0
  H  H105  1  0.72919000  0.01736000  0.82679000  1.0
  H  H106  1  0.41425000  0.56839000  0.36722000  1.0
  H  H107  1  0.79887000  0.84587000  0.36729000  1.0
  H  H108  1  0.52112000  0.95274000  0.36720000  1.0
  H  H109  1  0.58575000  0.43161000  0.63278000  1.0
  H  H110  1  0.20113000  0.15413000  0.63271000  1.0
  H  H111  1  0.47888000  0.04726000  0.63280000  1.0
  C  C112  1  0.25082000  0.21779000  0.10716000  1.0
  C  C113  1  0.88960000  0.03289000  0.10705000  1.0
  C  C114  1  0.07402000  0.85645000  0.10717000  1.0
  C  C115  1  0.74917000  0.78221000  0.89284000  1.0
  C  C116  1  0.11040000  0.96711000  0.89295000  1.0
  C  C117  1  0.92598000  0.14355000  0.89283000  1.0
  C  C118  1  0.26301000  0.15731000  0.06597000  1.0
  C  C119  1  0.90887000  0.10551000  0.06585000  1.0
  C  C120  1  0.96019000  0.80310000  0.06594000  1.0
  C  C121  1  0.73700000  0.84269000  0.93403000  1.0
  C  C122  1  0.09113000  0.89449000  0.93415000  1.0
  C  C123  1  0.03981000  0.19690000  0.93406000  1.0
  C  C124  1  0.34141000  0.19681000  0.04397000  1.0
  C  C125  1  0.84732000  0.14438000  0.04385000  1.0
  C  C126  1  0.89930000  0.70268000  0.04396000  1.0
  C  C127  1  0.65858000  0.80319000  0.95603000  1.0
  C  C128  1  0.15268000  0.85562000  0.95615000  1.0
  C  C129  1  0.10070000  0.29732000  0.95604000  1.0
  C  C130  1  0.41065000  0.29808000  0.05999000  1.0
  C  C131  1  0.76212000  0.11238000  0.05993000  1.0
  C  C132  1  0.94735000  0.64946000  0.06010000  1.0
  C  C133  1  0.58934000  0.70191000  0.94001000  1.0
  C  C134  1  0.23788000  0.88762000  0.94007000  1.0
  C  C135  1  0.05265000  0.35054000  0.93990000  1.0
  C  C136  1  0.39996000  0.35925000  0.09868000  1.0
  C  C137  1  0.73974000  0.04063000  0.09870000  1.0
  C  C138  1  0.05787000  0.69883000  0.09892000  1.0
  C  C139  1  0.60004000  0.64075000  0.90132000  1.0
  C  C140  1  0.26026000  0.95937000  0.90130000  1.0
  C  C141  1  0.94214000  0.30118000  0.90108000  1.0
  C  C142  1  0.32093000  0.32137000  0.12271000  1.0
  C  C143  1  0.80167000  0.99950000  0.12271000  1.0
  C  C144  1  0.12304000  0.80189000  0.12288000  1.0
  C  C145  1  0.67907000  0.67863000  0.87729000  1.0
  C  C146  1  0.19832000  0.00049000  0.87729000  1.0
  C  C147  1  0.87696000  0.19811000  0.87712000  1.0
  C  C148  1  0.31072000  0.38801000  0.15886000  1.0
  C  C149  1  0.77125000  0.92276000  0.15893000  1.0
  C  C150  1  0.23599000  0.84820000  0.15903000  1.0
  C  C151  1  0.68928000  0.61199000  0.84114000  1.0
  C  C152  1  0.22875000  0.07724000  0.84107000  1.0
  C  C153  1  0.76401000  0.15180000  0.84096000  1.0
  C  C154  1  0.22036000  0.42850000  0.21218000  1.0
  C  C155  1  0.78398000  0.79194000  0.21229000  1.0
  C  C156  1  0.42017000  0.99174000  0.21220000  1.0
  C  C157  1  0.77966000  0.57151000  0.78782000  1.0
  C  C158  1  0.21602000  0.20806000  0.78770000  1.0
  C  C159  1  0.57982000  0.00825000  0.78780000  1.0
  C  C160  1  0.10148000  0.39155000  0.16443000  1.0
  C  C161  1  0.77310000  0.70997000  0.16449000  1.0
  C  C162  1  0.45440000  0.06287000  0.16447000  1.0
  C  C163  1  0.89852000  0.60845000  0.83558000  1.0
  C  C164  1  0.22689000  0.29002000  0.83551000  1.0
  C  C165  1  0.54560000  0.93713000  0.83553000  1.0
  C  C166  1  0.25571000  0.43817000  0.30148000  1.0
  C  C167  1  0.86351000  0.81766000  0.30161000  1.0
  C  C168  1  0.48376000  0.04561000  0.30152000  1.0
  C  C169  1  0.74429000  0.56183000  0.69852000  1.0
  C  C170  1  0.13649000  0.18234000  0.69839000  1.0
  C  C171  1  0.51624000  0.95439000  0.69848000  1.0
  C  C172  1  0.42937000  0.45715000  0.38216000  1.0
  C  C173  1  0.92489000  0.97230000  0.38218000  1.0
  C  C174  1  0.40965000  0.95248000  0.38209000  1.0
  C  C175  1  0.57064000  0.54285000  0.61785000  1.0
  C  C176  1  0.07511000  0.02770000  0.61782000  1.0
  C  C177  1  0.59036000  0.04752000  0.61791000  1.0
  C  C178  1  0.54288000  0.51503000  0.43192000  1.0
  C  C179  1  0.91661000  0.02790000  0.43186000  1.0
  C  C180  1  0.40388000  0.88872000  0.43183000  1.0
  C  C181  1  0.45712000  0.48497000  0.56808000  1.0
  C  C182  1  0.08338000  0.97209000  0.56814000  1.0
  C  C183  1  0.59614000  0.11129000  0.56817000  1.0
  C  C184  1  0.59591000  0.46631000  0.45975000  1.0
  C  C185  1  0.99299000  0.12968000  0.45962000  1.0
  C  C186  1  0.33000000  0.86341000  0.45974000  1.0
  C  C187  1  0.40409000  0.53369000  0.54025000  1.0
  C  C188  1  0.00701000  0.87032000  0.54038000  1.0
  C  C189  1  0.67000000  0.13659000  0.54026000  1.0
  C  C190  1  0.70602000  0.51740000  0.50774000  1.0
  C  C191  1  0.98977000  0.18866000  0.50756000  1.0
  C  C192  1  0.31913000  0.80130000  0.50774000  1.0
  C  C193  1  0.29398000  0.48260000  0.49226000  1.0
  C  C194  1  0.01023000  0.81134000  0.49244000  1.0
  C  C195  1  0.68087000  0.19870000  0.49225000  1.0
  C  C196  1  0.76603000  0.61971000  0.53025000  1.0
  C  C197  1  0.90995000  0.14631000  0.53004000  1.0
  C  C198  1  0.38407000  0.76394000  0.53020000  1.0
  C  C199  1  0.23398000  0.38030000  0.46975000  1.0
  C  C200  1  0.09006000  0.85369000  0.46996000  1.0
  C  C201  1  0.61593000  0.23606000  0.46980000  1.0
  C  C202  1  0.71667000  0.66977000  0.50545000  1.0
  C  C203  1  0.83521000  0.04687000  0.50530000  1.0
  C  C204  1  0.45864000  0.78860000  0.50533000  1.0
  C  C205  1  0.28332000  0.33023000  0.49455000  1.0
  C  C206  1  0.16479000  0.95313000  0.49470000  1.0
  C  C207  1  0.54137000  0.21140000  0.49467000  1.0
  C  C208  1  0.60400000  0.61975000  0.45463000  1.0
  C  C209  1  0.83464000  0.98424000  0.45461000  1.0
  C  C210  1  0.47034000  0.85049000  0.45454000  1.0
  C  C211  1  0.39600000  0.38025000  0.54537000  1.0
  C  C212  1  0.16536000  0.01576000  0.54540000  1.0
  C  C213  1  0.52966000  0.14951000  0.54546000  1.0
  N  N214  1  0.38454000  0.21505000  0.29280000  1.0
  N  N215  1  0.07775000  0.16949000  0.29284000  1.0
  N  N216  1  0.12338000  0.90831000  0.29287000  1.0
  N  N217  1  0.61545000  0.78495000  0.70720000  1.0
  N  N218  1  0.92226000  0.83052000  0.70716000  1.0
  N  N219  1  0.87662000  0.09169000  0.70714000  1.0
  N  N220  1  0.23920000  0.36233000  0.18180000  1.0
  N  N221  1  0.81986000  0.87694000  0.18193000  1.0
  N  N222  1  0.30483000  0.94263000  0.18186000  1.0
  N  N223  1  0.76080000  0.63767000  0.81821000  1.0
  N  N224  1  0.18014000  0.12306000  0.81807000  1.0
  N  N225  1  0.69518000  0.05737000  0.81814000  1.0
  N  N226  1  0.37132000  0.49345000  0.35226000  1.0
  N  N227  1  0.85885000  0.87793000  0.35234000  1.0
  N  N228  1  0.47414000  0.98071000  0.35221000  1.0
  N  N229  1  0.62869000  0.50655000  0.64775000  1.0
  N  N230  1  0.14115000  0.12207000  0.64766000  1.0
  N  N231  1  0.52587000  0.01929000  0.64779000  1.0
  N  N232  1  0.32478000  0.68706000  0.25150000  1.0
  N  N233  1  0.56460000  0.63769000  0.25147000  1.0
  N  N234  1  0.61374000  0.92666000  0.25138000  1.0
  N  N235  1  0.67521000  0.31294000  0.74850000  1.0
  N  N236  1  0.43540000  0.36231000  0.74853000  1.0
  N  N237  1  0.38625000  0.07334000  0.74862000  1.0
  O  O238  1  0.17921000  0.18158000  0.13066000  1.0
  O  O239  1  0.94928000  0.99745000  0.13049000  1.0
  O  O240  1  0.13292000  0.95157000  0.13059000  1.0
  O  O241  1  0.82079000  0.81842000  0.86934000  1.0
  O  O242  1  0.05072000  0.00255000  0.86951000  1.0
  O  O243  1  0.86709000  0.04844000  0.86942000  1.0
  O  O244  1  0.33591000  0.13272000  0.24343000  1.0
  O  O245  1  0.11076000  0.20321000  0.24352000  1.0
  O  O246  1  0.04032000  0.90757000  0.24358000  1.0
  O  O247  1  0.66409000  0.86728000  0.75657000  1.0
  O  O248  1  0.88924000  0.79679000  0.75648000  1.0
  O  O249  1  0.95968000  0.09243000  0.75643000  1.0
  O  O250  1  0.47910000  0.27911000  0.31495000  1.0
  O  O251  1  0.03594000  0.20006000  0.31507000  1.0
  O  O252  1  0.11509000  0.83594000  0.31507000  1.0
  O  O253  1  0.52090000  0.72089000  0.68506000  1.0
  O  O254  1  0.96407000  0.79995000  0.68493000  1.0
  O  O255  1  0.88490000  0.16406000  0.68494000  1.0
  O  O256  1  0.32874000  0.22672000  0.31721000  1.0
  O  O257  1  0.09030000  0.10190000  0.31711000  1.0
  O  O258  1  0.21522000  0.98848000  0.31715000  1.0
  O  O259  1  0.67125000  0.77328000  0.68279000  1.0
  O  O260  1  0.90970000  0.89810000  0.68289000  1.0
  O  O261  1  0.78478000  0.01152000  0.68285000  1.0
  O  O262  1  0.55703667  0.66666667  0.42904000  1.0
  O  O263  1  0.76232000  0.89033000  0.42910000  1.0
  O  O264  1  0.53868667  0.87202000  0.42892000  1.0
  O  O265  1  0.44296333  0.33333333  0.57096000  1.0
  O  O266  1  0.23768000  0.10967000  0.57090000  1.0
  O  O267  1  0.46137000  0.12799000  0.57109000  1.0
  O  O268  1  0.36594000  0.66374000  0.31462000  1.0
  O  O269  1  0.65103000  0.70218000  0.31461000  1.0
  O  O270  1  0.61241000  0.94871000  0.31451000  1.0
  O  O271  1  0.63406000  0.33627000  0.68538000  1.0
  O  O272  1  0.34897000  0.29782000  0.68539000  1.0
  O  O273  1  0.38760000  0.05130000  0.68549000  1.0
  O  O274  1  0.22659000  0.63967000  0.20505000  1.0
  O  O275  1  0.56560000  0.58700000  0.20494000  1.0
  O  O276  1  0.61781000  0.97822000  0.20477000  1.0
  O  O277  1  0.77342000  0.36034000  0.79495000  1.0
  O  O278  1  0.43439000  0.41299000  0.79506000  1.0
  O  O279  1  0.38217000  0.02178000  0.79522000  1.0
  O  O280  1  0.39044000  0.76163000  0.23859000  1.0
  O  O281  1  0.47709000  0.62864000  0.23864000  1.0
  O  O282  1  0.61001000  0.84820000  0.23863000  1.0
  O  O283  1  0.60956000  0.23838000  0.76141000  1.0
  O  O284  1  0.52291000  0.37136000  0.76136000  1.0
  O  O285  1  0.38999000  0.15181000  0.76137000  1.0
