# generated using pymatgen
data_LiH7(C2O)2
_symmetry_space_group_name_H-M   'P 1'
_cell_length_a   4.83200000
_cell_length_b   9.37469000
_cell_length_c   10.73850000
_cell_angle_alpha   92.30970000
_cell_angle_beta   89.99990000
_cell_angle_gamma   89.99950000
_symmetry_Int_Tables_number   1
_chemical_formula_structural   LiH7(C2O)2
_chemical_formula_sum   'Li4 H28 C16 O8'
_cell_volume   486.04277585
_cell_formula_units_Z   4
loop_
 _symmetry_equiv_pos_site_id
 _symmetry_equiv_pos_as_xyz
  1  'x, y, z'
loop_
 _atom_site_type_symbol
 _atom_site_label
 _atom_site_symmetry_multiplicity
 _atom_site_fract_x
 _atom_site_fract_y
 _atom_site_fract_z
 _atom_site_occupancy
  Li  Li0  1  0.08884000  0.64227000  0.99517000  1.0
  Li  Li1  1  0.58885000  0.85774000  0.00482000  1.0
  Li  Li2  1  0.91115000  0.35774000  0.00482000  1.0
  Li  Li3  1  0.41115000  0.14226000  0.99517000  1.0
  H  H4  1  0.94291000  0.89557000  0.68351000  1.0
  H  H5  1  0.44290000  0.60442000  0.31649000  1.0
  H  H6  1  0.05708000  0.10442000  0.31649000  1.0
  H  H7  1  0.55711000  0.39559000  0.68352000  1.0
  H  H8  1  0.70857000  0.98570000  0.78232000  1.0
  H  H9  1  0.20854000  0.51428000  0.21768000  1.0
  H  H10  1  0.29146000  0.01429000  0.21768000  1.0
  H  H11  1  0.79146000  0.48571000  0.78233000  1.0
  H  H12  1  0.25950000  0.10837000  0.68947000  1.0
  H  H13  1  0.75953000  0.39163000  0.31054000  1.0
  H  H14  1  0.74045000  0.89162000  0.31053000  1.0
  H  H15  1  0.24049000  0.60838000  0.68947000  1.0
  H  H16  1  0.02750000  0.20067000  0.79120000  1.0
  H  H17  1  0.52755000  0.29932000  0.20880000  1.0
  H  H18  1  0.97252000  0.79932000  0.20881000  1.0
  H  H19  1  0.47251000  0.70067000  0.79118000  1.0
  H  H20  1  0.93964000  0.27145000  0.57234000  1.0
  H  H21  1  0.43963000  0.22856000  0.42766000  1.0
  H  H22  1  0.06036000  0.72855000  0.42767000  1.0
  H  H23  1  0.56037000  0.77144000  0.57234000  1.0
  H  H24  1  0.65064000  0.17820000  0.63033000  1.0
  H  H25  1  0.15064000  0.32181000  0.36965000  1.0
  H  H26  1  0.34938000  0.82180000  0.36968000  1.0
  H  H27  1  0.84936000  0.67820000  0.63032000  1.0
  H  H28  1  0.88059000  0.09048000  0.52502000  1.0
  H  H29  1  0.38057000  0.40953000  0.47496000  1.0
  H  H30  1  0.11940000  0.90950000  0.47497000  1.0
  H  H31  1  0.61941000  0.59050000  0.52503000  1.0
  C  C32  1  0.07476000  0.91294000  0.86937000  1.0
  C  C33  1  0.57474000  0.58707000  0.13063000  1.0
  C  C34  1  0.92525000  0.08704000  0.13063000  1.0
  C  C35  1  0.42526000  0.41295000  0.86939000  1.0
  C  C36  1  0.93050000  0.97762000  0.75984000  1.0
  C  C37  1  0.43048000  0.52238000  0.24016000  1.0
  C  C38  1  0.06952000  0.02238000  0.24016000  1.0
  C  C39  1  0.56953000  0.47763000  0.75984000  1.0
  C  C40  1  0.03969000  0.11899000  0.71499000  1.0
  C  C41  1  0.53970000  0.38102000  0.28501000  1.0
  C  C42  1  0.96027000  0.88102000  0.28500000  1.0
  C  C43  1  0.46029000  0.61899000  0.71499000  1.0
  C  C44  1  0.87008000  0.16783000  0.60460000  1.0
  C  C45  1  0.37009000  0.33216000  0.39538000  1.0
  C  C46  1  0.12992000  0.83216000  0.39539000  1.0
  C  C47  1  0.62991000  0.66783000  0.60462000  1.0
  O  O48  1  0.94821000  0.81118000  0.92141000  1.0
  O  O49  1  0.44817000  0.68884000  0.07862000  1.0
  O  O50  1  0.05180000  0.18882000  0.07859000  1.0
  O  O51  1  0.55178000  0.31118000  0.92140000  1.0
  O  O52  1  0.31301000  0.95759000  0.90360000  1.0
  O  O53  1  0.81298000  0.54241000  0.09638000  1.0
  O  O54  1  0.68699000  0.04240000  0.09641000  1.0
  O  O55  1  0.18701000  0.45760000  0.90361000  1.0
