# generated using pymatgen
data_AgH2C12(N2Cl)2
_symmetry_space_group_name_H-M   'P 1'
_cell_length_a   3.53104000
_cell_length_b   6.78099000
_cell_length_c   22.64460000
_cell_angle_alpha   90.64020000
_cell_angle_beta   89.99960000
_cell_angle_gamma   89.99880000
_symmetry_Int_Tables_number   1
_chemical_formula_structural   AgH2C12(N2Cl)2
_chemical_formula_sum   'Ag2 H4 C24 N8 Cl4'
_cell_volume   542.16725415
_cell_formula_units_Z   2
loop_
 _symmetry_equiv_pos_site_id
 _symmetry_equiv_pos_as_xyz
  1  'x, y, z'
loop_
 _atom_site_type_symbol
 _atom_site_label
 _atom_site_symmetry_multiplicity
 _atom_site_fract_x
 _atom_site_fract_y
 _atom_site_fract_z
 _atom_site_occupancy
  Ag  Ag0  1  0.59303000  0.99999000  0.75000000  1.0
  Ag  Ag1  1  0.40697000  0.00001000  0.24999000  1.0
  H  H2  1  0.76864000  0.20002000  0.04937000  1.0
  H  H3  1  0.76865000  0.79996000  0.45063000  1.0
  H  H4  1  0.23135000  0.79997000  0.95064000  1.0
  H  H5  1  0.23137000  0.20004000  0.54937000  1.0
  C  C6  1  0.01326000  0.50453000  0.93610000  1.0
  C  C7  1  0.01326000  0.49548000  0.56389000  1.0
  C  C8  1  0.98673000  0.49546000  0.06390000  1.0
  C  C9  1  0.98677000  0.50453000  0.43610000  1.0
  C  C10  1  0.03599000  0.52096000  0.87323000  1.0
  C  C11  1  0.03596000  0.47906000  0.62677000  1.0
  C  C12  1  0.96401000  0.47903000  0.12677000  1.0
  C  C13  1  0.96404000  0.52095000  0.37323000  1.0
  C  C14  1  0.87951000  0.33598000  0.96731000  1.0
  C  C15  1  0.87950000  0.66401000  0.53270000  1.0
  C  C16  1  0.12048000  0.66401000  0.03269000  1.0
  C  C17  1  0.12052000  0.33600000  0.46730000  1.0
  C  C18  1  0.92694000  0.37772000  0.83108000  1.0
  C  C19  1  0.92706000  0.62233000  0.66891000  1.0
  C  C20  1  0.07305000  0.62228000  0.16892000  1.0
  C  C21  1  0.07296000  0.37768000  0.33109000  1.0
  C  C22  1  0.86881000  0.33325000  0.02802000  1.0
  C  C23  1  0.86881000  0.66675000  0.47196000  1.0
  C  C24  1  0.13116000  0.66666667  0.97198000  1.0
  C  C25  1  0.13119000  0.33325000  0.52803000  1.0
  C  C26  1  0.17455000  0.69618000  0.84822000  1.0
  C  C27  1  0.17447000  0.30382000  0.65179000  1.0
  C  C28  1  0.82544000  0.30381000  0.15178000  1.0
  C  C29  1  0.82553000  0.69619000  0.34821000  1.0
  N  N30  1  0.84572000  0.26960000  0.79240000  1.0
  N  N31  1  0.84591000  0.73048000  0.70760000  1.0
  N  N32  1  0.15428000  0.73039000  0.20760000  1.0
  N  N33  1  0.15409000  0.26953000  0.29240000  1.0
  N  N34  1  0.28377000  0.84241000  0.82691000  1.0
  N  N35  1  0.28373000  0.15761000  0.67309000  1.0
  N  N36  1  0.71623000  0.15759000  0.17309000  1.0
  N  N37  1  0.71627000  0.84240000  0.32691000  1.0
  Cl  Cl38  1  0.73187000  0.12802000  0.92953000  1.0
  Cl  Cl39  1  0.73187000  0.87199000  0.57046000  1.0
  Cl  Cl40  1  0.26813000  0.87197000  0.07047000  1.0
  Cl  Cl41  1  0.26815000  0.12801000  0.42954000  1.0
