# generated using pymatgen
data_Zn2H3C43Br20(NO5)2
_symmetry_space_group_name_H-M   'P 1'
_cell_length_a   17.01450000
_cell_length_b   17.78130000
_cell_length_c   28.59320000
_cell_angle_alpha   89.78940000
_cell_angle_beta   89.80220000
_cell_angle_gamma   88.69240000
_symmetry_Int_Tables_number   1
_chemical_formula_structural   Zn2H3C43Br20(NO5)2
_chemical_formula_sum   'Zn4 H6 C86 Br40 N4 O20'
_cell_volume   8648.22449549
_cell_formula_units_Z   2
loop_
 _symmetry_equiv_pos_site_id
 _symmetry_equiv_pos_as_xyz
  1  'x, y, z'
loop_
 _atom_site_type_symbol
 _atom_site_label
 _atom_site_symmetry_multiplicity
 _atom_site_fract_x
 _atom_site_fract_y
 _atom_site_fract_z
 _atom_site_occupancy
  Zn  Zn0  1  0.40786000  0.48815000  0.51215000  1.0
  Zn  Zn1  1  0.58728000  0.48363000  0.49563000  1.0
  Zn  Zn2  1  0.58861000  0.48301000  0.12219000  1.0
  Zn  Zn3  1  0.40724000  0.48885000  0.11418000  1.0
  H  H4  1  0.37897000  0.40432000  0.22490000  1.0
  H  H5  1  0.39674000  0.38750000  0.39779000  1.0
  H  H6  1  0.62091000  0.52677000  0.35130000  1.0
  H  H7  1  0.61794000  0.52627000  0.26380000  1.0
  H  H8  1  0.33215000  0.28160000  0.22024000  1.0
  H  H9  1  0.27040000  0.37730000  0.41277000  1.0
  C  C10  1  0.47869000  0.62806000  0.49862000  1.0
  C  C11  1  0.51835000  0.47345000  0.41104000  1.0
  C  C12  1  0.46547000  0.34430000  0.50241000  1.0
  C  C13  1  0.53345000  0.49817000  0.58937000  1.0
  C  C14  1  0.48001000  0.62831000  0.11806000  1.0
  C  C15  1  0.51212000  0.47360000  0.20730000  1.0
  C  C16  1  0.47024000  0.34357000  0.11339000  1.0
  C  C17  1  0.53559000  0.49586000  0.03063000  1.0
  C  C18  1  0.75772000  0.57221000  0.48830000  1.0
  C  C19  1  0.83330000  0.58615000  0.50535000  1.0
  C  C20  1  0.87569000  0.52709000  0.52786000  1.0
  C  C21  1  0.83898000  0.45690000  0.53340000  1.0
  C  C22  1  0.76349000  0.44908000  0.51509000  1.0
  C  C23  1  0.95568000  0.53417000  0.53951000  1.0
  C  C24  1  0.02700000  0.53290000  0.54354000  1.0
  C  C25  1  0.10941000  0.52418000  0.54072000  1.0
  C  C26  1  0.14765000  0.53368000  0.49705000  1.0
  C  C27  1  0.22819000  0.51712000  0.49439000  1.0
  C  C28  1  0.23626000  0.48618000  0.57292000  1.0
  C  C29  1  0.15531000  0.50028000  0.57932000  1.0
  C  C30  1  0.48193000  0.71309000  0.49680000  1.0
  C  C31  1  0.44165000  0.75339000  0.46159000  1.0
  C  C32  1  0.44286000  0.83201000  0.46001000  1.0
  C  C33  1  0.48468000  0.87234000  0.49417000  1.0
  C  C34  1  0.52832000  0.83124000  0.52818000  1.0
  C  C35  1  0.52795000  0.75247000  0.52895000  1.0
  C  C36  1  0.48273000  0.95174000  0.49418000  1.0
  C  C37  1  0.47863000  0.02028000  0.49451000  1.0
  C  C38  1  0.47316000  0.09960000  0.49551000  1.0
  C  C39  1  0.43043000  0.13716000  0.53138000  1.0
  C  C40  1  0.42648000  0.21588000  0.53289000  1.0
  C  C41  1  0.46457000  0.25916000  0.49871000  1.0
  C  C42  1  0.50556000  0.22202000  0.46236000  1.0
  C  C43  1  0.51029000  0.14339000  0.46079000  1.0
  C  C44  1  0.50827000  0.47074000  0.25977000  1.0
  C  C45  1  0.44617000  0.43613000  0.28524000  1.0
  C  C46  1  0.57031000  0.50167000  0.28383000  1.0
  C  C47  1  0.38293000  0.40003000  0.26275000  1.0
  C  C48  1  0.32665000  0.36151000  0.28741000  1.0
  C  C49  1  0.51300000  0.46889000  0.35880000  1.0
  C  C50  1  0.57230000  0.50142000  0.33284000  1.0
  C  C51  1  0.44927000  0.43396000  0.33550000  1.0
  C  C52  1  0.39108000  0.39291000  0.36000000  1.0
  C  C53  1  0.33143000  0.35674000  0.33708000  1.0
  C  C54  1  0.54257000  0.50734000  0.97815000  1.0
  C  C55  1  0.58703000  0.45608000  0.95092000  1.0
  C  C56  1  0.59454000  0.46605000  0.90257000  1.0
  C  C57  1  0.55886000  0.52914000  0.87990000  1.0
  C  C58  1  0.51451000  0.58077000  0.90768000  1.0
  C  C59  1  0.50476000  0.56886000  0.95582000  1.0
  C  C60  1  0.56439000  0.53795000  0.83090000  1.0
  C  C61  1  0.56634000  0.54125000  0.78821000  1.0
  C  C62  1  0.56325000  0.53711000  0.73895000  1.0
  C  C63  1  0.61550000  0.48855000  0.71396000  1.0
  C  C64  1  0.60474000  0.47515000  0.66623000  1.0
  C  C65  1  0.54478000  0.51336000  0.64105000  1.0
  C  C66  1  0.49597000  0.56592000  0.66498000  1.0
  C  C67  1  0.50485000  0.57735000  0.71316000  1.0
  C  C68  1  0.22735000  0.53213000  0.14507000  1.0
  C  C69  1  0.14820000  0.55456000  0.14062000  1.0
  C  C70  1  0.11029000  0.54318000  0.09731000  1.0
  C  C71  1  0.15566000  0.51373000  0.05986000  1.0
  C  C72  1  0.23511000  0.49499000  0.06756000  1.0
  C  C73  1  0.02814000  0.55367000  0.09374000  1.0
  C  C74  1  0.95656000  0.55305000  0.09560000  1.0
  C  C75  1  0.87600000  0.54112000  0.10368000  1.0
  C  C76  1  0.82884000  0.59355000  0.12897000  1.0
  C  C77  1  0.75225000  0.57388000  0.14181000  1.0
  C  C78  1  0.76610000  0.45751000  0.10604000  1.0
  C  C79  1  0.84291000  0.47150000  0.09139000  1.0
  C  C80  1  0.48632000  0.71320000  0.11677000  1.0
  C  C81  1  0.54465000  0.74812000  0.08955000  1.0
  C  C82  1  0.54884000  0.82671000  0.08801000  1.0
  C  C83  1  0.49596000  0.87240000  0.11429000  1.0
  C  C84  1  0.43977000  0.83701000  0.14308000  1.0
  C  C85  1  0.43534000  0.75857000  0.14420000  1.0
  C  C86  1  0.49826000  0.95156000  0.11214000  1.0
  C  C87  1  0.49541000  0.02010000  0.11120000  1.0
  C  C88  1  0.48869000  0.09927000  0.11157000  1.0
  C  C89  1  0.49529000  0.13937000  0.15407000  1.0
  C  C90  1  0.48690000  0.21773000  0.15427000  1.0
  C  C91  1  0.47200000  0.25814000  0.11291000  1.0
  C  C92  1  0.46411000  0.21870000  0.07086000  1.0
  C  C93  1  0.47295000  0.14023000  0.06992000  1.0
  C  C94  1  0.25761000  0.33158000  0.26132000  1.0
  C  C95  1  0.27928000  0.30389000  0.36310000  1.0
  Br  Br96  1  0.70399000  0.64489000  0.45185000  1.0
  Br  Br97  1  0.71357000  0.35577000  0.51495000  1.0
  Br  Br98  1  0.89322000  0.37662000  0.56269000  1.0
  Br  Br99  1  0.88097000  0.67972000  0.49766000  1.0
  Br  Br100  1  0.08982000  0.56474000  0.44433000  1.0
  Br  Br101  1  0.10523000  0.48657000  0.63729000  1.0
  Br  Br102  1  0.29801000  0.45021000  0.62279000  1.0
  Br  Br103  1  0.28225000  0.52059000  0.43681000  1.0
  Br  Br104  1  0.38958000  0.69950000  0.41425000  1.0
  Br  Br105  1  0.59121000  0.69916000  0.57285000  1.0
  Br  Br106  1  0.58706000  0.88599000  0.57182000  1.0
  Br  Br107  1  0.38917000  0.88721000  0.41306000  1.0
  Br  Br108  1  0.37953000  0.07795000  0.57675000  1.0
  Br  Br109  1  0.56715000  0.09249000  0.41323000  1.0
  Br  Br110  1  0.55397000  0.27906000  0.41466000  1.0
  Br  Br111  1  0.37200000  0.26479000  0.58244000  1.0
  Br  Br112  1  0.63460000  0.37062000  0.97968000  1.0
  Br  Br113  1  0.43962000  0.63592000  0.99068000  1.0
  Br  Br114  1  0.46883000  0.66558000  0.87766000  1.0
  Br  Br115  1  0.65095000  0.39524000  0.86593000  1.0
  Br  Br116  1  0.70016000  0.44320000  0.74673000  1.0
  Br  Br117  1  0.43890000  0.64550000  0.74618000  1.0
  Br  Br118  1  0.41869000  0.62383000  0.63254000  1.0
  Br  Br119  1  0.66884000  0.40060000  0.63674000  1.0
  Br  Br120  1  0.27610000  0.53490000  0.20371000  1.0
  Br  Br121  1  0.29660000  0.45163000  0.01982000  1.0
  Br  Br122  1  0.10718000  0.49901000  0.00175000  1.0
  Br  Br123  1  0.09074000  0.59549000  0.19099000  1.0
  Br  Br124  1  0.87170000  0.68606000  0.14575000  1.0
  Br  Br125  1  0.90329000  0.39948000  0.05841000  1.0
  Br  Br126  1  0.72104000  0.36291000  0.09781000  1.0
  Br  Br127  1  0.69243000  0.63656000  0.18188000  1.0
  Br  Br128  1  0.61809000  0.69037000  0.05398000  1.0
  Br  Br129  1  0.36272000  0.71323000  0.18534000  1.0
  Br  Br130  1  0.37114000  0.89865000  0.17905000  1.0
  Br  Br131  1  0.62501000  0.87577000  0.05146000  1.0
  Br  Br132  1  0.51583000  0.08486000  0.20961000  1.0
  Br  Br133  1  0.46402000  0.08594000  0.01367000  1.0
  Br  Br134  1  0.44260000  0.27355000  0.01536000  1.0
  Br  Br135  1  0.49352000  0.27150000  0.21126000  1.0
  N  N136  1  0.72360000  0.50586000  0.49462000  1.0
  N  N137  1  0.27154000  0.49562000  0.53134000  1.0
  N  N138  1  0.26998000  0.50444000  0.10916000  1.0
  N  N139  1  0.72155000  0.50841000  0.12901000  1.0
  O  O140  1  0.41261000  0.59986000  0.50965000  1.0
  O  O141  1  0.54167000  0.59311000  0.48934000  1.0
  O  O142  1  0.58838000  0.46805000  0.42803000  1.0
  O  O143  1  0.45638000  0.48387000  0.43467000  1.0
  O  O144  1  0.53135000  0.37343000  0.50826000  1.0
  O  O145  1  0.39888000  0.37926000  0.49988000  1.0
  O  O146  1  0.46487000  0.48334000  0.57611000  1.0
  O  O147  1  0.59488000  0.50184000  0.56391000  1.0
  O  O148  1  0.54188000  0.59185000  0.12815000  1.0
  O  O149  1  0.41298000  0.60097000  0.10910000  1.0
  O  O150  1  0.44922000  0.48307000  0.18413000  1.0
  O  O151  1  0.58157000  0.46747000  0.19005000  1.0
  O  O152  1  0.40280000  0.37649000  0.11480000  1.0
  O  O153  1  0.53669000  0.37320000  0.11246000  1.0
  O  O154  1  0.59998000  0.49855000  0.05343000  1.0
  O  O155  1  0.46815000  0.48506000  0.04699000  1.0
  O  O156  1  0.27510000  0.29044000  0.22241000  1.0
  O  O157  1  0.18980000  0.34652000  0.27193000  1.0
  O  O158  1  0.25416000  0.32580000  0.40635000  1.0
  O  O159  1  0.26234000  0.24271000  0.34770000  1.0
