# generated using pymatgen
data_TmH13(C4O3)4
_symmetry_space_group_name_H-M   'P 1'
_cell_length_a   7.90035000
_cell_length_b   10.56690000
_cell_length_c   11.02310000
_cell_angle_alpha   87.32620000
_cell_angle_beta   77.62410000
_cell_angle_gamma   69.39820000
_symmetry_Int_Tables_number   1
_chemical_formula_structural   TmH13(C4O3)4
_chemical_formula_sum   'Tm2 H26 C32 O24'
_cell_volume   840.94959049
_cell_formula_units_Z   2
loop_
 _symmetry_equiv_pos_site_id
 _symmetry_equiv_pos_as_xyz
  1  'x, y, z'
loop_
 _atom_site_type_symbol
 _atom_site_label
 _atom_site_symmetry_multiplicity
 _atom_site_fract_x
 _atom_site_fract_y
 _atom_site_fract_z
 _atom_site_occupancy
  Tm  Tm0  1  0.16851000  0.73382000  0.93444000  1.0
  Tm  Tm1  1  0.83153000  0.26618000  0.06555000  1.0
  H  H2  1  0.44081000  0.74146000  0.50519000  1.0
  H  H3  1  0.55919000  0.25855000  0.49480000  1.0
  H  H4  1  0.03090000  0.12909000  0.63036000  1.0
  H  H5  1  0.96907000  0.87091000  0.36965000  1.0
  H  H6  1  0.31153000  0.06413000  0.24522000  1.0
  H  H7  1  0.68845000  0.93591000  0.75479000  1.0
  H  H8  1  0.23204000  0.30066000  0.55667000  1.0
  H  H9  1  0.76793000  0.69936000  0.44334000  1.0
  H  H10  1  0.33741000  0.49741000  0.53364000  1.0
  H  H11  1  0.66258000  0.50260000  0.46637000  1.0
  H  H12  1  0.29517000  0.64158000  0.34802000  1.0
  H  H13  1  0.70486000  0.35842000  0.65198000  1.0
  H  H14  1  0.70631000  0.59989000  0.23811000  1.0
  H  H15  1  0.29366000  0.40013000  0.76190000  1.0
  H  H16  1  0.79751000  0.83834000  0.09305000  1.0
  H  H17  1  0.20255000  0.16165000  0.90695000  1.0
  H  H18  1  0.90806000  0.92928000  0.13362000  1.0
  H  H19  1  0.09197000  0.07074000  0.86639000  1.0
  H  H20  1  0.25475000  0.97260000  0.98000000  1.0
  H  H21  1  0.74527000  0.02741000  0.02001000  1.0
  H  H22  1  0.40044000  0.85392000  0.03881000  1.0
  H  H23  1  0.59961000  0.14607000  0.96117000  1.0
  H  H24  1  0.52245000  0.59690000  0.81012000  1.0
  H  H25  1  0.47743000  0.40283000  0.18970000  1.0
  H  H26  1  0.50796000  0.47951000  0.89797000  1.0
  H  H27  1  0.49196000  0.52046000  0.10219000  1.0
  C  C28  1  0.53097000  0.79872000  0.26055000  1.0
  C  C29  1  0.46902000  0.20131000  0.73946000  1.0
  C  C30  1  0.39462000  0.89149000  0.36320000  1.0
  C  C31  1  0.60537000  0.10853000  0.63680000  1.0
  C  C32  1  0.36618000  0.84497000  0.48445000  1.0
  C  C33  1  0.63381000  0.15505000  0.51555000  1.0
  C  C34  1  0.23978000  0.92994000  0.58157000  1.0
  C  C35  1  0.76021000  0.07007000  0.41843000  1.0
  C  C36  1  0.13634000  0.06297000  0.55705000  1.0
  C  C37  1  0.86364000  0.93703000  0.44296000  1.0
  C  C38  1  0.16506000  0.10855000  0.43595000  1.0
  C  C39  1  0.83491000  0.89146000  0.56406000  1.0
  C  C40  1  0.29431000  0.02535000  0.33877000  1.0
  C  C41  1  0.70567000  0.97467000  0.66125000  1.0
  C  C42  1  0.21423000  0.87293000  0.70846000  1.0
  C  C43  1  0.78577000  0.12707000  0.29154000  1.0
  C  C44  1  0.12238000  0.33921000  0.39116000  1.0
  C  C45  1  0.87761000  0.66081000  0.60885000  1.0
  C  C46  1  0.21219000  0.36528000  0.47753000  1.0
  C  C47  1  0.78780000  0.63473000  0.52247000  1.0
  C  C48  1  0.27172000  0.47545000  0.46387000  1.0
  C  C49  1  0.72828000  0.52457000  0.53613000  1.0
  C  C50  1  0.24494000  0.55743000  0.36227000  1.0
  C  C51  1  0.75508000  0.44257000  0.63772000  1.0
  C  C52  1  0.15613000  0.53070000  0.27444000  1.0
  C  C53  1  0.84388000  0.46931000  0.72556000  1.0
  C  C54  1  0.09047000  0.42203000  0.28925000  1.0
  C  C55  1  0.90951000  0.57799000  0.71076000  1.0
  C  C56  1  0.99621000  0.38439000  0.19976000  1.0
  C  C57  1  0.00377000  0.61563000  0.80025000  1.0
  C  C58  1  0.15599000  0.60702000  0.15722000  1.0
  C  C59  1  0.84405000  0.39298000  0.84277000  1.0
  O  O60  1  0.56846000  0.83565000  0.15228000  1.0
  O  O61  1  0.43156000  0.16437000  0.84773000  1.0
  O  O62  1  0.60835000  0.67557000  0.29877000  1.0
  O  O63  1  0.39163000  0.32445000  0.70123000  1.0
  O  O64  1  0.31734000  0.75321000  0.72567000  1.0
  O  O65  1  0.68264000  0.24678000  0.27431000  1.0
  O  O66  1  0.08726000  0.94237000  0.79847000  1.0
  O  O67  1  0.91277000  0.05764000  0.20154000  1.0
  O  O68  1  0.05039000  0.23589000  0.40863000  1.0
  O  O69  1  0.94958000  0.76413000  0.59139000  1.0
  O  O70  1  0.82958000  0.45446000  0.19218000  1.0
  O  O71  1  0.17040000  0.54554000  0.80783000  1.0
  O  O72  1  0.08054000  0.27232000  0.13994000  1.0
  O  O73  1  0.91948000  0.72770000  0.86005000  1.0
  O  O74  1  0.07802000  0.58500000  0.07498000  1.0
  O  O75  1  0.92192000  0.41506000  0.92506000  1.0
  O  O76  1  0.24556000  0.68935000  0.13718000  1.0
  O  O77  1  0.75465000  0.31053000  0.86276000  1.0
  O  O78  1  0.89911000  0.87438000  0.06428000  1.0
  O  O79  1  0.10095000  0.12561000  0.93573000  1.0
  O  O80  1  0.32452000  0.87403000  0.97565000  1.0
  O  O81  1  0.67549000  0.12598000  0.02436000  1.0
  O  O82  1  0.46983000  0.57842000  0.89495000  1.0
  O  O83  1  0.53015000  0.42153000  0.10497000  1.0
