# generated using pymatgen
data_GdH8C9NO8
_symmetry_space_group_name_H-M   'P 1'
_cell_length_a   8.34832000
_cell_length_b   9.80550000
_cell_length_c   14.82110000
_cell_angle_alpha   90.00000000
_cell_angle_beta   90.00000000
_cell_angle_gamma   96.35410000
_symmetry_Int_Tables_number   1
_chemical_formula_structural   GdH8C9NO8
_chemical_formula_sum   'Gd4 H32 C36 N4 O32'
_cell_volume   1205.79402053
_cell_formula_units_Z   4
loop_
 _symmetry_equiv_pos_site_id
 _symmetry_equiv_pos_as_xyz
  1  'x, y, z'
loop_
 _atom_site_type_symbol
 _atom_site_label
 _atom_site_symmetry_multiplicity
 _atom_site_fract_x
 _atom_site_fract_y
 _atom_site_fract_z
 _atom_site_occupancy
  Gd  Gd0  1  0.00495000  0.11257000  0.38732000  1.0
  Gd  Gd1  1  0.49506000  0.88743000  0.88732000  1.0
  Gd  Gd2  1  0.99506000  0.88743000  0.61268000  1.0
  Gd  Gd3  1  0.50494000  0.11257000  0.11268000  1.0
  H  H4  1  0.34035000  0.53720000  0.17741000  1.0
  H  H5  1  0.15965000  0.46280000  0.67741000  1.0
  H  H6  1  0.65965000  0.46280000  0.82259000  1.0
  H  H7  1  0.84036000  0.53720000  0.32259000  1.0
  H  H8  1  0.28875000  0.76996000  0.23957000  1.0
  H  H9  1  0.21125000  0.23005000  0.73957000  1.0
  H  H10  1  0.71125000  0.23004000  0.76043000  1.0
  H  H11  1  0.78875000  0.76996000  0.26043000  1.0
  H  H12  1  0.12690000  0.55933000  0.48400000  1.0
  H  H13  1  0.37310000  0.44067000  0.98400000  1.0
  H  H14  1  0.87310000  0.44068000  0.51600000  1.0
  H  H15  1  0.62690000  0.55933000  0.01600000  1.0
  H  H16  1  0.53518000  0.86283000  0.52972000  1.0
  H  H17  1  0.96482000  0.13718000  0.02972000  1.0
  H  H18  1  0.46482000  0.13718000  0.47028000  1.0
  H  H19  1  0.03518000  0.86282000  0.97028000  1.0
  H  H20  1  0.62191000  0.72247000  0.48247000  1.0
  H  H21  1  0.87808000  0.27753000  0.98247000  1.0
  H  H22  1  0.37809000  0.27753000  0.51753000  1.0
  H  H23  1  0.12191000  0.72246000  0.01753000  1.0
  H  H24  1  0.48600000  0.81366000  0.41649000  1.0
  H  H25  1  0.01400000  0.18634000  0.91649000  1.0
  H  H26  1  0.51400000  0.18634000  0.58351000  1.0
  H  H27  1  0.98600000  0.81366000  0.08351000  1.0
  H  H28  1  0.85933000  0.02693000  0.21364000  1.0
  H  H29  1  0.64067000  0.97307000  0.71364000  1.0
  H  H30  1  0.14067000  0.97307000  0.78636000  1.0
  H  H31  1  0.35933000  0.02693000  0.28636000  1.0
  H  H32  1  0.04538000  0.00191000  0.19993000  1.0
  H  H33  1  0.45462000  0.99808000  0.69993000  1.0
  H  H34  1  0.95462000  0.99808000  0.80008000  1.0
  H  H35  1  0.54538000  0.00191000  0.30007000  1.0
  C  C36  1  0.29537000  0.29065000  0.25875000  1.0
  C  C37  1  0.20463000  0.70935000  0.75875000  1.0
  C  C38  1  0.70463000  0.70935000  0.74125000  1.0
  C  C39  1  0.79537000  0.29065000  0.24125000  1.0
  C  C40  1  0.25684000  0.42732000  0.29459000  1.0
  C  C41  1  0.24316000  0.57268000  0.79459000  1.0
  C  C42  1  0.74316000  0.57268000  0.70541000  1.0
  C  C43  1  0.75685000  0.42732000  0.20541000  1.0
  C  C44  1  0.28999000  0.54797000  0.24448000  1.0
  C  C45  1  0.21001000  0.45203000  0.74449000  1.0
  C  C46  1  0.71001000  0.45203000  0.75551000  1.0
  C  C47  1  0.78999000  0.54797000  0.25551000  1.0
  C  C48  1  0.26177000  0.67564000  0.27825000  1.0
  C  C49  1  0.23823000  0.32436000  0.77825000  1.0
  C  C50  1  0.73823000  0.32436000  0.72175000  1.0
  C  C51  1  0.76177000  0.67564000  0.22175000  1.0
  C  C52  1  0.20368000  0.68106000  0.36670000  1.0
  C  C53  1  0.29631000  0.31894000  0.86670000  1.0
  C  C54  1  0.79631000  0.31894000  0.63330000  1.0
  C  C55  1  0.70369000  0.68106000  0.13330000  1.0
  C  C56  1  0.16998000  0.81053000  0.41551000  1.0
  C  C57  1  0.33002000  0.18947000  0.91551000  1.0
  C  C58  1  0.83002000  0.18947000  0.58449000  1.0
  C  C59  1  0.66998000  0.81053000  0.08449000  1.0
  C  C60  1  0.17179000  0.56060000  0.41522000  1.0
  C  C61  1  0.32821000  0.43940000  0.91522000  1.0
  C  C62  1  0.82821000  0.43940000  0.58478000  1.0
  C  C63  1  0.67179000  0.56060000  0.08478000  1.0
  C  C64  1  0.72265000  0.91875000  0.43447000  1.0
  C  C65  1  0.77735000  0.08125000  0.93447000  1.0
  C  C66  1  0.27735000  0.08125000  0.56553000  1.0
  C  C67  1  0.22265000  0.91875000  0.06553000  1.0
  C  C68  1  0.58214000  0.82266000  0.46682000  1.0
  C  C69  1  0.91786000  0.17734000  0.96682000  1.0
  C  C70  1  0.41786000  0.17734000  0.53318000  1.0
  C  C71  1  0.08214000  0.82266000  0.03318000  1.0
  N  N72  1  0.19308000  0.43586000  0.38017000  1.0
  N  N73  1  0.30692000  0.56414000  0.88017000  1.0
  N  N74  1  0.80692000  0.56414000  0.61983000  1.0
  N  N75  1  0.69308000  0.43586000  0.11983000  1.0
  O  O76  1  0.15440000  0.32980000  0.43249000  1.0
  O  O77  1  0.34560000  0.67020000  0.93249000  1.0
  O  O78  1  0.84560000  0.67020000  0.56751000  1.0
  O  O79  1  0.65440000  0.32980000  0.06751000  1.0
  O  O80  1  0.22880000  0.18106000  0.29394000  1.0
  O  O81  1  0.27120000  0.81894000  0.79394000  1.0
  O  O82  1  0.77120000  0.81894000  0.70606000  1.0
  O  O83  1  0.72880000  0.18106000  0.20606000  1.0
  O  O84  1  0.39632000  0.29577000  0.19462000  1.0
  O  O85  1  0.10368000  0.70423000  0.69462000  1.0
  O  O86  1  0.60368000  0.70423000  0.80538000  1.0
  O  O87  1  0.89632000  0.29577000  0.30538000  1.0
  O  O88  1  0.16483000  0.91869000  0.36949000  1.0
  O  O89  1  0.33517000  0.08131000  0.86949000  1.0
  O  O90  1  0.83517000  0.08131000  0.63051000  1.0
  O  O91  1  0.66483000  0.91870000  0.13051000  1.0
  O  O92  1  0.14872000  0.79659000  0.49980000  1.0
  O  O93  1  0.35128000  0.20341000  0.99980000  1.0
  O  O94  1  0.85128000  0.20341000  0.50020000  1.0
  O  O95  1  0.64872000  0.79659000  0.00020000  1.0
  O  O96  1  0.70749000  0.00487000  0.37192000  1.0
  O  O97  1  0.79251000  0.99513000  0.87192000  1.0
  O  O98  1  0.29251000  0.99513000  0.62808000  1.0
  O  O99  1  0.20749000  0.00487000  0.12808000  1.0
  O  O100  1  0.95500000  0.99913000  0.24426000  1.0
  O  O101  1  0.54500000  0.00087000  0.74426000  1.0
  O  O102  1  0.04500000  0.00087000  0.75574000  1.0
  O  O103  1  0.45500000  0.99913000  0.25574000  1.0
  O  O104  1  0.86190000  0.91494000  0.47104000  1.0
  O  O105  1  0.63810000  0.08506000  0.97104000  1.0
  O  O106  1  0.13811000  0.08506000  0.52896000  1.0
  O  O107  1  0.36190000  0.91494000  0.02896000  1.0
