# generated using pymatgen
data_HgH9C9S(NO)2
_symmetry_space_group_name_H-M   'P 1'
_cell_length_a   8.03304000
_cell_length_b   9.13149000
_cell_length_c   9.21947000
_cell_angle_alpha   117.07000000
_cell_angle_beta   107.42200000
_cell_angle_gamma   96.76690000
_symmetry_Int_Tables_number   1
_chemical_formula_structural   HgH9C9S(NO)2
_chemical_formula_sum   'Hg2 H18 C18 S2 N4 O4'
_cell_volume   548.27419056
_cell_formula_units_Z   2
loop_
 _symmetry_equiv_pos_site_id
 _symmetry_equiv_pos_as_xyz
  1  'x, y, z'
loop_
 _atom_site_type_symbol
 _atom_site_label
 _atom_site_symmetry_multiplicity
 _atom_site_fract_x
 _atom_site_fract_y
 _atom_site_fract_z
 _atom_site_occupancy
  Hg  Hg0  1  0.32734000  0.78490000  0.24815000  1.0
  Hg  Hg1  1  0.67266000  0.21509000  0.75185000  1.0
  H  H2  1  0.50926000  0.62689000  0.99310000  1.0
  H  H3  1  0.49074000  0.37311000  0.00690000  1.0
  H  H4  1  0.72340000  0.69978000  0.87827000  1.0
  H  H5  1  0.27659000  0.30022000  0.12172000  1.0
  H  H6  1  0.80194000  0.23805000  0.23590000  1.0
  H  H7  1  0.19806000  0.76196000  0.76411000  1.0
  H  H8  1  0.57961000  0.14113000  0.34028000  1.0
  H  H9  1  0.42039000  0.85887000  0.65972000  1.0
  H  H10  1  0.95118000  0.16805000  0.03613000  1.0
  H  H11  1  0.04882000  0.83195000  0.96388000  1.0
  H  H12  1  0.84186000  0.96621000  0.83393000  1.0
  H  H13  1  0.15814000  0.03380000  0.16608000  1.0
  H  H14  1  0.72172000  0.46559000  0.38926000  1.0
  H  H15  1  0.27828000  0.53441000  0.61074000  1.0
  H  H16  1  0.73120000  0.58670000  0.60881000  1.0
  H  H17  1  0.26881000  0.41329000  0.39118000  1.0
  H  H18  1  0.88845000  0.67286000  0.54631000  1.0
  H  H19  1  0.11155000  0.32714000  0.45369000  1.0
  C  C20  1  0.57923000  0.76119000  0.04670000  1.0
  C  C21  1  0.42076000  0.23881000  0.95330000  1.0
  C  C22  1  0.70015000  0.80430000  0.98252000  1.0
  C  C23  1  0.29984000  0.19570000  0.01748000  1.0
  C  C24  1  0.78468000  0.97802000  0.04922000  1.0
  C  C25  1  0.21532000  0.02198000  0.95078000  1.0
  C  C26  1  0.74192000  0.10110000  0.18111000  1.0
  C  C27  1  0.25808000  0.89890000  0.81889000  1.0
  C  C28  1  0.61923000  0.04971000  0.24015000  1.0
  C  C29  1  0.38077000  0.95029000  0.75985000  1.0
  C  C30  1  0.91324000  0.02795000  0.97930000  1.0
  C  C31  1  0.08676000  0.97206000  0.02071000  1.0
  C  C32  1  0.84237000  0.45851000  0.07867000  1.0
  C  C33  1  0.15762000  0.54148000  0.92132000  1.0
  C  C34  1  0.61494000  0.68332000  0.44066000  1.0
  C  C35  1  0.38506000  0.31668000  0.55934000  1.0
  C  C36  1  0.74752000  0.59562000  0.49865000  1.0
  C  C37  1  0.25248000  0.40437000  0.50135000  1.0
  S  S38  1  0.06557000  0.80176000  0.33018000  1.0
  S  S39  1  0.93443000  0.19823000  0.66981000  1.0
  N  N40  1  0.53943000  0.88189000  0.17318000  1.0
  N  N41  1  0.46058000  0.11811000  0.82683000  1.0
  N  N42  1  0.93827000  0.60122000  0.18481000  1.0
  N  N43  1  0.06174000  0.39878000  0.81518000  1.0
  O  O44  1  0.63771000  0.84068000  0.54552000  1.0
  O  O45  1  0.36230000  0.15932000  0.45449000  1.0
  O  O46  1  0.48429000  0.58979000  0.28599000  1.0
  O  O47  1  0.51572000  0.41021000  0.71401000  1.0
