# generated using pymatgen
data_H12PbC13(N2O)2
_symmetry_space_group_name_H-M   'P 1'
_cell_length_a   7.43370000
_cell_length_b   9.62619000
_cell_length_c   9.89045000
_cell_angle_alpha   95.36890000
_cell_angle_beta   98.96740000
_cell_angle_gamma   104.01200000
_symmetry_Int_Tables_number   1
_chemical_formula_structural   H12PbC13(N2O)2
_chemical_formula_sum   'H24 Pb2 C26 N8 O4'
_cell_volume   671.89429218
_cell_formula_units_Z   2
loop_
 _symmetry_equiv_pos_site_id
 _symmetry_equiv_pos_as_xyz
  1  'x, y, z'
loop_
 _atom_site_type_symbol
 _atom_site_label
 _atom_site_symmetry_multiplicity
 _atom_site_fract_x
 _atom_site_fract_y
 _atom_site_fract_z
 _atom_site_occupancy
  H  H0  1  0.61726000  0.57252000  0.56803000  1.0
  H  H1  1  0.38274000  0.42750000  0.43198000  1.0
  H  H2  1  0.83777000  0.47130000  0.96466000  1.0
  H  H3  1  0.16225000  0.52869000  0.03533000  1.0
  H  H4  1  0.04990000  0.72577000  0.01528000  1.0
  H  H5  1  0.95012000  0.27422000  0.98473000  1.0
  H  H6  1  0.02305000  0.89183000  0.83665000  1.0
  H  H7  1  0.97695000  0.10818000  0.16338000  1.0
  H  H8  1  0.64118000  0.03090000  0.91330000  1.0
  H  H9  1  0.35888000  0.96910000  0.08664000  1.0
  H  H10  1  0.10461000  0.69847000  0.49435000  1.0
  H  H11  1  0.89534000  0.30152000  0.50566000  1.0
  H  H12  1  0.12600000  0.48122000  0.61561000  1.0
  H  H13  1  0.87399000  0.51878000  0.38440000  1.0
  H  H14  1  0.34128000  0.52243000  0.84559000  1.0
  H  H15  1  0.65874000  0.47758000  0.15441000  1.0
  H  H16  1  0.53270000  0.77328000  0.94252000  1.0
  H  H17  1  0.46733000  0.22673000  0.05746000  1.0
  H  H18  1  0.13824000  0.12041000  0.82708000  1.0
  H  H19  1  0.86173000  0.87952000  0.17289000  1.0
  H  H20  1  0.93761000  0.18921000  0.77769000  1.0
  H  H21  1  0.06237000  0.81075000  0.22234000  1.0
  H  H22  1  0.16749000  0.28846000  0.76177000  1.0
  H  H23  1  0.83250000  0.71152000  0.23829000  1.0
  Pb  Pb24  1  0.26961000  0.07324000  0.50021000  1.0
  Pb  Pb25  1  0.73035000  0.92680000  0.49977000  1.0
  C  C26  1  0.71053000  0.60227000  0.66863000  1.0
  C  C27  1  0.28948000  0.39775000  0.33138000  1.0
  C  C28  1  0.71304000  0.50142000  0.76203000  1.0
  C  C29  1  0.28699000  0.49858000  0.23797000  1.0
  C  C30  1  0.83471000  0.54704000  0.88982000  1.0
  C  C31  1  0.16532000  0.45295000  0.11018000  1.0
  C  C32  1  0.94898000  0.68827000  0.91844000  1.0
  C  C33  1  0.05104000  0.31173000  0.08157000  1.0
  C  C34  1  0.93566000  0.78053000  0.81882000  1.0
  C  C35  1  0.06435000  0.21947000  0.18120000  1.0
  C  C36  1  0.58454000  0.35302000  0.72159000  1.0
  C  C37  1  0.41548000  0.64699000  0.27840000  1.0
  C  C38  1  0.53411000  0.01323000  0.81884000  1.0
  C  C39  1  0.46589000  0.98677000  0.18112000  1.0
  C  C40  1  0.42016000  0.86649000  0.76758000  1.0
  C  C41  1  0.57984000  0.13351000  0.23240000  1.0
  C  C42  1  0.19908000  0.70857000  0.59329000  1.0
  C  C43  1  0.80089000  0.29143000  0.40672000  1.0
  C  C44  1  0.20921000  0.58930000  0.66143000  1.0
  C  C45  1  0.79078000  0.41070000  0.33858000  1.0
  C  C46  1  0.32950000  0.61282000  0.78927000  1.0
  C  C47  1  0.67050000  0.38718000  0.21073000  1.0
  C  C48  1  0.43635000  0.75226000  0.84338000  1.0
  C  C49  1  0.56366000  0.24775000  0.15660000  1.0
  C  C50  1  0.07245000  0.17851000  0.74998000  1.0
  C  C51  1  0.92753000  0.82147000  0.25004000  1.0
  N  N52  1  0.81847000  0.73864000  0.69595000  1.0
  N  N53  1  0.18153000  0.26138000  0.30408000  1.0
  N  N54  1  0.62579000  0.25300000  0.80074000  1.0
  N  N55  1  0.37422000  0.74700000  0.19924000  1.0
  N  N56  1  0.51125000  0.11998000  0.75237000  1.0
  N  N57  1  0.48874000  0.88002000  0.24762000  1.0
  N  N58  1  0.30053000  0.84296000  0.64419000  1.0
  N  N59  1  0.69944000  0.15703000  0.35581000  1.0
  O  O60  1  0.45145000  0.33362000  0.61836000  1.0
  O  O61  1  0.54855000  0.66641000  0.38165000  1.0
  O  O62  1  0.04002000  0.10738000  0.61335000  1.0
  O  O63  1  0.95995000  0.89268000  0.38663000  1.0
