# generated using pymatgen
data_H12PbC14(NO2)2
_symmetry_space_group_name_H-M   'P 1'
_cell_length_a   6.75161000
_cell_length_b   7.94144000
_cell_length_c   13.83810000
_cell_angle_alpha   74.89330000
_cell_angle_beta   88.08070000
_cell_angle_gamma   69.27610000
_symmetry_Int_Tables_number   1
_chemical_formula_structural   H12PbC14(NO2)2
_chemical_formula_sum   'H24 Pb2 C28 N4 O8'
_cell_volume   668.55640362
_cell_formula_units_Z   2
loop_
 _symmetry_equiv_pos_site_id
 _symmetry_equiv_pos_as_xyz
  1  'x, y, z'
loop_
 _atom_site_type_symbol
 _atom_site_label
 _atom_site_symmetry_multiplicity
 _atom_site_fract_x
 _atom_site_fract_y
 _atom_site_fract_z
 _atom_site_occupancy
  H  H0  1  0.58433000  0.67814000  0.35694000  1.0
  H  H1  1  0.41565000  0.32187000  0.64305000  1.0
  H  H2  1  0.62642000  0.56306000  0.48086000  1.0
  H  H3  1  0.37357000  0.43695000  0.51913000  1.0
  H  H4  1  0.01729000  0.23749000  0.96308000  1.0
  H  H5  1  0.98272000  0.76249000  0.03692000  1.0
  H  H6  1  0.02653000  0.14045000  0.86939000  1.0
  H  H7  1  0.97348000  0.85954000  0.13060000  1.0
  H  H8  1  0.67935000  0.51849000  0.22692000  1.0
  H  H9  1  0.32062000  0.48152000  0.77307000  1.0
  H  H10  1  0.74064000  0.21794000  0.53862000  1.0
  H  H11  1  0.25936000  0.78208000  0.46138000  1.0
  H  H12  1  0.79380000  0.92860000  0.48923000  1.0
  H  H13  1  0.20620000  0.07140000  0.51077000  1.0
  H  H14  1  0.78072000  0.93191000  0.30867000  1.0
  H  H15  1  0.21928000  0.06809000  0.69133000  1.0
  H  H16  1  0.84985000  0.57148000  0.94396000  1.0
  H  H17  1  0.15014000  0.42850000  0.05605000  1.0
  H  H18  1  0.91473000  0.32613000  0.69631000  1.0
  H  H19  1  0.08528000  0.67386000  0.30369000  1.0
  H  H20  1  0.81185000  0.64159000  0.57766000  1.0
  H  H21  1  0.18814000  0.35841000  0.42234000  1.0
  H  H22  1  0.71003000  0.92540000  0.64286000  1.0
  H  H23  1  0.28998000  0.07460000  0.35715000  1.0
  Pb  Pb24  1  0.57319000  0.23656000  0.94713000  1.0
  Pb  Pb25  1  0.42682000  0.76345000  0.05287000  1.0
  C  C26  1  0.72079000  0.23257000  0.14865000  1.0
  C  C27  1  0.27921000  0.76743000  0.85135000  1.0
  C  C28  1  0.73005000  0.22614000  0.25698000  1.0
  C  C29  1  0.26993000  0.77387000  0.74302000  1.0
  C  C30  1  0.69799000  0.39004000  0.28458000  1.0
  C  C31  1  0.30200000  0.60996000  0.71541000  1.0
  C  C32  1  0.69561000  0.39266000  0.38566000  1.0
  C  C33  1  0.30438000  0.60735000  0.61434000  1.0
  C  C34  1  0.73380000  0.22238000  0.45924000  1.0
  C  C35  1  0.26621000  0.77763000  0.54076000  1.0
  C  C36  1  0.76548000  0.05846000  0.43121000  1.0
  C  C37  1  0.23451000  0.94154000  0.56879000  1.0
  C  C38  1  0.76249000  0.05815000  0.33082000  1.0
  C  C39  1  0.23751000  0.94185000  0.66918000  1.0
  C  C40  1  0.71129000  0.93377000  0.83728000  1.0
  C  C41  1  0.28871000  0.06622000  0.16272000  1.0
  C  C42  1  0.77359000  0.76600000  0.79707000  1.0
  C  C43  1  0.22642000  0.23399000  0.20293000  1.0
  C  C44  1  0.84027000  0.58757000  0.86351000  1.0
  C  C45  1  0.15974000  0.41242000  0.13650000  1.0
  C  C46  1  0.89088000  0.42888000  0.82787000  1.0
  C  C47  1  0.10913000  0.57111000  0.17213000  1.0
  C  C48  1  0.87714000  0.44946000  0.72434000  1.0
  C  C49  1  0.12286000  0.55054000  0.27566000  1.0
  C  C50  1  0.81532000  0.62762000  0.65814000  1.0
  C  C51  1  0.18469000  0.37238000  0.34187000  1.0
  C  C52  1  0.76159000  0.78577000  0.69364000  1.0
  C  C53  1  0.23842000  0.21422000  0.30637000  1.0
  N  N54  1  0.66568000  0.55837000  0.40999000  1.0
  N  N55  1  0.33431000  0.44164000  0.59001000  1.0
  N  N56  1  0.93945000  0.25096000  0.89735000  1.0
  N  N57  1  0.06057000  0.74903000  0.10265000  1.0
  O  O58  1  0.74434000  0.08137000  0.12390000  1.0
  O  O59  1  0.25564000  0.91863000  0.87610000  1.0
  O  O60  1  0.68251000  0.38741000  0.08210000  1.0
  O  O61  1  0.31750000  0.61259000  0.91789000  1.0
  O  O62  1  0.64645000  0.09660000  0.77888000  1.0
  O  O63  1  0.35356000  0.90339000  0.22112000  1.0
  O  O64  1  0.72639000  0.90304000  0.93470000  1.0
  O  O65  1  0.27359000  0.09696000  0.06531000  1.0
