# generated using pymatgen
data_ZnH16C16N3O7
_symmetry_space_group_name_H-M   'P 1'
_cell_length_a   9.51721000
_cell_length_b   10.87190000
_cell_length_c   19.06860000
_cell_angle_alpha   90.06860000
_cell_angle_beta   90.42260000
_cell_angle_gamma   89.70050000
_symmetry_Int_Tables_number   1
_chemical_formula_structural   ZnH16C16N3O7
_chemical_formula_sum   'Zn2 H32 C32 N6 O14'
_cell_volume   1972.94905757
_cell_formula_units_Z   2
loop_
 _symmetry_equiv_pos_site_id
 _symmetry_equiv_pos_as_xyz
  1  'x, y, z'
loop_
 _atom_site_type_symbol
 _atom_site_label
 _atom_site_symmetry_multiplicity
 _atom_site_fract_x
 _atom_site_fract_y
 _atom_site_fract_z
 _atom_site_occupancy
  Zn  Zn0  1  0.64702000  0.49421000  0.49902000  1.0
  Zn  Zn1  1  0.35312000  0.49490000  0.50053000  1.0
  H  H2  1  0.72270000  0.54727000  0.71863000  1.0
  H  H3  1  0.27444000  0.50958000  0.72197000  1.0
  H  H4  1  0.12313000  0.34944000  0.57363000  1.0
  H  H5  1  0.87505000  0.34003000  0.56712000  1.0
  H  H6  1  0.13050000  0.30380000  0.48518000  1.0
  H  H7  1  0.88232000  0.30651000  0.47595000  1.0
  H  H8  1  0.12824000  0.56545000  0.60415000  1.0
  H  H9  1  0.87930000  0.54969000  0.60592000  1.0
  H  H10  1  0.11906000  0.67764000  0.53711000  1.0
  H  H11  1  0.86867000  0.67173000  0.54504000  1.0
  H  H12  1  0.72413000  0.59466000  0.84725000  1.0
  H  H13  1  0.27359000  0.56212000  0.85009000  1.0
  H  H14  1  0.72773000  0.56504000  0.14919000  1.0
  H  H15  1  0.27607000  0.58496000  0.15007000  1.0
  H  H16  1  0.72740000  0.51751000  0.27793000  1.0
  H  H17  1  0.27766000  0.54213000  0.27931000  1.0
  H  H18  1  0.46317000  0.07024000  0.39156000  1.0
  H  H19  1  0.27849000  0.10270000  0.46083000  1.0
  H  H20  1  0.56432000  0.87124000  0.39317000  1.0
  H  H21  1  0.30520000  0.89266000  0.44356000  1.0
  H  H22  1  0.69810000  0.91487000  0.45324000  1.0
  H  H23  1  0.28018000  0.87703000  0.53482000  1.0
  H  H24  1  0.76463000  0.93785000  0.58150000  1.0
  H  H25  1  0.50419000  0.93159000  0.66837000  1.0
  H  H26  1  0.12689000  0.61629000  0.41586000  1.0
  H  H27  1  0.87788000  0.62632000  0.42147000  1.0
  H  H28  1  0.12060000  0.45836000  0.39393000  1.0
  H  H29  1  0.87187000  0.47211000  0.39150000  1.0
  H  H30  1  0.69166000  0.10166000  0.36082000  1.0
  H  H31  1  0.32063000  0.07385000  0.60610000  1.0
  H  H32  1  0.72499000  0.17639000  0.53414000  1.0
  H  H33  1  0.54318000  0.20877000  0.62500000  1.0
  C  C34  1  0.49139000  0.25464000  0.49707000  1.0
  C  C35  1  0.49937000  0.60844000  0.93164000  1.0
  C  C36  1  0.62956000  0.55881000  0.17798000  1.0
  C  C37  1  0.37441000  0.57048000  0.17851000  1.0
  C  C38  1  0.62932000  0.53288000  0.24938000  1.0
  C  C39  1  0.37529000  0.54632000  0.24998000  1.0
  C  C40  1  0.50248000  0.52787000  0.28617000  1.0
  C  C41  1  0.50191000  0.57858000  0.14196000  1.0
  C  C42  1  0.54899000  0.06062000  0.43058000  1.0
  C  C43  1  0.33832000  0.06154000  0.50442000  1.0
  C  C44  1  0.58559000  0.92389000  0.44130000  1.0
  C  C45  1  0.34651000  0.92008000  0.49531000  1.0
  C  C46  1  0.57900000  0.06769000  0.56377000  1.0
  C  C47  1  0.48976000  0.11403000  0.50018000  1.0
  C  C48  1  0.49853000  0.87201000  0.50218000  1.0
  C  C49  1  0.49989000  0.49929000  0.63574000  1.0
  C  C50  1  0.56365000  0.92264000  0.57200000  1.0
  C  C51  1  0.08297000  0.37077000  0.52095000  1.0
  C  C52  1  0.92082000  0.36886000  0.51712000  1.0
  C  C53  1  0.08045000  0.58703000  0.55305000  1.0
  C  C54  1  0.91799000  0.58189000  0.55515000  1.0
  C  C55  1  0.08060000  0.52786000  0.43059000  1.0
  C  C56  1  0.91843000  0.53308000  0.43109000  1.0
  C  C57  1  0.50288000  0.73139000  0.50227000  1.0
  C  C58  1  0.50148000  0.50702000  0.36389000  1.0
  C  C59  1  0.62541000  0.54914000  0.74829000  1.0
  C  C60  1  0.37209000  0.52865000  0.74999000  1.0
  C  C61  1  0.62615000  0.57604000  0.81945000  1.0
  C  C62  1  0.37163000  0.55733000  0.82105000  1.0
  C  C63  1  0.49888000  0.58112000  0.85645000  1.0
  C  C64  1  0.49872000  0.52500000  0.71294000  1.0
  C  C65  1  0.50119000  0.60643000  0.06679000  1.0
  N  N66  1  0.37534000  0.62657000  0.96471000  1.0
  N  N67  1  0.62388000  0.62620000  0.96496000  1.0
  N  N68  1  0.37645000  0.62478000  0.03370000  1.0
  N  N69  1  0.62494000  0.62576000  0.03395000  1.0
  N  N70  1  0.13484000  0.49531000  0.50161000  1.0
  N  N71  1  0.86548000  0.49407000  0.50088000  1.0
  O  O72  1  0.60516000  0.30647000  0.51789000  1.0
  O  O73  1  0.38371000  0.31085000  0.47499000  1.0
  O  O74  1  0.61596000  0.51686000  0.60457000  1.0
  O  O75  1  0.38623000  0.46256000  0.60676000  1.0
  O  O76  1  0.61643000  0.67956000  0.48318000  1.0
  O  O77  1  0.39143000  0.67609000  0.52041000  1.0
  O  O78  1  0.61477000  0.46919000  0.39286000  1.0
  O  O79  1  0.38683000  0.53100000  0.39515000  1.0
  O  O80  1  0.69658000  0.87104000  0.58735000  1.0
  O  O81  1  0.46888000  0.89247000  0.62569000  1.0
  O  O82  1  0.66620000  0.13185000  0.40707000  1.0
  O  O83  1  0.26373000  0.09838000  0.56546000  1.0
  O  O84  1  0.72300000  0.09270000  0.55438000  1.0
  O  O85  1  0.53120000  0.11974000  0.62833000  1.0
