# generated using pymatgen
data_Zn3H36C46(N3O10)2
_symmetry_space_group_name_H-M   'P 1'
_cell_length_a   8.67792000
_cell_length_b   10.97500000
_cell_length_c   12.85280000
_cell_angle_alpha   75.84200000
_cell_angle_beta   70.85820000
_cell_angle_gamma   77.96160000
_symmetry_Int_Tables_number   1
_chemical_formula_structural   Zn3H36C46(N3O10)2
_chemical_formula_sum   'Zn3 H36 C46 N6 O20'
_cell_volume   1110.23184241
_cell_formula_units_Z   1
loop_
 _symmetry_equiv_pos_site_id
 _symmetry_equiv_pos_as_xyz
  1  'x, y, z'
loop_
 _atom_site_type_symbol
 _atom_site_label
 _atom_site_symmetry_multiplicity
 _atom_site_fract_x
 _atom_site_fract_y
 _atom_site_fract_z
 _atom_site_occupancy
  Zn  Zn0  1  0.00000000  0.00000000  0.50000000  1.0
  Zn  Zn1  1  0.79293000  0.85677000  0.19522000  1.0
  Zn  Zn2  1  0.20707000  0.14323000  0.80478000  1.0
  H  H3  1  0.01358000  0.56694000  0.34436000  1.0
  H  H4  1  0.98642000  0.43306000  0.65564000  1.0
  H  H5  1  0.16995000  0.19272000  0.40145000  1.0
  H  H6  1  0.83005000  0.80728000  0.59855000  1.0
  H  H7  1  0.28596000  0.05162000  0.41427000  1.0
  H  H8  1  0.71404000  0.94838000  0.58573000  1.0
  H  H9  1  0.79510000  0.93981000  0.36045000  1.0
  H  H10  1  0.20490000  0.06019000  0.63954000  1.0
  H  H11  1  0.59835000  0.93472000  0.38465000  1.0
  H  H12  1  0.40165000  0.06528000  0.61534000  1.0
  H  H13  1  0.36329000  0.22486000  0.46851000  1.0
  H  H14  1  0.63671000  0.77514000  0.53149000  1.0
  H  H15  1  0.38733000  0.61975000  0.32358000  1.0
  H  H16  1  0.61267000  0.38025000  0.67642000  1.0
  H  H17  1  0.80965000  0.37942000  0.40338000  1.0
  H  H18  1  0.19035000  0.62058000  0.59662000  1.0
  H  H19  1  0.93884000  0.36786000  0.89669000  1.0
  H  H20  1  0.06115000  0.63214000  0.10331000  1.0
  H  H21  1  0.82111000  0.44925000  0.07871000  1.0
  H  H22  1  0.17889000  0.55075000  0.92129000  1.0
  H  H23  1  0.12891000  0.14094000  0.22299000  1.0
  H  H24  1  0.87108000  0.85906000  0.77701000  1.0
  H  H25  1  0.50189000  0.68880000  0.14762000  1.0
  H  H26  1  0.49810000  0.31120000  0.85239000  1.0
  H  H27  1  0.59940000  0.63507000  0.80851000  1.0
  H  H28  1  0.40060000  0.36493000  0.19149000  1.0
  H  H29  1  0.44589000  0.85044000  0.75649000  1.0
  H  H30  1  0.55411000  0.14956000  0.24351000  1.0
  H  H31  1  0.28268000  0.99373000  0.24772000  1.0
  H  H32  1  0.71732000  0.00627000  0.75228000  1.0
  H  H33  1  0.34058000  0.83064000  0.24906000  1.0
  H  H34  1  0.65942000  0.16937000  0.75094000  1.0
  H  H35  1  0.62341000  0.55614000  0.00021000  1.0
  H  H36  1  0.37659000  0.44385000  0.99979000  1.0
  H  H37  1  0.92765000  0.33181000  0.24187000  1.0
  H  H38  1  0.07234000  0.66819000  0.75813000  1.0
  C  C39  1  0.43248000  0.30495000  0.43686000  1.0
  C  C40  1  0.56752000  0.69505000  0.56314000  1.0
  C  C41  1  0.35786000  0.42404000  0.39394000  1.0
  C  C42  1  0.64214000  0.57596000  0.60606000  1.0
  C  C43  1  0.44662000  0.52710000  0.35493000  1.0
  C  C44  1  0.55338000  0.47290000  0.64507000  1.0
  C  C45  1  0.61018000  0.51165000  0.35585000  1.0
  C  C46  1  0.38981000  0.48835000  0.64415000  1.0
  C  C47  1  0.68333000  0.39252000  0.39945000  1.0
  C  C48  1  0.31667000  0.60748000  0.60055000  1.0
  C  C49  1  0.59508000  0.28885000  0.43963000  1.0
  C  C50  1  0.40493000  0.71115000  0.56037000  1.0
  C  C51  1  0.18733000  0.43945000  0.38562000  1.0
  C  C52  1  0.81268000  0.56054000  0.61438000  1.0
  C  C53  1  0.70762000  0.62077000  0.30715000  1.0
  C  C54  1  0.29238000  0.37923000  0.69286000  1.0
  C  C55  1  0.68007000  0.16152000  0.48218000  1.0
  C  C56  1  0.31993000  0.83848000  0.51782000  1.0
  C  C57  1  0.97618000  0.32002000  0.97145000  1.0
  C  C58  1  0.02382000  0.67998000  0.02855000  1.0
  C  C59  1  0.91249000  0.36466000  0.07214000  1.0
  C  C60  1  0.08750000  0.63534000  0.92785000  1.0
  C  C61  1  0.08494000  0.18991000  0.15159000  1.0
  C  C62  1  0.91506000  0.81009000  0.84841000  1.0
  C  C63  1  0.13944000  0.14875000  0.04911000  1.0
  C  C64  1  0.86056000  0.85125000  0.95089000  1.0
  C  C65  1  0.25099000  0.03224000  0.02429000  1.0
  C  C66  1  0.74902000  0.96776000  0.97571000  1.0
  C  C67  1  0.40122000  0.84162000  0.03402000  1.0
  C  C68  1  0.59877000  0.15838000  0.96598000  1.0
  C  C69  1  0.48659000  0.72236000  0.06416000  1.0
  C  C70  1  0.51341000  0.27764000  0.93584000  1.0
  C  C71  1  0.54294000  0.69540000  0.87077000  1.0
  C  C72  1  0.45706000  0.30460000  0.12923000  1.0
  C  C73  1  0.45944000  0.81482000  0.84032000  1.0
  C  C74  1  0.54057000  0.18518000  0.15968000  1.0
  C  C75  1  0.38805000  0.88821000  0.92384000  1.0
  C  C76  1  0.61195000  0.11179000  0.07616000  1.0
  C  C77  1  0.26308000  0.91477000  0.21758000  1.0
  C  C78  1  0.73692000  0.08523000  0.78242000  1.0
  C  C79  1  0.08049000  0.89409000  0.26348000  1.0
  C  C80  1  0.91952000  0.10591000  0.73652000  1.0
  C  C81  1  0.55652000  0.65029000  0.98045000  1.0
  C  C82  1  0.44348000  0.34971000  0.01955000  1.0
  C  C83  1  0.97057000  0.29946000  0.16232000  1.0
  C  C84  1  0.02943000  0.70054000  0.83768000  1.0
  N  N85  1  0.29534000  0.00692000  0.92099000  1.0
  N  N86  1  0.70466000  0.99308000  0.07901000  1.0
  N  N87  1  0.08731000  0.21606000  0.96023000  1.0
  N  N88  1  0.91269000  0.78394000  0.03977000  1.0
  N  N89  1  0.31576000  0.93573000  0.09549000  1.0
  N  N90  1  0.68424000  0.06427000  0.90451000  1.0
  O  O91  1  0.11229000  0.34909000  0.40100000  1.0
  O  O92  1  0.88772000  0.65091000  0.59900000  1.0
  O  O93  1  0.12513000  0.55955000  0.35708000  1.0
  O  O94  1  0.87487000  0.44044000  0.64292000  1.0
  O  O95  1  0.63261000  0.72694000  0.26710000  1.0
  O  O96  1  0.36738000  0.27306000  0.73290000  1.0
  O  O97  1  0.85766000  0.60511000  0.30264000  1.0
  O  O98  1  0.14233000  0.39489000  0.69736000  1.0
  O  O99  1  0.83644000  0.14970000  0.45250000  1.0
  O  O100  1  0.16356000  0.85030000  0.54750000  1.0
  O  O101  1  0.59425000  0.07454000  0.54289000  1.0
  O  O102  1  0.40575000  0.92545000  0.45711000  1.0
  O  O103  1  0.99956000  0.90910000  0.36223000  1.0
  O  O104  1  0.00045000  0.09090000  0.63777000  1.0
  O  O105  1  0.02529000  0.86434000  0.19443000  1.0
  O  O106  1  0.97471000  0.13567000  0.80557000  1.0
  O  O107  1  0.18775000  0.10303000  0.39141000  1.0
  O  O108  1  0.81226000  0.89697000  0.60860000  1.0
  O  O109  1  0.70337000  0.95644000  0.32630000  1.0
  O  O110  1  0.29663000  0.04356000  0.67370000  1.0
