# generated using pymatgen
data_Zn2H20C46N8O20F9
_symmetry_space_group_name_H-M   'P 1'
_cell_length_a   19.59380000
_cell_length_b   19.65570000
_cell_length_c   19.65420000
_cell_angle_alpha   104.52100000
_cell_angle_beta   111.84700000
_cell_angle_gamma   111.24800000
_symmetry_Int_Tables_number   1
_chemical_formula_structural   Zn2H20C46N8O20F9
_chemical_formula_sum   'Zn4 H40 C92 N16 O40 F18'
_cell_volume   5861.70746779
_cell_formula_units_Z   2
loop_
 _symmetry_equiv_pos_site_id
 _symmetry_equiv_pos_as_xyz
  1  'x, y, z'
loop_
 _atom_site_type_symbol
 _atom_site_label
 _atom_site_symmetry_multiplicity
 _atom_site_fract_x
 _atom_site_fract_y
 _atom_site_fract_z
 _atom_site_occupancy
  Zn  Zn0  1  0.37910000  0.99654000  0.90442000  1.0
  Zn  Zn1  1  0.62233000  0.01544000  0.11053000  1.0
  Zn  Zn2  1  0.40699000  0.89084000  0.01256000  1.0
  Zn  Zn3  1  0.59421000  0.10035000  0.97952000  1.0
  H  H4  1  0.41097000  0.15194000  0.03943000  1.0
  H  H5  1  0.82642000  0.07296000  0.17595000  1.0
  H  H6  1  0.17804000  0.86708000  0.76543000  1.0
  H  H7  1  0.60300000  0.97274000  0.84782000  1.0
  H  H8  1  0.37849000  0.76030000  0.85178000  1.0
  H  H9  1  0.52952000  0.58161000  0.99660000  1.0
  H  H10  1  0.35166000  0.47223000  0.75734000  1.0
  H  H11  1  0.44532000  0.40167000  0.72068000  1.0
  H  H12  1  0.59906000  0.55430000  0.82864000  1.0
  H  H13  1  0.76945000  0.41743000  0.49443000  1.0
  H  H14  1  0.82215000  0.54238000  0.38256000  1.0
  H  H15  1  0.77700000  0.52836000  0.44445000  1.0
  H  H16  1  0.99941000  0.48704000  0.55710000  1.0
  H  H17  1  0.85079000  0.39257000  0.50728000  1.0
  H  H18  1  0.60563000  0.84644000  0.49645000  1.0
  H  H19  1  0.47741000  0.97794000  0.55485000  1.0
  H  H20  1  0.36950000  0.76073000  0.45896000  1.0
  H  H21  1  0.23901000  0.21731000  0.25030000  1.0
  H  H22  1  0.12991000  0.00714000  0.08727000  1.0
  H  H23  1  0.06826000  0.20319000  0.05256000  1.0
  H  H24  1  0.75299000  0.92481000  0.15747000  1.0
  H  H25  1  0.69202000  0.50527000  0.07243000  1.0
  H  H26  1  0.81633000  0.70207000  0.55351000  1.0
  H  H27  1  0.08200000  0.73414000  0.51436000  1.0
  H  H28  1  0.92211000  0.32129000  0.31970000  1.0
  H  H29  1  0.96965000  0.52832000  0.76447000  1.0
  H  H30  1  0.52240000  0.69596000  0.57873000  1.0
  H  H31  1  0.73411000  0.10881000  0.69838000  1.0
  H  H32  1  0.72835000  0.87377000  0.67261000  1.0
  H  H33  1  0.26949000  0.91254000  0.43792000  1.0
  H  H34  1  0.38872000  0.98430000  0.30922000  1.0
  H  H35  1  0.31134000  0.67548000  0.21232000  1.0
  H  H36  1  0.36464000  0.36568000  0.25777000  1.0
  H  H37  1  0.17999000  0.24610000  0.38032000  1.0
  H  H38  1  0.98222000  0.97093000  0.20726000  1.0
  H  H39  1  0.23748000  0.19396000  0.96044000  1.0
  H  H40  1  0.22961000  0.05253000  0.87737000  1.0
  H  H41  1  0.71879000  0.30824000  0.03645000  1.0
  H  H42  1  0.31342000  0.86534000  0.14966000  1.0
  H  H43  1  0.22859000  0.92081000  0.68463000  1.0
  C  C44  1  0.40477000  0.10383000  0.05837000  1.0
  C  C45  1  0.66403000  0.24752000  0.21927000  1.0
  C  C46  1  0.53636000  0.89466000  0.23992000  1.0
  C  C47  1  0.46210000  0.21855000  0.88136000  1.0
  C  C48  1  0.39975000  0.91659000  0.76309000  1.0
  C  C49  1  0.58228000  0.85495000  0.99067000  1.0
  C  C50  1  0.23054000  0.76369000  0.85904000  1.0
  C  C51  1  0.76523000  0.10608000  0.01551000  1.0
  C  C52  1  0.79719000  0.08248000  0.12308000  1.0
  C  C53  1  0.20449000  0.84188000  0.80405000  1.0
  C  C54  1  0.53801000  0.95816000  0.82978000  1.0
  C  C55  1  0.63055000  0.16758000  0.21123000  1.0
  C  C56  1  0.44483000  0.79959000  0.90043000  1.0
  C  C57  1  0.46525000  0.91289000  0.75065000  1.0
  C  C58  1  0.51168000  0.78271000  0.92003000  1.0
  C  C59  1  0.17002000  0.75957000  0.78906000  1.0
  C  C60  1  0.82918000  0.09995000  0.07241000  1.0
  C  C61  1  0.51036000  0.54141000  0.93517000  1.0
  C  C62  1  0.42606000  0.45867000  0.87466000  1.0
  C  C63  1  0.45934000  0.28293000  0.86502000  1.0
  C  C64  1  0.50708000  0.70775000  0.88822000  1.0
  C  C65  1  0.56243000  0.50445000  0.91415000  1.0
  C  C66  1  0.46889000  0.85363000  0.15828000  1.0
  C  C67  1  0.47582000  0.41724000  0.85362000  1.0
  C  C68  1  0.54862000  0.52630000  0.84106000  1.0
  C  C69  1  0.49680000  0.56580000  0.86184000  1.0
  C  C70  1  0.46370000  0.44254000  0.78154000  1.0
  C  C71  1  0.41157000  0.48040000  0.80153000  1.0
  C  C72  1  0.46628000  0.34339000  0.85527000  1.0
  C  C73  1  0.50438000  0.64239000  0.87109000  1.0
  C  C74  1  0.83361000  0.43931000  0.50328000  1.0
  C  C75  1  0.83173000  0.53456000  0.43795000  1.0
  C  C76  1  0.91520000  0.61063000  0.51299000  1.0
  C  C77  1  0.52995000  0.20342000  0.89893000  1.0
  C  C78  1  0.09743000  0.69281000  0.71732000  1.0
  C  C79  1  0.83412000  0.45505000  0.42998000  1.0
  C  C80  1  0.89576000  0.51864000  0.58290000  1.0
  C  C81  1  0.96409000  0.58006000  0.57077000  1.0
  C  C82  1  0.99099000  0.52557000  0.52648000  1.0
  C  C83  1  0.92092000  0.47004000  0.43562000  1.0
  C  C84  1  0.03664000  0.64331000  0.64959000  1.0
  C  C85  1  0.76348000  0.38468000  0.35353000  1.0
  C  C86  1  0.71283000  0.32116000  0.29107000  1.0
  C  C87  1  0.43739000  0.78100000  0.48131000  1.0
  C  C88  1  0.59686000  0.95828000  0.23713000  1.0
  C  C89  1  0.58635000  0.91886000  0.58244000  1.0
  C  C90  1  0.59378000  0.89731000  0.50483000  1.0
  C  C91  1  0.53562000  0.88171000  0.30629000  1.0
  C  C92  1  0.48638000  0.87036000  0.54991000  1.0
  C  C93  1  0.44860000  0.77832000  0.40713000  1.0
  C  C94  1  0.50860000  0.86775000  0.42541000  1.0
  C  C95  1  0.47469000  0.92708000  0.44486000  1.0
  C  C96  1  0.44687000  0.91573000  0.50734000  1.0
  C  C97  1  0.52538000  0.87054000  0.36043000  1.0
  C  C98  1  0.47152000  0.87287000  0.61716000  1.0
  C  C99  1  0.40443000  0.15513000  0.88793000  1.0
  C  C100  1  0.46383000  0.88529000  0.67678000  1.0
  C  C101  1  0.18839000  0.20333000  0.10307000  1.0
  C  C102  1  0.19973000  0.15183000  0.21005000  1.0
  C  C103  1  0.10760000  0.12273000  0.19475000  1.0
  C  C104  1  0.90523000  0.10696000  0.07894000  1.0
  C  C105  1  0.20271000  0.13797000  0.12909000  1.0
  C  C106  1  0.10855000  0.19920000  0.10598000  1.0
  C  C107  1  0.05429000  0.11999000  0.10922000  1.0
  C  C108  1  0.04136000  0.04779000  0.04017000  1.0
  C  C109  1  0.12707000  0.05083000  0.06239000  1.0
  C  C110  1  0.65158000  0.23474000  0.14030000  1.0
  C  C111  1  0.97285000  0.11173000  0.09277000  1.0
  C  C112  1  0.28062000  0.13883000  0.14092000  1.0
  C  C113  1  0.33298000  0.12130000  0.13741000  1.0
  C  C114  1  0.38037000  0.01781000  0.11287000  1.0
  C  C115  1  0.37748000  0.08878000  0.11246000  1.0
  C  C116  1  0.66402000  0.86536000  0.04598000  1.0
  C  C117  1  0.64115000  0.50893000  0.97090000  1.0
  C  C118  1  0.89952000  0.67372000  0.56035000  1.0
  C  C119  1  0.96831000  0.66234000  0.48326000  1.0
  C  C120  1  0.92123000  0.39042000  0.40464000  1.0
  C  C121  1  0.94043000  0.50359000  0.65558000  1.0
  C  C122  1  0.44706000  0.71473000  0.50307000  1.0
  C  C123  1  0.62741000  0.01204000  0.63640000  1.0
  C  C124  1  0.64167000  0.89984000  0.64670000  1.0
  C  C125  1  0.35213000  0.88210000  0.47667000  1.0
  C  C126  1  0.40845000  0.92003000  0.36547000  1.0
  C  C127  1  0.36042000  0.72567000  0.32623000  1.0
  C  C128  1  0.26209000  0.29320000  0.15715000  1.0
  C  C129  1  0.10985000  0.18208000  0.26592000  1.0
  C  C130  1  0.06686000  0.03747000  0.19262000  1.0
  C  C131  1  0.17522000  0.19180000  0.01636000  1.0
  C  C132  1  0.32210000  0.13674000  0.88123000  1.0
  C  C133  1  0.68415000  0.29683000  0.11397000  1.0
  C  C134  1  0.35448000  0.97215000  0.15594000  1.0
  C  C135  1  0.31400000  0.89218000  0.70040000  1.0
  N  N136  1  0.41987000  0.04517000  0.02718000  1.0
  N  N137  1  0.55727000  0.90928000  0.00918000  1.0
  N  N138  1  0.29499000  0.83980000  0.91025000  1.0
  N  N139  1  0.70139000  0.09330000  0.02958000  1.0
  N  N140  1  0.72132000  0.07817000  0.09738000  1.0
  N  N141  1  0.27899000  0.88935000  0.87544000  1.0
  N  N142  1  0.51686000  0.98636000  0.88434000  1.0
  N  N143  1  0.47346000  0.87537000  0.95524000  1.0
  N  N144  1  0.60146000  0.11239000  0.13613000  1.0
  N  N145  1  0.48597000  0.88892000  0.11261000  1.0
  N  N146  1  0.51679000  0.13996000  0.91648000  1.0
  N  N147  1  0.56827000  0.95606000  0.16344000  1.0
  N  N148  1  0.43843000  0.10938000  0.90841000  1.0
  N  N149  1  0.61371000  0.15429000  0.09219000  1.0
  N  N150  1  0.40550000  0.99305000  0.06054000  1.0
  N  N151  1  0.43261000  0.96038000  0.84387000  1.0
  O  O152  1  0.69613000  0.82600000  0.02914000  1.0
  O  O153  1  0.70036000  0.92363000  0.12477000  1.0
  O  O154  1  0.69671000  0.50966000  0.95627000  1.0
  O  O155  1  0.64171000  0.50781000  0.04010000  1.0
  O  O156  1  0.95521000  0.73560000  0.62336000  1.0
  O  O157  1  0.81754000  0.65647000  0.52048000  1.0
  O  O158  1  0.93514000  0.66631000  0.41947000  1.0
  O  O159  1  0.05257000  0.70552000  0.53808000  1.0
  O  O160  1  0.92137000  0.34878000  0.44136000  1.0
  O  O161  1  0.92101000  0.37228000  0.33369000  1.0
  O  O162  1  0.97479000  0.46303000  0.65269000  1.0
  O  O163  1  0.93734000  0.53965000  0.72149000  1.0
  O  O164  1  0.39248000  0.64296000  0.46396000  1.0
  O  O165  1  0.52346000  0.74327000  0.57017000  1.0
  O  O166  1  0.59271000  0.04513000  0.65880000  1.0
  O  O167  1  0.71132000  0.05190000  0.66202000  1.0
  O  O168  1  0.64688000  0.91213000  0.71267000  1.0
  O  O169  1  0.69084000  0.87662000  0.62514000  1.0
  O  O170  1  0.30165000  0.81911000  0.47047000  1.0
  O  O171  1  0.33110000  0.93741000  0.45995000  1.0
  O  O172  1  0.34570000  0.85422000  0.31151000  1.0
  O  O173  1  0.42951000  0.99132000  0.36314000  1.0
  O  O174  1  0.29288000  0.69711000  0.32386000  1.0
  O  O175  1  0.36929000  0.71057000  0.26008000  1.0
  O  O176  1  0.26414000  0.34582000  0.13488000  1.0
  O  O177  1  0.32254000  0.30718000  0.22995000  1.0
  O  O178  1  0.05522000  0.19868000  0.26231000  1.0
  O  O179  1  0.18295000  0.21121000  0.33739000  1.0
  O  O180  1  0.08584000  0.98596000  0.17554000  1.0
  O  O181  1  0.00579000  0.02666000  0.21269000  1.0
  O  O182  1  0.11507000  0.18753000  0.96263000  1.0
  O  O183  1  0.24301000  0.19345000  0.01234000  1.0
  O  O184  1  0.29381000  0.18279000  0.88569000  1.0
  O  O185  1  0.27918000  0.05884000  0.87224000  1.0
  O  O186  1  0.69761000  0.36616000  0.14095000  1.0
  O  O187  1  0.70088000  0.26652000  0.05483000  1.0
  O  O188  1  0.35488000  0.00157000  0.21916000  1.0
  O  O189  1  0.32800000  0.89190000  0.11695000  1.0
  O  O190  1  0.27304000  0.83998000  0.62979000  1.0
  O  O191  1  0.28533000  0.94046000  0.73007000  1.0
  F  F192  1  0.23014000  0.70271000  0.87812000  1.0
  F  F193  1  0.76286000  0.12314000  0.95311000  1.0
  F  F194  1  0.36426000  0.42350000  0.89167000  1.0
  F  F195  1  0.62846000  0.14427000  0.26898000  1.0
  F  F196  1  0.85056000  0.55517000  0.60068000  1.0
  F  F197  1  0.39295000  0.78720000  0.12545000  1.0
  F  F198  1  0.93482000  0.51051000  0.38878000  1.0
  F  F199  1  0.06791000  0.57080000  0.53207000  1.0
  F  F200  1  0.49240000  0.73583000  0.39782000  1.0
  F  F201  1  0.60153000  0.24513000  0.89950000  1.0
  F  F202  1  0.66193000  0.96053000  0.51135000  1.0
  F  F203  1  0.54623000  0.00635000  0.48546000  1.0
  F  F204  1  0.13511000  0.26619000  0.17670000  1.0
  F  F205  1  0.23787000  0.11560000  0.25078000  1.0
  F  F206  1  0.67573000  0.01621000  0.29793000  1.0
  F  F207  1  0.13193000  0.02808000  0.99178000  1.0
  F  F208  1  0.00807000  0.05322000  0.96808000  1.0
  F  F209  1  0.98138000  0.97401000  0.02697000  1.0
