# generated using pymatgen
data_AgH9C11N4O5
_symmetry_space_group_name_H-M   'P 1'
_cell_length_a   6.45488000
_cell_length_b   7.40508000
_cell_length_c   12.88590000
_cell_angle_alpha   78.77790000
_cell_angle_beta   86.65260000
_cell_angle_gamma   79.26420000
_symmetry_Int_Tables_number   1
_chemical_formula_structural   AgH9C11N4O5
_chemical_formula_sum   'Ag2 H18 C22 N8 O10'
_cell_volume   593.42396186
_cell_formula_units_Z   2
loop_
 _symmetry_equiv_pos_site_id
 _symmetry_equiv_pos_as_xyz
  1  'x, y, z'
loop_
 _atom_site_type_symbol
 _atom_site_label
 _atom_site_symmetry_multiplicity
 _atom_site_fract_x
 _atom_site_fract_y
 _atom_site_fract_z
 _atom_site_occupancy
  Ag  Ag0  1  0.47387000  0.16960000  0.55545000  1.0
  Ag  Ag1  1  0.52615000  0.83039000  0.44455000  1.0
  H  H2  1  0.72832000  0.59855000  0.04366000  1.0
  H  H3  1  0.27169000  0.40146000  0.95634000  1.0
  H  H4  1  0.08785000  0.31207000  0.45292000  1.0
  H  H5  1  0.91216000  0.68792000  0.54708000  1.0
  H  H6  1  0.80965000  0.34442000  0.46146000  1.0
  H  H7  1  0.19036000  0.65558000  0.53853000  1.0
  H  H8  1  0.02994000  0.58328000  0.30218000  1.0
  H  H9  1  0.97007000  0.41672000  0.69782000  1.0
  H  H10  1  0.86724000  0.79864000  0.14174000  1.0
  H  H11  1  0.13275000  0.20135000  0.85827000  1.0
  H  H12  1  0.10903000  0.88529000  0.98451000  1.0
  H  H13  1  0.89096000  0.11471000  0.01549000  1.0
  H  H14  1  0.34150000  0.86374000  0.72624000  1.0
  H  H15  1  0.65849000  0.13626000  0.27376000  1.0
  H  H16  1  0.02268000  0.75290000  0.82112000  1.0
  H  H17  1  0.97733000  0.24710000  0.17888000  1.0
  H  H18  1  0.66805000  0.91693000  0.75070000  1.0
  H  H19  1  0.33196000  0.08306000  0.24930000  1.0
  C  C20  1  0.44595000  0.45259000  0.33937000  1.0
  C  C21  1  0.55405000  0.54741000  0.66063000  1.0
  C  C22  1  0.34360000  0.56147000  0.23729000  1.0
  C  C23  1  0.65639000  0.43854000  0.76271000  1.0
  C  C24  1  0.12691000  0.62687000  0.23320000  1.0
  C  C25  1  0.87309000  0.37314000  0.76680000  1.0
  C  C26  1  0.03586000  0.74535000  0.14377000  1.0
  C  C27  1  0.96413000  0.25465000  0.85624000  1.0
  C  C28  1  0.16698000  0.79481000  0.05770000  1.0
  C  C29  1  0.83300000  0.20519000  0.94230000  1.0
  C  C30  1  0.38165000  0.72511000  0.06028000  1.0
  C  C31  1  0.61834000  0.27488000  0.93972000  1.0
  C  C32  1  0.51972000  0.78233000  0.96657000  1.0
  C  C33  1  0.48027000  0.21767000  0.03343000  1.0
  C  C34  1  0.97081000  0.14383000  0.57820000  1.0
  C  C35  1  0.02920000  0.85616000  0.42179000  1.0
  C  C36  1  0.18294000  0.92621000  0.69963000  1.0
  C  C37  1  0.81706000  0.07379000  0.30037000  1.0
  C  C38  1  0.00802000  0.86442000  0.75211000  1.0
  C  C39  1  0.99198000  0.13558000  0.24789000  1.0
  C  C40  1  0.81292000  0.95230000  0.71142000  1.0
  C  C41  1  0.18708000  0.04770000  0.28858000  1.0
  N  N42  1  0.46665000  0.60362000  0.14880000  1.0
  N  N43  1  0.53335000  0.39639000  0.85120000  1.0
  N  N44  1  0.79188000  0.08725000  0.62438000  1.0
  N  N45  1  0.20812000  0.91274000  0.37561000  1.0
  N  N46  1  0.16751000  0.06653000  0.61565000  1.0
  N  N47  1  0.83249000  0.93346000  0.38434000  1.0
  N  N48  1  0.95355000  0.28238000  0.49384000  1.0
  N  N49  1  0.04645000  0.71761000  0.50616000  1.0
  O  O50  1  0.35016000  0.32284000  0.38695000  1.0
  O  O51  1  0.64985000  0.67717000  0.61305000  1.0
  O  O52  1  0.60374000  0.50234000  0.37018000  1.0
  O  O53  1  0.39628000  0.49765000  0.62982000  1.0
  O  O54  1  0.66711000  0.52163000  0.14768000  1.0
  O  O55  1  0.33288000  0.47837000  0.85233000  1.0
  O  O56  1  0.71597000  0.68836000  0.96746000  1.0
  O  O57  1  0.28402000  0.31166000  0.03254000  1.0
  O  O58  1  0.44931000  0.91042000  0.89444000  1.0
  O  O59  1  0.55067000  0.08959000  0.10556000  1.0
