# generated using pymatgen
data_CuH12C20IN2
_symmetry_space_group_name_H-M   'P 1'
_cell_length_a   10.97080000
_cell_length_b   12.17180000
_cell_length_c   13.24210000
_cell_angle_alpha   90.00000000
_cell_angle_beta   106.41400000
_cell_angle_gamma   90.00000000
_symmetry_Int_Tables_number   1
_chemical_formula_structural   CuH12C20IN2
_chemical_formula_sum   'Cu4 H48 C80 I4 N8'
_cell_volume   1696.20950821
_cell_formula_units_Z   4
loop_
 _symmetry_equiv_pos_site_id
 _symmetry_equiv_pos_as_xyz
  1  'x, y, z'
loop_
 _atom_site_type_symbol
 _atom_site_label
 _atom_site_symmetry_multiplicity
 _atom_site_fract_x
 _atom_site_fract_y
 _atom_site_fract_z
 _atom_site_occupancy
  Cu  Cu0  1  0.87334000  0.01653000  0.99320000  1.0
  Cu  Cu1  1  0.62666000  0.51653000  0.50680000  1.0
  Cu  Cu2  1  0.12666000  0.98348000  0.00680000  1.0
  Cu  Cu3  1  0.37334000  0.48347000  0.49320000  1.0
  H  H4  1  0.94081000  0.19373000  0.15396000  1.0
  H  H5  1  0.55919000  0.69373000  0.34604000  1.0
  H  H6  1  0.05919000  0.80627000  0.84604000  1.0
  H  H7  1  0.44081000  0.30627000  0.65396000  1.0
  H  H8  1  0.84771000  0.27843000  0.28792000  1.0
  H  H9  1  0.65230000  0.77844000  0.21208000  1.0
  H  H10  1  0.15230000  0.72156000  0.71208000  1.0
  H  H11  1  0.34770000  0.22156000  0.78792000  1.0
  H  H12  1  0.64757000  0.19776000  0.31400000  1.0
  H  H13  1  0.85243000  0.69777000  0.18600000  1.0
  H  H14  1  0.35244000  0.80223000  0.68600000  1.0
  H  H15  1  0.14757000  0.30223000  0.81400000  1.0
  H  H16  1  0.55403000  0.03105000  0.20661000  1.0
  H  H17  1  0.94597000  0.53106000  0.29339000  1.0
  H  H18  1  0.44597000  0.96894000  0.79339000  1.0
  H  H19  1  0.05402000  0.46895000  0.70661000  1.0
  H  H20  1  0.67216000  0.72940000  0.87591000  1.0
  H  H21  1  0.82785000  0.22940000  0.62410000  1.0
  H  H22  1  0.32784000  0.27060000  0.12410000  1.0
  H  H23  1  0.17216000  0.77060000  0.37590000  1.0
  H  H24  1  0.56040000  0.56278000  0.78510000  1.0
  H  H25  1  0.93961000  0.06278000  0.71490000  1.0
  H  H26  1  0.43960000  0.43722000  0.21490000  1.0
  H  H27  1  0.06040000  0.93722000  0.28510000  1.0
  H  H28  1  0.37447000  0.48812000  0.83492000  1.0
  H  H29  1  0.12554000  0.98812000  0.66508000  1.0
  H  H30  1  0.62554000  0.51188000  0.16509000  1.0
  H  H31  1  0.87446000  0.01188000  0.33492000  1.0
  H  H32  1  0.29228000  0.58372000  0.96734000  1.0
  H  H33  1  0.20773000  0.08372000  0.53266000  1.0
  H  H34  1  0.70772000  0.41628000  0.03266000  1.0
  H  H35  1  0.79227000  0.91628000  0.46734000  1.0
  H  H36  1  0.43788000  0.83181000  0.33995000  1.0
  H  H37  1  0.06211000  0.33182000  0.16004000  1.0
  H  H38  1  0.56211000  0.16818000  0.66004000  1.0
  H  H39  1  0.93789000  0.66819000  0.83996000  1.0
  H  H40  1  0.40224000  0.97961000  0.45782000  1.0
  H  H41  1  0.09776000  0.47962000  0.04218000  1.0
  H  H42  1  0.59776000  0.02038000  0.54218000  1.0
  H  H43  1  0.90224000  0.52038000  0.95782000  1.0
  H  H44  1  0.27384000  0.14660000  0.37524000  1.0
  H  H45  1  0.22617000  0.64660000  0.12476000  1.0
  H  H46  1  0.72617000  0.85340000  0.62477000  1.0
  H  H47  1  0.77384000  0.35340000  0.87524000  1.0
  H  H48  1  0.16842000  0.14436000  0.18132000  1.0
  H  H49  1  0.33158000  0.64436000  0.31868000  1.0
  H  H50  1  0.83158000  0.85564000  0.81868000  1.0
  H  H51  1  0.66843000  0.35564000  0.68132000  1.0
  C  C52  1  0.85612000  0.15967000  0.16978000  1.0
  C  C53  1  0.64388000  0.65967000  0.33022000  1.0
  C  C54  1  0.14388000  0.84033000  0.83022000  1.0
  C  C55  1  0.35612000  0.34033000  0.66978000  1.0
  C  C56  1  0.80315000  0.20688000  0.24325000  1.0
  C  C57  1  0.69686000  0.70689000  0.25676000  1.0
  C  C58  1  0.19686000  0.79311000  0.75676000  1.0
  C  C59  1  0.30314000  0.29311000  0.74324000  1.0
  C  C60  1  0.69247000  0.16143000  0.25805000  1.0
  C  C61  1  0.80753000  0.66143000  0.24195000  1.0
  C  C62  1  0.30754000  0.83857000  0.74195000  1.0
  C  C63  1  0.19247000  0.33857000  0.75805000  1.0
  C  C64  1  0.64056000  0.06962000  0.19904000  1.0
  C  C65  1  0.85944000  0.56962000  0.30096000  1.0
  C  C66  1  0.35944000  0.93038000  0.80096000  1.0
  C  C67  1  0.14056000  0.43038000  0.69904000  1.0
  C  C68  1  0.69988000  0.02563000  0.12657000  1.0
  C  C69  1  0.80012000  0.52563000  0.37343000  1.0
  C  C70  1  0.30012000  0.97437000  0.87343000  1.0
  C  C71  1  0.19987000  0.47437000  0.62658000  1.0
  C  C72  1  0.64902000  0.93192000  0.06661000  1.0
  C  C73  1  0.85098000  0.43192000  0.43339000  1.0
  C  C74  1  0.35098000  0.06808000  0.93339000  1.0
  C  C75  1  0.14902000  0.56808000  0.56661000  1.0
  C  C76  1  0.60222000  0.84889000  0.02002000  1.0
  C  C77  1  0.89778000  0.34889000  0.47998000  1.0
  C  C78  1  0.39778000  0.15110000  0.97998000  1.0
  C  C79  1  0.10222000  0.65110000  0.52002000  1.0
  C  C80  1  0.54389000  0.75223000  0.97069000  1.0
  C  C81  1  0.95611000  0.25223000  0.52931000  1.0
  C  C82  1  0.45610000  0.24777000  0.02931000  1.0
  C  C83  1  0.04389000  0.74777000  0.47069000  1.0
  C  C84  1  0.58886000  0.69693000  0.89508000  1.0
  C  C85  1  0.91114000  0.19693000  0.60492000  1.0
  C  C86  1  0.41114000  0.30307000  0.10492000  1.0
  C  C87  1  0.08886000  0.80306000  0.39508000  1.0
  C  C88  1  0.52698000  0.60340000  0.84553000  1.0
  C  C89  1  0.97302000  0.10340000  0.65446000  1.0
  C  C90  1  0.47302000  0.39660000  0.15447000  1.0
  C  C91  1  0.02698000  0.89660000  0.34553000  1.0
  C  C92  1  0.42117000  0.56240000  0.87230000  1.0
  C  C93  1  0.07883000  0.06240000  0.62770000  1.0
  C  C94  1  0.57883000  0.43760000  0.12770000  1.0
  C  C95  1  0.92117000  0.93760000  0.37230000  1.0
  C  C96  1  0.37520000  0.61555000  0.94715000  1.0
  C  C97  1  0.12480000  0.11555000  0.55285000  1.0
  C  C98  1  0.62480000  0.38445000  0.05285000  1.0
  C  C99  1  0.87520000  0.88445000  0.44715000  1.0
  C  C100  1  0.43445000  0.71123000  0.99693000  1.0
  C  C101  1  0.06555000  0.21123000  0.50307000  1.0
  C  C102  1  0.56555000  0.28877000  0.00307000  1.0
  C  C103  1  0.93445000  0.78877000  0.49693000  1.0
  C  C104  1  0.38770000  0.77162000  0.06952000  1.0
  C  C105  1  0.11230000  0.27162000  0.43048000  1.0
  C  C106  1  0.61230000  0.22838000  0.93048000  1.0
  C  C107  1  0.88771000  0.72838000  0.56952000  1.0
  C  C108  1  0.35215000  0.83339000  0.12811000  1.0
  C  C109  1  0.14784000  0.33339000  0.37189000  1.0
  C  C110  1  0.64785000  0.16661000  0.87189000  1.0
  C  C111  1  0.85215000  0.66666667  0.62812000  1.0
  C  C112  1  0.32372000  0.91114000  0.19814000  1.0
  C  C113  1  0.17628000  0.41114000  0.30185000  1.0
  C  C114  1  0.67628000  0.08886000  0.80185000  1.0
  C  C115  1  0.82372000  0.58886000  0.69815000  1.0
  C  C116  1  0.38002000  0.90300000  0.30721000  1.0
  C  C117  1  0.11997000  0.40301000  0.19279000  1.0
  C  C118  1  0.61997000  0.09700000  0.69279000  1.0
  C  C119  1  0.88003000  0.59700000  0.80721000  1.0
  C  C120  1  0.36082000  0.98628000  0.37291000  1.0
  C  C121  1  0.13918000  0.48629000  0.12709000  1.0
  C  C122  1  0.63918000  0.01371000  0.62709000  1.0
  C  C123  1  0.86082000  0.51372000  0.87291000  1.0
  C  C124  1  0.28789000  0.07710000  0.32808000  1.0
  C  C125  1  0.21211000  0.57710000  0.17192000  1.0
  C  C126  1  0.71211000  0.92290000  0.67192000  1.0
  C  C127  1  0.78789000  0.42290000  0.82808000  1.0
  C  C128  1  0.23043000  0.07732000  0.21994000  1.0
  C  C129  1  0.26957000  0.57733000  0.28006000  1.0
  C  C130  1  0.76957000  0.92268000  0.78006000  1.0
  C  C131  1  0.73043000  0.42268000  0.71994000  1.0
  I  I132  1  0.97680000  0.81850000  0.03958000  1.0
  I  I133  1  0.52319000  0.31849000  0.46042000  1.0
  I  I134  1  0.02319000  0.18151000  0.96042000  1.0
  I  I135  1  0.47680000  0.68150000  0.53958000  1.0
  N  N136  1  0.80711000  0.07121000  0.11135000  1.0
  N  N137  1  0.69289000  0.57121000  0.38865000  1.0
  N  N138  1  0.19289000  0.92879000  0.88865000  1.0
  N  N139  1  0.30710000  0.42879000  0.61135000  1.0
  N  N140  1  0.24449000  0.99606000  0.15514000  1.0
  N  N141  1  0.25551000  0.49606000  0.34486000  1.0
  N  N142  1  0.75552000  0.00394000  0.84486000  1.0
  N  N143  1  0.74449000  0.50394000  0.65514000  1.0
