# generated using pymatgen
data_KAgH10C14S2N2O7
_symmetry_space_group_name_H-M   'P 1'
_cell_length_a   7.39641000
_cell_length_b   9.56047000
_cell_length_c   13.54752009
_cell_angle_alpha   80.99696758
_cell_angle_beta   74.43289526
_cell_angle_gamma   68.47140000
_symmetry_Int_Tables_number   1
_chemical_formula_structural   KAgH10C14S2N2O7
_chemical_formula_sum   'K2 Ag2 H20 C28 S4 N4 O14'
_cell_volume   856.66268373
_cell_formula_units_Z   2
loop_
 _symmetry_equiv_pos_site_id
 _symmetry_equiv_pos_as_xyz
  1  'x, y, z'
loop_
 _atom_site_type_symbol
 _atom_site_label
 _atom_site_symmetry_multiplicity
 _atom_site_fract_x
 _atom_site_fract_y
 _atom_site_fract_z
 _atom_site_occupancy
  K  K0  1  0.38342000  0.72912000  0.42289000  1.0
  K  K1  1  0.61657000  0.27088000  0.57711000  1.0
  Ag  Ag2  1  0.15859000  0.18198000  0.55000000  1.0
  Ag  Ag3  1  0.84142000  0.81803000  0.45000000  1.0
  H  H4  1  0.18681000  0.74016000  0.21768000  1.0
  H  H5  1  0.81318000  0.25984000  0.78232000  1.0
  H  H6  1  0.38710000  0.76675000  0.21077000  1.0
  H  H7  1  0.61289000  0.23325000  0.78923000  1.0
  H  H8  1  0.59528000  0.59035000  0.72482000  1.0
  H  H9  1  0.40472000  0.40965000  0.27517000  1.0
  H  H10  1  0.79446000  0.57408000  0.16620000  1.0
  H  H11  1  0.20553000  0.42592000  0.83379000  1.0
  H  H12  1  0.65968000  0.50768000  0.89804000  1.0
  H  H13  1  0.34032000  0.49232000  0.10196000  1.0
  H  H14  1  0.85009000  0.43531000  0.01225000  1.0
  H  H15  1  0.14991000  0.56468000  0.98775000  1.0
  H  H16  1  0.01547000  0.16099000  0.01202000  1.0
  H  H17  1  0.98453000  0.83900000  0.98798000  1.0
  H  H18  1  0.13895000  0.01393000  0.16690000  1.0
  H  H19  1  0.86104000  0.98607000  0.83311000  1.0
  H  H20  1  0.54553000  0.69157000  0.03286000  1.0
  H  H21  1  0.45447000  0.30843000  0.96714000  1.0
  H  H22  1  0.36145000  0.96373000  0.99425000  1.0
  H  H23  1  0.63855000  0.03626000  0.00575000  1.0
  C  C24  1  0.44374000  0.82337000  0.76165000  1.0
  C  C25  1  0.55626000  0.17663000  0.23835000  1.0
  C  C26  1  0.37954000  0.92518000  0.83784000  1.0
  C  C27  1  0.62045000  0.07482000  0.16216000  1.0
  C  C28  1  0.93979000  0.36870000  0.24911000  1.0
  C  C29  1  0.06021000  0.63130000  0.75089000  1.0
  C  C30  1  0.54491000  0.67175000  0.78279000  1.0
  C  C31  1  0.45510000  0.32824000  0.21721000  1.0
  C  C32  1  0.03626000  0.21297000  0.25003000  1.0
  C  C33  1  0.96374000  0.78703000  0.74998000  1.0
  C  C34  1  0.87082000  0.45281000  0.16517000  1.0
  C  C35  1  0.12918000  0.54719000  0.83483000  1.0
  C  C36  1  0.58115000  0.62647000  0.88109000  1.0
  C  C37  1  0.41885000  0.37353000  0.11890000  1.0
  C  C38  1  0.38716000  0.89801000  0.66357000  1.0
  C  C39  1  0.61285000  0.10198000  0.33643000  1.0
  C  C40  1  0.90184000  0.37381000  0.07987000  1.0
  C  C41  1  0.09816000  0.62618000  0.92013000  1.0
  C  C42  1  0.99774000  0.21766000  0.07950000  1.0
  C  C43  1  0.00226000  0.78233000  0.92051000  1.0
  C  C44  1  0.06677000  0.13570000  0.16489000  1.0
  C  C45  1  0.93323000  0.86430000  0.83512000  1.0
  C  C46  1  0.09707000  0.14863000  0.34823000  1.0
  C  C47  1  0.90293000  0.85138000  0.65177000  1.0
  C  C48  1  0.51702000  0.72977000  0.95653000  1.0
  C  C49  1  0.48298000  0.27023000  0.04347000  1.0
  C  C50  1  0.41319000  0.88260000  0.93582000  1.0
  C  C51  1  0.58681000  0.11740000  0.06418000  1.0
  S  S52  1  0.92687000  0.42733000  0.36983000  1.0
  S  S53  1  0.07312000  0.57267000  0.63017000  1.0
  S  S54  1  0.25670000  0.10503000  0.78421000  1.0
  S  S55  1  0.74331000  0.89497000  0.21578000  1.0
  N  N56  1  0.28413000  0.05052000  0.67133000  1.0
  N  N57  1  0.71588000  0.94948000  0.32866000  1.0
  N  N58  1  0.04378000  0.25752000  0.41627000  1.0
  N  N59  1  0.95622000  0.74249000  0.58373000  1.0
  O  O60  1  0.03717000  0.52883000  0.35953000  1.0
  O  O61  1  0.96283000  0.47117000  0.64046000  1.0
  O  O62  1  0.04672000  0.16496000  0.83665000  1.0
  O  O63  1  0.95329000  0.83504000  0.16335000  1.0
  O  O64  1  0.36835000  0.20556000  0.77804000  1.0
  O  O65  1  0.63165000  0.79444000  0.22195000  1.0
  O  O66  1  0.71983000  0.48188000  0.42806000  1.0
  O  O67  1  0.28016000  0.51812000  0.57195000  1.0
  O  O68  1  0.42601000  0.83157000  0.58497000  1.0
  O  O69  1  0.57400000  0.16843000  0.41503000  1.0
  O  O70  1  0.18719000  0.01290000  0.36637000  1.0
  O  O71  1  0.81281000  0.98710000  0.63364000  1.0
  O  O72  1  0.31936000  0.69286000  0.23279000  1.0
  O  O73  1  0.68063000  0.30714000  0.76721000  1.0
