# generated using pymatgen
data_Cu2H10C9Br2N3
_symmetry_space_group_name_H-M   'P 1'
_cell_length_a   9.82086000
_cell_length_b   9.83712000
_cell_length_c   12.93950000
_cell_angle_alpha   92.93450000
_cell_angle_beta   92.93930000
_cell_angle_gamma   101.02300000
_symmetry_Int_Tables_number   1
_chemical_formula_structural   Cu2H10C9Br2N3
_chemical_formula_sum   'Cu8 H40 C36 Br8 N12'
_cell_volume   1223.01965303
_cell_formula_units_Z   4
loop_
 _symmetry_equiv_pos_site_id
 _symmetry_equiv_pos_as_xyz
  1  'x, y, z'
loop_
 _atom_site_type_symbol
 _atom_site_label
 _atom_site_symmetry_multiplicity
 _atom_site_fract_x
 _atom_site_fract_y
 _atom_site_fract_z
 _atom_site_occupancy
  Cu  Cu0  1  0.99816000  0.86523000  0.47540000  1.0
  Cu  Cu1  1  0.13477000  0.00149000  0.02472000  1.0
  Cu  Cu2  1  0.00185000  0.13477000  0.52460000  1.0
  Cu  Cu3  1  0.86522000  0.99850000  0.97528000  1.0
  Cu  Cu4  1  0.08546000  0.12101000  0.32620000  1.0
  Cu  Cu5  1  0.87902000  0.91450000  0.17398000  1.0
  Cu  Cu6  1  0.91453000  0.87899000  0.67380000  1.0
  Cu  Cu7  1  0.12098000  0.08550000  0.82602000  1.0
  H  H8  1  0.57615000  0.86184000  0.27339000  1.0
  H  H9  1  0.13807000  0.42413000  0.22647000  1.0
  H  H10  1  0.42386000  0.13817000  0.72661000  1.0
  H  H11  1  0.86193000  0.57587000  0.77353000  1.0
  H  H12  1  0.59537000  0.64485000  0.35819000  1.0
  H  H13  1  0.35535000  0.40493000  0.14171000  1.0
  H  H14  1  0.40465000  0.35516000  0.64181000  1.0
  H  H15  1  0.64464000  0.59507000  0.85829000  1.0
  H  H16  1  0.40579000  0.52476000  0.45987000  1.0
  H  H17  1  0.47571000  0.59422000  0.04005000  1.0
  H  H18  1  0.59422000  0.47525000  0.54013000  1.0
  H  H19  1  0.52428000  0.40578000  0.95995000  1.0
  H  H20  1  0.19591000  0.62630000  0.48984000  1.0
  H  H21  1  0.37407000  0.80383000  0.01010000  1.0
  H  H22  1  0.80411000  0.37370000  0.51017000  1.0
  H  H23  1  0.62592000  0.19617000  0.98990000  1.0
  H  H24  1  0.44226000  0.02990000  0.17596000  1.0
  H  H25  1  0.97014000  0.55799000  0.32414000  1.0
  H  H26  1  0.55774000  0.97010000  0.82404000  1.0
  H  H27  1  0.02986000  0.44201000  0.67587000  1.0
  H  H28  1  0.32199000  0.13754000  0.20584000  1.0
  H  H29  1  0.86209000  0.67783000  0.29419000  1.0
  H  H30  1  0.67800000  0.86246000  0.79416000  1.0
  H  H31  1  0.13791000  0.32217000  0.70581000  1.0
  H  H32  1  0.47631000  0.25610000  0.35373000  1.0
  H  H33  1  0.74369000  0.52351000  0.14626000  1.0
  H  H34  1  0.52368000  0.74390000  0.64627000  1.0
  H  H35  1  0.25631000  0.47649000  0.85374000  1.0
  H  H36  1  0.58676000  0.13399000  0.34401000  1.0
  H  H37  1  0.86630000  0.41358000  0.15605000  1.0
  H  H38  1  0.41323000  0.86601000  0.65599000  1.0
  H  H39  1  0.13370000  0.58642000  0.84395000  1.0
  H  H40  1  0.54140000  0.32611000  0.17089000  1.0
  H  H41  1  0.67367000  0.45831000  0.32912000  1.0
  H  H42  1  0.45860000  0.67390000  0.82911000  1.0
  H  H43  1  0.32633000  0.54169000  0.67089000  1.0
  H  H44  1  0.65714000  0.20933000  0.17276000  1.0
  H  H45  1  0.79087000  0.34300000  0.32721000  1.0
  H  H46  1  0.34285000  0.79067000  0.82724000  1.0
  H  H47  1  0.20912000  0.65700000  0.67279000  1.0
  C  C48  1  0.27083000  0.80222000  0.39947000  1.0
  C  C49  1  0.19795000  0.72911000  0.10055000  1.0
  C  C50  1  0.72918000  0.19778000  0.60053000  1.0
  C  C51  1  0.80204000  0.27089000  0.89945000  1.0
  C  C52  1  0.37662000  0.86713000  0.33838000  1.0
  C  C53  1  0.13291000  0.62350000  0.16162000  1.0
  C  C54  1  0.62339000  0.13287000  0.66162000  1.0
  C  C55  1  0.86708000  0.37650000  0.83838000  1.0
  C  C56  1  0.49520000  0.81211000  0.32093000  1.0
  C  C57  1  0.18787000  0.50501000  0.17897000  1.0
  C  C58  1  0.50481000  0.18790000  0.67907000  1.0
  C  C59  1  0.81212000  0.49499000  0.82102000  1.0
  C  C60  1  0.50354000  0.69012000  0.36802000  1.0
  C  C61  1  0.31006000  0.49664000  0.13190000  1.0
  C  C62  1  0.49647000  0.30989000  0.63198000  1.0
  C  C63  1  0.68994000  0.50336000  0.86810000  1.0
  C  C64  1  0.39702000  0.62329000  0.42799000  1.0
  C  C65  1  0.37704000  0.60299000  0.07195000  1.0
  C  C66  1  0.60300000  0.37672000  0.57201000  1.0
  C  C67  1  0.62296000  0.39701000  0.92805000  1.0
  C  C68  1  0.27933000  0.67776000  0.44505000  1.0
  C  C69  1  0.32255000  0.72054000  0.05490000  1.0
  C  C70  1  0.72068000  0.32224000  0.55495000  1.0
  C  C71  1  0.67745000  0.27946000  0.94510000  1.0
  C  C72  1  0.40230000  0.08628000  0.23969000  1.0
  C  C73  1  0.91359000  0.59776000  0.26038000  1.0
  C  C74  1  0.59770000  0.91372000  0.76031000  1.0
  C  C75  1  0.08640000  0.40223000  0.73962000  1.0
  C  C76  1  0.52034000  0.19020000  0.29829000  1.0
  C  C77  1  0.80978000  0.47972000  0.20174000  1.0
  C  C78  1  0.47965000  0.80980000  0.70171000  1.0
  C  C79  1  0.19021000  0.52028000  0.79826000  1.0
  C  C80  1  0.60869000  0.27818000  0.22283000  1.0
  C  C81  1  0.72181000  0.39128000  0.27716000  1.0
  C  C82  1  0.39131000  0.72182000  0.77717000  1.0
  C  C83  1  0.27819000  0.60871000  0.72284000  1.0
  Br  Br84  1  0.83876000  0.96806000  0.36085000  1.0
  Br  Br85  1  0.03214000  0.16104000  0.13919000  1.0
  Br  Br86  1  0.16125000  0.03194000  0.63915000  1.0
  Br  Br87  1  0.96787000  0.83896000  0.86080000  1.0
  Br  Br88  1  0.90163000  0.66867000  0.56765000  1.0
  Br  Br89  1  0.33141000  0.09827000  0.93239000  1.0
  Br  Br90  1  0.09837000  0.33132000  0.43235000  1.0
  Br  Br91  1  0.66859000  0.90173000  0.06761000  1.0
  N  N92  1  0.33191000  0.98197000  0.30520000  1.0
  N  N93  1  0.01801000  0.66821000  0.19491000  1.0
  N  N94  1  0.66810000  0.01803000  0.69480000  1.0
  N  N95  1  0.98199000  0.33179000  0.80509000  1.0
  N  N96  1  0.20710000  0.98816000  0.34314000  1.0
  N  N97  1  0.01185000  0.79286000  0.15704000  1.0
  N  N98  1  0.79290000  0.01184000  0.65686000  1.0
  N  N99  1  0.98814000  0.20713000  0.84296000  1.0
  N  N100  1  0.16913000  0.88056000  0.39974000  1.0
  N  N101  1  0.11958000  0.83074000  0.10038000  1.0
  N  N102  1  0.83088000  0.11945000  0.60027000  1.0
  N  N103  1  0.88041000  0.16926000  0.89962000  1.0
