# generated using pymatgen
data_Ag2H11C10N5O4
_symmetry_space_group_name_H-M   'P 1'
_cell_length_a   10.02380000
_cell_length_b   10.12640000
_cell_length_c   13.22947362
_cell_angle_alpha   69.67632889
_cell_angle_beta   89.99992346
_cell_angle_gamma   89.99990000
_symmetry_Int_Tables_number   1
_chemical_formula_structural   Ag2H11C10N5O4
_chemical_formula_sum   'Ag8 H44 C40 N20 O16'
_cell_volume   1259.25891685
_cell_formula_units_Z   4
loop_
 _symmetry_equiv_pos_site_id
 _symmetry_equiv_pos_as_xyz
  1  'x, y, z'
loop_
 _atom_site_type_symbol
 _atom_site_label
 _atom_site_symmetry_multiplicity
 _atom_site_fract_x
 _atom_site_fract_y
 _atom_site_fract_z
 _atom_site_occupancy
  Ag  Ag0  1  0.71889000  0.89261000  0.11463000  1.0
  Ag  Ag1  1  0.21889000  0.10739000  0.38537000  1.0
  Ag  Ag2  1  0.28111000  0.10739000  0.88537000  1.0
  Ag  Ag3  1  0.78111000  0.89261000  0.61463000  1.0
  Ag  Ag4  1  0.18763000  0.30788000  0.15120000  1.0
  Ag  Ag5  1  0.68763000  0.69212000  0.34880000  1.0
  Ag  Ag6  1  0.81237000  0.69212000  0.84880000  1.0
  Ag  Ag7  1  0.31237000  0.30788000  0.65120000  1.0
  H  H8  1  0.25070000  0.11239000  0.11560000  1.0
  H  H9  1  0.75070000  0.88761000  0.38440000  1.0
  H  H10  1  0.74930000  0.88761000  0.88440000  1.0
  H  H11  1  0.24930000  0.11239000  0.61560000  1.0
  H  H12  1  0.41695000  0.92563000  0.13556000  1.0
  H  H13  1  0.91695000  0.07437000  0.36444000  1.0
  H  H14  1  0.58305000  0.07437000  0.86444000  1.0
  H  H15  1  0.08305000  0.92564000  0.63555000  1.0
  H  H16  1  0.11900000  0.62382000  0.17034000  1.0
  H  H17  1  0.61900000  0.37618000  0.32966000  1.0
  H  H18  1  0.88100000  0.37618000  0.82966000  1.0
  H  H19  1  0.38100000  0.62382000  0.67034000  1.0
  H  H20  1  0.93972000  0.80017000  0.15201000  1.0
  H  H21  1  0.43972000  0.19984000  0.34799000  1.0
  H  H22  1  0.06028000  0.19984000  0.84799000  1.0
  H  H23  1  0.56028000  0.80017000  0.65201000  1.0
  H  H24  1  0.56676000  0.74519000  0.02661000  1.0
  H  H25  1  0.06676000  0.25481000  0.47339000  1.0
  H  H26  1  0.43324000  0.25481000  0.97339000  1.0
  H  H27  1  0.93324000  0.74519000  0.52661000  1.0
  H  H28  1  0.38789000  0.45662000  0.20016000  1.0
  H  H29  1  0.88789000  0.54339000  0.29984000  1.0
  H  H30  1  0.61211000  0.54339000  0.79984000  1.0
  H  H31  1  0.11211000  0.45662000  0.70016000  1.0
  H  H32  1  0.57179000  0.65767000  0.15858000  1.0
  H  H33  1  0.07180000  0.34233000  0.34142000  1.0
  H  H34  1  0.42821000  0.34233000  0.84142000  1.0
  H  H35  1  0.92821000  0.65767000  0.65858000  1.0
  H  H36  1  0.44813000  0.37288000  0.12081000  1.0
  H  H37  1  0.94813000  0.62711000  0.37920000  1.0
  H  H38  1  0.55187000  0.62712000  0.87919000  1.0
  H  H39  1  0.05187000  0.37288000  0.62081000  1.0
  H  H40  1  0.35492000  0.51126000  0.06767000  1.0
  H  H41  1  0.85492000  0.48874000  0.43233000  1.0
  H  H42  1  0.64508000  0.48875000  0.93233000  1.0
  H  H43  1  0.14508000  0.51126000  0.56767000  1.0
  H  H44  1  0.69997000  0.64583000  0.08200000  1.0
  H  H45  1  0.19997000  0.35417000  0.41800000  1.0
  H  H46  1  0.30003000  0.35417000  0.91800000  1.0
  H  H47  1  0.80003000  0.64583000  0.58200000  1.0
  H  H48  1  0.34460000  0.69097000  0.18196000  1.0
  H  H49  1  0.84460000  0.30904000  0.31803000  1.0
  H  H50  1  0.65540000  0.30903000  0.81804000  1.0
  H  H51  1  0.15540000  0.69097000  0.68196000  1.0
  C  C52  1  0.64270000  0.21317000  0.08617000  1.0
  C  C53  1  0.14270000  0.78682000  0.41384000  1.0
  C  C54  1  0.35730000  0.78682000  0.91384000  1.0
  C  C55  1  0.85730000  0.21318000  0.58616000  1.0
  C  C56  1  0.78908000  0.19037000  0.10571000  1.0
  C  C57  1  0.28908000  0.80963000  0.39429000  1.0
  C  C58  1  0.21092000  0.80963000  0.89429000  1.0
  C  C59  1  0.71091000  0.19037000  0.60571000  1.0
  C  C60  1  0.04398000  0.83283000  0.14728000  1.0
  C  C61  1  0.54398000  0.16717000  0.35272000  1.0
  C  C62  1  0.95602000  0.16717000  0.85272000  1.0
  C  C63  1  0.45602000  0.83283000  0.64728000  1.0
  C  C64  1  0.31042000  0.90357000  0.13763000  1.0
  C  C65  1  0.81042000  0.09643000  0.36237000  1.0
  C  C66  1  0.68958000  0.09643000  0.86237000  1.0
  C  C67  1  0.18958000  0.90357000  0.63763000  1.0
  C  C68  1  0.21593000  0.00620000  0.12678000  1.0
  C  C69  1  0.71593000  0.99380000  0.37322000  1.0
  C  C70  1  0.78407000  0.99380000  0.87322000  1.0
  C  C71  1  0.28407000  0.00621000  0.62678000  1.0
  C  C72  1  0.89025000  0.27998000  0.11941000  1.0
  C  C73  1  0.39025000  0.72002000  0.38059000  1.0
  C  C74  1  0.10975000  0.72002000  0.88059000  1.0
  C  C75  1  0.60975000  0.27998000  0.61941000  1.0
  C  C76  1  0.88633000  0.42327000  0.13054000  1.0
  C  C77  1  0.38634000  0.57673000  0.36946000  1.0
  C  C78  1  0.11367000  0.57673000  0.86946000  1.0
  C  C79  1  0.61367000  0.42327000  0.63054000  1.0
  C  C80  1  0.97895000  0.07772000  0.13078000  1.0
  C  C81  1  0.47895000  0.92228000  0.36922000  1.0
  C  C82  1  0.02106000  0.92228000  0.86922000  1.0
  C  C83  1  0.52105000  0.07772000  0.63078000  1.0
  C  C84  1  0.14185000  0.73376000  0.15712000  1.0
  C  C85  1  0.64185000  0.26624000  0.34288000  1.0
  C  C86  1  0.85815000  0.26624000  0.84288000  1.0
  C  C87  1  0.35814000  0.73376000  0.65712000  1.0
  C  C88  1  0.07866000  0.97258000  0.13547000  1.0
  C  C89  1  0.57866000  0.02742000  0.36453000  1.0
  C  C90  1  0.92134000  0.02742000  0.86453000  1.0
  C  C91  1  0.42134000  0.97258000  0.63547000  1.0
  N  N92  1  0.84643000  0.06403000  0.11571000  1.0
  N  N93  1  0.34643000  0.93597000  0.38429000  1.0
  N  N94  1  0.15357000  0.93597000  0.88429000  1.0
  N  N95  1  0.65357000  0.06403000  0.61571000  1.0
  N  N96  1  0.00751000  0.20713000  0.13593000  1.0
  N  N97  1  0.50751000  0.79287000  0.36407000  1.0
  N  N98  1  0.99250000  0.79288000  0.86406000  1.0
  N  N99  1  0.49249000  0.20712000  0.63594000  1.0
  N  N100  1  0.27213000  0.77014000  0.15374000  1.0
  N  N101  1  0.77213000  0.22986000  0.34626000  1.0
  N  N102  1  0.72786000  0.22986000  0.84626000  1.0
  N  N103  1  0.22786000  0.77014000  0.65374000  1.0
  N  N104  1  0.36492000  0.42366000  0.13683000  1.0
  N  N105  1  0.86492000  0.57634000  0.36317000  1.0
  N  N106  1  0.63508000  0.57634000  0.86317000  1.0
  N  N107  1  0.13508000  0.42366000  0.63683000  1.0
  N  N108  1  0.62855000  0.71320000  0.09297000  1.0
  N  N109  1  0.12855000  0.28680000  0.40703000  1.0
  N  N110  1  0.37145000  0.28680000  0.90703000  1.0
  N  N111  1  0.87145000  0.71320000  0.59297000  1.0
  O  O112  1  0.83610000  0.52608000  0.05847000  1.0
  O  O113  1  0.33611000  0.47393000  0.44152000  1.0
  O  O114  1  0.16390000  0.47393000  0.94152000  1.0
  O  O115  1  0.66390000  0.52607000  0.55848000  1.0
  O  O116  1  0.60010000  0.33803000  0.06537000  1.0
  O  O117  1  0.10010000  0.66196000  0.43464000  1.0
  O  O118  1  0.39991000  0.66197000  0.93464000  1.0
  O  O119  1  0.89990000  0.33803000  0.56537000  1.0
  O  O120  1  0.57049000  0.10827000  0.08920000  1.0
  O  O121  1  0.07049000  0.89173000  0.41080000  1.0
  O  O122  1  0.42951000  0.89173000  0.91080000  1.0
  O  O123  1  0.92951000  0.10827000  0.58920000  1.0
  O  O124  1  0.93778000  0.42751000  0.21953000  1.0
  O  O125  1  0.43779000  0.57249000  0.28047000  1.0
  O  O126  1  0.06222000  0.57249000  0.78047000  1.0
  O  O127  1  0.56221000  0.42750000  0.71954000  1.0
