# generated using pymatgen
data_Zn2H8C27N11O6
_symmetry_space_group_name_H-M   'P 1'
_cell_length_a   18.49490000
_cell_length_b   18.55210000
_cell_length_c   18.53700000
_cell_angle_alpha   111.81500000
_cell_angle_beta   100.25800000
_cell_angle_gamma   110.25900000
_symmetry_Int_Tables_number   1
_chemical_formula_structural   Zn2H8C27N11O6
_chemical_formula_sum   'Zn4 H16 C54 N22 O12'
_cell_volume   5184.65995995
_cell_formula_units_Z   2
loop_
 _symmetry_equiv_pos_site_id
 _symmetry_equiv_pos_as_xyz
  1  'x, y, z'
loop_
 _atom_site_type_symbol
 _atom_site_label
 _atom_site_symmetry_multiplicity
 _atom_site_fract_x
 _atom_site_fract_y
 _atom_site_fract_z
 _atom_site_occupancy
  Zn  Zn0  1  0.99749000  0.13718000  0.63987000  1.0
  Zn  Zn1  1  0.00136000  0.87198000  0.36723000  1.0
  Zn  Zn2  1  0.89085000  0.90575000  0.51233000  1.0
  Zn  Zn3  1  0.08389000  0.10420000  0.47968000  1.0
  H  H4  1  0.97830000  0.12908000  0.80780000  1.0
  H  H5  1  0.89386000  0.85897000  0.20048000  1.0
  H  H6  1  0.98857000  0.87200000  0.63705000  1.0
  H  H7  1  0.13292000  0.29130000  0.47769000  1.0
  H  H8  1  0.26521000  0.15407000  0.58751000  1.0
  H  H9  1  0.68723000  0.75446000  0.37689000  1.0
  H  H10  1  0.10583000  0.80490000  0.45696000  1.0
  H  H11  1  0.03400000  0.33806000  0.67644000  1.0
  H  H12  1  0.27362000  0.16293000  0.45246000  1.0
  H  H13  1  0.74137000  0.90133000  0.37593000  1.0
  H  H14  1  0.81775000  0.85426000  0.64541000  1.0
  H  H15  1  0.96705000  0.12994000  0.36240000  1.0
  H  H16  1  0.42597000  0.37180000  0.98620000  1.0
  H  H17  1  0.56711000  0.62958000  0.95450000  1.0
  H  H18  1  0.41764000  0.53202000  0.06144000  1.0
  H  H19  1  0.57653000  0.47063000  0.87938000  1.0
  C  C20  1  0.94233000  0.06367000  0.75649000  1.0
  C  C21  1  0.91641000  0.92276000  0.25272000  1.0
  C  C22  1  0.18346000  0.95152000  0.37710000  1.0
  C  C23  1  0.83463000  0.09674000  0.53403000  1.0
  C  C24  1  0.01232000  0.86286000  0.58653000  1.0
  C  C25  1  0.10611000  0.28859000  0.52477000  1.0
  C  C26  1  0.22637000  0.16140000  0.62442000  1.0
  C  C27  1  0.73643000  0.75486000  0.35241000  1.0
  C  C28  1  0.07293000  0.82958000  0.49468000  1.0
  C  C29  1  0.05557000  0.31233000  0.62656000  1.0
  C  C30  1  0.17243000  0.19899000  0.71989000  1.0
  C  C31  1  0.81492000  0.73828000  0.27786000  1.0
  C  C32  1  0.23592000  0.09369000  0.42855000  1.0
  C  C33  1  0.78020000  0.96437000  0.42982000  1.0
  C  C34  1  0.85972000  0.92307000  0.67344000  1.0
  C  C35  1  0.95424000  0.06195000  0.33471000  1.0
  C  C36  1  0.89017000  0.98736000  0.75692000  1.0
  C  C37  1  0.91436000  0.99751000  0.25092000  1.0
  C  C38  1  0.25846000  0.02564000  0.40070000  1.0
  C  C39  1  0.76096000  0.03386000  0.46529000  1.0
  C  C40  1  0.06191000  0.82125000  0.56516000  1.0
  C  C41  1  0.09120000  0.35238000  0.58148000  1.0
  C  C42  1  0.24938000  0.22060000  0.70809000  1.0
  C  C43  1  0.73094000  0.71614000  0.26917000  1.0
  C  C44  1  0.55156000  0.47807000  0.00133000  1.0
  C  C45  1  0.44188000  0.52201000  0.93860000  1.0
  C  C46  1  0.45744000  0.42983000  0.98012000  1.0
  C  C47  1  0.53680000  0.57189000  0.96161000  1.0
  C  C48  1  0.32496000  0.29117000  0.76512000  1.0
  C  C49  1  0.66279000  0.67052000  0.19547000  1.0
  C  C50  1  0.54080000  0.48366000  0.91913000  1.0
  C  C51  1  0.45297000  0.51771000  0.02156000  1.0
  C  C52  1  0.44430000  0.43136000  0.89374000  1.0
  C  C53  1  0.54956000  0.56923000  0.04756000  1.0
  C  C54  1  0.38420000  0.35770000  0.81979000  1.0
  C  C55  1  0.60799000  0.63128000  0.12767000  1.0
  C  C56  1  0.33516000  0.03058000  0.40038000  1.0
  C  C57  1  0.68595000  0.03598000  0.44377000  1.0
  C  C58  1  0.40344000  0.03405000  0.40377000  1.0
  C  C59  1  0.61847000  0.03622000  0.42933000  1.0
  C  C60  1  0.47715000  0.03598000  0.40957000  1.0
  C  C61  1  0.54515000  0.03634000  0.41735000  1.0
  C  C62  1  0.10470000  0.43500000  0.59114000  1.0
  C  C63  1  0.08588000  0.77081000  0.59511000  1.0
  C  C64  1  0.11122000  0.50671000  0.60128000  1.0
  C  C65  1  0.10064000  0.71539000  0.60676000  1.0
  C  C66  1  0.11338000  0.58219000  0.60870000  1.0
  C  C67  1  0.11019000  0.64873000  0.61173000  1.0
  C  C68  1  0.87486000  0.98122000  0.82615000  1.0
  C  C69  1  0.88859000  0.00322000  0.17826000  1.0
  C  C70  1  0.86739000  0.98379000  0.89162000  1.0
  C  C71  1  0.87423000  0.99911000  0.10898000  1.0
  C  C72  1  0.86371000  0.98807000  0.96455000  1.0
  C  C73  1  0.86557000  0.99428000  0.03374000  1.0
  N  N74  1  0.94261000  0.04606000  0.67974000  1.0
  N  N75  1  0.95541000  0.94196000  0.33050000  1.0
  N  N76  1  0.12380000  0.97375000  0.39053000  1.0
  N  N77  1  0.89081000  0.06683000  0.53741000  1.0
  N  N78  1  0.99404000  0.89133000  0.53167000  1.0
  N  N79  1  0.08124000  0.21737000  0.53605000  1.0
  N  N80  1  0.14313000  0.11139000  0.59052000  1.0
  N  N81  1  0.81670000  0.79653000  0.40318000  1.0
  N  N82  1  0.03178000  0.87064000  0.47526000  1.0
  N  N83  1  0.04965000  0.23205000  0.59877000  1.0
  N  N84  1  0.11047000  0.13434000  0.64958000  1.0
  N  N85  1  0.86461000  0.78640000  0.35730000  1.0
  N  N86  1  0.15593000  0.06089000  0.42212000  1.0
  N  N87  1  0.85756000  0.98547000  0.47474000  1.0
  N  N88  1  0.89114000  0.95911000  0.62806000  1.0
  N  N89  1  0.97918000  0.02786000  0.38144000  1.0
  N  N90  1  0.61378000  0.46087000  0.04262000  1.0
  N  N91  1  0.38213000  0.54303000  0.89813000  1.0
  N  N92  1  0.16486000  0.86205000  0.34485000  1.0
  N  N93  1  0.85079000  0.17639000  0.60156000  1.0
  N  N94  1  0.15362000  0.24385000  0.78889000  1.0
  N  N95  1  0.85172000  0.72114000  0.21662000  1.0
  O  O96  1  0.67301000  0.46579000  0.01892000  1.0
  O  O97  1  0.60361000  0.44688000  0.10145000  1.0
  O  O98  1  0.33333333  0.55825000  0.93192000  1.0
  O  O99  1  0.38514000  0.54211000  0.83147000  1.0
  O  O100  1  0.22019000  0.84074000  0.33596000  1.0
  O  O101  1  0.09144000  0.80905000  0.32786000  1.0
  O  O102  1  0.80192000  0.20720000  0.59614000  1.0
  O  O103  1  0.91416000  0.20987000  0.66500000  1.0
  O  O104  1  0.20934000  0.29501000  0.85682000  1.0
  O  O105  1  0.07915000  0.23021000  0.77587000  1.0
  O  O106  1  0.80773000  0.67386000  0.14291000  1.0
  O  O107  1  0.93021000  0.75760000  0.24119000  1.0
