# generated using pymatgen
data_Co3H22(C15O8)2
_symmetry_space_group_name_H-M   'P 1'
_cell_length_a   14.67870000
_cell_length_b   19.11800000
_cell_length_c   19.11900000
_cell_angle_alpha   113.68800000
_cell_angle_beta   104.83600000
_cell_angle_gamma   104.82800000
_symmetry_Int_Tables_number   1
_chemical_formula_structural   Co3H22(C15O8)2
_chemical_formula_sum   'Co9 H66 C90 O48'
_cell_volume   4341.86833364
_cell_formula_units_Z   3
loop_
 _symmetry_equiv_pos_site_id
 _symmetry_equiv_pos_as_xyz
  1  'x, y, z'
loop_
 _atom_site_type_symbol
 _atom_site_label
 _atom_site_symmetry_multiplicity
 _atom_site_fract_x
 _atom_site_fract_y
 _atom_site_fract_z
 _atom_site_occupancy
  Co  Co0  1  0.42037000  0.33378000  0.03539000  1.0
  Co  Co1  1  0.38493000  0.96469000  0.29841000  1.0
  Co  Co2  1  0.08649000  0.70152000  0.66616000  1.0
  Co  Co3  1  0.57965000  0.66623000  0.96464000  1.0
  Co  Co4  1  0.61506000  0.03530000  0.70157000  1.0
  Co  Co5  1  0.91348000  0.29845000  0.33382000  1.0
  Co  Co6  1  0.50001000  0.50001000  0.00001000  1.0
  Co  Co7  1  0.49999000  0.00001000  0.50000000  1.0
  Co  Co8  1  0.00000000  0.50000000  0.49999000  1.0
  H  H9  1  0.37986000  0.63948000  0.16504000  1.0
  H  H10  1  0.21480000  0.83511000  0.47453000  1.0
  H  H11  1  0.74022000  0.52559000  0.36045000  1.0
  H  H12  1  0.62014000  0.36053000  0.83496000  1.0
  H  H13  1  0.78521000  0.16492000  0.52547000  1.0
  H  H14  1  0.25976000  0.47440000  0.63953000  1.0
  H  H15  1  0.35025000  0.72207000  0.28955000  1.0
  H  H16  1  0.06077000  0.71050000  0.43259000  1.0
  H  H17  1  0.62800000  0.56755000  0.27792000  1.0
  H  H18  1  0.64973000  0.27793000  0.71045000  1.0
  H  H19  1  0.93926000  0.28951000  0.56742000  1.0
  H  H20  1  0.37198000  0.43246000  0.72207000  1.0
  H  H21  1  0.30161000  0.51830000  0.33983000  1.0
  H  H22  1  0.96177000  0.66015000  0.17850000  1.0
  H  H23  1  0.78317000  0.82162000  0.48178000  1.0
  H  H24  1  0.69840000  0.48170000  0.66018000  1.0
  H  H25  1  0.03825000  0.33983000  0.82150000  1.0
  H  H26  1  0.21680000  0.17837000  0.51824000  1.0
  H  H27  1  0.32516000  0.43470000  0.21222000  1.0
  H  H28  1  0.11296000  0.78773000  0.22246000  1.0
  H  H29  1  0.89047000  0.77757000  0.56528000  1.0
  H  H30  1  0.67487000  0.56531000  0.78779000  1.0
  H  H31  1  0.88704000  0.21224000  0.77750000  1.0
  H  H32  1  0.10949000  0.22240000  0.43472000  1.0
  H  H33  1  0.44590000  0.79105000  0.43558000  1.0
  H  H34  1  0.01033000  0.56444000  0.35555000  1.0
  H  H35  1  0.65473000  0.64456000  0.20894000  1.0
  H  H36  1  0.55408000  0.20896000  0.56441000  1.0
  H  H37  1  0.98968000  0.43554000  0.64444000  1.0
  H  H38  1  0.34527000  0.35545000  0.79107000  1.0
  H  H39  1  0.33379000  0.81023000  0.62636000  1.0
  H  H40  1  0.70746000  0.37355000  0.18381000  1.0
  H  H41  1  0.52356000  0.81623000  0.18971000  1.0
  H  H42  1  0.66621000  0.18977000  0.37364000  1.0
  H  H43  1  0.29254000  0.62645000  0.81620000  1.0
  H  H44  1  0.47645000  0.18378000  0.81030000  1.0
  H  H45  1  0.19649000  0.57938000  0.39376000  1.0
  H  H46  1  0.80278000  0.60617000  0.18560000  1.0
  H  H47  1  0.61699000  0.81443000  0.42053000  1.0
  H  H48  1  0.80351000  0.42060000  0.60624000  1.0
  H  H49  1  0.19725000  0.39384000  0.81443000  1.0
  H  H50  1  0.38300000  0.18558000  0.57948000  1.0
  H  H51  1  0.37856000  0.25937000  0.12443000  1.0
  H  H52  1  0.25426000  0.87571000  0.13500000  1.0
  H  H53  1  0.11921000  0.86501000  0.74069000  1.0
  H  H54  1  0.62145000  0.74063000  0.87558000  1.0
  H  H55  1  0.74575000  0.12431000  0.86498000  1.0
  H  H56  1  0.88080000  0.13497000  0.25934000  1.0
  H  H57  1  0.49769000  0.30771000  0.15373000  1.0
  H  H58  1  0.34399000  0.84628000  0.15403000  1.0
  H  H59  1  0.18998000  0.84599000  0.69232000  1.0
  H  H60  1  0.50233000  0.69232000  0.84631000  1.0
  H  H61  1  0.65600000  0.15370000  0.84596000  1.0
  H  H62  1  0.81003000  0.15399000  0.30770000  1.0
  H  H63  1  0.23010000  0.29256000  0.98949000  1.0
  H  H64  1  0.24060000  0.01068000  0.30320000  1.0
  H  H65  1  0.93737000  0.69675000  0.70740000  1.0
  H  H66  1  0.76994000  0.70746000  0.01058000  1.0
  H  H67  1  0.75938000  0.98930000  0.69676000  1.0
  H  H68  1  0.06261000  0.30323000  0.29258000  1.0
  H  H69  1  0.23140000  0.21696000  0.91604000  1.0
  H  H70  1  0.31540000  0.08399000  0.30091000  1.0
  H  H71  1  0.01439000  0.69900000  0.78300000  1.0
  H  H72  1  0.76861000  0.78305000  0.08401000  1.0
  H  H73  1  0.68460000  0.91602000  0.69910000  1.0
  H  H74  1  0.98560000  0.30099000  0.21700000  1.0
  C  C75  1  0.35506000  0.53220000  0.18131000  1.0
  C  C76  1  0.17375000  0.81873000  0.35092000  1.0
  C  C77  1  0.82276000  0.64914000  0.46775000  1.0
  C  C78  1  0.64496000  0.46781000  0.81870000  1.0
  C  C79  1  0.82625000  0.18127000  0.64906000  1.0
  C  C80  1  0.17721000  0.35084000  0.53224000  1.0
  C  C81  1  0.36107000  0.61304000  0.20303000  1.0
  C  C82  1  0.15802000  0.79707000  0.41007000  1.0
  C  C83  1  0.74785000  0.59003000  0.38693000  1.0
  C  C84  1  0.63893000  0.38697000  0.79697000  1.0
  C  C85  1  0.84199000  0.20294000  0.58992000  1.0
  C  C86  1  0.25213000  0.40996000  0.61305000  1.0
  C  C87  1  0.34570000  0.65928000  0.27319000  1.0
  C  C88  1  0.07255000  0.72689000  0.38617000  1.0
  C  C89  1  0.68621000  0.61397000  0.34073000  1.0
  C  C90  1  0.65429000  0.34072000  0.72681000  1.0
  C  C91  1  0.92748000  0.27311000  0.61383000  1.0
  C  C92  1  0.31377000  0.38603000  0.65926000  1.0
  C  C93  1  0.32562000  0.62649000  0.32424000  1.0
  C  C94  1  0.00141000  0.67579000  0.30231000  1.0
  C  C95  1  0.69898000  0.69783000  0.37354000  1.0
  C  C96  1  0.67438000  0.37351000  0.67576000  1.0
  C  C97  1  0.99861000  0.32420000  0.69768000  1.0
  C  C98  1  0.30100000  0.30217000  0.62646000  1.0
  C  C99  1  0.31584000  0.54420000  0.30026000  1.0
  C  C100  1  0.01556000  0.69976000  0.24397000  1.0
  C  C101  1  0.77152000  0.75614000  0.45585000  1.0
  C  C102  1  0.68417000  0.45580000  0.69974000  1.0
  C  C103  1  0.98446000  0.30023000  0.75601000  1.0
  C  C104  1  0.22846000  0.24385000  0.54416000  1.0
  C  C105  1  0.32987000  0.49761000  0.22961000  1.0
  C  C106  1  0.10026000  0.77040000  0.26801000  1.0
  C  C107  1  0.83221000  0.73206000  0.50238000  1.0
  C  C108  1  0.67015000  0.50240000  0.77039000  1.0
  C  C109  1  0.89974000  0.22959000  0.73197000  1.0
  C  C110  1  0.16775000  0.26791000  0.49762000  1.0
  C  C111  1  0.32208000  0.67820000  0.40449000  1.0
  C  C112  1  0.91764000  0.59550000  0.27373000  1.0
  C  C113  1  0.64377000  0.72636000  0.32178000  1.0
  C  C114  1  0.67791000  0.32180000  0.59551000  1.0
  C  C115  1  0.08239000  0.40450000  0.72628000  1.0
  C  C116  1  0.35622000  0.27365000  0.67822000  1.0
  C  C117  1  0.39208000  0.76219000  0.45595000  1.0
  C  C118  1  0.93614000  0.54405000  0.30629000  1.0
  C  C119  1  0.62978000  0.69382000  0.23779000  1.0
  C  C120  1  0.60791000  0.23781000  0.54404000  1.0
  C  C121  1  0.06388000  0.45594000  0.69371000  1.0
  C  C122  1  0.37021000  0.30619000  0.76221000  1.0
  C  C123  1  0.39728000  0.80888000  0.53610000  1.0
  C  C124  1  0.86117000  0.46390000  0.27284000  1.0
  C  C125  1  0.58830000  0.72726000  0.19106000  1.0
  C  C126  1  0.60271000  0.19112000  0.46389000  1.0
  C  C127  1  0.13885000  0.53609000  0.72716000  1.0
  C  C128  1  0.41170000  0.27275000  0.80894000  1.0
  C  C129  1  0.32903000  0.77362000  0.56384000  1.0
  C  C130  1  0.76523000  0.43608000  0.20974000  1.0
  C  C131  1  0.55542000  0.79033000  0.22633000  1.0
  C  C132  1  0.67097000  0.22638000  0.43615000  1.0
  C  C133  1  0.23478000  0.56391000  0.79026000  1.0
  C  C134  1  0.44458000  0.20967000  0.77368000  1.0
  C  C135  1  0.25508000  0.69165000  0.51143000  1.0
  C  C136  1  0.74373000  0.48848000  0.18014000  1.0
  C  C137  1  0.56343000  0.81988000  0.30828000  1.0
  C  C138  1  0.74492000  0.30834000  0.48857000  1.0
  C  C139  1  0.25628000  0.51153000  0.81986000  1.0
  C  C140  1  0.43656000  0.18013000  0.69173000  1.0
  C  C141  1  0.25358000  0.64376000  0.43300000  1.0
  C  C142  1  0.82065000  0.56692000  0.21071000  1.0
  C  C143  1  0.60977000  0.78934000  0.35619000  1.0
  C  C144  1  0.74641000  0.35623000  0.56700000  1.0
  C  C145  1  0.17938000  0.43308000  0.78931000  1.0
  C  C146  1  0.39023000  0.21067000  0.64383000  1.0
  C  C147  1  0.38127000  0.48463000  0.11117000  1.0
  C  C148  1  0.27015000  0.88881000  0.37346000  1.0
  C  C149  1  0.89663000  0.62657000  0.51526000  1.0
  C  C150  1  0.61875000  0.51539000  0.88883000  1.0
  C  C151  1  0.72983000  0.11119000  0.62652000  1.0
  C  C152  1  0.10335000  0.37341000  0.48472000  1.0
  C  C153  1  0.47768000  0.89445000  0.59447000  1.0
  C  C154  1  0.88306000  0.40550000  0.30004000  1.0
  C  C155  1  0.58302000  0.69999000  0.10547000  1.0
  C  C156  1  0.52231000  0.10556000  0.40552000  1.0
  C  C157  1  0.11693000  0.59448000  0.69994000  1.0
  C  C158  1  0.41699000  0.30003000  0.89454000  1.0
  C  C159  1  0.17637000  0.65695000  0.53880000  1.0
  C  C160  1  0.63761000  0.46110000  0.11809000  1.0
  C  C161  1  0.51940000  0.88190000  0.34301000  1.0
  C  C162  1  0.82363000  0.34304000  0.46120000  1.0
  C  C163  1  0.36241000  0.53892000  0.88192000  1.0
  C  C164  1  0.48059000  0.11810000  0.65700000  1.0
  O  O165  1  0.42997000  0.52387000  0.08355000  1.0
  O  O166  1  0.34651000  0.91635000  0.44029000  1.0
  O  O167  1  0.90609000  0.55970000  0.47599000  1.0
  O  O168  1  0.57004000  0.47615000  0.91646000  1.0
  O  O169  1  0.65347000  0.08365000  0.55969000  1.0
  O  O170  1  0.09391000  0.44028000  0.52399000  1.0
  O  O171  1  0.43284000  0.26965000  0.10483000  1.0
  O  O172  1  0.32813000  0.89523000  0.16490000  1.0
  O  O173  1  0.16312000  0.83506000  0.73030000  1.0
  O  O174  1  0.56719000  0.73038000  0.89520000  1.0
  O  O175  1  0.67187000  0.10477000  0.83509000  1.0
  O  O176  1  0.83689000  0.16492000  0.26972000  1.0
  O  O177  1  0.35389000  0.40566000  0.08628000  1.0
  O  O178  1  0.26763000  0.91375000  0.31942000  1.0
  O  O179  1  0.94822000  0.68062000  0.59424000  1.0
  O  O180  1  0.64613000  0.59436000  0.91374000  1.0
  O  O181  1  0.73234000  0.08624000  0.68054000  1.0
  O  O182  1  0.05176000  0.31935000  0.40575000  1.0
  O  O183  1  0.24802000  0.24422000  0.97573000  1.0
  O  O184  1  0.27221000  0.02432000  0.26854000  1.0
  O  O185  1  0.00365000  0.73139000  0.75571000  1.0
  O  O186  1  0.75200000  0.75579000  0.02433000  1.0
  O  O187  1  0.72780000  0.97568000  0.73145000  1.0
  O  O188  1  0.99632000  0.26859000  0.24427000  1.0
  O  O189  1  0.12212000  0.57928000  0.49774000  1.0
  O  O190  1  0.62436000  0.50217000  0.08152000  1.0
  O  O191  1  0.54285000  0.91847000  0.42068000  1.0
  O  O192  1  0.87787000  0.42071000  0.50225000  1.0
  O  O193  1  0.37565000  0.49784000  0.91849000  1.0
  O  O194  1  0.45714000  0.08153000  0.57932000  1.0
  O  O195  1  0.16950000  0.71124000  0.60204000  1.0
  O  O196  1  0.56752000  0.39786000  0.10916000  1.0
  O  O197  1  0.45817000  0.89083000  0.28874000  1.0
  O  O198  1  0.83050000  0.28875000  0.39797000  1.0
  O  O199  1  0.43250000  0.60216000  0.89085000  1.0
  O  O200  1  0.54182000  0.10917000  0.71126000  1.0
  O  O201  1  0.52506000  0.93954000  0.56927000  1.0
  O  O202  1  0.95570000  0.43067000  0.37031000  1.0
  O  O203  1  0.58535000  0.62971000  0.06043000  1.0
  O  O204  1  0.47492000  0.06047000  0.43072000  1.0
  O  O205  1  0.04430000  0.56931000  0.62968000  1.0
  O  O206  1  0.41467000  0.37032000  0.93959000  1.0
  O  O207  1  0.50595000  0.92433000  0.67333000  1.0
  O  O208  1  0.83235000  0.32666000  0.25108000  1.0
  O  O209  1  0.58128000  0.74891000  0.07554000  1.0
  O  O210  1  0.49407000  0.07568000  0.32667000  1.0
  O  O211  1  0.16762000  0.67333000  0.74891000  1.0
  O  O212  1  0.41870000  0.25110000  0.92447000  1.0
