# generated using pymatgen
data_Cd2H19C25Br4N7
_symmetry_space_group_name_H-M   'P 1'
_cell_length_a   11.33750000
_cell_length_b   11.33770000
_cell_length_c   12.02470000
_cell_angle_alpha   76.11490000
_cell_angle_beta   76.11590000
_cell_angle_gamma   83.22450000
_symmetry_Int_Tables_number   1
_chemical_formula_structural   Cd2H19C25Br4N7
_chemical_formula_sum   'Cd4 H38 C50 Br8 N14'
_cell_volume   1453.66860959
_cell_formula_units_Z   2
loop_
 _symmetry_equiv_pos_site_id
 _symmetry_equiv_pos_as_xyz
  1  'x, y, z'
loop_
 _atom_site_type_symbol
 _atom_site_label
 _atom_site_symmetry_multiplicity
 _atom_site_fract_x
 _atom_site_fract_y
 _atom_site_fract_z
 _atom_site_occupancy
  Cd  Cd0  1  0.94762000  0.50362000  0.35552000  1.0
  Cd  Cd1  1  0.49639000  0.05239000  0.14448000  1.0
  Cd  Cd2  1  0.05238000  0.49639000  0.64448000  1.0
  Cd  Cd3  1  0.50361000  0.94761000  0.85552000  1.0
  H  H4  1  0.55571000  0.44429000  0.25001000  1.0
  H  H5  1  0.44428000  0.55571000  0.74999000  1.0
  H  H6  1  0.37763000  0.42773000  0.17079000  1.0
  H  H7  1  0.57228000  0.62237000  0.32922000  1.0
  H  H8  1  0.62236000  0.57227000  0.82921000  1.0
  H  H9  1  0.42772000  0.37762000  0.67078000  1.0
  H  H10  1  0.26576000  0.37428000  0.88958000  1.0
  H  H11  1  0.62572000  0.73423000  0.61044000  1.0
  H  H12  1  0.73425000  0.62571000  0.11042000  1.0
  H  H13  1  0.37428000  0.26577000  0.38956000  1.0
  H  H14  1  0.23412000  0.83212000  0.05461000  1.0
  H  H15  1  0.16788000  0.76589000  0.44538000  1.0
  H  H16  1  0.76589000  0.16788000  0.94539000  1.0
  H  H17  1  0.83212000  0.23410000  0.55462000  1.0
  H  H18  1  0.31882000  0.53572000  0.97619000  1.0
  H  H19  1  0.46428000  0.68119000  0.52382000  1.0
  H  H20  1  0.68119000  0.46428000  0.02381000  1.0
  H  H21  1  0.53572000  0.31881000  0.47618000  1.0
  H  H22  1  0.81526000  0.77319000  0.28495000  1.0
  H  H23  1  0.22681000  0.18474000  0.21505000  1.0
  H  H24  1  0.18474000  0.22681000  0.71505000  1.0
  H  H25  1  0.77319000  0.81525000  0.78495000  1.0
  H  H26  1  0.08794000  0.01419000  0.06256000  1.0
  H  H27  1  0.98581000  0.91207000  0.43743000  1.0
  H  H28  1  0.91207000  0.98581000  0.93744000  1.0
  H  H29  1  0.01419000  0.08792000  0.56257000  1.0
  H  H30  1  0.94061000  0.32876000  0.16836000  1.0
  H  H31  1  0.67125000  0.05939000  0.33165000  1.0
  H  H32  1  0.05939000  0.67123000  0.83164000  1.0
  H  H33  1  0.32875000  0.94062000  0.66835000  1.0
  H  H34  1  0.07293000  0.26675000  0.98781000  1.0
  H  H35  1  0.73326000  0.92705000  0.51220000  1.0
  H  H36  1  0.92707000  0.73324000  0.01219000  1.0
  H  H37  1  0.26674000  0.07295000  0.48779000  1.0
  H  H38  1  0.86984000  0.98380000  0.17523000  1.0
  H  H39  1  0.01621000  0.13017000  0.32476000  1.0
  H  H40  1  0.13016000  0.01621000  0.82477000  1.0
  H  H41  1  0.98379000  0.86983000  0.67524000  1.0
  C  C42  1  0.48330000  0.51671000  0.25001000  1.0
  C  C43  1  0.51670000  0.48329000  0.74999000  1.0
  C  C44  1  0.16043000  0.51090000  0.11903000  1.0
  C  C45  1  0.48911000  0.83956000  0.38097000  1.0
  C  C46  1  0.83957000  0.48910000  0.88096000  1.0
  C  C47  1  0.51089000  0.16044000  0.61903000  1.0
  C  C48  1  0.29330000  0.60275000  0.20725000  1.0
  C  C49  1  0.39725000  0.70670000  0.29275000  1.0
  C  C50  1  0.70670000  0.39725000  0.79275000  1.0
  C  C51  1  0.60275000  0.29330000  0.70725000  1.0
  C  C52  1  0.10244000  0.70942000  0.16956000  1.0
  C  C53  1  0.29058000  0.89757000  0.33044000  1.0
  C  C54  1  0.89756000  0.29058000  0.83045000  1.0
  C  C55  1  0.70942000  0.10243000  0.66956000  1.0
  C  C56  1  0.38327000  0.50682000  0.20516000  1.0
  C  C57  1  0.49318000  0.61673000  0.29486000  1.0
  C  C58  1  0.61672000  0.49317000  0.79484000  1.0
  C  C59  1  0.50681000  0.38326000  0.70515000  1.0
  C  C60  1  0.20710000  0.39577000  0.96919000  1.0
  C  C61  1  0.60424000  0.79289000  0.53082000  1.0
  C  C62  1  0.79290000  0.60423000  0.03081000  1.0
  C  C63  1  0.39576000  0.20711000  0.46918000  1.0
  C  C64  1  0.14097000  0.82390000  0.10556000  1.0
  C  C65  1  0.17610000  0.85903000  0.39443000  1.0
  C  C66  1  0.85903000  0.17610000  0.89443000  1.0
  C  C67  1  0.82390000  0.14096000  0.60558000  1.0
  C  C68  1  0.23804000  0.48476000  0.01729000  1.0
  C  C69  1  0.51524000  0.76196000  0.48272000  1.0
  C  C70  1  0.76197000  0.51524000  0.98271000  1.0
  C  C71  1  0.48476000  0.23804000  0.51728000  1.0
  C  C72  1  0.90684000  0.79122000  0.23277000  1.0
  C  C73  1  0.20878000  0.09317000  0.26723000  1.0
  C  C74  1  0.09316000  0.20878000  0.76723000  1.0
  C  C75  1  0.79122000  0.90683000  0.73278000  1.0
  C  C76  1  0.05818000  0.92409000  0.10939000  1.0
  C  C77  1  0.07591000  0.94183000  0.39060000  1.0
  C  C78  1  0.94183000  0.07591000  0.89061000  1.0
  C  C79  1  0.92409000  0.05816000  0.60940000  1.0
  C  C80  1  0.02692000  0.36935000  0.12333000  1.0
  C  C81  1  0.63067000  0.97307000  0.37668000  1.0
  C  C82  1  0.97308000  0.63065000  0.87667000  1.0
  C  C83  1  0.36933000  0.02693000  0.62332000  1.0
  C  C84  1  0.09973000  0.33677000  0.02316000  1.0
  C  C85  1  0.66324000  0.90026000  0.47684000  1.0
  C  C86  1  0.90028000  0.66323000  0.97683000  1.0
  C  C87  1  0.33676000  0.09974000  0.52315000  1.0
  C  C88  1  0.93803000  0.90775000  0.17248000  1.0
  C  C89  1  0.09226000  0.06198000  0.32752000  1.0
  C  C90  1  0.06197000  0.09226000  0.82752000  1.0
  C  C91  1  0.90774000  0.93802000  0.67248000  1.0
  Br  Br92  1  0.88840000  0.63558000  0.53602000  1.0
  Br  Br93  1  0.36443000  0.11160000  0.96397000  1.0
  Br  Br94  1  0.11160000  0.36442000  0.46397000  1.0
  Br  Br95  1  0.63557000  0.88840000  0.03603000  1.0
  Br  Br96  1  0.75487000  0.40158000  0.36297000  1.0
  Br  Br97  1  0.59842000  0.24513000  0.13705000  1.0
  Br  Br98  1  0.24512000  0.59841000  0.63704000  1.0
  Br  Br99  1  0.40158000  0.75487000  0.86295000  1.0
  N  N100  1  0.18433000  0.60392000  0.17018000  1.0
  N  N101  1  0.39609000  0.81568000  0.32982000  1.0
  N  N102  1  0.81567000  0.39608000  0.82982000  1.0
  N  N103  1  0.60391000  0.18432000  0.67018000  1.0
  N  N104  1  0.30116000  0.69884000  0.25000000  1.0
  N  N105  1  0.69884000  0.30116000  0.74999000  1.0
  N  N106  1  0.98839000  0.69439000  0.23322000  1.0
  N  N107  1  0.30562000  0.01161000  0.26677000  1.0
  N  N108  1  0.01161000  0.30561000  0.76677000  1.0
  N  N109  1  0.69438000  0.98839000  0.73323000  1.0
  N  N110  1  0.05803000  0.45331000  0.17153000  1.0
  N  N111  1  0.54670000  0.94197000  0.32848000  1.0
  N  N112  1  0.94197000  0.54669000  0.82847000  1.0
  N  N113  1  0.45330000  0.05804000  0.67152000  1.0
