# generated using pymatgen
data_Zn2H12C21O8
_symmetry_space_group_name_H-M   'P 1'
_cell_length_a   24.37830000
_cell_length_b   24.58090000
_cell_length_c   24.99620000
_cell_angle_alpha   62.26390000
_cell_angle_beta   61.37440000
_cell_angle_gamma   60.90730000
_symmetry_Int_Tables_number   1
_chemical_formula_structural   Zn2H12C21O8
_chemical_formula_sum   'Zn8 H48 C84 O32'
_cell_volume   10948.73054765
_cell_formula_units_Z   4
loop_
 _symmetry_equiv_pos_site_id
 _symmetry_equiv_pos_as_xyz
  1  'x, y, z'
loop_
 _atom_site_type_symbol
 _atom_site_label
 _atom_site_symmetry_multiplicity
 _atom_site_fract_x
 _atom_site_fract_y
 _atom_site_fract_z
 _atom_site_occupancy
  Zn  Zn0  1  0.98827000  0.92445000  0.12805000  1.0
  Zn  Zn1  1  0.11825000  0.92300000  0.00618000  1.0
  Zn  Zn2  1  0.98728000  0.05019000  0.00916000  1.0
  Zn  Zn3  1  0.98648000  0.92199000  0.00202000  1.0
  Zn  Zn4  1  0.55545000  0.48652000  0.43891000  1.0
  Zn  Zn5  1  0.42530000  0.49083000  0.56499000  1.0
  Zn  Zn6  1  0.55699000  0.49090000  0.56346000  1.0
  Zn  Zn7  1  0.55490000  0.36131000  0.56569000  1.0
  H  H8  1  0.07232000  0.84493000  0.26273000  1.0
  H  H9  1  0.13145000  0.81546000  0.33677000  1.0
  H  H10  1  0.31677000  0.79504000  0.18179000  1.0
  H  H11  1  0.25734000  0.82561000  0.10803000  1.0
  H  H12  1  0.38479000  0.73709000  0.24988000  1.0
  H  H13  1  0.45662000  0.63504000  0.30877000  1.0
  H  H14  1  0.28649000  0.62108000  0.47787000  1.0
  H  H15  1  0.21397000  0.72324000  0.41909000  1.0
  H  H16  1  0.83733000  0.00575000  0.26264000  1.0
  H  H17  1  0.73114000  0.06521000  0.33357000  1.0
  H  H18  1  0.73359000  0.24710000  0.18311000  1.0
  H  H19  1  0.83834000  0.18726000  0.11237000  1.0
  H  H20  1  0.66171000  0.31298000  0.24797000  1.0
  H  H21  1  0.63730000  0.38350000  0.30887000  1.0
  H  H22  1  0.62811000  0.22200000  0.48151000  1.0
  H  H23  1  0.65227000  0.15076000  0.42087000  1.0
  H  H24  1  0.91100000  0.78972000  0.25580000  1.0
  H  H25  1  0.88606000  0.68603000  0.32950000  1.0
  H  H26  1  0.88199000  0.65952000  0.17328000  1.0
  H  H27  1  0.90739000  0.76268000  0.09994000  1.0
  H  H28  1  0.80581000  0.60367000  0.24265000  1.0
  H  H29  1  0.70314000  0.57285000  0.30493000  1.0
  H  H30  1  0.71025000  0.56008000  0.47879000  1.0
  H  H31  1  0.81435000  0.58948000  0.41680000  1.0
  H  H32  1  0.25428000  0.02104000  0.91731000  1.0
  H  H33  1  0.32061000  0.09177000  0.88110000  1.0
  H  H34  1  0.14339000  0.26089000  0.88143000  1.0
  H  H35  1  0.07728000  0.18983000  0.91819000  1.0
  H  H36  1  0.21904000  0.33881000  0.80461000  1.0
  H  H37  1  0.28500000  0.40264000  0.70312000  1.0
  H  H38  1  0.45832000  0.23008000  0.69960000  1.0
  H  H39  1  0.39275000  0.16599000  0.80108000  1.0
  H  H40  1  0.25432000  0.85053000  0.85989000  1.0
  H  H41  1  0.32573000  0.82466000  0.75591000  1.0
  H  H42  1  0.15900000  0.81579000  0.74588000  1.0
  H  H43  1  0.08802000  0.84243000  0.84910000  1.0
  H  H44  1  0.22830000  0.74568000  0.67908000  1.0
  H  H45  1  0.29023000  0.64193000  0.64952000  1.0
  H  H46  1  0.47179000  0.63918000  0.64076000  1.0
  H  H47  1  0.41005000  0.74332000  0.67033000  1.0
  H  H48  1  0.85662000  0.18482000  0.92363000  1.0
  H  H49  1  0.75618000  0.26367000  0.88960000  1.0
  H  H50  1  0.73459000  0.10618000  0.87806000  1.0
  H  H51  1  0.83387000  0.02787000  0.91315000  1.0
  H  H52  1  0.66888000  0.17334000  0.81254000  1.0
  H  H53  1  0.64013000  0.23005000  0.71164000  1.0
  H  H54  1  0.64715000  0.40757000  0.69749000  1.0
  H  H55  1  0.67679000  0.35087000  0.79840000  1.0
  C  C56  1  0.12359000  0.86226000  0.13700000  1.0
  C  C57  1  0.16123000  0.83733000  0.18104000  1.0
  C  C58  1  0.12586000  0.83334000  0.24576000  1.0
  C  C59  1  0.15846000  0.81690000  0.28681000  1.0
  C  C60  1  0.22697000  0.80397000  0.26322000  1.0
  C  C61  1  0.26341000  0.80516000  0.19942000  1.0
  C  C62  1  0.23030000  0.82220000  0.15841000  1.0
  C  C63  1  0.29553000  0.73547000  0.33157000  1.0
  C  C64  1  0.36335000  0.71078000  0.29936000  1.0
  C  C65  1  0.40329000  0.65422000  0.33215000  1.0
  C  C66  1  0.37581000  0.62235000  0.39674000  1.0
  C  C67  1  0.30722000  0.64639000  0.42771000  1.0
  C  C68  1  0.26704000  0.70281000  0.39526000  1.0
  C  C69  1  0.41948000  0.56643000  0.43398000  1.0
  C  C70  1  0.90342000  0.05595000  0.14030000  1.0
  C  C71  1  0.84402000  0.09300000  0.18329000  1.0
  C  C72  1  0.81437000  0.05857000  0.24595000  1.0
  C  C73  1  0.75581000  0.09137000  0.28536000  1.0
  C  C74  1  0.72692000  0.15907000  0.26243000  1.0
  C  C75  1  0.75685000  0.19440000  0.20067000  1.0
  C  C76  1  0.81515000  0.16104000  0.16121000  1.0
  C  C77  1  0.65879000  0.22777000  0.33135000  1.0
  C  C78  1  0.65558000  0.29287000  0.29880000  1.0
  C  C79  1  0.64172000  0.33221000  0.33273000  1.0
  C  C80  1  0.63127000  0.30692000  0.39868000  1.0
  C  C81  1  0.63629000  0.24110000  0.43030000  1.0
  C  C82  1  0.64985000  0.20157000  0.39683000  1.0
  C  C83  1  0.61048000  0.35046000  0.43599000  1.0
  C  C84  1  0.93197000  0.84039000  0.13038000  1.0
  C  C85  1  0.91081000  0.78219000  0.17360000  1.0
  C  C86  1  0.90376000  0.76115000  0.23855000  1.0
  C  C87  1  0.88983000  0.70397000  0.27938000  1.0
  C  C88  1  0.88262000  0.66747000  0.25537000  1.0
  C  C89  1  0.88741000  0.68879000  0.19124000  1.0
  C  C90  1  0.90172000  0.74608000  0.15044000  1.0
  C  C91  1  0.81563000  0.59791000  0.32672000  1.0
  C  C92  1  0.78437000  0.59473000  0.29423000  1.0
  C  C93  1  0.72728000  0.57758000  0.32886000  1.0
  C  C94  1  0.70086000  0.56442000  0.39549000  1.0
  C  C95  1  0.73154000  0.56998000  0.42709000  1.0
  C  C96  1  0.78892000  0.58642000  0.39292000  1.0
  C  C97  1  0.64276000  0.54133000  0.43356000  1.0
  C  C98  1  0.12118000  0.05868000  0.94928000  1.0
  C  C99  1  0.16191000  0.10130000  0.92039000  1.0
  C  C100  1  0.23071000  0.07369000  0.90855000  1.0
  C  C101  1  0.26754000  0.11282000  0.88829000  1.0
  C  C102  1  0.23525000  0.17986000  0.87988000  1.0
  C  C103  1  0.16725000  0.20845000  0.88861000  1.0
  C  C104  1  0.13071000  0.16906000  0.90904000  1.0
  C  C105  1  0.30271000  0.24938000  0.80840000  1.0
  C  C106  1  0.27122000  0.31535000  0.78060000  1.0
  C  C107  1  0.30782000  0.35063000  0.72448000  1.0
  C  C108  1  0.37566000  0.32015000  0.69592000  1.0
  C  C109  1  0.40567000  0.25309000  0.72246000  1.0
  C  C110  1  0.36936000  0.21752000  0.77862000  1.0
  C  C111  1  0.41686000  0.35983000  0.64138000  1.0
  C  C112  1  0.12379000  0.86915000  0.91917000  1.0
  C  C113  1  0.16700000  0.84803000  0.86052000  1.0
  C  C114  1  0.23425000  0.84215000  0.83482000  1.0
  C  C115  1  0.27390000  0.82756000  0.77742000  1.0
  C  C116  1  0.24641000  0.81841000  0.74565000  1.0
  C  C117  1  0.17993000  0.82235000  0.77154000  1.0
  C  C118  1  0.14039000  0.83738000  0.82884000  1.0
  C  C119  1  0.31607000  0.74995000  0.67634000  1.0
  C  C120  1  0.28138000  0.72160000  0.67170000  1.0
  C  C121  1  0.31590000  0.66400000  0.65502000  1.0
  C  C122  1  0.38471000  0.63459000  0.64310000  1.0
  C  C123  1  0.41841000  0.66259000  0.64990000  1.0
  C  C124  1  0.38429000  0.72010000  0.66645000  1.0
  C  C125  1  0.42312000  0.57641000  0.61946000  1.0
  C  C126  1  0.90682000  0.05548000  0.94670000  1.0
  C  C127  1  0.85093000  0.10171000  0.92072000  1.0
  C  C128  1  0.82967000  0.16837000  0.91317000  1.0
  C  C129  1  0.77437000  0.21205000  0.89412000  1.0
  C  C130  1  0.74011000  0.18932000  0.88205000  1.0
  C  C131  1  0.76192000  0.12340000  0.88726000  1.0
  C  C132  1  0.81713000  0.07975000  0.90696000  1.0
  C  C133  1  0.67406000  0.25942000  0.81096000  1.0
  C  C134  1  0.66543000  0.22420000  0.78656000  1.0
  C  C135  1  0.64916000  0.25584000  0.73052000  1.0
  C  C136  1  0.64147000  0.32223000  0.69895000  1.0
  C  C137  1  0.65293000  0.35613000  0.72267000  1.0
  C  C138  1  0.66935000  0.32488000  0.77839000  1.0
  C  C139  1  0.61611000  0.35867000  0.64368000  1.0
  O  O140  1  0.02074000  0.95439000  0.03470000  1.0
  O  O141  1  0.15550000  0.87343000  0.07701000  1.0
  O  O142  1  0.06126000  0.87197000  0.16320000  1.0
  O  O143  1  0.25583000  0.79639000  0.30364000  1.0
  O  O144  1  0.39079000  0.54034000  0.49275000  1.0
  O  O145  1  0.48213000  0.55005000  0.40465000  1.0
  O  O146  1  0.92247000  0.08679000  0.08075000  1.0
  O  O147  1  0.93016000  0.99527000  0.16658000  1.0
  O  O148  1  0.66511000  0.18842000  0.30148000  1.0
  O  O149  1  0.60515000  0.32326000  0.49525000  1.0
  O  O150  1  0.59852000  0.41149000  0.40612000  1.0
  O  O151  1  0.94747000  0.85401000  0.07004000  1.0
  O  O152  1  0.93403000  0.87171000  0.15791000  1.0
  O  O153  1  0.87694000  0.60672000  0.29590000  1.0
  O  O154  1  0.61962000  0.53450000  0.49339000  1.0
  O  O155  1  0.62130000  0.52928000  0.40396000  1.0
  O  O156  1  0.05821000  0.08733000  0.96392000  1.0
  O  O157  1  0.15185000  0.99736000  0.95845000  1.0
  O  O158  1  0.26914000  0.21761000  0.86962000  1.0
  O  O159  1  0.47869000  0.32954000  0.61876000  1.0
  O  O160  1  0.38712000  0.42151000  0.62285000  1.0
  O  O161  1  0.06145000  0.88179000  0.93611000  1.0
  O  O162  1  0.15296000  0.87384000  0.94712000  1.0
  O  O163  1  0.28539000  0.81130000  0.68504000  1.0
  O  O164  1  0.48571000  0.55345000  0.60926000  1.0
  O  O165  1  0.39120000  0.55478000  0.61015000  1.0
  O  O166  1  0.91882000  0.99416000  0.96278000  1.0
  O  O167  1  0.93780000  0.08150000  0.95171000  1.0
  O  O168  1  0.68074000  0.23362000  0.87098000  1.0
  O  O169  1  0.60616000  0.41996000  0.62114000  1.0
  O  O170  1  0.60478000  0.32656000  0.62415000  1.0
  O  O171  1  0.52280000  0.45714000  0.53300000  1.0
