# generated using pymatgen
data_CuH34C50(NO)6
_symmetry_space_group_name_H-M   'P 1'
_cell_length_a   7.02858000
_cell_length_b   10.90470000
_cell_length_c   13.76880000
_cell_angle_alpha   82.58130000
_cell_angle_beta   89.68290000
_cell_angle_gamma   73.36610000
_symmetry_Int_Tables_number   1
_chemical_formula_structural   CuH34C50(NO)6
_chemical_formula_sum   'Cu1 H34 C50 N6 O6'
_cell_volume   1002.12984453
_cell_formula_units_Z   1
loop_
 _symmetry_equiv_pos_site_id
 _symmetry_equiv_pos_as_xyz
  1  'x, y, z'
loop_
 _atom_site_type_symbol
 _atom_site_label
 _atom_site_symmetry_multiplicity
 _atom_site_fract_x
 _atom_site_fract_y
 _atom_site_fract_z
 _atom_site_occupancy
  Cu  Cu0  1  0.50000000  0.00000000  0.00000000  1.0
  H  H1  1  0.14449000  0.03585000  0.92107000  1.0
  H  H2  1  0.85551000  0.96415000  0.07893000  1.0
  H  H3  1  0.28222000  0.89262000  0.48826000  1.0
  H  H4  1  0.71778000  0.10738000  0.51174000  1.0
  H  H5  1  0.20811000  0.53970000  0.63994000  1.0
  H  H6  1  0.79189000  0.46030000  0.36006000  1.0
  H  H7  1  0.35427000  0.98168000  0.36088000  1.0
  H  H8  1  0.64575000  0.01832000  0.63912000  1.0
  H  H9  1  0.43583000  0.07681000  0.19749000  1.0
  H  H10  1  0.56418000  0.92319000  0.80251000  1.0
  H  H11  1  0.41376000  0.75914000  0.06879000  1.0
  H  H12  1  0.58623000  0.24086000  0.93121000  1.0
  H  H13  1  0.33356000  0.64751000  0.22853000  1.0
  H  H14  1  0.66644000  0.35249000  0.77147000  1.0
  H  H15  1  0.21538000  0.35337000  0.63105000  1.0
  H  H16  1  0.78462000  0.64663000  0.36895000  1.0
  H  H17  1  0.22266000  0.13301000  0.60691000  1.0
  H  H18  1  0.77734000  0.86699000  0.39309000  1.0
  H  H19  1  0.26481000  0.21023000  0.30653000  1.0
  H  H20  1  0.73518000  0.78977000  0.69347000  1.0
  H  H21  1  0.26958000  0.43541000  0.31875000  1.0
  H  H22  1  0.73042000  0.56459000  0.68125000  1.0
  H  H23  1  0.08193000  0.97383000  0.60287000  1.0
  H  H24  1  0.91806000  0.02618000  0.39713000  1.0
  H  H25  1  0.06391000  0.06966000  0.75798000  1.0
  H  H26  1  0.93609000  0.93035000  0.24202000  1.0
  H  H27  1  0.33185000  0.69209000  0.91606000  1.0
  H  H28  1  0.66814000  0.30791000  0.08394000  1.0
  H  H29  1  0.35527000  0.59656000  0.76124000  1.0
  H  H30  1  0.64472000  0.40344000  0.23876000  1.0
  H  H31  1  0.72534000  0.64126000  0.88785000  1.0
  H  H32  1  0.27467000  0.35874000  0.11215000  1.0
  H  H33  1  0.87744000  0.40758000  0.86564000  1.0
  H  H34  1  0.12257000  0.59242000  0.13436000  1.0
  C  C35  1  0.24154000  0.72364000  0.57718000  1.0
  C  C36  1  0.75845000  0.27636000  0.42282000  1.0
  C  C37  1  0.27042000  0.79501000  0.48869000  1.0
  C  C38  1  0.72959000  0.20499000  0.51131000  1.0
  C  C39  1  0.29365000  0.73738000  0.40261000  1.0
  C  C40  1  0.70635000  0.26262000  0.59739000  1.0
  C  C41  1  0.25342000  0.54755000  0.48389000  1.0
  C  C42  1  0.74658000  0.45245000  0.51611000  1.0
  C  C43  1  0.23407000  0.59724000  0.57336000  1.0
  C  C44  1  0.76593000  0.40277000  0.42664000  1.0
  C  C45  1  0.33879000  0.80396000  0.30842000  1.0
  C  C46  1  0.66122000  0.19603000  0.69158000  1.0
  C  C47  1  0.36789000  0.92695000  0.29895000  1.0
  C  C48  1  0.63212000  0.07304000  0.70105000  1.0
  C  C49  1  0.41293000  0.98151000  0.20815000  1.0
  C  C50  1  0.58708000  0.01848000  0.79185000  1.0
  C  C51  1  0.40134000  0.80304000  0.13594000  1.0
  C  C52  1  0.59866000  0.19696000  0.86406000  1.0
  C  C53  1  0.35646000  0.74252000  0.22398000  1.0
  C  C54  1  0.64354000  0.25748000  0.77602000  1.0
  C  C55  1  0.24488000  0.41485000  0.47585000  1.0
  C  C56  1  0.75512000  0.58515000  0.52415000  1.0
  C  C57  1  0.22780000  0.32736000  0.55703000  1.0
  C  C58  1  0.77220000  0.67264000  0.44296000  1.0
  C  C59  1  0.23112000  0.20233000  0.54359000  1.0
  C  C60  1  0.76887000  0.79767000  0.45641000  1.0
  C  C61  1  0.25702000  0.24453000  0.37798000  1.0
  C  C62  1  0.74297000  0.75547000  0.62202000  1.0
  C  C63  1  0.25741000  0.37073000  0.38409000  1.0
  C  C64  1  0.74259000  0.62927000  0.61591000  1.0
  C  C65  1  0.22341000  0.77858000  0.66981000  1.0
  C  C66  1  0.77658000  0.22143000  0.33019000  1.0
  C  C67  1  0.14160000  0.91206000  0.67102000  1.0
  C  C68  1  0.85840000  0.08795000  0.32898000  1.0
  C  C69  1  0.12901000  0.96621000  0.75757000  1.0
  C  C70  1  0.87099000  0.03379000  0.24243000  1.0
  C  C71  1  0.19907000  0.88742000  0.84672000  1.0
  C  C72  1  0.80093000  0.11258000  0.15328000  1.0
  C  C73  1  0.27822000  0.75329000  0.84701000  1.0
  C  C74  1  0.72177000  0.24672000  0.15299000  1.0
  C  C75  1  0.28940000  0.70046000  0.75984000  1.0
  C  C76  1  0.71060000  0.29955000  0.24016000  1.0
  C  C77  1  0.82814000  0.76850000  0.02674000  1.0
  C  C78  1  0.17186000  0.23150000  0.97326000  1.0
  C  C79  1  0.91651000  0.62979000  0.01235000  1.0
  C  C80  1  0.08350000  0.37021000  0.98766000  1.0
  C  C81  1  0.84570000  0.57849000  0.93651000  1.0
  C  C82  1  0.15430000  0.42151000  0.06349000  1.0
  C  C83  1  0.92897000  0.44954000  0.92433000  1.0
  C  C84  1  0.07103000  0.55046000  0.07567000  1.0
  N  N85  1  0.28353000  0.61652000  0.40021000  1.0
  N  N86  1  0.71648000  0.38348000  0.59979000  1.0
  N  N87  1  0.43062000  0.92061000  0.12809000  1.0
  N  N88  1  0.56938000  0.07938000  0.87191000  1.0
  N  N89  1  0.24710000  0.15899000  0.45605000  1.0
  N  N90  1  0.75289000  0.84101000  0.54395000  1.0
  O  O91  1  0.67232000  0.83009000  0.97257000  1.0
  O  O92  1  0.32768000  0.16991000  0.02743000  1.0
  O  O93  1  0.90711000  0.81462000  0.08971000  1.0
  O  O94  1  0.09291000  0.18538000  0.91028000  1.0
  O  O95  1  0.19370000  0.93657000  0.93202000  1.0
  O  O96  1  0.80630000  0.06344000  0.06798000  1.0
