# generated using pymatgen
data_CdH14C16N2O7
_symmetry_space_group_name_H-M   'P 1'
_cell_length_a   9.14799000
_cell_length_b   9.51960000
_cell_length_c   10.48450135
_cell_angle_alpha   63.32963288
_cell_angle_beta   89.94089958
_cell_angle_gamma   89.77790000
_symmetry_Int_Tables_number   1
_chemical_formula_structural   CdH14C16N2O7
_chemical_formula_sum   'Cd2 H28 C32 N4 O14'
_cell_volume   815.89392089
_cell_formula_units_Z   2
loop_
 _symmetry_equiv_pos_site_id
 _symmetry_equiv_pos_as_xyz
  1  'x, y, z'
loop_
 _atom_site_type_symbol
 _atom_site_label
 _atom_site_symmetry_multiplicity
 _atom_site_fract_x
 _atom_site_fract_y
 _atom_site_fract_z
 _atom_site_occupancy
  Cd  Cd0  1  0.74977000  0.25437000  0.66383000  1.0
  Cd  Cd1  1  0.25024000  0.74563000  0.33617000  1.0
  H  H2  1  0.23922000  0.13950000  0.81257000  1.0
  H  H3  1  0.76079000  0.86051000  0.18743000  1.0
  H  H4  1  0.34497000  0.08002000  0.97037000  1.0
  H  H5  1  0.65504000  0.91998000  0.02963000  1.0
  H  H6  1  0.38430000  0.55693000  0.00254000  1.0
  H  H7  1  0.61568000  0.44306000  0.99747000  1.0
  H  H8  1  0.08207000  0.45735000  0.88550000  1.0
  H  H9  1  0.91791000  0.54263000  0.11450000  1.0
  H  H10  1  0.84354000  0.56423000  0.45621000  1.0
  H  H11  1  0.15646000  0.43578000  0.54378000  1.0
  H  H12  1  0.67116000  0.56752000  0.45304000  1.0
  H  H13  1  0.32885000  0.43249000  0.54695000  1.0
  H  H14  1  0.97287000  0.96204000  0.86295000  1.0
  H  H15  1  0.02714000  0.03793000  0.13706000  1.0
  H  H16  1  0.09237000  0.72396000  0.86686000  1.0
  H  H17  1  0.90764000  0.27603000  0.13313000  1.0
  H  H18  1  0.02591000  0.64769000  0.67054000  1.0
  H  H19  1  0.97409000  0.35231000  0.32944000  1.0
  H  H20  1  0.84545000  0.80533000  0.49008000  1.0
  H  H21  1  0.15454000  0.19467000  0.50991000  1.0
  H  H22  1  0.67467000  0.92072000  0.36879000  1.0
  H  H23  1  0.32529000  0.07928000  0.63121000  1.0
  H  H24  1  0.48423000  0.08892000  0.20365000  1.0
  H  H25  1  0.51574000  0.91110000  0.79636000  1.0
  H  H26  1  0.40229000  0.33405000  0.22342000  1.0
  H  H27  1  0.59772000  0.66598000  0.77660000  1.0
  H  H28  1  0.52995000  0.40383000  0.39603000  1.0
  H  H29  1  0.47008000  0.59619000  0.60399000  1.0
  C  C30  1  0.46143000  0.22056000  0.77806000  1.0
  C  C31  1  0.53858000  0.77945000  0.22193000  1.0
  C  C32  1  0.32063000  0.17956000  0.86609000  1.0
  C  C33  1  0.67937000  0.82043000  0.13392000  1.0
  C  C34  1  0.25751000  0.31447000  0.88580000  1.0
  C  C35  1  0.74249000  0.68553000  0.11421000  1.0
  C  C36  1  0.35908000  0.39397000  0.94263000  1.0
  C  C37  1  0.64091000  0.60603000  0.05738000  1.0
  C  C38  1  0.11855000  0.36667000  0.85599000  1.0
  C  C39  1  0.88145000  0.63331000  0.14402000  1.0
  C  C40  1  0.00384000  0.31117000  0.78816000  1.0
  C  C41  1  0.99616000  0.68881000  0.21184000  1.0
  C  C42  1  0.94788000  0.92439000  0.78121000  1.0
  C  C43  1  0.05212000  0.07561000  0.21878000  1.0
  C  C44  1  0.01365000  0.79089000  0.78340000  1.0
  C  C45  1  0.98636000  0.20910000  0.21659000  1.0
  C  C46  1  0.97614000  0.74883000  0.67625000  1.0
  C  C47  1  0.02386000  0.25116000  0.32374000  1.0
  C  C48  1  0.87443000  0.83888000  0.57312000  1.0
  C  C49  1  0.12557000  0.16111000  0.42687000  1.0
  C  C50  1  0.81336000  0.97158000  0.57782000  1.0
  C  C51  1  0.18664000  0.02841000  0.42218000  1.0
  C  C52  1  0.70402000  0.07223000  0.47109000  1.0
  C  C53  1  0.29599000  0.92777000  0.52891000  1.0
  C  C54  1  0.64200000  0.02922000  0.37168000  1.0
  C  C55  1  0.35799000  0.97078000  0.62832000  1.0
  C  C56  1  0.53362000  0.12348000  0.27975000  1.0
  C  C57  1  0.46636000  0.87654000  0.72026000  1.0
  C  C58  1  0.48938000  0.25859000  0.28956000  1.0
  C  C59  1  0.51062000  0.74144000  0.71045000  1.0
  C  C60  1  0.55857000  0.29711000  0.38759000  1.0
  C  C61  1  0.44144000  0.70290000  0.61243000  1.0
  N  N62  1  0.85125000  0.01263000  0.68101000  1.0
  N  N63  1  0.14875000  0.98737000  0.31899000  1.0
  N  N64  1  0.66342000  0.20625000  0.47556000  1.0
  N  N65  1  0.33659000  0.79376000  0.52444000  1.0
  O  O66  1  0.56948000  0.12651000  0.82666000  1.0
  O  O67  1  0.43053000  0.87351000  0.17333000  1.0
  O  O68  1  0.46596000  0.34343000  0.65875000  1.0
  O  O69  1  0.53405000  0.65658000  0.34124000  1.0
  O  O70  1  0.49192000  0.36002000  0.95531000  1.0
  O  O71  1  0.50808000  0.64000000  0.04468000  1.0
  O  O72  1  0.30168000  0.50225000  0.97497000  1.0
  O  O73  1  0.69830000  0.49775000  0.02503000  1.0
  O  O74  1  0.88699000  0.25727000  0.85834000  1.0
  O  O75  1  0.11302000  0.74270000  0.14166000  1.0
  O  O76  1  0.02413000  0.32665000  0.66200000  1.0
  O  O77  1  0.97587000  0.67333000  0.33800000  1.0
  O  O78  1  0.75650000  0.52169000  0.51912000  1.0
  O  O79  1  0.24350000  0.47831000  0.48088000  1.0
