# generated using pymatgen
data_SnH14C7O2
_symmetry_space_group_name_H-M   'P 1'
_cell_length_a   9.25923000
_cell_length_b   10.00240000
_cell_length_c   12.02530000
_cell_angle_alpha   67.46970000
_cell_angle_beta   77.65070000
_cell_angle_gamma   65.29150000
_symmetry_Int_Tables_number   1
_chemical_formula_structural   SnH14C7O2
_chemical_formula_sum   'Sn4 H56 C28 O8'
_cell_volume   932.61639896
_cell_formula_units_Z   4
loop_
 _symmetry_equiv_pos_site_id
 _symmetry_equiv_pos_as_xyz
  1  'x, y, z'
loop_
 _atom_site_type_symbol
 _atom_site_label
 _atom_site_symmetry_multiplicity
 _atom_site_fract_x
 _atom_site_fract_y
 _atom_site_fract_z
 _atom_site_occupancy
  Sn  Sn0  1  0.59394000  0.97266000  0.27290000  1.0
  Sn  Sn1  1  0.40606000  0.02734000  0.72709000  1.0
  Sn  Sn2  1  0.77319000  0.42754000  0.21616000  1.0
  Sn  Sn3  1  0.22683000  0.57247000  0.78385000  1.0
  H  H4  1  0.41859000  0.54618000  0.24814000  1.0
  H  H5  1  0.58141000  0.45381000  0.75188000  1.0
  H  H6  1  0.33523000  0.59254000  0.05056000  1.0
  H  H7  1  0.66478000  0.40744000  0.94946000  1.0
  H  H8  1  0.19662000  0.50079000  0.12318000  1.0
  H  H9  1  0.80339000  0.49920000  0.87682000  1.0
  H  H10  1  0.05918000  0.78827000  0.05902000  1.0
  H  H11  1  0.94084000  0.21172000  0.94098000  1.0
  H  H12  1  0.19070000  0.80341000  0.13578000  1.0
  H  H13  1  0.80932000  0.19659000  0.86422000  1.0
  H  H14  1  0.95190000  0.83326000  0.25870000  1.0
  H  H15  1  0.04810000  0.16673000  0.74129000  1.0
  H  H16  1  0.04075000  0.60467000  0.44902000  1.0
  H  H17  1  0.95923000  0.39533000  0.55098000  1.0
  H  H18  1  0.18364000  0.68758000  0.37052000  1.0
  H  H19  1  0.81635000  0.31241000  0.62949000  1.0
  H  H20  1  0.30845000  0.39834000  0.44082000  1.0
  H  H21  1  0.69153000  0.60165000  0.55918000  1.0
  H  H22  1  0.17753000  0.38727000  0.36027000  1.0
  H  H23  1  0.82246000  0.61273000  0.63974000  1.0
  H  H24  1  0.65003000  0.89554000  0.50790000  1.0
  H  H25  1  0.34999000  0.10445000  0.49211000  1.0
  H  H26  1  0.68022000  0.07346000  0.41875000  1.0
  H  H27  1  0.31980000  0.92655000  0.58125000  1.0
  H  H28  1  0.82986000  0.88964000  0.41699000  1.0
  H  H29  1  0.17016000  0.11035000  0.58300000  1.0
  H  H30  1  0.79915000  0.05913000  0.08764000  1.0
  H  H31  1  0.20084000  0.94088000  0.91235000  1.0
  H  H32  1  0.60586000  0.13388000  0.03475000  1.0
  H  H33  1  0.39412000  0.86612000  0.96526000  1.0
  H  H34  1  0.73079000  0.93340000  0.05774000  1.0
  H  H35  1  0.26919000  0.06661000  0.94226000  1.0
  H  H36  1  0.33296000  0.90469000  0.38801000  1.0
  H  H37  1  0.66704000  0.09531000  0.61199000  1.0
  H  H38  1  0.43628000  0.78748000  0.29344000  1.0
  H  H39  1  0.56373000  0.21251000  0.70657000  1.0
  H  H40  1  0.31123000  0.98883000  0.22926000  1.0
  H  H41  1  0.68877000  0.01117000  0.77073000  1.0
  H  H42  1  0.00797000  0.28597000  0.07232000  1.0
  H  H43  1  0.99204000  0.71403000  0.92767000  1.0
  H  H44  1  0.94843000  0.14187000  0.19307000  1.0
  H  H45  1  0.05156000  0.85814000  0.80693000  1.0
  H  H46  1  0.07612000  0.22023000  0.21928000  1.0
  H  H47  1  0.92388000  0.77977000  0.78071000  1.0
  H  H48  1  0.74291000  0.66148000  0.00109000  1.0
  H  H49  1  0.25704000  0.33856000  0.99890000  1.0
  H  H50  1  0.60226000  0.73516000  0.11102000  1.0
  H  H51  1  0.39773000  0.26485000  0.88896000  1.0
  H  H52  1  0.56321000  0.62426000  0.04200000  1.0
  H  H53  1  0.43679000  0.37577000  0.95800000  1.0
  H  H54  1  0.78160000  0.27260000  0.45646000  1.0
  H  H55  1  0.21840000  0.72739000  0.54353000  1.0
  H  H56  1  0.57792000  0.37033000  0.42072000  1.0
  H  H57  1  0.42207000  0.62968000  0.57926000  1.0
  H  H58  1  0.68519000  0.47795000  0.43044000  1.0
  H  H59  1  0.31482000  0.52205000  0.56955000  1.0
  C  C60  1  0.35077000  0.47963000  0.24533000  1.0
  C  C61  1  0.64924000  0.52037000  0.75467000  1.0
  C  C62  1  0.25490000  0.57170000  0.13159000  1.0
  C  C63  1  0.74510000  0.42830000  0.86841000  1.0
  C  C64  1  0.13003000  0.72780000  0.13877000  1.0
  C  C65  1  0.86998000  0.27219000  0.86123000  1.0
  C  C66  1  0.01944000  0.71513000  0.25429000  1.0
  C  C67  1  0.98057000  0.28486000  0.74571000  1.0
  C  C68  1  0.11924000  0.61895000  0.36604000  1.0
  C  C69  1  0.88077000  0.38104000  0.63396000  1.0
  C  C70  1  0.23915000  0.46037000  0.36003000  1.0
  C  C71  1  0.76085000  0.53962000  0.63998000  1.0
  C  C72  1  0.47002000  0.32385000  0.23519000  1.0
  C  C73  1  0.52997000  0.67613000  0.76481000  1.0
  C  C74  1  0.89696000  0.64839000  0.25869000  1.0
  C  C75  1  0.10306000  0.35161000  0.74129000  1.0
  C  C76  1  0.70134000  0.95569000  0.42250000  1.0
  C  C77  1  0.29868000  0.04430000  0.57751000  1.0
  C  C78  1  0.69561000  0.03125000  0.09100000  1.0
  C  C79  1  0.30437000  0.96875000  0.90901000  1.0
  C  C80  1  0.39418000  0.90460000  0.29940000  1.0
  C  C81  1  0.60582000  0.09540000  0.70061000  1.0
  C  C82  1  0.97611000  0.24622000  0.16937000  1.0
  C  C83  1  0.02388000  0.75380000  0.83063000  1.0
  C  C84  1  0.65533000  0.63796000  0.07550000  1.0
  C  C85  1  0.34469000  0.36203000  0.92452000  1.0
  C  C86  1  0.69383000  0.38174000  0.40383000  1.0
  C  C87  1  0.30617000  0.61827000  0.59617000  1.0
  O  O88  1  0.41657000  0.21570000  0.25984000  1.0
  O  O89  1  0.58344000  0.78429000  0.74016000  1.0
  O  O90  1  0.61563000  0.30352000  0.20142000  1.0
  O  O91  1  0.38437000  0.69649000  0.79858000  1.0
  O  O92  1  0.75298000  0.71033000  0.29496000  1.0
  O  O93  1  0.24702000  0.28967000  0.70504000  1.0
  O  O94  1  0.94581000  0.52621000  0.22809000  1.0
  O  O95  1  0.05420000  0.47381000  0.77189000  1.0
