# generated using pymatgen
data_HgH6C7S(IN)2
_symmetry_space_group_name_H-M   'P 1'
_cell_length_a   6.63694000
_cell_length_b   9.24792444
_cell_length_c   10.95860000
_cell_angle_alpha   112.10720746
_cell_angle_beta   90.02960000
_cell_angle_gamma   110.94724203
_symmetry_Int_Tables_number   1
_chemical_formula_structural   HgH6C7S(IN)2
_chemical_formula_sum   'Hg2 H12 C14 S2 I4 N4'
_cell_volume   574.84723380
_cell_formula_units_Z   2
loop_
 _symmetry_equiv_pos_site_id
 _symmetry_equiv_pos_as_xyz
  1  'x, y, z'
loop_
 _atom_site_type_symbol
 _atom_site_label
 _atom_site_symmetry_multiplicity
 _atom_site_fract_x
 _atom_site_fract_y
 _atom_site_fract_z
 _atom_site_occupancy
  Hg  Hg0  1  0.35060000  0.70253000  0.55187000  1.0
  Hg  Hg1  1  0.64941000  0.29747000  0.44813000  1.0
  H  H2  1  0.38532000  0.77088000  0.09520000  1.0
  H  H3  1  0.61468000  0.22912000  0.90480000  1.0
  H  H4  1  0.22020000  0.43939000  0.27878000  1.0
  H  H5  1  0.77980000  0.56061000  0.72121000  1.0
  H  H6  1  0.06471000  0.12693000  0.05144000  1.0
  H  H7  1  0.93527000  0.87306000  0.94856000  1.0
  H  H8  1  0.00711000  0.01255000  0.80004000  1.0
  H  H9  1  0.99287000  0.98745000  0.19996000  1.0
  H  H10  1  0.10403000  0.20746000  0.68639000  1.0
  H  H11  1  0.89596000  0.79254000  0.31361000  1.0
  H  H12  1  0.26040000  0.52023000  0.81410000  1.0
  H  H13  1  0.73959000  0.47977000  0.18590000  1.0
  C  C14  1  0.32497000  0.64979000  0.22704000  1.0
  C  C15  1  0.67503000  0.35021000  0.77296000  1.0
  C  C16  1  0.24841000  0.49628000  0.00421000  1.0
  C  C17  1  0.75159000  0.50372000  0.99580000  1.0
  C  C18  1  0.19256000  0.38416000  0.06870000  1.0
  C  C19  1  0.80745000  0.61584000  0.93130000  1.0
  C  C20  1  0.10552000  0.20957000  0.99853000  1.0
  C  C21  1  0.89448000  0.79043000  0.00147000  1.0
  C  C22  1  0.07485000  0.14857000  0.85975000  1.0
  C  C23  1  0.92515000  0.85143000  0.14025000  1.0
  C  C24  1  0.13010000  0.25951000  0.79489000  1.0
  C  C25  1  0.86990000  0.74049000  0.20511000  1.0
  C  C26  1  0.21783000  0.43520000  0.86532000  1.0
  C  C27  1  0.78217000  0.56480000  0.13467000  1.0
  S  S28  1  0.40972000  0.82028000  0.37568000  1.0
  S  S29  1  0.59028000  0.17972000  0.62432000  1.0
  I  I30  1  0.43711000  0.87151000  0.82297000  1.0
  I  I31  1  0.56288000  0.12849000  0.17704000  1.0
  I  I32  1  0.16941000  0.33879000  0.46841000  1.0
  I  I33  1  0.83059000  0.66121000  0.53159000  1.0
  N  N34  1  0.32927000  0.65849000  0.10567000  1.0
  N  N35  1  0.67073000  0.34150000  0.89433000  1.0
  N  N36  1  0.24220000  0.48361000  0.20459000  1.0
  N  N37  1  0.75780000  0.51639000  0.79541000  1.0
