# generated using pymatgen
data_Al4H19C26ClO22
_symmetry_space_group_name_H-M   'P 1'
_cell_length_a   6.64994000
_cell_length_b   13.48930000
_cell_length_c   16.98880000
_cell_angle_alpha   90.03900000
_cell_angle_beta   91.34110000
_cell_angle_gamma   91.27970000
_symmetry_Int_Tables_number   1
_chemical_formula_structural   Al4H19C26ClO22
_chemical_formula_sum   'Al4 H19 C26 Cl1 O22'
_cell_volume   1523.14839351
_cell_formula_units_Z   1
loop_
 _symmetry_equiv_pos_site_id
 _symmetry_equiv_pos_as_xyz
  1  'x, y, z'
loop_
 _atom_site_type_symbol
 _atom_site_label
 _atom_site_symmetry_multiplicity
 _atom_site_fract_x
 _atom_site_fract_y
 _atom_site_fract_z
 _atom_site_occupancy
  Al  Al0  1  0.88086000  0.49533000  0.49505000  1.0
  Al  Al1  1  0.38187000  0.49697000  0.49932000  1.0
  Al  Al2  1  0.38684000  0.00257000  0.99700000  1.0
  Al  Al3  1  0.88738000  0.00428000  0.99700000  1.0
  H  H4  1  0.40891000  0.78207000  0.82244000  1.0
  H  H5  1  0.96472000  0.82818000  0.78485000  1.0
  H  H6  1  0.41317000  0.69898000  0.69819000  1.0
  H  H7  1  0.85625000  0.69309000  0.30139000  1.0
  H  H8  1  0.85012000  0.77918000  0.17873000  1.0
  H  H9  1  0.29977000  0.82879000  0.21064000  1.0
  H  H10  1  0.93399000  0.20652000  0.81582000  1.0
  H  H11  1  0.47499000  0.18618000  0.78872000  1.0
  H  H12  1  0.94074000  0.31116000  0.69708000  1.0
  H  H13  1  0.47792000  0.29237000  0.69177000  1.0
  H  H14  1  0.51710000  0.23431000  0.17736000  1.0
  H  H15  1  0.91642000  0.29280000  0.32823000  1.0
  H  H16  1  0.45636000  0.28954000  0.29870000  1.0
  H  H17  1  0.82966000  0.58013000  0.69168000  1.0
  H  H18  1  0.43574000  0.58170000  0.30217000  1.0
  H  H19  1  0.64291000  0.62379000  0.52109000  1.0
  H  H20  1  0.12821000  0.37092000  0.52542000  1.0
  H  H21  1  0.63658000  0.88327000  0.03323000  1.0
  H  H22  1  0.14755000  0.12399000  0.03217000  1.0
  C  C23  1  0.64034000  0.38010000  0.60642000  1.0
  C  C24  1  0.60995000  0.37809000  0.39116000  1.0
  C  C25  1  0.12648000  0.60502000  0.38607000  1.0
  C  C26  1  0.14325000  0.60995000  0.60743000  1.0
  C  C27  1  0.26471000  0.77528000  0.79030000  1.0
  C  C28  1  0.10918000  0.82843000  0.81631000  1.0
  C  C29  1  0.26354000  0.71345000  0.72084000  1.0
  C  C30  1  0.10767000  0.66626000  0.68124000  1.0
  C  C31  1  0.00363000  0.71024000  0.27651000  1.0
  C  C32  1  0.16122000  0.66382000  0.31298000  1.0
  C  C33  1  0.99745000  0.77385000  0.20825000  1.0
  C  C34  1  0.15302000  0.82919000  0.18090000  1.0
  C  C35  1  0.79062000  0.22080000  0.78560000  1.0
  C  C36  1  0.62427000  0.17739000  0.81548000  1.0
  C  C37  1  0.79374000  0.28464000  0.71684000  1.0
  C  C38  1  0.62997000  0.31487000  0.67567000  1.0
  C  C39  1  0.79545000  0.20425000  0.23033000  1.0
  C  C40  1  0.65331000  0.19140000  0.17257000  1.0
  C  C41  1  0.77672000  0.27158000  0.29682000  1.0
  C  C42  1  0.60474000  0.30846000  0.32382000  1.0
  C  C43  1  0.65492000  0.12471000  0.10382000  1.0
  C  C44  1  0.62875000  0.11476000  0.88676000  1.0
  C  C45  1  0.12078000  0.88925000  0.88881000  1.0
  C  C46  1  0.14290000  0.89032000  0.10872000  1.0
  C  C47  1  0.89400000  0.65552000  0.70444000  1.0
  C  C48  1  0.37149000  0.65480000  0.28664000  1.0
  Cl  Cl49  1  0.02030000  0.14155000  0.23332000  1.0
  O  O50  1  0.44327000  0.41571000  0.40954000  1.0
  O  O51  1  0.81155000  0.41439000  0.58570000  1.0
  O  O52  1  0.98258000  0.59728000  0.56495000  1.0
  O  O53  1  0.77886000  0.39520000  0.42622000  1.0
  O  O54  1  0.95252000  0.57215000  0.40314000  1.0
  O  O55  1  0.47131000  0.39737000  0.57175000  1.0
  O  O56  1  0.63468000  0.55808000  0.49799000  1.0
  O  O57  1  0.28632000  0.59404000  0.42821000  1.0
  O  O58  1  0.31688000  0.58041000  0.58996000  1.0
  O  O59  1  0.12950000  0.43489000  0.49951000  1.0
  O  O60  1  0.79683000  0.10019000  0.92169000  1.0
  O  O61  1  0.48342000  0.10692000  0.07044000  1.0
  O  O62  1  0.31448000  0.92278000  0.08625000  1.0
  O  O63  1  0.45799000  0.08067000  0.90810000  1.0
  O  O64  1  0.28951000  0.90295000  0.92462000  1.0
  O  O65  1  0.82264000  0.09150000  0.08236000  1.0
  O  O66  1  0.63539000  0.94251000  0.00092000  1.0
  O  O67  1  0.95331000  0.92360000  0.91012000  1.0
  O  O68  1  0.97365000  0.90556000  0.07444000  1.0
  O  O69  1  0.14055000  0.06540000  0.99896000  1.0
  O  O70  1  0.78914000  0.71774000  0.73532000  1.0
  O  O71  1  0.47362000  0.71575000  0.25043000  1.0
