# generated using pymatgen
data_AgPH16C20SNO3
_symmetry_space_group_name_H-M   'P 1'
_cell_length_a   8.50522000
_cell_length_b   11.27320000
_cell_length_c   11.52330000
_cell_angle_alpha   90.72970000
_cell_angle_beta   106.59000000
_cell_angle_gamma   103.59400000
_symmetry_Int_Tables_number   1
_chemical_formula_structural   AgPH16C20SNO3
_chemical_formula_sum   'Ag2 P2 H32 C40 S2 N2 O6'
_cell_volume   1025.42180550
_cell_formula_units_Z   2
loop_
 _symmetry_equiv_pos_site_id
 _symmetry_equiv_pos_as_xyz
  1  'x, y, z'
loop_
 _atom_site_type_symbol
 _atom_site_label
 _atom_site_symmetry_multiplicity
 _atom_site_fract_x
 _atom_site_fract_y
 _atom_site_fract_z
 _atom_site_occupancy
  Ag  Ag0  1  0.68779000  0.48679000  0.73654000  1.0
  Ag  Ag1  1  0.31222000  0.51321000  0.26346000  1.0
  P  P2  1  0.81332000  0.60656000  0.92098000  1.0
  P  P3  1  0.18668000  0.39344000  0.07902000  1.0
  H  H4  1  0.85091000  0.04122000  0.57431000  1.0
  H  H5  1  0.14910000  0.95878000  0.42569000  1.0
  H  H6  1  0.72176000  0.90358000  0.38100000  1.0
  H  H7  1  0.27825000  0.09642000  0.61900000  1.0
  H  H8  1  0.49048000  0.94946000  0.21578000  1.0
  H  H9  1  0.50952000  0.05053000  0.78422000  1.0
  H  H10  1  0.37313000  0.12867000  0.24262000  1.0
  H  H11  1  0.62685000  0.87132000  0.75738000  1.0
  H  H12  1  0.87803000  0.72737000  0.71247000  1.0
  H  H13  1  0.12198000  0.27264000  0.28753000  1.0
  H  H14  1  0.06490000  0.92451000  0.69068000  1.0
  H  H15  1  0.93509000  0.07550000  0.30931000  1.0
  H  H16  1  0.24758000  0.06312000  0.87480000  1.0
  H  H17  1  0.75242000  0.93688000  0.12520000  1.0
  H  H18  1  0.24102000  0.00137000  0.07971000  1.0
  H  H19  1  0.75899000  0.99864000  0.92029000  1.0
  H  H20  1  0.05656000  0.80468000  0.10379000  1.0
  H  H21  1  0.94344000  0.19533000  0.89622000  1.0
  H  H22  1  0.49351000  0.66562000  0.82788000  1.0
  H  H23  1  0.50649000  0.33438000  0.17212000  1.0
  H  H24  1  0.30703000  0.74342000  0.92543000  1.0
  H  H25  1  0.69297000  0.25658000  0.07457000  1.0
  H  H26  1  0.37077000  0.75582000  0.15035000  1.0
  H  H27  1  0.62923000  0.24418000  0.84966000  1.0
  H  H28  1  0.63264000  0.70369000  0.27916000  1.0
  H  H29  1  0.36737000  0.29631000  0.72084000  1.0
  H  H30  1  0.82893000  0.64134000  0.18377000  1.0
  H  H31  1  0.17108000  0.35866000  0.81623000  1.0
  H  H32  1  0.02482000  0.58970000  0.11093000  1.0
  H  H33  1  0.97518000  0.41030000  0.88907000  1.0
  H  H34  1  0.85858000  0.45429000  0.06013000  1.0
  H  H35  1  0.14142000  0.54571000  0.93987000  1.0
  C  C36  1  0.74184000  0.25457000  0.62097000  1.0
  C  C37  1  0.25815000  0.74543000  0.37903000  1.0
  C  C38  1  0.68630000  0.16150000  0.51405000  1.0
  C  C39  1  0.31369000  0.83849000  0.48596000  1.0
  C  C40  1  0.74883000  0.06019000  0.50083000  1.0
  C  C41  1  0.25117000  0.93980000  0.49917000  1.0
  C  C42  1  0.67612000  0.98420000  0.39257000  1.0
  C  C43  1  0.32388000  0.01579000  0.60743000  1.0
  C  C44  1  0.54390000  0.00941000  0.29965000  1.0
  C  C45  1  0.45609000  0.99058000  0.70035000  1.0
  C  C46  1  0.47863000  0.10991000  0.31316000  1.0
  C  C47  1  0.52137000  0.89008000  0.68684000  1.0
  C  C48  1  0.55287000  0.18394000  0.42128000  1.0
  C  C49  1  0.44712000  0.81605000  0.57872000  1.0
  C  C50  1  0.95557000  0.75177000  0.90935000  1.0
  C  C51  1  0.04444000  0.24824000  0.09065000  1.0
  C  C52  1  0.95836000  0.78689000  0.79346000  1.0
  C  C53  1  0.04165000  0.21312000  0.20654000  1.0
  C  C54  1  0.06298000  0.89870000  0.78113000  1.0
  C  C55  1  0.93702000  0.10131000  0.21887000  1.0
  C  C56  1  0.16599000  0.97560000  0.88403000  1.0
  C  C57  1  0.83402000  0.02441000  0.11597000  1.0
  C  C58  1  0.16297000  0.94052000  0.99944000  1.0
  C  C59  1  0.83704000  0.05948000  0.00056000  1.0
  C  C60  1  0.05801000  0.82963000  0.01290000  1.0
  C  C61  1  0.94200000  0.17038000  0.98710000  1.0
  C  C62  1  0.67458000  0.65010000  0.99888000  1.0
  C  C63  1  0.32541000  0.34990000  0.00112000  1.0
  C  C64  1  0.52620000  0.67769000  0.92681000  1.0
  C  C65  1  0.47380000  0.32231000  0.07319000  1.0
  C  C66  1  0.41968000  0.71866000  0.98146000  1.0
  C  C67  1  0.58032000  0.28135000  0.01854000  1.0
  C  C68  1  0.45701000  0.72728000  0.10808000  1.0
  C  C69  1  0.54299000  0.27272000  0.89192000  1.0
  C  C70  1  0.60313000  0.69760000  0.18024000  1.0
  C  C71  1  0.39688000  0.30241000  0.81976000  1.0
  C  C72  1  0.71317000  0.66051000  0.12604000  1.0
  C  C73  1  0.28684000  0.33949000  0.87396000  1.0
  C  C74  1  0.94595000  0.52710000  0.03042000  1.0
  C  C75  1  0.05405000  0.47291000  0.96958000  1.0
  S  S76  1  0.50209000  0.31613000  0.46978000  1.0
  S  S77  1  0.49791000  0.68386000  0.53022000  1.0
  N  N78  1  0.64700000  0.33978000  0.60271000  1.0
  N  N79  1  0.35299000  0.66021000  0.39729000  1.0
  O  O80  1  0.53926000  0.41443000  0.39294000  1.0
  O  O81  1  0.46073000  0.58556000  0.60706000  1.0
  O  O82  1  0.33277000  0.28752000  0.48307000  1.0
  O  O83  1  0.66722000  0.71247000  0.51693000  1.0
  O  O84  1  0.85824000  0.25398000  0.71475000  1.0
  O  O85  1  0.14176000  0.74601000  0.28525000  1.0
