# generated using pymatgen
data_KVH18C9(NO5)2
_symmetry_space_group_name_H-M   'P 1'
_cell_length_a   6.55998000
_cell_length_b   9.90198000
_cell_length_c   13.12580000
_cell_angle_alpha   71.60510000
_cell_angle_beta   76.28790000
_cell_angle_gamma   72.20350000
_symmetry_Int_Tables_number   1
_chemical_formula_structural   KVH18C9(NO5)2
_chemical_formula_sum   'K2 V2 H36 C18 N4 O20'
_cell_volume   760.94663431
_cell_formula_units_Z   2
loop_
 _symmetry_equiv_pos_site_id
 _symmetry_equiv_pos_as_xyz
  1  'x, y, z'
loop_
 _atom_site_type_symbol
 _atom_site_label
 _atom_site_symmetry_multiplicity
 _atom_site_fract_x
 _atom_site_fract_y
 _atom_site_fract_z
 _atom_site_occupancy
  K  K0  1  0.58040000  0.82884000  0.63118000  1.0
  K  K1  1  0.41961000  0.17116000  0.36882000  1.0
  V  V2  1  0.10445000  0.19641000  0.80408000  1.0
  V  V3  1  0.89555000  0.80359000  0.19592000  1.0
  H  H4  1  0.24530000  0.28009000  0.04758000  1.0
  H  H5  1  0.75469000  0.71991000  0.95242000  1.0
  H  H6  1  0.13182000  0.12766000  0.07618000  1.0
  H  H7  1  0.86818000  0.87234000  0.92382000  1.0
  H  H8  1  0.52256000  0.97745000  0.88581000  1.0
  H  H9  1  0.47745000  0.02255000  0.11419000  1.0
  H  H10  1  0.30098000  0.95331000  0.99239000  1.0
  H  H11  1  0.69902000  0.04669000  0.00761000  1.0
  H  H12  1  0.60307000  0.19956000  0.81304000  1.0
  H  H13  1  0.39693000  0.80044000  0.18696000  1.0
  H  H14  1  0.54831000  0.27979000  0.92256000  1.0
  H  H15  1  0.45169000  0.72022000  0.07744000  1.0
  H  H16  1  0.23887000  0.47219000  0.84316000  1.0
  H  H17  1  0.76112000  0.52781000  0.15684000  1.0
  H  H18  1  0.48811000  0.47495000  0.75483000  1.0
  H  H19  1  0.51189000  0.52506000  0.24518000  1.0
  H  H20  1  0.14677000  0.59469000  0.59724000  1.0
  H  H21  1  0.85323000  0.40531000  0.40276000  1.0
  H  H22  1  0.01425000  0.57360000  0.73193000  1.0
  H  H23  1  0.98575000  0.42640000  0.26807000  1.0
  H  H24  1  0.58613000  0.36537000  0.61695000  1.0
  H  H25  1  0.41387000  0.63463000  0.38305000  1.0
  H  H26  1  0.37382000  0.40217000  0.54308000  1.0
  H  H27  1  0.62618000  0.59782000  0.45692000  1.0
  H  H28  1  0.00007000  0.78813000  0.42670000  1.0
  H  H29  1  0.99993000  0.21186000  0.57330000  1.0
  H  H30  1  0.09712000  0.86493000  0.48263000  1.0
  H  H31  1  0.90289000  0.13506000  0.51737000  1.0
  H  H32  1  0.70317000  0.53570000  0.86624000  1.0
  H  H33  1  0.29683000  0.46430000  0.13376000  1.0
  H  H34  1  0.46858000  0.62898000  0.89095000  1.0
  H  H35  1  0.53142000  0.37101000  0.10905000  1.0
  H  H36  1  0.15375000  0.74715000  0.80506000  1.0
  H  H37  1  0.84625000  0.25286000  0.19494000  1.0
  H  H38  1  0.09956000  0.91327000  0.74858000  1.0
  H  H39  1  0.90044000  0.08674000  0.25141000  1.0
  C  C40  1  0.16867000  0.22405000  0.01227000  1.0
  C  C41  1  0.83133000  0.77595000  0.98773000  1.0
  C  C42  1  0.95184000  0.32121000  0.98454000  1.0
  C  C43  1  0.04817000  0.67879000  0.01546000  1.0
  C  C44  1  0.42754000  0.01337000  0.95775000  1.0
  C  C45  1  0.57246000  0.98663000  0.04225000  1.0
  C  C46  1  0.47351000  0.26240000  0.86272000  1.0
  C  C47  1  0.52649000  0.73760000  0.13729000  1.0
  C  C48  1  0.36734000  0.41000000  0.79293000  1.0
  C  C49  1  0.63266000  0.59000000  0.20707000  1.0
  C  C50  1  0.09273000  0.51339000  0.66979000  1.0
  C  C51  1  0.90726000  0.48661000  0.33021000  1.0
  C  C52  1  0.92135000  0.45833000  0.64531000  1.0
  C  C53  1  0.07865000  0.54167000  0.35469000  1.0
  C  C54  1  0.46996000  0.17980000  0.62869000  1.0
  C  C55  1  0.53004000  0.82020000  0.37131000  1.0
  C  C56  1  0.43103000  0.34104000  0.62111000  1.0
  C  C57  1  0.56898000  0.65895000  0.37889000  1.0
  N  N58  1  0.31367000  0.17150000  0.91901000  1.0
  N  N59  1  0.68633000  0.82850000  0.08099000  1.0
  N  N60  1  0.26940000  0.38835000  0.71090000  1.0
  N  N61  1  0.73060000  0.61165000  0.28910000  1.0
  O  O62  1  0.91261000  0.34238000  0.88724000  1.0
  O  O63  1  0.08739000  0.65762000  0.11276000  1.0
  O  O64  1  0.35839000  0.10433000  0.71009000  1.0
  O  O65  1  0.64161000  0.89567000  0.28991000  1.0
  O  O66  1  0.93952000  0.31604000  0.68201000  1.0
  O  O67  1  0.06048000  0.68396000  0.31799000  1.0
  O  O68  1  0.00232000  0.05363000  0.85459000  1.0
  O  O69  1  0.99769000  0.94637000  0.14541000  1.0
  O  O70  1  0.81655000  0.37405000  0.05555000  1.0
  O  O71  1  0.18344000  0.62595000  0.94445000  1.0
  O  O72  1  0.60235000  0.12400000  0.55842000  1.0
  O  O73  1  0.39766000  0.87600000  0.44158000  1.0
  O  O74  1  0.77256000  0.54478000  0.59635000  1.0
  O  O75  1  0.22744000  0.45522000  0.40365000  1.0
  O  O76  1  0.96253000  0.84052000  0.48329000  1.0
  O  O77  1  0.03748000  0.15948000  0.51671000  1.0
  O  O78  1  0.61319000  0.63713000  0.85036000  1.0
  O  O79  1  0.38681000  0.36287000  0.14964000  1.0
  O  O80  1  0.14966000  0.81720000  0.73270000  1.0
  O  O81  1  0.85034000  0.18280000  0.26730000  1.0
