# generated using pymatgen
data_Mn3H22C22(NO4)4
_symmetry_space_group_name_H-M   'P 1'
_cell_length_a   13.69030000
_cell_length_b   15.39630000
_cell_length_c   15.39690000
_cell_angle_alpha   111.58700000
_cell_angle_beta   107.25300000
_cell_angle_gamma   107.23400000
_symmetry_Int_Tables_number   1
_chemical_formula_structural   Mn3H22C22(NO4)4
_chemical_formula_sum   'Mn9 H66 C66 N12 O48'
_cell_volume   2564.11047309
_cell_formula_units_Z   3
loop_
 _symmetry_equiv_pos_site_id
 _symmetry_equiv_pos_as_xyz
  1  'x, y, z'
loop_
 _atom_site_type_symbol
 _atom_site_label
 _atom_site_symmetry_multiplicity
 _atom_site_fract_x
 _atom_site_fract_y
 _atom_site_fract_z
 _atom_site_occupancy
  Mn  Mn0  1  0.27619000  0.76011000  0.48685000  1.0
  Mn  Mn1  1  0.78938000  0.51333000  0.27328000  1.0
  Mn  Mn2  1  0.51598000  0.72668000  0.23991000  1.0
  Mn  Mn3  1  0.72381000  0.23989000  0.51315000  1.0
  Mn  Mn4  1  0.21063000  0.48667000  0.72671000  1.0
  Mn  Mn5  1  0.48402000  0.27332000  0.76009000  1.0
  Mn  Mn6  1  0.50000000  0.49999000  0.50000000  1.0
  Mn  Mn7  1  0.00000000  0.50000000  0.00000000  1.0
  Mn  Mn8  1  0.00001000  0.00000000  0.50001000  1.0
  H  H9  1  0.92588000  0.78945000  0.71742000  1.0
  H  H10  1  0.20847000  0.28208000  0.07184000  1.0
  H  H11  1  0.13654000  0.92816000  0.21054000  1.0
  H  H12  1  0.07412000  0.21056000  0.28257000  1.0
  H  H13  1  0.79152000  0.71791000  0.92816000  1.0
  H  H14  1  0.86346000  0.07184000  0.78946000  1.0
  H  H15  1  0.01941000  0.54001000  0.61161000  1.0
  H  H16  1  0.40775000  0.38855000  0.92842000  1.0
  H  H17  1  0.47939000  0.07156000  0.46001000  1.0
  H  H18  1  0.98058000  0.46000000  0.38839000  1.0
  H  H19  1  0.59225000  0.61143000  0.07158000  1.0
  H  H20  1  0.52061000  0.92844000  0.54000000  1.0
  H  H21  1  0.11421000  0.91725000  0.75108000  1.0
  H  H22  1  0.36333000  0.24856000  0.16600000  1.0
  H  H23  1  0.19701000  0.83403000  0.08268000  1.0
  H  H24  1  0.88579000  0.08276000  0.24891000  1.0
  H  H25  1  0.63666000  0.75143000  0.83399000  1.0
  H  H26  1  0.80300000  0.16598000  0.91732000  1.0
  H  H27  1  0.25331000  0.85671000  0.71243000  1.0
  H  H28  1  0.54126000  0.28775000  0.14436000  1.0
  H  H29  1  0.39661000  0.85572000  0.14320000  1.0
  H  H30  1  0.74669000  0.14329000  0.28757000  1.0
  H  H31  1  0.45873000  0.71224000  0.85564000  1.0
  H  H32  1  0.60339000  0.14428000  0.85680000  1.0
  H  H33  1  0.80729000  0.61217000  0.65655000  1.0
  H  H34  1  0.15068000  0.34334000  0.95576000  1.0
  H  H35  1  0.19509000  0.04445000  0.38781000  1.0
  H  H36  1  0.19271000  0.38783000  0.34344000  1.0
  H  H37  1  0.84933000  0.65666000  0.04424000  1.0
  H  H38  1  0.80492000  0.95556000  0.61218000  1.0
  H  H39  1  0.30851000  0.75037000  0.31327000  1.0
  H  H40  1  0.99545000  0.68667000  0.43704000  1.0
  H  H41  1  0.55815000  0.56293000  0.24960000  1.0
  H  H42  1  0.69148000  0.24963000  0.68673000  1.0
  H  H43  1  0.00455000  0.31333000  0.56296000  1.0
  H  H44  1  0.44185000  0.43707000  0.75040000  1.0
  H  H45  1  0.07911000  0.57296000  0.30806000  1.0
  H  H46  1  0.77110000  0.69212000  0.26486000  1.0
  H  H47  1  0.50617000  0.73506000  0.42714000  1.0
  H  H48  1  0.92089000  0.42705000  0.69194000  1.0
  H  H49  1  0.22890000  0.30789000  0.73514000  1.0
  H  H50  1  0.49383000  0.26495000  0.57286000  1.0
  H  H51  1  0.65086000  0.66254000  0.65917000  1.0
  H  H52  1  0.99155000  0.34087000  0.00350000  1.0
  H  H53  1  0.98818000  0.99666000  0.33744000  1.0
  H  H54  1  0.34914000  0.33747000  0.34082000  1.0
  H  H55  1  0.00846000  0.65914000  0.99650000  1.0
  H  H56  1  0.01182000  0.00333000  0.66256000  1.0
  H  H57  1  0.16242000  0.53837000  0.36340000  1.0
  H  H58  1  0.79932000  0.63693000  0.17509000  1.0
  H  H59  1  0.62399000  0.82486000  0.46158000  1.0
  H  H60  1  0.83758000  0.46163000  0.63660000  1.0
  H  H61  1  0.20069000  0.36307000  0.82491000  1.0
  H  H62  1  0.37600000  0.17516000  0.53842000  1.0
  H  H63  1  0.65738000  0.59040000  0.70807000  1.0
  H  H64  1  0.94919000  0.29201000  0.88252000  1.0
  H  H65  1  0.06672000  0.11765000  0.40954000  1.0
  H  H66  1  0.34262000  0.40960000  0.29192000  1.0
  H  H67  1  0.05081000  0.70799000  0.11747000  1.0
  H  H68  1  0.93327000  0.88235000  0.59045000  1.0
  H  H69  1  0.33028000  0.86742000  0.37961000  1.0
  H  H70  1  0.95074000  0.62036000  0.48777000  1.0
  H  H71  1  0.46275000  0.51219000  0.13257000  1.0
  H  H72  1  0.66972000  0.13259000  0.62040000  1.0
  H  H73  1  0.04927000  0.37965000  0.51223000  1.0
  H  H74  1  0.53726000  0.48781000  0.86744000  1.0
  C  C75  1  0.22984000  0.66074000  0.63801000  1.0
  C  C76  1  0.59195000  0.36213000  0.02276000  1.0
  C  C77  1  0.56902000  0.97714000  0.33928000  1.0
  C  C78  1  0.77015000  0.33925000  0.36199000  1.0
  C  C79  1  0.40806000  0.63787000  0.97724000  1.0
  C  C80  1  0.43098000  0.02286000  0.66072000  1.0
  C  C81  1  0.14604000  0.69478000  0.65948000  1.0
  C  C82  1  0.48668000  0.34065000  0.03533000  1.0
  C  C83  1  0.45121000  0.96461000  0.30523000  1.0
  C  C84  1  0.85397000  0.30522000  0.34053000  1.0
  C  C85  1  0.51332000  0.65935000  0.96466000  1.0
  C  C86  1  0.54879000  0.03539000  0.69477000  1.0
  C  C87  1  0.44528000  0.68114000  0.55091000  1.0
  C  C88  1  0.89451000  0.44913000  0.13034000  1.0
  C  C89  1  0.76411000  0.86963000  0.31890000  1.0
  C  C90  1  0.55472000  0.31886000  0.44909000  1.0
  C  C91  1  0.10549000  0.55089000  0.86966000  1.0
  C  C92  1  0.23589000  0.13036000  0.68110000  1.0
  C  C93  1  0.36606000  0.65442000  0.59453000  1.0
  C  C94  1  0.77165000  0.40544000  0.05998000  1.0
  C  C95  1  0.71159000  0.93998000  0.34563000  1.0
  C  C96  1  0.63392000  0.34556000  0.40546000  1.0
  C  C97  1  0.22835000  0.59457000  0.94003000  1.0
  C  C98  1  0.28841000  0.06002000  0.65437000  1.0
  C  C99  1  0.98755000  0.76320000  0.70124000  1.0
  C  C100  1  0.28633000  0.29840000  0.06179000  1.0
  C  C101  1  0.22444000  0.93820000  0.23675000  1.0
  C  C102  1  0.01245000  0.23680000  0.29876000  1.0
  C  C103  1  0.71367000  0.70160000  0.93820000  1.0
  C  C104  1  0.77558000  0.06181000  0.76325000  1.0
  C  C105  1  0.04064000  0.62268000  0.64125000  1.0
  C  C106  1  0.39942000  0.35887000  0.98148000  1.0
  C  C107  1  0.41791000  0.01852000  0.37732000  1.0
  C  C108  1  0.95936000  0.37732000  0.35876000  1.0
  C  C109  1  0.60058000  0.64112000  0.01852000  1.0
  C  C110  1  0.58209000  0.98147000  0.62268000  1.0
  C  C111  1  0.96152000  0.65689000  0.66166000  1.0
  C  C112  1  0.29985000  0.33824000  0.99523000  1.0
  C  C113  1  0.30463000  0.00486000  0.34307000  1.0
  C  C114  1  0.03847000  0.34312000  0.33834000  1.0
  C  C115  1  0.70014000  0.66175000  0.00476000  1.0
  C  C116  1  0.69537000  0.99514000  0.65693000  1.0
  C  C117  1  0.09278000  0.83426000  0.71948000  1.0
  C  C118  1  0.37347000  0.28031000  0.11469000  1.0
  C  C119  1  0.25855000  0.88535000  0.16567000  1.0
  C  C120  1  0.90723000  0.16574000  0.28053000  1.0
  C  C121  1  0.62653000  0.71968000  0.88530000  1.0
  C  C122  1  0.74145000  0.11465000  0.83433000  1.0
  C  C123  1  0.17157000  0.80107000  0.69841000  1.0
  C  C124  1  0.47343000  0.30168000  0.10273000  1.0
  C  C125  1  0.37049000  0.89730000  0.19890000  1.0
  C  C126  1  0.82843000  0.19892000  0.30159000  1.0
  C  C127  1  0.52656000  0.69830000  0.89726000  1.0
  C  C128  1  0.62951000  0.10270000  0.80111000  1.0
  C  C129  1  0.33871000  0.58284000  0.63009000  1.0
  C  C130  1  0.70871000  0.36981000  0.95279000  1.0
  C  C131  1  0.75574000  0.04710000  0.41716000  1.0
  C  C132  1  0.66128000  0.41714000  0.36989000  1.0
  C  C133  1  0.29130000  0.63018000  0.04721000  1.0
  C  C134  1  0.24426000  0.95290000  0.58285000  1.0
  C  C135  1  0.38306000  0.51028000  0.64380000  1.0
  C  C136  1  0.73938000  0.35616000  0.86657000  1.0
  C  C137  1  0.87259000  0.13337000  0.48968000  1.0
  C  C138  1  0.61694000  0.48971000  0.35620000  1.0
  C  C139  1  0.26061000  0.64384000  0.13343000  1.0
  C  C140  1  0.12740000  0.86662000  0.51033000  1.0
  N  N141  1  0.29613000  0.70235000  0.59939000  1.0
  N  N142  1  0.69684000  0.40069000  0.10299000  1.0
  N  N143  1  0.59373000  0.89694000  0.29773000  1.0
  N  N144  1  0.70387000  0.29764000  0.40061000  1.0
  N  N145  1  0.30316000  0.59930000  0.89701000  1.0
  N  N146  1  0.40627000  0.10307000  0.70227000  1.0
  N  N147  1  0.25251000  0.58783000  0.65705000  1.0
  N  N148  1  0.59555000  0.34301000  0.93081000  1.0
  N  N149  1  0.66455000  0.06906000  0.41218000  1.0
  N  N150  1  0.74749000  0.41216000  0.34295000  1.0
  N  N151  1  0.40445000  0.65697000  0.06919000  1.0
  N  N152  1  0.33545000  0.93094000  0.58783000  1.0
  O  O153  1  0.42648000  0.72801000  0.49941000  1.0
  O  O154  1  0.92727000  0.50075000  0.22868000  1.0
  O  O155  1  0.69850000  0.77130000  0.27211000  1.0
  O  O156  1  0.57353000  0.27200000  0.50061000  1.0
  O  O157  1  0.07274000  0.49927000  0.77131000  1.0
  O  O158  1  0.30150000  0.22870000  0.72789000  1.0
  O  O159  1  0.52835000  0.65632000  0.56343000  1.0
  O  O160  1  0.96502000  0.43654000  0.09300000  1.0
  O  O161  1  0.87198000  0.90700000  0.34368000  1.0
  O  O162  1  0.47164000  0.34367000  0.43656000  1.0
  O  O163  1  0.03498000  0.56347000  0.90700000  1.0
  O  O164  1  0.12801000  0.09299000  0.65633000  1.0
  O  O165  1  0.45574000  0.49423000  0.61235000  1.0
  O  O166  1  0.84353000  0.38750000  0.88196000  1.0
  O  O167  1  0.96137000  0.11802000  0.50575000  1.0
  O  O168  1  0.54426000  0.50577000  0.38764000  1.0
  O  O169  1  0.15647000  0.61251000  0.11805000  1.0
  O  O170  1  0.03863000  0.88198000  0.49426000  1.0
  O  O171  1  0.85905000  0.58290000  0.63948000  1.0
  O  O172  1  0.21950000  0.36047000  0.94353000  1.0
  O  O173  1  0.27614000  0.05663000  0.41707000  1.0
  O  O174  1  0.14095000  0.41712000  0.36052000  1.0
  O  O175  1  0.78050000  0.63953000  0.05646000  1.0
  O  O176  1  0.72387000  0.94337000  0.58292000  1.0
  O  O177  1  0.34689000  0.46499000  0.69087000  1.0
  O  O178  1  0.65616000  0.30927000  0.77426000  1.0
  O  O179  1  0.88164000  0.22568000  0.53491000  1.0
  O  O180  1  0.65311000  0.53499000  0.30912000  1.0
  O  O181  1  0.34383000  0.69073000  0.22574000  1.0
  O  O182  1  0.11836000  0.77431000  0.46509000  1.0
  O  O183  1  0.29223000  0.79647000  0.36721000  1.0
  O  O184  1  0.92523000  0.63267000  0.42913000  1.0
  O  O185  1  0.49571000  0.57074000  0.20351000  1.0
  O  O186  1  0.70777000  0.20354000  0.63279000  1.0
  O  O187  1  0.07477000  0.36732000  0.57087000  1.0
  O  O188  1  0.50429000  0.42926000  0.79649000  1.0
  O  O189  1  0.16047000  0.59949000  0.35765000  1.0
  O  O190  1  0.80297000  0.64259000  0.24188000  1.0
  O  O191  1  0.56096000  0.75797000  0.40054000  1.0
  O  O192  1  0.83953000  0.40052000  0.64235000  1.0
  O  O193  1  0.19702000  0.35741000  0.75812000  1.0
  O  O194  1  0.43904000  0.24203000  0.59947000  1.0
  O  O195  1  0.68769000  0.61796000  0.66857000  1.0
  O  O196  1  0.01901000  0.33124000  0.94954000  1.0
  O  O197  1  0.06956000  0.05064000  0.38193000  1.0
  O  O198  1  0.31230000  0.38204000  0.33141000  1.0
  O  O199  1  0.98099000  0.66876000  0.05046000  1.0
  O  O200  1  0.93044000  0.94936000  0.61807000  1.0
