# generated using pymatgen
data_SnH4(C2O)4
_symmetry_space_group_name_H-M   'P 1'
_cell_length_a   4.66919000
_cell_length_b   18.18090000
_cell_length_c   18.18090000
_cell_angle_alpha   90.00010000
_cell_angle_beta   90.00000000
_cell_angle_gamma   89.99990000
_symmetry_Int_Tables_number   1
_chemical_formula_structural   SnH4(C2O)4
_chemical_formula_sum   'Sn8 H32 C64 O32'
_cell_volume   1543.37799131
_cell_formula_units_Z   8
loop_
 _symmetry_equiv_pos_site_id
 _symmetry_equiv_pos_as_xyz
  1  'x, y, z'
loop_
 _atom_site_type_symbol
 _atom_site_label
 _atom_site_symmetry_multiplicity
 _atom_site_fract_x
 _atom_site_fract_y
 _atom_site_fract_z
 _atom_site_occupancy
  Sn  Sn0  1  0.50000000  0.15842000  0.65842000  1.0
  Sn  Sn1  1  0.00000000  0.84158000  0.15842000  1.0
  Sn  Sn2  1  0.50000000  0.34158000  0.84158000  1.0
  Sn  Sn3  1  0.00000000  0.65842000  0.34158000  1.0
  Sn  Sn4  1  0.50000000  0.84158000  0.34158000  1.0
  Sn  Sn5  1  0.99998000  0.15842000  0.84158000  1.0
  Sn  Sn6  1  0.50000000  0.65842000  0.15842000  1.0
  Sn  Sn7  1  0.00000000  0.34158000  0.65842000  1.0
  H  H8  1  0.36666000  0.21890000  0.44895000  1.0
  H  H9  1  0.86666000  0.05104000  0.21890000  1.0
  H  H10  1  0.36666000  0.28110000  0.05105000  1.0
  H  H11  1  0.86666000  0.44895000  0.28110000  1.0
  H  H12  1  0.13334000  0.71890000  0.55105000  1.0
  H  H13  1  0.63334000  0.94896000  0.71890000  1.0
  H  H14  1  0.13334000  0.78110000  0.94895000  1.0
  H  H15  1  0.63333000  0.55105000  0.78110000  1.0
  H  H16  1  0.63334000  0.78110000  0.55105000  1.0
  H  H17  1  0.13334000  0.94896000  0.78110000  1.0
  H  H18  1  0.63334000  0.71890000  0.94895000  1.0
  H  H19  1  0.13334000  0.55104000  0.71890000  1.0
  H  H20  1  0.86666000  0.28110000  0.44895000  1.0
  H  H21  1  0.36667000  0.05105000  0.28110000  1.0
  H  H22  1  0.86666000  0.21890000  0.05105000  1.0
  H  H23  1  0.36666000  0.44896000  0.21890000  1.0
  H  H24  1  0.54466000  0.17167000  0.32833000  1.0
  H  H25  1  0.04466000  0.17167000  0.17167000  1.0
  H  H26  1  0.54466000  0.32833000  0.17167000  1.0
  H  H27  1  0.04466000  0.32833000  0.32833000  1.0
  H  H28  1  0.95535000  0.67167000  0.67167000  1.0
  H  H29  1  0.45534000  0.82833000  0.67167000  1.0
  H  H30  1  0.95534000  0.82833000  0.82833000  1.0
  H  H31  1  0.45534000  0.67167000  0.82833000  1.0
  H  H32  1  0.78201000  0.03688000  0.46312000  1.0
  H  H33  1  0.28200000  0.03688000  0.03688000  1.0
  H  H34  1  0.78200000  0.46312000  0.03688000  1.0
  H  H35  1  0.28200000  0.46312000  0.46312000  1.0
  H  H36  1  0.71800000  0.53688000  0.53688000  1.0
  H  H37  1  0.21800000  0.96312000  0.53689000  1.0
  H  H38  1  0.71800000  0.96312000  0.96312000  1.0
  H  H39  1  0.21800000  0.53688000  0.96312000  1.0
  C  C40  1  0.95559000  0.15629000  0.53647000  1.0
  C  C41  1  0.45558000  0.96353000  0.15629000  1.0
  C  C42  1  0.95558000  0.34371000  0.96353000  1.0
  C  C43  1  0.45559000  0.53647000  0.34371000  1.0
  C  C44  1  0.54442000  0.65629000  0.46353000  1.0
  C  C45  1  0.04442000  0.03647000  0.65629000  1.0
  C  C46  1  0.54442000  0.84371000  0.03647000  1.0
  C  C47  1  0.04441000  0.46353000  0.84371000  1.0
  C  C48  1  0.04441000  0.84371000  0.46353000  1.0
  C  C49  1  0.54442000  0.03647000  0.84371000  1.0
  C  C50  1  0.04441000  0.65629000  0.03647000  1.0
  C  C51  1  0.54441000  0.46353000  0.65629000  1.0
  C  C52  1  0.45559000  0.34371000  0.53647000  1.0
  C  C53  1  0.95559000  0.96353000  0.34371000  1.0
  C  C54  1  0.45558000  0.15629000  0.96353000  1.0
  C  C55  1  0.95558000  0.53647000  0.15629000  1.0
  C  C56  1  0.06470000  0.13056000  0.46373000  1.0
  C  C57  1  0.56469000  0.03627000  0.13056000  1.0
  C  C58  1  0.06469000  0.36944000  0.03627000  1.0
  C  C59  1  0.56469000  0.46373000  0.36944000  1.0
  C  C60  1  0.43531000  0.63056000  0.53627000  1.0
  C  C61  1  0.93531000  0.96373000  0.63057000  1.0
  C  C62  1  0.43531000  0.86944000  0.96373000  1.0
  C  C63  1  0.93530000  0.53627000  0.86944000  1.0
  C  C64  1  0.93531000  0.86944000  0.53627000  1.0
  C  C65  1  0.43531000  0.96373000  0.86944000  1.0
  C  C66  1  0.93530000  0.63056000  0.96373000  1.0
  C  C67  1  0.43530000  0.53627000  0.63056000  1.0
  C  C68  1  0.56469000  0.36944000  0.46373000  1.0
  C  C69  1  0.06470000  0.03627000  0.36944000  1.0
  C  C70  1  0.56469000  0.13056000  0.03627000  1.0
  C  C71  1  0.06469000  0.46373000  0.13056000  1.0
  C  C72  1  0.27941000  0.16856000  0.42554000  1.0
  C  C73  1  0.77941000  0.07447000  0.16856000  1.0
  C  C74  1  0.27941000  0.33144000  0.07447000  1.0
  C  C75  1  0.77941000  0.42553000  0.33144000  1.0
  C  C76  1  0.22059000  0.66856000  0.57447000  1.0
  C  C77  1  0.72059000  0.92553000  0.66856000  1.0
  C  C78  1  0.22059000  0.83144000  0.92553000  1.0
  C  C79  1  0.72058000  0.57447000  0.83144000  1.0
  C  C80  1  0.72059000  0.83144000  0.57447000  1.0
  C  C81  1  0.22059000  0.92554000  0.83144000  1.0
  C  C82  1  0.72059000  0.66856000  0.92553000  1.0
  C  C83  1  0.22059000  0.57447000  0.66856000  1.0
  C  C84  1  0.77941000  0.33144000  0.42553000  1.0
  C  C85  1  0.27941000  0.07447000  0.33144000  1.0
  C  C86  1  0.77941000  0.16856000  0.07447000  1.0
  C  C87  1  0.27941000  0.42553000  0.16856000  1.0
  C  C88  1  0.38016000  0.14153000  0.35847000  1.0
  C  C89  1  0.88016000  0.14153000  0.14153000  1.0
  C  C90  1  0.38016000  0.35847000  0.14153000  1.0
  C  C91  1  0.88016000  0.35847000  0.35847000  1.0
  C  C92  1  0.11984000  0.64153000  0.64153000  1.0
  C  C93  1  0.61984000  0.85847000  0.64154000  1.0
  C  C94  1  0.11984000  0.85847000  0.85847000  1.0
  C  C95  1  0.61983000  0.64153000  0.85846000  1.0
  C  C96  1  0.95198000  0.06581000  0.43419000  1.0
  C  C97  1  0.45197000  0.06581000  0.06581000  1.0
  C  C98  1  0.95196000  0.43419000  0.06581000  1.0
  C  C99  1  0.45197000  0.43419000  0.43419000  1.0
  C  C100  1  0.54803000  0.56580000  0.56580000  1.0
  C  C101  1  0.04803000  0.93420000  0.56581000  1.0
  C  C102  1  0.54803000  0.93419000  0.93419000  1.0
  C  C103  1  0.04802000  0.56581000  0.93419000  1.0
  O  O104  1  0.10746000  0.19707000  0.57765000  1.0
  O  O105  1  0.60746000  0.92235000  0.19707000  1.0
  O  O106  1  0.10746000  0.30293000  0.92235000  1.0
  O  O107  1  0.60746000  0.57765000  0.30293000  1.0
  O  O108  1  0.39255000  0.69707000  0.42235000  1.0
  O  O109  1  0.89254000  0.07765000  0.69707000  1.0
  O  O110  1  0.39255000  0.80293000  0.07765000  1.0
  O  O111  1  0.89253000  0.42235000  0.80293000  1.0
  O  O112  1  0.89253000  0.80293000  0.42236000  1.0
  O  O113  1  0.39255000  0.07765000  0.80293000  1.0
  O  O114  1  0.89253000  0.69707000  0.07765000  1.0
  O  O115  1  0.39254000  0.42235000  0.69707000  1.0
  O  O116  1  0.60747000  0.30293000  0.57765000  1.0
  O  O117  1  0.10746000  0.92235000  0.30293000  1.0
  O  O118  1  0.60745000  0.19707000  0.92235000  1.0
  O  O119  1  0.10746000  0.57765000  0.19707000  1.0
  O  O120  1  0.70365000  0.13301000  0.55325000  1.0
  O  O121  1  0.20364000  0.94676000  0.13301000  1.0
  O  O122  1  0.70364000  0.36699000  0.94675000  1.0
  O  O123  1  0.20364000  0.55325000  0.36699000  1.0
  O  O124  1  0.79635000  0.63301000  0.44675000  1.0
  O  O125  1  0.29636000  0.05325000  0.63301000  1.0
  O  O126  1  0.79636000  0.86699000  0.05325000  1.0
  O  O127  1  0.29635000  0.44675000  0.86699000  1.0
  O  O128  1  0.29635000  0.86699000  0.44675000  1.0
  O  O129  1  0.79636000  0.05325000  0.86699000  1.0
  O  O130  1  0.29635000  0.63301000  0.05325000  1.0
  O  O131  1  0.79635000  0.44675000  0.63301000  1.0
  O  O132  1  0.20365000  0.36699000  0.55325000  1.0
  O  O133  1  0.70364000  0.94675000  0.36699000  1.0
  O  O134  1  0.20364000  0.13301000  0.94675000  1.0
  O  O135  1  0.70364000  0.55325000  0.13301000  1.0
