# generated using pymatgen
data_CdH10C12(BrN)2
_symmetry_space_group_name_H-M   'P 1'
_cell_length_a   3.92908000
_cell_length_b   8.70709000
_cell_length_c   9.34791000
_cell_angle_alpha   76.67610000
_cell_angle_beta   87.11980000
_cell_angle_gamma   82.63340000
_symmetry_Int_Tables_number   1
_chemical_formula_structural   CdH10C12(BrN)2
_chemical_formula_sum   'Cd1 H10 C12 Br2 N2'
_cell_volume   308.55230991
_cell_formula_units_Z   1
loop_
 _symmetry_equiv_pos_site_id
 _symmetry_equiv_pos_as_xyz
  1  'x, y, z'
loop_
 _atom_site_type_symbol
 _atom_site_label
 _atom_site_symmetry_multiplicity
 _atom_site_fract_x
 _atom_site_fract_y
 _atom_site_fract_z
 _atom_site_occupancy
  Cd  Cd0  1  0.50001000  0.50000000  0.50000000  1.0
  H  H1  1  0.66206000  0.13236000  0.88838000  1.0
  H  H2  1  0.33795000  0.86764000  0.11162000  1.0
  H  H3  1  0.79244000  0.34964000  0.97305000  1.0
  H  H4  1  0.20756000  0.65036000  0.02696000  1.0
  H  H5  1  0.77748000  0.50212000  0.17138000  1.0
  H  H6  1  0.22251000  0.49788000  0.82863000  1.0
  H  H7  1  0.33456000  0.15165000  0.47010000  1.0
  H  H8  1  0.66542000  0.84834000  0.52990000  1.0
  H  H9  1  0.33034000  0.98434000  0.28805000  1.0
  H  H10  1  0.66965000  0.01566000  0.71194000  1.0
  C  C11  1  0.55930000  0.07078000  0.99390000  1.0
  C  C12  1  0.44070000  0.92922000  0.00610000  1.0
  C  C13  1  0.56061000  0.15385000  0.11206000  1.0
  C  C14  1  0.43939000  0.84615000  0.88794000  1.0
  C  C15  1  0.68901000  0.30179000  0.08239000  1.0
  C  C16  1  0.31099000  0.69821000  0.91761000  1.0
  C  C17  1  0.68116000  0.38673000  0.19146000  1.0
  C  C18  1  0.31885000  0.61327000  0.80854000  1.0
  C  C19  1  0.43796000  0.18983000  0.35885000  1.0
  C  C20  1  0.56202000  0.81017000  0.64114000  1.0
  C  C21  1  0.43549000  0.09759000  0.25617000  1.0
  C  C22  1  0.56450000  0.90242000  0.74383000  1.0
  Br  Br23  1  0.97048000  0.69181000  0.33204000  1.0
  Br  Br24  1  0.02956000  0.30818000  0.66797000  1.0
  N  N25  1  0.55574000  0.33307000  0.32787000  1.0
  N  N26  1  0.44425000  0.66693000  0.67213000  1.0
