# generated using pymatgen
data_Cd3H24C40(NO7)2
_symmetry_space_group_name_H-M   'P 1'
_cell_length_a   12.27560000
_cell_length_b   12.27560000
_cell_length_c   14.55250000
_cell_angle_alpha   99.14530000
_cell_angle_beta   99.14310000
_cell_angle_gamma   107.98700000
_symmetry_Int_Tables_number   1
_chemical_formula_structural   Cd3H24C40(NO7)2
_chemical_formula_sum   'Cd6 H48 C80 N4 O28'
_cell_volume   2008.08986470
_cell_formula_units_Z   2
loop_
 _symmetry_equiv_pos_site_id
 _symmetry_equiv_pos_as_xyz
  1  'x, y, z'
loop_
 _atom_site_type_symbol
 _atom_site_label
 _atom_site_symmetry_multiplicity
 _atom_site_fract_x
 _atom_site_fract_y
 _atom_site_fract_z
 _atom_site_occupancy
  Cd  Cd0  1  0.54748000  0.98662000  0.62436000  1.0
  Cd  Cd1  1  0.01338000  0.45253000  0.87564000  1.0
  Cd  Cd2  1  0.45252000  0.01339000  0.37564000  1.0
  Cd  Cd3  1  0.98663000  0.54748000  0.12436000  1.0
  Cd  Cd4  1  0.85526000  0.14474000  0.75000000  1.0
  Cd  Cd5  1  0.14474000  0.85526000  0.25000000  1.0
  H  H6  1  0.60654000  0.30149000  0.43236000  1.0
  H  H7  1  0.69850000  0.39345000  0.06764000  1.0
  H  H8  1  0.39346000  0.69851000  0.56763000  1.0
  H  H9  1  0.30151000  0.60655000  0.93238000  1.0
  H  H10  1  0.72307000  0.43089000  0.33980000  1.0
  H  H11  1  0.56909000  0.27693000  0.16018000  1.0
  H  H12  1  0.27694000  0.56911000  0.66019000  1.0
  H  H13  1  0.43091000  0.72307000  0.83982000  1.0
  H  H14  1  0.93391000  0.45584000  0.35347000  1.0
  H  H15  1  0.54416000  0.06608000  0.14652000  1.0
  H  H16  1  0.06610000  0.54416000  0.64653000  1.0
  H  H17  1  0.45584000  0.93391000  0.85348000  1.0
  H  H18  1  0.02678000  0.34869000  0.45245000  1.0
  H  H19  1  0.65133000  0.97322000  0.04756000  1.0
  H  H20  1  0.97322000  0.65131000  0.54756000  1.0
  H  H21  1  0.34867000  0.02678000  0.95244000  1.0
  H  H22  1  0.29978000  0.35925000  0.70375000  1.0
  H  H23  1  0.64075000  0.70021000  0.79625000  1.0
  H  H24  1  0.70021000  0.64075000  0.29625000  1.0
  H  H25  1  0.35925000  0.29979000  0.20374000  1.0
  H  H26  1  0.35786000  0.23375000  0.57928000  1.0
  H  H27  1  0.76626000  0.64214000  0.92072000  1.0
  H  H28  1  0.64214000  0.76624000  0.42072000  1.0
  H  H29  1  0.23376000  0.35787000  0.07928000  1.0
  H  H30  1  0.99681000  0.07975000  0.42911000  1.0
  H  H31  1  0.92025000  0.00319000  0.07088000  1.0
  H  H32  1  0.00319000  0.92025000  0.57089000  1.0
  H  H33  1  0.07975000  0.99681000  0.92911000  1.0
  H  H34  1  0.27315000  0.94704000  0.63066000  1.0
  H  H35  1  0.05297000  0.72687000  0.86933000  1.0
  H  H36  1  0.72685000  0.05297000  0.36935000  1.0
  H  H37  1  0.94703000  0.27314000  0.13066000  1.0
  H  H38  1  0.15741000  0.03438000  0.72969000  1.0
  H  H39  1  0.96563000  0.84259000  0.77031000  1.0
  H  H40  1  0.84259000  0.96563000  0.27032000  1.0
  H  H41  1  0.03436000  0.15740000  0.22968000  1.0
  H  H42  1  0.26677000  0.20597000  0.86588000  1.0
  H  H43  1  0.79403000  0.73323000  0.63412000  1.0
  H  H44  1  0.73323000  0.79403000  0.13413000  1.0
  H  H45  1  0.20595000  0.26675000  0.36588000  1.0
  H  H46  1  0.48768000  0.28210000  0.90103000  1.0
  H  H47  1  0.71791000  0.51232000  0.59898000  1.0
  H  H48  1  0.51233000  0.71791000  0.09898000  1.0
  H  H49  1  0.28208000  0.48766000  0.40102000  1.0
  H  H50  1  0.58984000  0.18550000  0.79558000  1.0
  H  H51  1  0.81451000  0.41016000  0.70442000  1.0
  H  H52  1  0.41016000  0.81451000  0.20443000  1.0
  H  H53  1  0.18549000  0.58983000  0.29558000  1.0
  C  C54  1  0.68093000  0.18562000  0.55554000  1.0
  C  C55  1  0.81438000  0.31907000  0.94446000  1.0
  C  C56  1  0.31906000  0.81438000  0.44445000  1.0
  C  C57  1  0.18562000  0.68093000  0.05554000  1.0
  C  C58  1  0.75140000  0.25541000  0.49676000  1.0
  C  C59  1  0.74460000  0.24862000  0.00325000  1.0
  C  C60  1  0.24861000  0.74460000  0.50325000  1.0
  C  C61  1  0.25541000  0.75140000  0.99676000  1.0
  C  C62  1  0.69936000  0.31391000  0.43755000  1.0
  C  C63  1  0.68609000  0.30064000  0.06246000  1.0
  C  C64  1  0.30064000  0.68608000  0.56245000  1.0
  C  C65  1  0.31393000  0.69936000  0.93755000  1.0
  C  C66  1  0.76386000  0.38592000  0.38584000  1.0
  C  C67  1  0.61407000  0.23613000  0.11416000  1.0
  C  C68  1  0.23614000  0.61408000  0.61417000  1.0
  C  C69  1  0.38593000  0.76386000  0.88584000  1.0
  C  C70  1  0.88219000  0.39937000  0.39296000  1.0
  C  C71  1  0.60064000  0.11781000  0.10704000  1.0
  C  C72  1  0.11782000  0.60063000  0.60704000  1.0
  C  C73  1  0.39937000  0.88218000  0.89297000  1.0
  C  C74  1  0.93508000  0.33933000  0.44885000  1.0
  C  C75  1  0.66068000  0.06491000  0.05115000  1.0
  C  C76  1  0.06492000  0.66067000  0.55115000  1.0
  C  C77  1  0.33933000  0.93508000  0.94886000  1.0
  C  C78  1  0.86974000  0.26605000  0.49955000  1.0
  C  C79  1  0.73397000  0.13027000  0.00046000  1.0
  C  C80  1  0.13027000  0.73395000  0.50045000  1.0
  C  C81  1  0.26604000  0.86974000  0.99955000  1.0
  C  C82  1  0.03203000  0.20994000  0.55847000  1.0
  C  C83  1  0.79006000  0.96797000  0.94153000  1.0
  C  C84  1  0.96796000  0.79006000  0.44153000  1.0
  C  C85  1  0.20994000  0.03203000  0.05847000  1.0
  C  C86  1  0.11690000  0.28806000  0.63775000  1.0
  C  C87  1  0.71194000  0.88309000  0.86225000  1.0
  C  C88  1  0.88309000  0.71194000  0.36225000  1.0
  C  C89  1  0.28806000  0.11690000  0.13775000  1.0
  C  C90  1  0.08809000  0.35652000  0.71925000  1.0
  C  C91  1  0.64348000  0.91190000  0.78075000  1.0
  C  C92  1  0.91190000  0.64348000  0.28075000  1.0
  C  C93  1  0.35651000  0.08810000  0.21925000  1.0
  C  C94  1  0.23478000  0.29785000  0.64256000  1.0
  C  C95  1  0.70216000  0.76521000  0.85744000  1.0
  C  C96  1  0.76521000  0.70216000  0.35744000  1.0
  C  C97  1  0.29784000  0.23478000  0.14256000  1.0
  C  C98  1  0.26689000  0.22887000  0.57409000  1.0
  C  C99  1  0.77113000  0.73310000  0.92590000  1.0
  C  C100  1  0.73311000  0.77113000  0.42591000  1.0
  C  C101  1  0.22888000  0.26690000  0.07409000  1.0
  C  C102  1  0.18077000  0.14816000  0.49777000  1.0
  C  C103  1  0.85184000  0.81923000  0.00223000  1.0
  C  C104  1  0.81923000  0.85184000  0.50223000  1.0
  C  C105  1  0.14816000  0.18077000  0.99776000  1.0
  C  C106  1  0.21470000  0.06905000  0.42593000  1.0
  C  C107  1  0.93095000  0.78530000  0.07407000  1.0
  C  C108  1  0.78530000  0.93095000  0.57407000  1.0
  C  C109  1  0.06905000  0.21470000  0.92593000  1.0
  C  C110  1  0.06351000  0.14076000  0.48944000  1.0
  C  C111  1  0.85924000  0.93648000  0.01056000  1.0
  C  C112  1  0.93648000  0.85923000  0.51056000  1.0
  C  C113  1  0.14076000  0.06352000  0.98944000  1.0
  C  C114  1  0.31665000  0.02142000  0.69124000  1.0
  C  C115  1  0.97859000  0.68337000  0.80876000  1.0
  C  C116  1  0.68335000  0.97858000  0.30877000  1.0
  C  C117  1  0.02142000  0.31663000  0.19123000  1.0
  C  C118  1  0.25308000  0.06984000  0.74628000  1.0
  C  C119  1  0.93017000  0.74693000  0.75371000  1.0
  C  C120  1  0.74692000  0.93017000  0.25373000  1.0
  C  C121  1  0.06982000  0.25307000  0.24627000  1.0
  C  C122  1  0.31417000  0.16572000  0.82214000  1.0
  C  C123  1  0.83429000  0.68583000  0.67785000  1.0
  C  C124  1  0.68583000  0.83429000  0.17786000  1.0
  C  C125  1  0.16570000  0.31416000  0.32214000  1.0
  C  C126  1  0.43658000  0.20881000  0.84132000  1.0
  C  C127  1  0.79119000  0.56342000  0.65868000  1.0
  C  C128  1  0.56342000  0.79120000  0.15869000  1.0
  C  C129  1  0.20880000  0.43656000  0.34131000  1.0
  C  C130  1  0.49414000  0.15561000  0.78319000  1.0
  C  C131  1  0.84440000  0.50587000  0.71681000  1.0
  C  C132  1  0.50586000  0.84440000  0.21682000  1.0
  C  C133  1  0.15561000  0.49413000  0.28319000  1.0
  N  N134  1  0.43483000  0.06384000  0.70919000  1.0
  N  N135  1  0.93617000  0.56518000  0.79081000  1.0
  N  N136  1  0.56517000  0.93616000  0.29081000  1.0
  N  N137  1  0.06384000  0.43482000  0.20919000  1.0
  O  O138  1  0.57379000  0.12078000  0.51705000  1.0
  O  O139  1  0.87922000  0.42622000  0.98296000  1.0
  O  O140  1  0.42621000  0.87923000  0.48296000  1.0
  O  O141  1  0.12078000  0.57378000  0.01705000  1.0
  O  O142  1  0.72304000  0.19336000  0.64246000  1.0
  O  O143  1  0.80665000  0.27697000  0.85755000  1.0
  O  O144  1  0.27696000  0.80664000  0.35754000  1.0
  O  O145  1  0.19336000  0.72304000  0.14246000  1.0
  O  O146  1  0.91360000  0.19599000  0.54864000  1.0
  O  O147  1  0.80401000  0.08639000  0.95136000  1.0
  O  O148  1  0.08638000  0.80400000  0.45136000  1.0
  O  O149  1  0.19598000  0.91360000  0.04864000  1.0
  O  O150  1  0.98107000  0.32240000  0.73025000  1.0
  O  O151  1  0.67760000  0.01892000  0.76975000  1.0
  O  O152  1  0.01892000  0.67760000  0.26975000  1.0
  O  O153  1  0.32239000  0.98108000  0.23025000  1.0
  O  O154  1  0.16723000  0.44362000  0.77567000  1.0
  O  O155  1  0.55638000  0.83275000  0.72433000  1.0
  O  O156  1  0.83276000  0.55638000  0.22433000  1.0
  O  O157  1  0.44361000  0.16724000  0.27567000  1.0
  O  O158  1  0.13629000  0.01158000  0.35040000  1.0
  O  O159  1  0.98842000  0.86371000  0.14960000  1.0
  O  O160  1  0.86370000  0.98842000  0.64960000  1.0
  O  O161  1  0.01159000  0.13630000  0.85040000  1.0
  O  O162  1  0.31801000  0.06726000  0.44824000  1.0
  O  O163  1  0.93274000  0.68198000  0.05175000  1.0
  O  O164  1  0.68199000  0.93274000  0.55176000  1.0
  O  O165  1  0.06725000  0.31802000  0.94825000  1.0
