# generated using pymatgen
data_ZnH28C26N4O5
_symmetry_space_group_name_H-M   'P 1'
_cell_length_a   9.37346000
_cell_length_b   12.33450000
_cell_length_c   12.68940000
_cell_angle_alpha   64.70300000
_cell_angle_beta   71.95980000
_cell_angle_gamma   77.15540000
_symmetry_Int_Tables_number   1
_chemical_formula_structural   ZnH28C26N4O5
_chemical_formula_sum   'Zn2 H56 C52 N8 O10'
_cell_volume   1254.28630529
_cell_formula_units_Z   2
loop_
 _symmetry_equiv_pos_site_id
 _symmetry_equiv_pos_as_xyz
  1  'x, y, z'
loop_
 _atom_site_type_symbol
 _atom_site_label
 _atom_site_symmetry_multiplicity
 _atom_site_fract_x
 _atom_site_fract_y
 _atom_site_fract_z
 _atom_site_occupancy
  Zn  Zn0  1  0.20428000  0.39450000  0.46850000  1.0
  Zn  Zn1  1  0.79572000  0.60550000  0.53150000  1.0
  H  H2  1  0.73979000  0.94635000  0.85062000  1.0
  H  H3  1  0.26021000  0.05365000  0.14938000  1.0
  H  H4  1  0.54125000  0.07104000  0.43184000  1.0
  H  H5  1  0.45875000  0.92896000  0.56816000  1.0
  H  H6  1  0.60734000  0.10832000  0.52862000  1.0
  H  H7  1  0.39266000  0.89167000  0.47138000  1.0
  H  H8  1  0.75207000  0.30156000  0.42600000  1.0
  H  H9  1  0.24793000  0.69844000  0.57400000  1.0
  H  H10  1  0.63030000  0.38634000  0.33152000  1.0
  H  H11  1  0.36970000  0.61366000  0.66848000  1.0
  H  H12  1  0.10249000  0.32253000  0.17117000  1.0
  H  H13  1  0.89750000  0.67747000  0.82883000  1.0
  H  H14  1  0.04029000  0.26467000  0.32876000  1.0
  H  H15  1  0.95971000  0.73533000  0.67124000  1.0
  H  H16  1  0.07743000  0.10024000  0.25764000  1.0
  H  H17  1  0.92257000  0.89976000  0.74236000  1.0
  H  H18  1  0.86834000  0.09122000  0.43611000  1.0
  H  H19  1  0.13166000  0.90878000  0.56389000  1.0
  H  H20  1  0.82242000  0.02805000  0.35040000  1.0
  H  H21  1  0.17758000  0.97195000  0.64960000  1.0
  H  H22  1  0.56214000  0.29358000  0.20864000  1.0
  H  H23  1  0.43786000  0.70642000  0.79137000  1.0
  H  H24  1  0.64454000  0.14738000  0.21557000  1.0
  H  H25  1  0.35546000  0.85261000  0.78443000  1.0
  H  H26  1  0.77509000  0.30406000  0.02713000  1.0
  H  H27  1  0.22491000  0.69594000  0.97288000  1.0
  H  H28  1  0.03707000  0.23143000  0.04998000  1.0
  H  H29  1  0.96293000  0.76857000  0.95002000  1.0
  H  H30  1  0.92044000  0.11100000  0.12250000  1.0
  H  H31  1  0.07956000  0.88900000  0.87750000  1.0
  H  H32  1  0.72671000  0.46737000  0.10636000  1.0
  H  H33  1  0.27329000  0.53263000  0.89364000  1.0
  H  H34  1  0.92102000  0.44233000  0.04018000  1.0
  H  H35  1  0.07899000  0.55767000  0.95982000  1.0
  H  H36  1  0.98527000  0.53365000  0.15732000  1.0
  H  H37  1  0.01473000  0.46635000  0.84268000  1.0
  H  H38  1  0.78804000  0.55857000  0.22111000  1.0
  H  H39  1  0.21196000  0.44143000  0.77889000  1.0
  H  H40  1  0.18684000  0.26160000  0.72868000  1.0
  H  H41  1  0.81316000  0.73840000  0.27133000  1.0
  H  H42  1  0.01353000  0.13603000  0.91834000  1.0
  H  H43  1  0.98647000  0.86397000  0.08166000  1.0
  H  H44  1  0.75238000  0.12751000  0.69500000  1.0
  H  H45  1  0.24761000  0.87249000  0.30500000  1.0
  H  H46  1  0.93011000  0.25808000  0.51824000  1.0
  H  H47  1  0.06989000  0.74192000  0.48177000  1.0
  H  H48  1  0.60701000  0.78648000  0.93092000  1.0
  H  H49  1  0.39299000  0.21352000  0.06908000  1.0
  H  H50  1  0.55173000  0.74374000  0.26069000  1.0
  H  H51  1  0.44827000  0.25627000  0.73931000  1.0
  H  H52  1  0.40236000  0.58544000  0.43079000  1.0
  H  H53  1  0.59764000  0.41457000  0.56921000  1.0
  H  H54  1  0.30213000  0.46803000  0.20409000  1.0
  H  H55  1  0.69787000  0.53197000  0.79591000  1.0
  H  H56  1  0.45128000  0.62120000  0.02055000  1.0
  H  H57  1  0.54872000  0.37881000  0.97945000  1.0
  C  C58  1  0.42751000  0.23150000  0.45910000  1.0
  C  C59  1  0.57249000  0.76850000  0.54090000  1.0
  C  C60  1  0.56891000  0.14549000  0.44508000  1.0
  C  C61  1  0.43109000  0.85451000  0.55492000  1.0
  C  C62  1  0.69955000  0.20326000  0.33829000  1.0
  C  C63  1  0.30045000  0.79674000  0.66171000  1.0
  C  C64  1  0.73097000  0.32025000  0.33880000  1.0
  C  C65  1  0.26903000  0.67975000  0.66121000  1.0
  C  C66  1  0.86525000  0.37553000  0.23514000  1.0
  C  C67  1  0.13475000  0.62447000  0.76486000  1.0
  C  C68  1  0.00671000  0.28343000  0.24646000  1.0
  C  C69  1  0.99329000  0.71657000  0.75354000  1.0
  C  C70  1  0.97685000  0.16662000  0.24526000  1.0
  C  C71  1  0.02315000  0.83337000  0.75474000  1.0
  C  C72  1  0.84289000  0.11312000  0.34949000  1.0
  C  C73  1  0.15711000  0.88688000  0.65051000  1.0
  C  C74  1  0.66579000  0.23088000  0.21726000  1.0
  C  C75  1  0.33422000  0.76912000  0.78274000  1.0
  C  C76  1  0.79974000  0.28468000  0.11321000  1.0
  C  C77  1  0.20027000  0.71532000  0.88679000  1.0
  C  C78  1  0.94123000  0.19367000  0.12582000  1.0
  C  C79  1  0.05877000  0.80633000  0.87418000  1.0
  C  C80  1  0.82742000  0.40120000  0.11612000  1.0
  C  C81  1  0.17258000  0.59880000  0.88388000  1.0
  C  C82  1  0.89053000  0.49569000  0.23376000  1.0
  C  C83  1  0.10947000  0.50431000  0.76624000  1.0
  C  C84  1  0.92644000  0.48409000  0.34748000  1.0
  C  C85  1  0.07356000  0.51591000  0.65252000  1.0
  C  C86  1  0.08767000  0.23090000  0.72675000  1.0
  C  C87  1  0.91233000  0.76910000  0.27326000  1.0
  C  C88  1  0.99286000  0.16059000  0.83087000  1.0
  C  C89  1  0.00714000  0.83941000  0.16914000  1.0
  C  C90  1  0.86979000  0.12099000  0.82217000  1.0
  C  C91  1  0.13021000  0.87901000  0.17783000  1.0
  C  C92  1  0.84756000  0.15351000  0.70795000  1.0
  C  C93  1  0.15244000  0.84649000  0.29205000  1.0
  C  C94  1  0.94590000  0.22726000  0.60845000  1.0
  C  C95  1  0.05410000  0.77274000  0.39156000  1.0
  C  C96  1  0.76970000  0.04698000  0.93743000  1.0
  C  C97  1  0.23030000  0.95302000  0.06257000  1.0
  C  C98  1  0.59074000  0.79020000  0.01924000  1.0
  C  C99  1  0.40926000  0.20980000  0.98075000  1.0
  C  C100  1  0.51149000  0.69702000  0.12503000  1.0
  C  C101  1  0.48851000  0.30298000  0.87496000  1.0
  C  C102  1  0.49899000  0.68523000  0.24271000  1.0
  C  C103  1  0.50101000  0.31477000  0.75728000  1.0
  C  C104  1  0.41568000  0.59710000  0.33827000  1.0
  C  C105  1  0.58431000  0.40290000  0.66173000  1.0
  C  C106  1  0.36044000  0.53114000  0.21084000  1.0
  C  C107  1  0.63956000  0.46886000  0.78916000  1.0
  C  C108  1  0.44279000  0.61603000  0.11019000  1.0
  C  C109  1  0.55721000  0.38397000  0.88980000  1.0
  N  N110  1  0.06271000  0.26604000  0.61741000  1.0
  N  N111  1  0.93729000  0.73395000  0.38259000  1.0
  N  N112  1  0.71048000  0.95794000  0.93024000  1.0
  N  N113  1  0.28952000  0.04206000  0.06976000  1.0
  N  N114  1  0.63609000  0.87512000  0.03077000  1.0
  N  N115  1  0.36391000  0.12488000  0.96923000  1.0
  N  N116  1  0.34553000  0.52269000  0.32287000  1.0
  N  N117  1  0.65447000  0.47731000  0.67712000  1.0
  O  O118  1  0.40542000  0.28089000  0.53421000  1.0
  O  O119  1  0.59458000  0.71911000  0.46579000  1.0
  O  O120  1  0.33591000  0.25562000  0.39371000  1.0
  O  O121  1  0.66409000  0.74438000  0.60629000  1.0
  O  O122  1  0.81856000  0.50781000  0.42722000  1.0
  O  O123  1  0.18144000  0.49219000  0.57278000  1.0
  O  O124  1  0.06265000  0.44951000  0.35445000  1.0
  O  O125  1  0.93735000  0.55049000  0.64555000  1.0
  O  O126  1  0.74696000  0.06219000  0.03120000  1.0
  O  O127  1  0.25304000  0.93781000  0.96880000  1.0
