# generated using pymatgen
data_NiH18C20(N2O3)2
_symmetry_space_group_name_H-M   'P 1'
_cell_length_a   6.63440000
_cell_length_b   7.03594000
_cell_length_c   10.28060000
_cell_angle_alpha   78.03990000
_cell_angle_beta   80.67750000
_cell_angle_gamma   72.05140000
_symmetry_Int_Tables_number   1
_chemical_formula_structural   NiH18C20(N2O3)2
_chemical_formula_sum   'Ni1 H18 C20 N4 O6'
_cell_volume   444.13591248
_cell_formula_units_Z   1
loop_
 _symmetry_equiv_pos_site_id
 _symmetry_equiv_pos_as_xyz
  1  'x, y, z'
loop_
 _atom_site_type_symbol
 _atom_site_label
 _atom_site_symmetry_multiplicity
 _atom_site_fract_x
 _atom_site_fract_y
 _atom_site_fract_z
 _atom_site_occupancy
  Ni  Ni0  1  0.49999000  0.00000000  0.50000000  1.0
  H  H1  1  0.80286000  0.97939000  0.30266000  1.0
  H  H2  1  0.19715000  0.02061000  0.69735000  1.0
  H  H3  1  0.62051000  0.89702000  0.27223000  1.0
  H  H4  1  0.37948000  0.10299000  0.72778000  1.0
  H  H5  1  0.11195000  0.17220000  0.32257000  1.0
  H  H6  1  0.88805000  0.82780000  0.67743000  1.0
  H  H7  1  0.39404000  0.43660000  0.53247000  1.0
  H  H8  1  0.60596000  0.56339000  0.46753000  1.0
  H  H9  1  0.10535000  0.77627000  0.08167000  1.0
  H  H10  1  0.89465000  0.22373000  0.91833000  1.0
  H  H11  1  0.85171000  0.91556000  0.90982000  1.0
  H  H12  1  0.14829000  0.08444000  0.09019000  1.0
  H  H13  1  0.52727000  0.79947000  0.93175000  1.0
  H  H14  1  0.47273000  0.20053000  0.06825000  1.0
  H  H15  1  0.46477000  0.53481000  0.12434000  1.0
  H  H16  1  0.53523000  0.46519000  0.87565000  1.0
  H  H17  1  0.72191000  0.39023000  0.29312000  1.0
  H  H18  1  0.27808000  0.60979000  0.70689000  1.0
  C  C19  1  0.29692000  0.43221000  0.45926000  1.0
  C  C20  1  0.70309000  0.56778000  0.54074000  1.0
  C  C21  1  0.17417000  0.59207000  0.37273000  1.0
  C  C22  1  0.82583000  0.40793000  0.62727000  1.0
  C  C23  1  0.08014000  0.49587000  0.30120000  1.0
  C  C24  1  0.91985000  0.50413000  0.69880000  1.0
  C  C25  1  0.82903000  0.19518000  0.62782000  1.0
  C  C26  1  0.17097000  0.80481000  0.37218000  1.0
  C  C27  1  0.92964000  0.57644000  0.19979000  1.0
  C  C28  1  0.07036000  0.42356000  0.80021000  1.0
  C  C29  1  0.96407000  0.72483000  0.09100000  1.0
  C  C30  1  0.03593000  0.27517000  0.90900000  1.0
  C  C31  1  0.82054000  0.80363000  0.99511000  1.0
  C  C32  1  0.17946000  0.19637000  0.00489000  1.0
  C  C33  1  0.63954000  0.73683000  0.00697000  1.0
  C  C34  1  0.36046000  0.26317000  0.99303000  1.0
  C  C35  1  0.60478000  0.58851000  0.11446000  1.0
  C  C36  1  0.39522000  0.41149000  0.88554000  1.0
  C  C37  1  0.74947000  0.50695000  0.20997000  1.0
  C  C38  1  0.25053000  0.49306000  0.79002000  1.0
  N  N39  1  0.28622000  0.25381000  0.44131000  1.0
  N  N40  1  0.71378000  0.74619000  0.55869000  1.0
  N  N41  1  0.15323000  0.29334000  0.34578000  1.0
  N  N42  1  0.84676000  0.70666000  0.65422000  1.0
  O  O43  1  0.69698000  0.17890000  0.55741000  1.0
  O  O44  1  0.30304000  0.82109000  0.44258000  1.0
  O  O45  1  0.95358000  0.04347000  0.69635000  1.0
  O  O46  1  0.04643000  0.95654000  0.30366000  1.0
  O  O47  1  0.64160000  0.00981000  0.30467000  1.0
  O  O48  1  0.35840000  0.99019000  0.69534000  1.0
