# generated using pymatgen
data_MnH14C20N2O9
_symmetry_space_group_name_H-M   'P 1'
_cell_length_a   8.54706000
_cell_length_b   12.85680000
_cell_length_c   17.63330000
_cell_angle_alpha   91.98290000
_cell_angle_beta   89.99970000
_cell_angle_gamma   89.99890000
_symmetry_Int_Tables_number   1
_chemical_formula_structural   MnH14C20N2O9
_chemical_formula_sum   'Mn4 H56 C80 N8 O36'
_cell_volume   1936.52497724
_cell_formula_units_Z   4
loop_
 _symmetry_equiv_pos_site_id
 _symmetry_equiv_pos_as_xyz
  1  'x, y, z'
loop_
 _atom_site_type_symbol
 _atom_site_label
 _atom_site_symmetry_multiplicity
 _atom_site_fract_x
 _atom_site_fract_y
 _atom_site_fract_z
 _atom_site_occupancy
  Mn  Mn0  1  0.76485000  0.63413000  0.31856000  1.0
  Mn  Mn1  1  0.26486000  0.86586000  0.18144000  1.0
  Mn  Mn2  1  0.23517000  0.36587000  0.68144000  1.0
  Mn  Mn3  1  0.73515000  0.13414000  0.81856000  1.0
  H  H4  1  0.36046000  0.62415000  0.25249000  1.0
  H  H5  1  0.86045000  0.87585000  0.24751000  1.0
  H  H6  1  0.63954000  0.37585000  0.74751000  1.0
  H  H7  1  0.13955000  0.12414000  0.75249000  1.0
  H  H8  1  0.37846000  0.60739000  0.09707000  1.0
  H  H9  1  0.87846000  0.89261000  0.40293000  1.0
  H  H10  1  0.62154000  0.39261000  0.90293000  1.0
  H  H11  1  0.12155000  0.10738000  0.59707000  1.0
  H  H12  1  0.63838000  0.54687000  0.09063000  1.0
  H  H13  1  0.13839000  0.95312000  0.40937000  1.0
  H  H14  1  0.36162000  0.45312000  0.90937000  1.0
  H  H15  1  0.86161000  0.04688000  0.59064000  1.0
  H  H16  1  0.59581000  0.38650000  0.21243000  1.0
  H  H17  1  0.09581000  0.11351000  0.28757000  1.0
  H  H18  1  0.40420000  0.61350000  0.78757000  1.0
  H  H19  1  0.90419000  0.88649000  0.71243000  1.0
  H  H20  1  0.05114000  0.46317000  0.13029000  1.0
  H  H21  1  0.55113000  0.03683000  0.36971000  1.0
  H  H22  1  0.94886000  0.53683000  0.86971000  1.0
  H  H23  1  0.44886000  0.96317000  0.63030000  1.0
  H  H24  1  0.75522000  0.36447000  0.08664000  1.0
  H  H25  1  0.25522000  0.13553000  0.41336000  1.0
  H  H26  1  0.24478000  0.63554000  0.91336000  1.0
  H  H27  1  0.74477000  0.86447000  0.58664000  1.0
  H  H28  1  0.50054000  0.81386000  0.35078000  1.0
  H  H29  1  0.00054000  0.68614000  0.14923000  1.0
  H  H30  1  0.49945000  0.18613000  0.64922000  1.0
  H  H31  1  0.99946000  0.31387000  0.85077000  1.0
  H  H32  1  0.34872000  0.88151000  0.46398000  1.0
  H  H33  1  0.84874000  0.61849000  0.03603000  1.0
  H  H34  1  0.65128000  0.11848000  0.53603000  1.0
  H  H35  1  0.15127000  0.38151000  0.96398000  1.0
  H  H36  1  0.37225000  0.79167000  0.58628000  1.0
  H  H37  1  0.87226000  0.70833000  0.91372000  1.0
  H  H38  1  0.62774000  0.20833000  0.41373000  1.0
  H  H39  1  0.12775000  0.29167000  0.08628000  1.0
  H  H40  1  0.50683000  0.65396000  0.66167000  1.0
  H  H41  1  0.00683000  0.84604000  0.83834000  1.0
  H  H42  1  0.49317000  0.34604000  0.33834000  1.0
  H  H43  1  0.99318000  0.15396000  0.16166000  1.0
  H  H44  1  0.68100000  0.50155000  0.66477000  1.0
  H  H45  1  0.18101000  0.99844000  0.83522000  1.0
  H  H46  1  0.31900000  0.49844000  0.33523000  1.0
  H  H47  1  0.81901000  0.00155000  0.16478000  1.0
  H  H48  1  0.85261000  0.36891000  0.59388000  1.0
  H  H49  1  0.35262000  0.13108000  0.90612000  1.0
  H  H50  1  0.14739000  0.63108000  0.40613000  1.0
  H  H51  1  0.64739000  0.86891000  0.09388000  1.0
  H  H52  1  0.97637000  0.30998000  0.47189000  1.0
  H  H53  1  0.47638000  0.19002000  0.02811000  1.0
  H  H54  1  0.02362000  0.69003000  0.52811000  1.0
  H  H55  1  0.52363000  0.80999000  0.97190000  1.0
  H  H56  1  0.93456000  0.41504000  0.35587000  1.0
  H  H57  1  0.43454000  0.08496000  0.14413000  1.0
  H  H58  1  0.06544000  0.58496000  0.64413000  1.0
  H  H59  1  0.56545000  0.91505000  0.85588000  1.0
  C  C60  1  0.46011000  0.60825000  0.21420000  1.0
  C  C61  1  0.96010000  0.89176000  0.28580000  1.0
  C  C62  1  0.53990000  0.39175000  0.78580000  1.0
  C  C63  1  0.03990000  0.10824000  0.71420000  1.0
  C  C64  1  0.40999000  0.55153000  0.13996000  1.0
  C  C65  1  0.90999000  0.94847000  0.36004000  1.0
  C  C66  1  0.59001000  0.44847000  0.86004000  1.0
  C  C67  1  0.09001000  0.05153000  0.63996000  1.0
  C  C68  1  0.56038000  0.49228000  0.11905000  1.0
  C  C69  1  0.06038000  0.00772000  0.38095000  1.0
  C  C70  1  0.43962000  0.50772000  0.88095000  1.0
  C  C71  1  0.93961000  0.99228000  0.61905000  1.0
  C  C72  1  0.63159000  0.46505000  0.19633000  1.0
  C  C73  1  0.13159000  0.03496000  0.30367000  1.0
  C  C74  1  0.36841000  0.53495000  0.80367000  1.0
  C  C75  1  0.86840000  0.96505000  0.69633000  1.0
  C  C76  1  0.53941000  0.71381000  0.20149000  1.0
  C  C77  1  0.03940000  0.78619000  0.29851000  1.0
  C  C78  1  0.46060000  0.28618000  0.79850000  1.0
  C  C79  1  0.96061000  0.21382000  0.70150000  1.0
  C  C80  1  0.27314000  0.47845000  0.15334000  1.0
  C  C81  1  0.77314000  0.02155000  0.34665000  1.0
  C  C82  1  0.72686000  0.52155000  0.84665000  1.0
  C  C83  1  0.22685000  0.97844000  0.65335000  1.0
  C  C84  1  0.53955000  0.40056000  0.06309000  1.0
  C  C85  1  0.03955000  0.09944000  0.43691000  1.0
  C  C86  1  0.46046000  0.59944000  0.93691000  1.0
  C  C87  1  0.96045000  0.90056000  0.56308000  1.0
  C  C88  1  0.81010000  0.47086000  0.19470000  1.0
  C  C89  1  0.31010000  0.02914000  0.30530000  1.0
  C  C90  1  0.18990000  0.52913000  0.80530000  1.0
  C  C91  1  0.68989000  0.97085000  0.69470000  1.0
  C  C92  1  0.50733000  0.77527000  0.40474000  1.0
  C  C93  1  0.00732000  0.72473000  0.09526000  1.0
  C  C94  1  0.49267000  0.22472000  0.59526000  1.0
  C  C95  1  0.99268000  0.27528000  0.90474000  1.0
  C  C96  1  0.42330000  0.81346000  0.46822000  1.0
  C  C97  1  0.92330000  0.68654000  0.03179000  1.0
  C  C98  1  0.57670000  0.18653000  0.53178000  1.0
  C  C99  1  0.07670000  0.31346000  0.96822000  1.0
  C  C100  1  0.43693000  0.76410000  0.53622000  1.0
  C  C101  1  0.93694000  0.73590000  0.96378000  1.0
  C  C102  1  0.56306000  0.23590000  0.46378000  1.0
  C  C103  1  0.06307000  0.26410000  0.03622000  1.0
  C  C104  1  0.53691000  0.67711000  0.54097000  1.0
  C  C105  1  0.03692000  0.82289000  0.95904000  1.0
  C  C106  1  0.46307000  0.32289000  0.45903000  1.0
  C  C107  1  0.96309000  0.17711000  0.04096000  1.0
  C  C108  1  0.56365000  0.62434000  0.60996000  1.0
  C  C109  1  0.06366000  0.87566000  0.89005000  1.0
  C  C110  1  0.43634000  0.37566000  0.39004000  1.0
  C  C111  1  0.93636000  0.12434000  0.10996000  1.0
  C  C112  1  0.65998000  0.53969000  0.61157000  1.0
  C  C113  1  0.15998000  0.96031000  0.88843000  1.0
  C  C114  1  0.34002000  0.46031000  0.38843000  1.0
  C  C115  1  0.84003000  0.03969000  0.11157000  1.0
  C  C116  1  0.73520000  0.50019000  0.54403000  1.0
  C  C117  1  0.23521000  0.99981000  0.95597000  1.0
  C  C118  1  0.26479000  0.49981000  0.45597000  1.0
  C  C119  1  0.76480000  0.00019000  0.04403000  1.0
  C  C120  1  0.83199000  0.41106000  0.54217000  1.0
  C  C121  1  0.33200000  0.08893000  0.95783000  1.0
  C  C122  1  0.16800000  0.58894000  0.45783000  1.0
  C  C123  1  0.66801000  0.91106000  0.04217000  1.0
  C  C124  1  0.90218000  0.37879000  0.47474000  1.0
  C  C125  1  0.40219000  0.12121000  0.02526000  1.0
  C  C126  1  0.09781000  0.62121000  0.52526000  1.0
  C  C127  1  0.59782000  0.87880000  0.97474000  1.0
  C  C128  1  0.87779000  0.43662000  0.40963000  1.0
  C  C129  1  0.37779000  0.06339000  0.09037000  1.0
  C  C130  1  0.12220000  0.56339000  0.59037000  1.0
  C  C131  1  0.62221000  0.93662000  0.90963000  1.0
  C  C132  1  0.71472000  0.55251000  0.47514000  1.0
  C  C133  1  0.21472000  0.94749000  0.02486000  1.0
  C  C134  1  0.28526000  0.44748000  0.52486000  1.0
  C  C135  1  0.78528000  0.05252000  0.97514000  1.0
  C  C136  1  0.61520000  0.64270000  0.47369000  1.0
  C  C137  1  0.11520000  0.85730000  0.02630000  1.0
  C  C138  1  0.38478000  0.35729000  0.52630000  1.0
  C  C139  1  0.88480000  0.14271000  0.97369000  1.0
  N  N140  1  0.78696000  0.52103000  0.40959000  1.0
  N  N141  1  0.28696000  0.97897000  0.09041000  1.0
  N  N142  1  0.21302000  0.47897000  0.59040000  1.0
  N  N143  1  0.71304000  0.02104000  0.90959000  1.0
  N  N144  1  0.60010000  0.69194000  0.40694000  1.0
  N  N145  1  0.10010000  0.80806000  0.09306000  1.0
  N  N146  1  0.39989000  0.30805000  0.59305000  1.0
  N  N147  1  0.89989000  0.19194000  0.90694000  1.0
  O  O148  1  0.56601000  0.53841000  0.25135000  1.0
  O  O149  1  0.06600000  0.96159000  0.24865000  1.0
  O  O150  1  0.43402000  0.46160000  0.74865000  1.0
  O  O151  1  0.93399000  0.03841000  0.75135000  1.0
  O  O152  1  0.67212000  0.73157000  0.23132000  1.0
  O  O153  1  0.17212000  0.76843000  0.26869000  1.0
  O  O154  1  0.32789000  0.26844000  0.76868000  1.0
  O  O155  1  0.82789000  0.23157000  0.73131000  1.0
  O  O156  1  0.46373000  0.77789000  0.16237000  1.0
  O  O157  1  0.96370000  0.72211000  0.33761000  1.0
  O  O158  1  0.53629000  0.22210000  0.83760000  1.0
  O  O159  1  0.03633000  0.27790000  0.66240000  1.0
  O  O160  1  0.28139000  0.40342000  0.19461000  1.0
  O  O161  1  0.78138000  0.09658000  0.30539000  1.0
  O  O162  1  0.71862000  0.59657000  0.80538000  1.0
  O  O163  1  0.21861000  0.90342000  0.69462000  1.0
  O  O164  1  0.14497000  0.50759000  0.11672000  1.0
  O  O165  1  0.64497000  0.99242000  0.38328000  1.0
  O  O166  1  0.85502000  0.49242000  0.88329000  1.0
  O  O167  1  0.35502000  0.00757000  0.61672000  1.0
  O  O168  1  0.66334000  0.33844000  0.05316000  1.0
  O  O169  1  0.16334000  0.16156000  0.44685000  1.0
  O  O170  1  0.33666000  0.66156000  0.94685000  1.0
  O  O171  1  0.83666000  0.83845000  0.55315000  1.0
  O  O172  1  0.41798000  0.38536000  0.02742000  1.0
  O  O173  1  0.91798000  0.11464000  0.47258000  1.0
  O  O174  1  0.58203000  0.61465000  0.97258000  1.0
  O  O175  1  0.08202000  0.88536000  0.52742000  1.0
  O  O176  1  0.87639000  0.41547000  0.14227000  1.0
  O  O177  1  0.37638000  0.08452000  0.35772000  1.0
  O  O178  1  0.12361000  0.58453000  0.85772000  1.0
  O  O179  1  0.62361000  0.91546000  0.64228000  1.0
  O  O180  1  0.88251000  0.52888000  0.24182000  1.0
  O  O181  1  0.38252000  0.97111000  0.25817000  1.0
  O  O182  1  0.11749000  0.47110000  0.75818000  1.0
  O  O183  1  0.61747000  0.02889000  0.74183000  1.0
