# generated using pymatgen
data_Zn4H21C39N3O13
_symmetry_space_group_name_H-M   'P 1'
_cell_length_a   17.96560000
_cell_length_b   18.10910000
_cell_length_c   18.15102285
_cell_angle_alpha   118.65650670
_cell_angle_beta   119.44827388
_cell_angle_gamma   61.09800000
_symmetry_Int_Tables_number   1
_chemical_formula_structural   Zn4H21C39N3O13
_chemical_formula_sum   'Zn8 H42 C78 N6 O26'
_cell_volume   4269.08727842
_cell_formula_units_Z   2
loop_
 _symmetry_equiv_pos_site_id
 _symmetry_equiv_pos_as_xyz
  1  'x, y, z'
loop_
 _atom_site_type_symbol
 _atom_site_label
 _atom_site_symmetry_multiplicity
 _atom_site_fract_x
 _atom_site_fract_y
 _atom_site_fract_z
 _atom_site_occupancy
  Zn  Zn0  1  0.96181000  0.15174000  0.06207000  1.0
  Zn  Zn1  1  0.13027000  0.96936000  0.05691000  1.0
  Zn  Zn2  1  0.95819000  0.97926000  0.88395000  1.0
  Zn  Zn3  1  0.94330000  0.98308000  0.05568000  1.0
  Zn  Zn4  1  0.54700000  0.39161000  0.47404000  1.0
  Zn  Zn5  1  0.36602000  0.56022000  0.47481000  1.0
  Zn  Zn6  1  0.53728000  0.56521000  0.46364000  1.0
  Zn  Zn7  1  0.54610000  0.56448000  0.64561000  1.0
  H  H8  1  0.16262000  0.26184000  0.31242000  1.0
  H  H9  1  0.36871000  0.26196000  0.20955000  1.0
  H  H10  1  0.23040000  0.26941000  0.04901000  1.0
  H  H11  1  0.22673000  0.18876000  0.89190000  1.0
  H  H12  1  0.26650000  0.02334000  0.83302000  1.0
  H  H13  1  0.31405000  0.93981000  0.93333000  1.0
  H  H14  1  0.31606000  0.02079000  0.08940000  1.0
  H  H15  1  0.87760000  0.29609000  0.88123000  1.0
  H  H16  1  0.59139000  0.25706000  0.64956000  1.0
  H  H17  1  0.69062000  0.20808000  0.89899000  1.0
  H  H18  1  0.60895000  0.12826000  0.89615000  1.0
  H  H19  1  0.53061000  0.03301000  0.75099000  1.0
  H  H20  1  0.53932000  0.01440000  0.61049000  1.0
  H  H21  1  0.62081000  0.09477000  0.61318000  1.0
  H  H22  1  0.68770000  0.25950000  0.11623000  1.0
  H  H23  1  0.81646000  0.29860000  0.43588000  1.0
  H  H24  1  0.95516000  0.32496000  0.46222000  1.0
  H  H25  1  0.11843000  0.26646000  0.54395000  1.0
  H  H26  1  0.20399000  0.10566000  0.48990000  1.0
  H  H27  1  0.12426000  0.00384000  0.35395000  1.0
  H  H28  1  0.96207000  0.06240000  0.27306000  1.0
  H  H29  1  0.14426000  0.90751000  0.74599000  1.0
  H  H30  1  0.36764000  0.62192000  0.78383000  1.0
  H  H31  1  0.11724000  0.72161000  0.83251000  1.0
  H  H32  1  0.12195000  0.63312000  0.90518000  1.0
  H  H33  1  0.27026000  0.54905000  0.99478000  1.0
  H  H34  1  0.41253000  0.55914000  0.01508000  1.0
  H  H35  1  0.40807000  0.64721000  0.94113000  1.0
  H  H36  1  0.24759000  0.83262000  0.41545000  1.0
  H  H37  1  0.20734000  0.70351000  0.09643000  1.0
  H  H38  1  0.17842000  0.56190000  0.10406000  1.0
  H  H39  1  0.23645000  0.39801000  0.03634000  1.0
  H  H40  1  0.40262000  0.31905000  0.07448000  1.0
  H  H41  1  0.51007000  0.40507000  0.17968000  1.0
  H  H42  1  0.45146000  0.56860000  0.24627000  1.0
  H  H43  1  0.82460000  0.61312000  0.69014000  1.0
  H  H44  1  0.68296000  0.93088000  0.82607000  1.0
  H  H45  1  0.54445000  0.91062000  0.83407000  1.0
  H  H46  1  0.37769000  0.97845000  0.77913000  1.0
  H  H47  1  0.29344000  0.95532000  0.61641000  1.0
  H  H48  1  0.37838000  0.86402000  0.50911000  1.0
  H  H49  1  0.54412000  0.79520000  0.56383000  1.0
  C  C50  1  0.15136000  0.14742000  0.14912000  1.0
  C  C51  1  0.21322000  0.20212000  0.20346000  1.0
  C  C52  1  0.20828000  0.26047000  0.28809000  1.0
  C  C53  1  0.31220000  0.31478000  0.31264000  1.0
  C  C54  1  0.32188000  0.25969000  0.22948000  1.0
  C  C55  1  0.27047000  0.20227000  0.17160000  1.0
  C  C56  1  0.27261000  0.15061000  0.07941000  1.0
  C  C57  1  0.24905000  0.19703000  0.02333000  1.0
  C  C58  1  0.24682000  0.15166000  0.93514000  1.0
  C  C59  1  0.26939000  0.05906000  0.90228000  1.0
  C  C60  1  0.29519000  0.01217000  0.95824000  1.0
  C  C61  1  0.29655000  0.05750000  0.04620000  1.0
  C  C62  1  0.36691000  0.37685000  0.37442000  1.0
  C  C63  1  0.85008000  0.16337000  0.88043000  1.0
  C  C64  1  0.78635000  0.22209000  0.82322000  1.0
  C  C65  1  0.81361000  0.28679000  0.83063000  1.0
  C  C66  1  0.68936000  0.32481000  0.71418000  1.0
  C  C67  1  0.65588000  0.26262000  0.70139000  1.0
  C  C68  1  0.70292000  0.21163000  0.75895000  1.0
  C  C69  1  0.66118000  0.15685000  0.75622000  1.0
  C  C70  1  0.65857000  0.16450000  0.83579000  1.0
  C  C71  1  0.61199000  0.12020000  0.83403000  1.0
  C  C72  1  0.56811000  0.06690000  0.75285000  1.0
  C  C73  1  0.57225000  0.05719000  0.67366000  1.0
  C  C74  1  0.61784000  0.10233000  0.67512000  1.0
  C  C75  1  0.63567000  0.38307000  0.65535000  1.0
  C  C76  1  0.86339000  0.16563000  0.16040000  1.0
  C  C77  1  0.81060000  0.22333000  0.22314000  1.0
  C  C78  1  0.71858000  0.26785000  0.18762000  1.0
  C  C79  1  0.70062000  0.33140000  0.32328000  1.0
  C  C80  1  0.79125000  0.28966000  0.36493000  1.0
  C  C81  1  0.84984000  0.23596000  0.31544000  1.0
  C  C82  1  0.94740000  0.19813000  0.36146000  1.0
  C  C83  1  0.99243000  0.25452000  0.43898000  1.0
  C  C84  1  0.08426000  0.22161000  0.48460000  1.0
  C  C85  1  0.13218000  0.13158000  0.45398000  1.0
  C  C86  1  0.08799000  0.07468000  0.37767000  1.0
  C  C87  1  0.99619000  0.10779000  0.33142000  1.0
  C  C88  1  0.63906000  0.38929000  0.37783000  1.0
  C  C89  1  0.14026000  0.87980000  0.87566000  1.0
  C  C90  1  0.19779000  0.81671000  0.81836000  1.0
  C  C91  1  0.19298000  0.84357000  0.75485000  1.0
  C  C92  1  0.30698000  0.71892000  0.71691000  1.0
  C  C93  1  0.31780000  0.68643000  0.77859000  1.0
  C  C94  1  0.26020000  0.73367000  0.82891000  1.0
  C  C95  1  0.26253000  0.69054000  0.88186000  1.0
  C  C96  1  0.18213000  0.68732000  0.87365000  1.0
  C  C97  1  0.18490000  0.63674000  0.91410000  1.0
  C  C98  1  0.26777000  0.58962000  0.96410000  1.0
  C  C99  1  0.34790000  0.59463000  0.97481000  1.0
  C  C100  1  0.34539000  0.64407000  0.93338000  1.0
  C  C101  1  0.36384000  0.66167000  0.65743000  1.0
  C  C102  1  0.34950000  0.65789000  0.37401000  1.0
  C  C103  1  0.28791000  0.71239000  0.31217000  1.0
  C  C104  1  0.24118000  0.80234000  0.34498000  1.0
  C  C105  1  0.17707000  0.81910000  0.20744000  1.0
  C  C106  1  0.21776000  0.72933000  0.16751000  1.0
  C  C107  1  0.27335000  0.67320000  0.22011000  1.0
  C  C108  1  0.31104000  0.57598000  0.17942000  1.0
  C  C109  1  0.25097000  0.52723000  0.11957000  1.0
  C  C110  1  0.28383000  0.43521000  0.08212000  1.0
  C  C111  1  0.37694000  0.39110000  0.10346000  1.0
  C  C112  1  0.43721000  0.43917000  0.16220000  1.0
  C  C113  1  0.40433000  0.53127000  0.20027000  1.0
  C  C114  1  0.12165000  0.88070000  0.15192000  1.0
  C  C115  1  0.64202000  0.65542000  0.63992000  1.0
  C  C116  1  0.69713000  0.71690000  0.69600000  1.0
  C  C117  1  0.79108000  0.68387000  0.71821000  1.0
  C  C118  1  0.80434000  0.82050000  0.81158000  1.0
  C  C119  1  0.71132000  0.85988000  0.79475000  1.0
  C  C120  1  0.65502000  0.80822000  0.73278000  1.0
  C  C121  1  0.55546000  0.84817000  0.70264000  1.0
  C  C122  1  0.50786000  0.90082000  0.76289000  1.0
  C  C123  1  0.41405000  0.93870000  0.73177000  1.0
  C  C124  1  0.36677000  0.92567000  0.64054000  1.0
  C  C125  1  0.41396000  0.87411000  0.58037000  1.0
  C  C126  1  0.50753000  0.83509000  0.61103000  1.0
  C  C127  1  0.86391000  0.87804000  0.87315000  1.0
  N  N128  1  0.25565000  0.31657000  0.34202000  1.0
  N  N129  1  0.76608000  0.33881000  0.77888000  1.0
  N  N130  1  0.66413000  0.32273000  0.23605000  1.0
  N  N131  1  0.24469000  0.79587000  0.70341000  1.0
  N  N132  1  0.18587000  0.85537000  0.29408000  1.0
  N  N133  1  0.84460000  0.73449000  0.77339000  1.0
  O  O134  1  0.99814000  0.02159000  0.01522000  1.0
  O  O135  1  0.18683000  0.06349000  0.13315000  1.0
  O  O136  1  0.06758000  0.19184000  0.12634000  1.0
  O  O137  1  0.32705000  0.45501000  0.41618000  1.0
  O  O138  1  0.44930000  0.34424000  0.37849000  1.0
  O  O139  1  0.86835000  0.07987000  0.84005000  1.0
  O  O140  1  0.88270000  0.20224000  0.96359000  1.0
  O  O141  1  0.63105000  0.46433000  0.69256000  1.0
  O  O142  1  0.59851000  0.34475000  0.57294000  1.0
  O  O143  1  0.86478000  0.08506000  0.12278000  1.0
  O  O144  1  0.89886000  0.20297000  0.14799000  1.0
  O  O145  1  0.59145000  0.46739000  0.37273000  1.0
  O  O146  1  0.64175000  0.35422000  0.42595000  1.0
  O  O147  1  0.17922000  0.89053000  0.95901000  1.0
  O  O148  1  0.05814000  0.91974000  0.83682000  1.0
  O  O149  1  0.32219000  0.64908000  0.57434000  1.0
  O  O150  1  0.44824000  0.62887000  0.69648000  1.0
  O  O151  1  0.43236000  0.65326000  0.40760000  1.0
  O  O152  1  0.31317000  0.62221000  0.38715000  1.0
  O  O153  1  0.03716000  0.91478000  0.13824000  1.0
  O  O154  1  0.16666000  0.89112000  0.12321000  1.0
  O  O155  1  0.63178000  0.61970000  0.55701000  1.0
  O  O156  1  0.61090000  0.64486000  0.68254000  1.0
  O  O157  1  0.86431000  0.91572000  0.95336000  1.0
  O  O158  1  0.90639000  0.88513000  0.83914000  1.0
  O  O159  1  0.49840000  0.52200000  0.51490000  1.0
