# generated using pymatgen
data_Zr3H13C25Br5O16
_symmetry_space_group_name_H-M   'P 1'
_cell_length_a   14.62864456
_cell_length_b   14.79800173
_cell_length_c   14.79660000
_cell_angle_alpha   89.26345326
_cell_angle_beta   60.50007904
_cell_angle_gamma   119.47561767
_symmetry_Int_Tables_number   1
_chemical_formula_structural   Zr3H13C25Br5O16
_chemical_formula_sum   'Zr6 H26 C50 Br10 O32'
_cell_volume   2285.24071218
_cell_formula_units_Z   2
loop_
 _symmetry_equiv_pos_site_id
 _symmetry_equiv_pos_as_xyz
  1  'x, y, z'
loop_
 _atom_site_type_symbol
 _atom_site_label
 _atom_site_symmetry_multiplicity
 _atom_site_fract_x
 _atom_site_fract_y
 _atom_site_fract_z
 _atom_site_occupancy
  Zr  Zr0  1  0.50245000  0.11744000  0.37621000  1.0
  Zr  Zr1  1  0.49827000  0.87523000  0.61842000  1.0
  Zr  Zr2  1  0.25966000  0.87929000  0.61456000  1.0
  Zr  Zr3  1  0.74034000  0.11356000  0.38020000  1.0
  Zr  Zr4  1  0.50003000  0.87776000  0.37914000  1.0
  Zr  Zr5  1  0.50004000  0.11462000  0.61598000  1.0
  H  H6  1  0.31263000  0.90635000  0.40114000  1.0
  H  H7  1  0.68761000  0.90006000  0.40760000  1.0
  H  H8  1  0.30959000  0.90207000  0.77877000  1.0
  H  H9  1  0.69058000  0.27747000  0.40324000  1.0
  H  H10  1  0.50846000  0.86304000  0.09012000  1.0
  H  H11  1  0.51754000  0.14141000  0.89215000  1.0
  H  H12  1  0.48730000  0.39339000  0.64059000  1.0
  H  H13  1  0.49068000  0.58833000  0.36481000  1.0
  H  H14  1  0.04508000  0.14319000  0.08050000  1.0
  H  H15  1  0.95504000  0.86510000  0.89887000  1.0
  H  H16  1  0.04512000  0.39807000  0.36606000  1.0
  H  H17  1  0.95473000  0.58085000  0.64304000  1.0
  H  H18  1  0.93934000  0.92069000  0.38387000  1.0
  H  H19  1  0.82748000  0.83134000  0.52299000  1.0
  H  H20  1  0.99080000  0.83420000  0.51819000  1.0
  H  H21  1  0.10195000  0.92544000  0.37991000  1.0
  H  H22  1  0.94888000  0.90896000  0.67548000  1.0
  H  H23  1  0.03300000  0.05241000  0.64956000  1.0
  H  H24  1  0.78784000  0.91018000  0.67842000  1.0
  H  H25  1  0.87525000  0.05412000  0.64881000  1.0
  H  H26  1  0.06338000  0.12718000  0.34092000  1.0
  H  H27  1  0.03595000  0.18327000  0.44773000  1.0
  H  H28  1  0.19478000  0.18480000  0.45106000  1.0
  H  H29  1  0.22565000  0.13342000  0.34111000  1.0
  H  H30  1  0.76720000  0.39638000  0.08936000  1.0
  H  H31  1  0.23341000  0.58845000  0.89734000  1.0
  C  C32  1  0.51170000  0.00716000  0.18861000  1.0
  C  C33  1  0.48933000  0.68785000  0.50799000  1.0
  C  C34  1  0.50581000  0.99341000  0.79791000  1.0
  C  C35  1  0.49526000  0.29717000  0.49443000  1.0
  C  C36  1  0.19597000  0.00411000  0.49984000  1.0
  C  C37  1  0.81123000  0.29626000  0.19101000  1.0
  C  C38  1  0.80572000  0.99969000  0.50380000  1.0
  C  C39  1  0.18931000  0.69008000  0.79705000  1.0
  C  C40  1  0.20003000  0.69122000  0.49603000  1.0
  C  C41  1  0.20049000  0.00765000  0.79300000  1.0
  C  C42  1  0.79956000  0.29225000  0.50853000  1.0
  C  C43  1  0.79998000  0.99495000  0.19213000  1.0
  C  C44  1  0.50999000  0.99345000  0.89707000  1.0
  C  C45  1  0.51451000  0.01032000  0.08594000  1.0
  C  C46  1  0.50782000  0.91405000  0.95358000  1.0
  C  C47  1  0.51759000  0.09014000  0.02898000  1.0
  C  C48  1  0.51044000  0.92395000  0.04576000  1.0
  C  C49  1  0.51536000  0.08040000  0.93662000  1.0
  C  C50  1  0.48760000  0.58575000  0.51071000  1.0
  C  C51  1  0.49164000  0.39664000  0.49417000  1.0
  C  C52  1  0.48657000  0.52986000  0.58958000  1.0
  C  C53  1  0.49272000  0.45254000  0.41523000  1.0
  C  C54  1  0.48825000  0.43723000  0.58015000  1.0
  C  C55  1  0.49007000  0.54470000  0.42513000  1.0
  C  C56  1  0.10208000  0.01172000  0.89275000  1.0
  C  C57  1  0.89812000  0.99555000  0.08766000  1.0
  C  C58  1  0.12766000  0.09164000  0.94447000  1.0
  C  C59  1  0.87241000  0.91681000  0.03474000  1.0
  C  C60  1  0.02643000  0.08210000  0.03988000  1.0
  C  C61  1  0.97366000  0.92610000  0.93958000  1.0
  C  C62  1  0.10185000  0.58718000  0.49621000  1.0
  C  C63  1  0.89789000  0.39249000  0.51218000  1.0
  C  C64  1  0.12761000  0.53410000  0.41761000  1.0
  C  C65  1  0.87223000  0.44476000  0.59155000  1.0
  C  C66  1  0.02639000  0.43901000  0.42685000  1.0
  C  C67  1  0.97343000  0.53993000  0.58222000  1.0
  C  C68  1  0.92046000  0.91049000  0.46638000  1.0
  C  C69  1  0.02874000  0.91278000  0.46387000  1.0
  C  C70  1  0.09264000  0.00739000  0.50202000  1.0
  C  C71  1  0.98848000  0.98755000  0.62011000  1.0
  C  C72  1  0.88215000  0.98778000  0.62098000  1.0
  C  C73  1  0.91211000  0.00498000  0.50411000  1.0
  C  C74  1  0.04235000  0.11546000  0.42398000  1.0
  C  C75  1  0.14892000  0.11764000  0.42437000  1.0
  C  C76  1  0.08716000  0.58817000  0.89773000  1.0
  C  C77  1  0.91346000  0.39693000  0.08915000  1.0
  C  C78  1  0.95357000  0.53291000  0.95312000  1.0
  C  C79  1  0.04705000  0.45230000  0.03391000  1.0
  C  C80  1  0.87031000  0.43951000  0.04637000  1.0
  C  C81  1  0.13030000  0.54548000  0.94044000  1.0
  Br  Br82  1  0.49919000  0.78876000  0.91604000  1.0
  Br  Br83  1  0.52484000  0.21481000  0.06715000  1.0
  Br  Br84  1  0.48340000  0.57011000  0.71233000  1.0
  Br  Br85  1  0.49932000  0.41399000  0.29091000  1.0
  Br  Br86  1  0.29291000  0.21676000  0.89507000  1.0
  Br  Br87  1  0.70689000  0.79364000  0.08214000  1.0
  Br  Br88  1  0.29317000  0.58105000  0.29475000  1.0
  Br  Br89  1  0.70679000  0.39663000  0.71554000  1.0
  Br  Br90  1  0.87238000  0.57534000  0.91160000  1.0
  Br  Br91  1  0.12815000  0.41067000  0.07637000  1.0
  O  O92  1  0.50912000  0.08143000  0.23015000  1.0
  O  O93  1  0.49139000  0.72920000  0.58249000  1.0
  O  O94  1  0.50204000  0.91613000  0.75935000  1.0
  O  O95  1  0.49919000  0.25874000  0.41706000  1.0
  O  O96  1  0.15811000  0.92391000  0.57428000  1.0
  O  O97  1  0.84622000  0.25588000  0.23362000  1.0
  O  O98  1  0.84041000  0.07327000  0.42495000  1.0
  O  O99  1  0.15423000  0.73271000  0.75680000  1.0
  O  O100  1  0.31718000  0.73420000  0.41946000  1.0
  O  O101  1  0.31767000  0.08002000  0.75413000  1.0
  O  O102  1  0.68230000  0.25281000  0.58140000  1.0
  O  O103  1  0.68286000  0.91802000  0.23551000  1.0
  O  O104  1  0.16009000  0.93069000  0.75570000  1.0
  O  O105  1  0.84013000  0.25507000  0.43152000  1.0
  O  O106  1  0.84060000  0.07036000  0.23089000  1.0
  O  O107  1  0.15940000  0.72995000  0.57152000  1.0
  O  O108  1  0.31276000  0.07812000  0.42315000  1.0
  O  O109  1  0.30508000  0.72771000  0.75980000  1.0
  O  O110  1  0.68984000  0.92168000  0.57862000  1.0
  O  O111  1  0.69545000  0.25904000  0.22868000  1.0
  O  O112  1  0.49580000  0.25881000  0.57171000  1.0
  O  O113  1  0.50942000  0.92857000  0.22838000  1.0
  O  O114  1  0.49107000  0.72732000  0.42963000  1.0
  O  O115  1  0.50459000  0.07036000  0.75995000  1.0
  O  O116  1  0.63696000  0.19756000  0.43000000  1.0
  O  O117  1  0.36321000  0.92879000  0.69884000  1.0
  O  O118  1  0.63384000  0.92698000  0.43274000  1.0
  O  O119  1  0.36624000  0.93144000  0.42820000  1.0
  O  O120  1  0.39911000  0.84811000  0.54745000  1.0
  O  O121  1  0.60111000  0.04613000  0.34903000  1.0
  O  O122  1  0.59891000  0.04385000  0.54830000  1.0
  O  O123  1  0.40131000  0.04704000  0.54508000  1.0
