# generated using pymatgen
data_CdH12C12Br2(NF)2
_symmetry_space_group_name_H-M   'P 1'
_cell_length_a   6.87204000
_cell_length_b   13.23990000
_cell_length_c   15.63040000
_cell_angle_alpha   90.00060000
_cell_angle_beta   89.99960000
_cell_angle_gamma   89.99970000
_symmetry_Int_Tables_number   1
_chemical_formula_structural   CdH12C12Br2(NF)2
_chemical_formula_sum   'Cd4 H48 C48 Br8 N8 F8'
_cell_volume   1422.13385697
_cell_formula_units_Z   4
loop_
 _symmetry_equiv_pos_site_id
 _symmetry_equiv_pos_as_xyz
  1  'x, y, z'
loop_
 _atom_site_type_symbol
 _atom_site_label
 _atom_site_symmetry_multiplicity
 _atom_site_fract_x
 _atom_site_fract_y
 _atom_site_fract_z
 _atom_site_occupancy
  Cd  Cd0  1  0.24999000  0.00000000  0.05903000  1.0
  Cd  Cd1  1  0.25000000  0.50000000  0.94098000  1.0
  Cd  Cd2  1  0.75000000  0.00000000  0.94098000  1.0
  Cd  Cd3  1  0.75000000  0.50000000  0.05903000  1.0
  H  H4  1  0.94662000  0.00065000  0.41408000  1.0
  H  H5  1  0.94662000  0.49935000  0.58593000  1.0
  H  H6  1  0.55338000  0.99935000  0.41408000  1.0
  H  H7  1  0.55338000  0.50065000  0.58593000  1.0
  H  H8  1  0.05337000  0.99936000  0.58591000  1.0
  H  H9  1  0.05338000  0.50065000  0.41408000  1.0
  H  H10  1  0.44663000  0.00065000  0.58592000  1.0
  H  H11  1  0.44663000  0.49935000  0.41408000  1.0
  H  H12  1  0.34928000  0.75299000  0.39311000  1.0
  H  H13  1  0.34927000  0.74700000  0.60690000  1.0
  H  H14  1  0.15073000  0.24700000  0.39310000  1.0
  H  H15  1  0.15073000  0.25300000  0.60689000  1.0
  H  H16  1  0.65072000  0.24700000  0.60689000  1.0
  H  H17  1  0.65072000  0.25300000  0.39311000  1.0
  H  H18  1  0.84929000  0.75300000  0.60690000  1.0
  H  H19  1  0.84928000  0.74700000  0.39310000  1.0
  H  H20  1  0.30988000  0.75443000  0.23415000  1.0
  H  H21  1  0.30986000  0.74557000  0.76585000  1.0
  H  H22  1  0.19012000  0.24557000  0.23415000  1.0
  H  H23  1  0.19013000  0.25443000  0.76585000  1.0
  H  H24  1  0.69011000  0.24557000  0.76585000  1.0
  H  H25  1  0.69011000  0.25444000  0.23415000  1.0
  H  H26  1  0.80988000  0.75443000  0.76586000  1.0
  H  H27  1  0.80988000  0.74557000  0.23414000  1.0
  H  H28  1  0.91259000  0.00469000  0.25473000  1.0
  H  H29  1  0.91260000  0.49530000  0.74529000  1.0
  H  H30  1  0.58740000  0.99530000  0.25472000  1.0
  H  H31  1  0.58741000  0.50469000  0.74528000  1.0
  H  H32  1  0.08740000  0.99531000  0.74527000  1.0
  H  H33  1  0.08739000  0.50470000  0.25472000  1.0
  H  H34  1  0.41260000  0.00470000  0.74527000  1.0
  H  H35  1  0.41259000  0.49530000  0.25473000  1.0
  H  H36  1  0.94021000  0.89446000  0.12712000  1.0
  H  H37  1  0.94021000  0.60554000  0.87288000  1.0
  H  H38  1  0.55978000  0.10554000  0.12712000  1.0
  H  H39  1  0.55979000  0.39446000  0.87288000  1.0
  H  H40  1  0.05979000  0.10554000  0.87287000  1.0
  H  H41  1  0.05978000  0.39446000  0.12712000  1.0
  H  H42  1  0.44022000  0.89447000  0.87288000  1.0
  H  H43  1  0.44021000  0.60554000  0.12712000  1.0
  H  H44  1  0.11812000  0.81136000  0.11694000  1.0
  H  H45  1  0.11812000  0.68864000  0.88307000  1.0
  H  H46  1  0.38187000  0.18865000  0.11693000  1.0
  H  H47  1  0.38188000  0.31135000  0.88307000  1.0
  H  H48  1  0.88188000  0.18864000  0.88306000  1.0
  H  H49  1  0.88187000  0.31136000  0.11694000  1.0
  H  H50  1  0.61812000  0.81136000  0.88306000  1.0
  H  H51  1  0.61812000  0.68864000  0.11693000  1.0
  C  C52  1  0.02409000  0.94685000  0.37397000  1.0
  C  C53  1  0.02409000  0.55314000  0.62603000  1.0
  C  C54  1  0.47590000  0.05316000  0.37397000  1.0
  C  C55  1  0.47590000  0.44685000  0.62603000  1.0
  C  C56  1  0.97591000  0.05316000  0.62602000  1.0
  C  C57  1  0.97590000  0.44685000  0.37397000  1.0
  C  C58  1  0.52410000  0.94684000  0.62603000  1.0
  C  C59  1  0.52410000  0.55316000  0.37397000  1.0
  C  C60  1  0.25286000  0.80687000  0.36211000  1.0
  C  C61  1  0.25285000  0.69312000  0.63790000  1.0
  C  C62  1  0.24714000  0.19313000  0.36210000  1.0
  C  C63  1  0.24714000  0.30687000  0.63790000  1.0
  C  C64  1  0.74713000  0.19313000  0.63789000  1.0
  C  C65  1  0.74713000  0.30687000  0.36211000  1.0
  C  C66  1  0.75287000  0.80686000  0.63790000  1.0
  C  C67  1  0.75287000  0.69313000  0.36210000  1.0
  C  C68  1  0.23051000  0.80841000  0.27341000  1.0
  C  C69  1  0.23049000  0.69158000  0.72660000  1.0
  C  C70  1  0.26950000  0.19157000  0.27340000  1.0
  C  C71  1  0.26950000  0.30842000  0.72660000  1.0
  C  C72  1  0.76948000  0.19158000  0.72659000  1.0
  C  C73  1  0.76949000  0.30843000  0.27340000  1.0
  C  C74  1  0.73050000  0.80843000  0.72660000  1.0
  C  C75  1  0.73051000  0.69157000  0.27340000  1.0
  C  C76  1  0.10553000  0.87821000  0.23487000  1.0
  C  C77  1  0.10553000  0.62178000  0.76514000  1.0
  C  C78  1  0.39445000  0.12179000  0.23486000  1.0
  C  C79  1  0.39446000  0.37821000  0.76513000  1.0
  C  C80  1  0.89446000  0.12179000  0.76513000  1.0
  C  C81  1  0.89446000  0.37822000  0.23487000  1.0
  C  C82  1  0.60554000  0.87821000  0.76513000  1.0
  C  C83  1  0.60555000  0.62179000  0.23486000  1.0
  C  C84  1  0.00468000  0.94819000  0.28528000  1.0
  C  C85  1  0.00468000  0.55180000  0.71473000  1.0
  C  C86  1  0.49533000  0.05179000  0.28528000  1.0
  C  C87  1  0.49533000  0.44821000  0.71473000  1.0
  C  C88  1  0.99532000  0.05180000  0.71471000  1.0
  C  C89  1  0.99532000  0.44820000  0.28528000  1.0
  C  C90  1  0.50467000  0.94821000  0.71472000  1.0
  C  C91  1  0.50467000  0.55180000  0.28528000  1.0
  C  C92  1  0.14773000  0.87575000  0.41038000  1.0
  C  C93  1  0.14773000  0.62424000  0.58963000  1.0
  C  C94  1  0.35228000  0.12424000  0.41038000  1.0
  C  C95  1  0.35228000  0.37576000  0.58962000  1.0
  C  C96  1  0.85228000  0.12425000  0.58962000  1.0
  C  C97  1  0.85227000  0.37576000  0.41038000  1.0
  C  C98  1  0.64773000  0.87576000  0.58962000  1.0
  C  C99  1  0.64772000  0.62424000  0.41038000  1.0
  Br  Br100  1  0.58895000  0.88087000  0.07452000  1.0
  Br  Br101  1  0.58896000  0.61913000  0.92549000  1.0
  Br  Br102  1  0.91106000  0.11915000  0.07449000  1.0
  Br  Br103  1  0.91107000  0.38085000  0.92549000  1.0
  Br  Br104  1  0.41106000  0.11914000  0.92548000  1.0
  Br  Br105  1  0.41106000  0.38085000  0.07451000  1.0
  Br  Br106  1  0.08895000  0.88087000  0.92548000  1.0
  Br  Br107  1  0.08896000  0.61913000  0.07451000  1.0
  N  N108  1  0.08185000  0.87939000  0.14407000  1.0
  N  N109  1  0.08185000  0.62061000  0.85593000  1.0
  N  N110  1  0.41815000  0.12061000  0.14407000  1.0
  N  N111  1  0.41815000  0.37939000  0.85593000  1.0
  N  N112  1  0.91815000  0.12061000  0.85593000  1.0
  N  N113  1  0.91815000  0.37939000  0.14407000  1.0
  N  N114  1  0.58185000  0.87940000  0.85593000  1.0
  N  N115  1  0.58184000  0.62061000  0.14407000  1.0
  F  F116  1  0.16814000  0.87426000  0.49785000  1.0
  F  F117  1  0.16813000  0.62573000  0.50216000  1.0
  F  F118  1  0.33187000  0.12573000  0.49784000  1.0
  F  F119  1  0.33186000  0.37427000  0.50216000  1.0
  F  F120  1  0.83186000  0.12574000  0.50216000  1.0
  F  F121  1  0.83187000  0.37427000  0.49785000  1.0
  F  F122  1  0.66815000  0.87426000  0.50216000  1.0
  F  F123  1  0.66813000  0.62574000  0.49785000  1.0
