# generated using pymatgen
data_CoH8C4O7
_symmetry_space_group_name_H-M   'P 1'
_cell_length_a   5.76383000
_cell_length_b   7.91362140
_cell_length_c   8.76581000
_cell_angle_alpha   90.00032726
_cell_angle_beta   90.00060000
_cell_angle_gamma   77.06852228
_symmetry_Int_Tables_number   1
_chemical_formula_structural   CoH8C4O7
_chemical_formula_sum   'Co2 H16 C8 O14'
_cell_volume   389.69245907
_cell_formula_units_Z   2
loop_
 _symmetry_equiv_pos_site_id
 _symmetry_equiv_pos_as_xyz
  1  'x, y, z'
loop_
 _atom_site_type_symbol
 _atom_site_label
 _atom_site_symmetry_multiplicity
 _atom_site_fract_x
 _atom_site_fract_y
 _atom_site_fract_z
 _atom_site_occupancy
  Co  Co0  1  0.28820000  0.64438000  0.10883000  1.0
  Co  Co1  1  0.71180000  0.35562000  0.60883000  1.0
  H  H2  1  0.07272000  0.87063000  0.49179000  1.0
  H  H3  1  0.92729000  0.12937000  0.99178000  1.0
  H  H4  1  0.35088000  0.91155000  0.54411000  1.0
  H  H5  1  0.64914000  0.08844000  0.04411000  1.0
  H  H6  1  0.22405000  0.08632000  0.32299000  1.0
  H  H7  1  0.77595000  0.91368000  0.82299000  1.0
  H  H8  1  0.43597000  0.62727000  0.83526000  1.0
  H  H9  1  0.56404000  0.37273000  0.33526000  1.0
  H  H10  1  0.32556000  0.82892000  0.85923000  1.0
  H  H11  1  0.67445000  0.17109000  0.35922000  1.0
  H  H12  1  0.94578000  0.53729000  0.96082000  1.0
  H  H13  1  0.05419000  0.46271000  0.46082000  1.0
  H  H14  1  0.82407000  0.65292000  0.09857000  1.0
  H  H15  1  0.17593000  0.34707000  0.59856000  1.0
  H  H16  1  0.95257000  0.91495000  0.23415000  1.0
  H  H17  1  0.04743000  0.08505000  0.73415000  1.0
  C  C18  1  0.37306000  0.65877000  0.45283000  1.0
  C  C19  1  0.62694000  0.34123000  0.95283000  1.0
  C  C20  1  0.26030000  0.85160000  0.45693000  1.0
  C  C21  1  0.73970000  0.14841000  0.95693000  1.0
  C  C22  1  0.52712000  0.89221000  0.24559000  1.0
  C  C23  1  0.47288000  0.10779000  0.74558000  1.0
  C  C24  1  0.27167000  0.94508000  0.30403000  1.0
  C  C25  1  0.72833000  0.05492000  0.80402000  1.0
  O  O26  1  0.11931000  0.89726000  0.19099000  1.0
  O  O27  1  0.88068000  0.10275000  0.69099000  1.0
  O  O28  1  0.97647000  0.57380000  0.06408000  1.0
  O  O29  1  0.02352000  0.42620000  0.56408000  1.0
  O  O30  1  0.68473000  0.96072000  0.30342000  1.0
  O  O31  1  0.31528000  0.03928000  0.80342000  1.0
  O  O32  1  0.29809000  0.71148000  0.87880000  1.0
  O  O33  1  0.70192000  0.28852000  0.37880000  1.0
  O  O34  1  0.56864000  0.77213000  0.14495000  1.0
  O  O35  1  0.43137000  0.22786000  0.64494000  1.0
  O  O36  1  0.51230000  0.59976000  0.56142000  1.0
  O  O37  1  0.48771000  0.40023000  0.06142000  1.0
  O  O38  1  0.32356000  0.56507000  0.34190000  1.0
  O  O39  1  0.67643000  0.43493000  0.84190000  1.0
