# generated using pymatgen
data_DyH7(C3O4)2
_symmetry_space_group_name_H-M   'P 1'
_cell_length_a   9.47746000
_cell_length_b   14.45210000
_cell_length_c   14.56060000
_cell_angle_alpha   90.00000000
_cell_angle_beta   91.21020000
_cell_angle_gamma   90.00000000
_symmetry_Int_Tables_number   1
_chemical_formula_structural   DyH7(C3O4)2
_chemical_formula_sum   'Dy8 H56 C48 O64'
_cell_volume   1993.90886689
_cell_formula_units_Z   8
loop_
 _symmetry_equiv_pos_site_id
 _symmetry_equiv_pos_as_xyz
  1  'x, y, z'
loop_
 _atom_site_type_symbol
 _atom_site_label
 _atom_site_symmetry_multiplicity
 _atom_site_fract_x
 _atom_site_fract_y
 _atom_site_fract_z
 _atom_site_occupancy
  Dy  Dy0  1  0.80488000  0.35172000  0.90705000  1.0
  Dy  Dy1  1  0.69512000  0.85172000  0.59295000  1.0
  Dy  Dy2  1  0.19513000  0.64828000  0.09295000  1.0
  Dy  Dy3  1  0.30487000  0.14828000  0.40705000  1.0
  Dy  Dy4  1  0.01811000  0.16474000  0.74484000  1.0
  Dy  Dy5  1  0.48189000  0.66474000  0.75516000  1.0
  Dy  Dy6  1  0.98189000  0.83526000  0.25516000  1.0
  Dy  Dy7  1  0.51811000  0.33526000  0.24484000  1.0
  H  H8  1  0.84882000  0.38695000  0.70577000  1.0
  H  H9  1  0.65118000  0.88695000  0.79423000  1.0
  H  H10  1  0.15118000  0.61305000  0.29423000  1.0
  H  H11  1  0.34882000  0.11305000  0.20577000  1.0
  H  H12  1  0.72278000  0.45735000  0.72842000  1.0
  H  H13  1  0.77722000  0.95735000  0.77158000  1.0
  H  H14  1  0.27723000  0.54265000  0.27158000  1.0
  H  H15  1  0.22278000  0.04265000  0.22842000  1.0
  H  H16  1  0.76658000  0.56062000  0.88933000  1.0
  H  H17  1  0.73342000  0.06062000  0.61067000  1.0
  H  H18  1  0.23342000  0.43938000  0.11067000  1.0
  H  H19  1  0.26658000  0.93938000  0.38933000  1.0
  H  H20  1  0.85162000  0.53882000  0.98241000  1.0
  H  H21  1  0.64838000  0.03882000  0.51759000  1.0
  H  H22  1  0.14838000  0.46118000  0.01759000  1.0
  H  H23  1  0.35162000  0.96118000  0.48241000  1.0
  H  H24  1  0.30965000  0.30018000  0.99740000  1.0
  H  H25  1  0.19035000  0.80017000  0.50260000  1.0
  H  H26  1  0.69035000  0.69983000  0.00260000  1.0
  H  H27  1  0.80965000  0.19982000  0.49739000  1.0
  H  H28  1  0.02734000  0.26987000  0.56448000  1.0
  H  H29  1  0.47266000  0.76987000  0.93552000  1.0
  H  H30  1  0.97265000  0.73013000  0.43552000  1.0
  H  H31  1  0.52735000  0.23013000  0.06448000  1.0
  H  H32  1  0.07287000  0.33270000  0.64949000  1.0
  H  H33  1  0.42713000  0.83269000  0.85051000  1.0
  H  H34  1  0.92713000  0.66730000  0.35051000  1.0
  H  H35  1  0.57287000  0.16730000  0.14949000  1.0
  H  H36  1  0.99875000  0.00839000  0.61427000  1.0
  H  H37  1  0.50125000  0.50839000  0.88573000  1.0
  H  H38  1  0.00125000  0.99161000  0.38573000  1.0
  H  H39  1  0.49875000  0.49161000  0.11427000  1.0
  H  H40  1  0.12534000  0.07758000  0.58791000  1.0
  H  H41  1  0.37466000  0.57758000  0.91209000  1.0
  H  H42  1  0.87466000  0.92242000  0.41209000  1.0
  H  H43  1  0.62534000  0.42242000  0.08791000  1.0
  H  H44  1  0.49735000  0.19889000  0.79755000  1.0
  H  H45  1  0.00265000  0.69889000  0.70245000  1.0
  H  H46  1  0.50265000  0.80111000  0.20245000  1.0
  H  H47  1  0.99735000  0.30111000  0.29755000  1.0
  H  H48  1  0.13171000  0.06221000  0.04264000  1.0
  H  H49  1  0.36829000  0.56221000  0.45736000  1.0
  H  H50  1  0.86829000  0.93779000  0.95736000  1.0
  H  H51  1  0.63171000  0.43779000  0.54264000  1.0
  H  H52  1  0.31050000  0.39173000  0.80477000  1.0
  H  H53  1  0.18950000  0.89173000  0.69523000  1.0
  H  H54  1  0.68950000  0.60827000  0.19523000  1.0
  H  H55  1  0.81050000  0.10827000  0.30477000  1.0
  H  H56  1  0.54641000  0.15729000  0.59264000  1.0
  H  H57  1  0.95359000  0.65729000  0.90736000  1.0
  H  H58  1  0.45359000  0.84271000  0.40736000  1.0
  H  H59  1  0.04641000  0.34271000  0.09264000  1.0
  H  H60  1  0.85567000  0.13433000  0.12571000  1.0
  H  H61  1  0.64433000  0.63433000  0.37429000  1.0
  H  H62  1  0.14433000  0.86568000  0.87429000  1.0
  H  H63  1  0.35566000  0.36568000  0.62571000  1.0
  C  C64  1  0.50604000  0.33242000  0.92602000  1.0
  C  C65  1  0.99396000  0.83242000  0.57398000  1.0
  C  C66  1  0.49397000  0.66758000  0.07398000  1.0
  C  C67  1  0.00604000  0.16758000  0.42602000  1.0
  C  C68  1  0.71028000  0.18872000  0.73880000  1.0
  C  C69  1  0.78972000  0.68872000  0.76120000  1.0
  C  C70  1  0.28972000  0.81128000  0.26121000  1.0
  C  C71  1  0.21028000  0.31128000  0.23879000  1.0
  C  C72  1  0.00329000  0.16963000  0.97362000  1.0
  C  C73  1  0.49671000  0.66963000  0.52638000  1.0
  C  C74  1  0.99671000  0.83037000  0.02638000  1.0
  C  C75  1  0.50329000  0.33037000  0.47362000  1.0
  C  C76  1  0.35122000  0.33109000  0.93522000  1.0
  C  C77  1  0.14878000  0.83108000  0.56478000  1.0
  C  C78  1  0.64878000  0.66891000  0.06478000  1.0
  C  C79  1  0.85122000  0.16891000  0.43521000  1.0
  C  C80  1  0.55428000  0.18628000  0.73454000  1.0
  C  C81  1  0.94572000  0.68628000  0.76546000  1.0
  C  C82  1  0.44572000  0.81372000  0.26547000  1.0
  C  C83  1  0.05428000  0.31372000  0.23454000  1.0
  C  C84  1  0.03857000  0.10553000  0.05054000  1.0
  C  C85  1  0.46143000  0.60553000  0.44946000  1.0
  C  C86  1  0.96143000  0.89447000  0.94946000  1.0
  C  C87  1  0.53857000  0.39447000  0.55054000  1.0
  C  C88  1  0.26691000  0.36344000  0.86756000  1.0
  C  C89  1  0.23309000  0.86344000  0.63244000  1.0
  C  C90  1  0.73310000  0.63656000  0.13244000  1.0
  C  C91  1  0.76690000  0.13656000  0.36756000  1.0
  C  C92  1  0.48670000  0.16900000  0.65448000  1.0
  C  C93  1  0.01330000  0.66900000  0.84552000  1.0
  C  C94  1  0.51330000  0.83100000  0.34553000  1.0
  C  C95  1  0.98670000  0.33100000  0.15448000  1.0
  C  C96  1  0.95166000  0.09316000  0.12095000  1.0
  C  C97  1  0.54834000  0.59316000  0.37906000  1.0
  C  C98  1  0.04834000  0.90684000  0.87905000  1.0
  C  C99  1  0.45166000  0.40684000  0.62094000  1.0
  C  C100  1  0.11132000  0.36071000  0.87214000  1.0
  C  C101  1  0.38868000  0.86070000  0.62786000  1.0
  C  C102  1  0.88868000  0.63929000  0.12786000  1.0
  C  C103  1  0.61132000  0.13929000  0.37214000  1.0
  C  C104  1  0.33151000  0.15909000  0.64245000  1.0
  C  C105  1  0.16849000  0.65909000  0.85755000  1.0
  C  C106  1  0.66849000  0.84091000  0.35755000  1.0
  C  C107  1  0.83151000  0.34091000  0.14245000  1.0
  C  C108  1  0.96747000  0.01408000  0.18434000  1.0
  C  C109  1  0.53253000  0.51408000  0.31566000  1.0
  C  C110  1  0.03253000  0.98592000  0.81566000  1.0
  C  C111  1  0.46747000  0.48592000  0.68434000  1.0
  O  O112  1  0.58358000  0.27295000  0.96819000  1.0
  O  O113  1  0.91642000  0.77295000  0.53181000  1.0
  O  O114  1  0.41642000  0.72705000  0.03181000  1.0
  O  O115  1  0.08358000  0.22705000  0.46819000  1.0
  O  O116  1  0.56347000  0.39284000  0.87409000  1.0
  O  O117  1  0.93653000  0.89284000  0.62591000  1.0
  O  O118  1  0.43653000  0.60716000  0.12591000  1.0
  O  O119  1  0.06347000  0.10716000  0.37409000  1.0
  O  O120  1  0.80187000  0.41915000  0.75540000  1.0
  O  O121  1  0.69814000  0.91915000  0.74460000  1.0
  O  O122  1  0.19814000  0.58086000  0.24461000  1.0
  O  O123  1  0.30186000  0.08085000  0.25540000  1.0
  O  O124  1  0.79608000  0.50965000  0.93148000  1.0
  O  O125  1  0.70392000  0.00965000  0.56852000  1.0
  O  O126  1  0.20392000  0.49035000  0.06852000  1.0
  O  O127  1  0.29608000  0.99035000  0.43148000  1.0
  O  O128  1  0.77611000  0.22565000  0.80745000  1.0
  O  O129  1  0.72389000  0.72565000  0.69255000  1.0
  O  O130  1  0.22389000  0.77436000  0.19255000  1.0
  O  O131  1  0.27611000  0.27436000  0.30745000  1.0
  O  O132  1  0.04988000  0.39692000  0.94032000  1.0
  O  O133  1  0.45012000  0.89692000  0.55967000  1.0
  O  O134  1  0.95013000  0.60308000  0.05967000  1.0
  O  O135  1  0.54988000  0.10308000  0.44033000  1.0
  O  O136  1  0.03937000  0.32249000  0.80727000  1.0
  O  O137  1  0.46063000  0.82249000  0.69273000  1.0
  O  O138  1  0.96063000  0.67750000  0.19273000  1.0
  O  O139  1  0.53937000  0.17750000  0.30727000  1.0
  O  O140  1  0.78943000  0.38349000  0.06940000  1.0
  O  O141  1  0.71057000  0.88349000  0.43060000  1.0
  O  O142  1  0.21057000  0.61651000  0.93060000  1.0
  O  O143  1  0.28943000  0.11651000  0.56940000  1.0
  O  O144  1  0.90352000  0.22738000  0.98382000  1.0
  O  O145  1  0.59648000  0.72738000  0.51618000  1.0
  O  O146  1  0.09648000  0.77262000  0.01618000  1.0
  O  O147  1  0.40352000  0.27262000  0.48382000  1.0
  O  O148  1  0.00038000  0.28920000  0.62869000  1.0
  O  O149  1  0.49962000  0.78920000  0.87131000  1.0
  O  O150  1  0.99962000  0.71080000  0.37131000  1.0
  O  O151  1  0.50038000  0.21080000  0.12869000  1.0
  O  O152  1  0.02535000  0.07450000  0.60830000  1.0
  O  O153  1  0.47465000  0.57450000  0.89170000  1.0
  O  O154  1  0.97465000  0.92550000  0.39170000  1.0
  O  O155  1  0.52535000  0.42550000  0.10830000  1.0
  O  O156  1  0.78248000  0.15325000  0.67467000  1.0
  O  O157  1  0.71751000  0.65325000  0.82533000  1.0
  O  O158  1  0.21752000  0.84675000  0.32534000  1.0
  O  O159  1  0.28248000  0.34675000  0.17466000  1.0
  O  O160  1  0.91108000  0.02497000  0.80190000  1.0
  O  O161  1  0.58892000  0.52497000  0.69810000  1.0
  O  O162  1  0.08892000  0.97503000  0.19810000  1.0
  O  O163  1  0.41108000  0.47503000  0.30190000  1.0
  O  O164  1  0.14291000  0.01950000  0.78098000  1.0
  O  O165  1  0.35709000  0.51950000  0.71902000  1.0
  O  O166  1  0.85709000  0.98050000  0.21902000  1.0
  O  O167  1  0.64291000  0.48050000  0.28098000  1.0
  O  O168  1  0.24993000  0.18923000  0.70367000  1.0
  O  O169  1  0.25007000  0.68923000  0.79633000  1.0
  O  O170  1  0.75007000  0.81077000  0.29633000  1.0
  O  O171  1  0.74993000  0.31077000  0.20367000  1.0
  O  O172  1  0.07462000  0.15974000  0.90122000  1.0
  O  O173  1  0.42538000  0.65974000  0.59878000  1.0
  O  O174  1  0.92538000  0.84026000  0.09878000  1.0
  O  O175  1  0.57462000  0.34026000  0.40122000  1.0
