# generated using pymatgen
data_MnH18C29(N2O3)2
_symmetry_space_group_name_H-M   'P 1'
_cell_length_a   8.65756000
_cell_length_b   10.42920000
_cell_length_c   17.90250000
_cell_angle_alpha   75.15430000
_cell_angle_beta   88.86610000
_cell_angle_gamma   70.37650000
_symmetry_Int_Tables_number   1
_chemical_formula_structural   MnH18C29(N2O3)2
_chemical_formula_sum   'Mn2 H36 C58 N8 O12'
_cell_volume   1467.83261582
_cell_formula_units_Z   2
loop_
 _symmetry_equiv_pos_site_id
 _symmetry_equiv_pos_as_xyz
  1  'x, y, z'
loop_
 _atom_site_type_symbol
 _atom_site_label
 _atom_site_symmetry_multiplicity
 _atom_site_fract_x
 _atom_site_fract_y
 _atom_site_fract_z
 _atom_site_occupancy
  Mn  Mn0  1  0.72822000  0.82474000  0.82286000  1.0
  Mn  Mn1  1  0.27178000  0.17525000  0.17714000  1.0
  H  H2  1  0.36445000  0.95524000  0.74447000  1.0
  H  H3  1  0.63556000  0.04477000  0.25554000  1.0
  H  H4  1  0.07634000  0.04249000  0.78384000  1.0
  H  H5  1  0.92366000  0.95752000  0.21616000  1.0
  H  H6  1  0.03193000  0.01841000  0.92437000  1.0
  H  H7  1  0.96807000  0.98161000  0.07563000  1.0
  H  H8  1  0.27670000  0.90780000  0.02139000  1.0
  H  H9  1  0.72329000  0.09221000  0.97861000  1.0
  H  H10  1  0.49174000  0.79153000  0.09406000  1.0
  H  H11  1  0.50826000  0.20847000  0.90595000  1.0
  H  H12  1  0.53839000  0.84101000  0.19565000  1.0
  H  H13  1  0.46162000  0.15900000  0.80435000  1.0
  H  H14  1  0.55030000  0.78946000  0.33928000  1.0
  H  H15  1  0.44972000  0.21053000  0.66072000  1.0
  H  H16  1  0.98611000  0.45343000  0.36201000  1.0
  H  H17  1  0.01390000  0.54656000  0.63798000  1.0
  H  H18  1  0.99273000  0.49131000  0.21906000  1.0
  H  H19  1  0.00727000  0.50869000  0.78094000  1.0
  H  H20  1  0.02243000  0.61856000  0.10107000  1.0
  H  H21  1  0.97757000  0.38146000  0.89893000  1.0
  H  H22  1  0.22626000  0.57869000  0.03245000  1.0
  H  H23  1  0.77375000  0.42131000  0.96755000  1.0
  H  H24  1  0.44864000  0.55061000  0.93938000  1.0
  H  H25  1  0.55136000  0.44941000  0.06062000  1.0
  H  H26  1  0.37177000  0.63159000  0.79772000  1.0
  H  H27  1  0.62822000  0.36843000  0.20228000  1.0
  H  H28  1  0.07236000  0.74388000  0.75193000  1.0
  H  H29  1  0.92764000  0.25612000  0.24807000  1.0
  H  H30  1  0.76003000  0.19482000  0.63434000  1.0
  H  H31  1  0.23997000  0.80518000  0.36566000  1.0
  H  H32  1  0.69734000  0.62354000  0.63097000  1.0
  H  H33  1  0.30263000  0.37647000  0.36903000  1.0
  H  H34  1  0.72555000  0.31760000  0.84818000  1.0
  H  H35  1  0.27444000  0.68239000  0.15181000  1.0
  H  H36  1  0.76269000  0.58523000  0.44704000  1.0
  H  H37  1  0.23734000  0.41475000  0.55296000  1.0
  C  C38  1  0.33934000  0.94621000  0.80527000  1.0
  C  C39  1  0.66066000  0.05378000  0.19473000  1.0
  C  C40  1  0.17947000  0.99441000  0.82751000  1.0
  C  C41  1  0.82053000  0.00559000  0.17248000  1.0
  C  C42  1  0.15632000  0.98090000  0.90607000  1.0
  C  C43  1  0.84368000  0.01910000  0.09393000  1.0
  C  C44  1  0.29254000  0.91802000  0.95977000  1.0
  C  C45  1  0.70745000  0.08199000  0.04023000  1.0
  C  C46  1  0.44926000  0.87085000  0.93301000  1.0
  C  C47  1  0.55074000  0.12914000  0.06699000  1.0
  C  C48  1  0.60232000  0.80005000  0.98462000  1.0
  C  C49  1  0.39767000  0.19995000  0.01538000  1.0
  C  C50  1  0.60613000  0.76648000  0.06535000  1.0
  C  C51  1  0.39387000  0.23352000  0.93466000  1.0
  C  C52  1  0.75825000  0.70070000  0.10903000  1.0
  C  C53  1  0.24175000  0.29930000  0.89097000  1.0
  C  C54  1  0.76427000  0.67015000  0.19439000  1.0
  C  C55  1  0.23573000  0.32985000  0.80561000  1.0
  C  C56  1  0.63905000  0.75302000  0.23022000  1.0
  C  C57  1  0.36096000  0.24698000  0.76978000  1.0
  C  C58  1  0.64634000  0.72540000  0.31044000  1.0
  C  C59  1  0.35367000  0.27460000  0.68956000  1.0
  C  C60  1  0.88951000  0.53891000  0.32276000  1.0
  C  C61  1  0.11051000  0.46108000  0.67724000  1.0
  C  C62  1  0.89250000  0.56085000  0.24278000  1.0
  C  C63  1  0.10751000  0.43915000  0.75721000  1.0
  C  C64  1  0.90199000  0.66900000  0.06936000  1.0
  C  C65  1  0.09801000  0.33100000  0.93064000  1.0
  C  C66  1  0.88917000  0.70455000  0.98831000  1.0
  C  C67  1  0.11083000  0.29544000  0.01169000  1.0
  C  C68  1  0.03157000  0.67846000  0.93989000  1.0
  C  C69  1  0.96843000  0.32154000  0.06012000  1.0
  C  C70  1  0.19534000  0.61557000  0.97004000  1.0
  C  C71  1  0.80466000  0.38444000  0.02996000  1.0
  C  C72  1  0.31936000  0.59803000  0.91868000  1.0
  C  C73  1  0.68064000  0.40198000  0.08132000  1.0
  C  C74  1  0.27777000  0.64363000  0.83916000  1.0
  C  C75  1  0.72223000  0.35638000  0.16084000  1.0
  C  C76  1  0.11197000  0.70543000  0.81357000  1.0
  C  C77  1  0.88802000  0.29457000  0.18643000  1.0
  C  C78  1  0.75227000  0.09504000  0.79205000  1.0
  C  C79  1  0.24771000  0.90496000  0.20795000  1.0
  C  C80  1  0.74445000  0.23990000  0.74646000  1.0
  C  C81  1  0.25553000  0.76010000  0.25354000  1.0
  C  C82  1  0.74638000  0.27452000  0.66561000  1.0
  C  C83  1  0.25361000  0.72549000  0.33439000  1.0
  C  C84  1  0.72998000  0.41217000  0.62391000  1.0
  C  C85  1  0.27001000  0.58783000  0.37608000  1.0
  C  C86  1  0.70968000  0.51629000  0.66307000  1.0
  C  C87  1  0.29029000  0.48371000  0.33692000  1.0
  C  C88  1  0.70834000  0.48252000  0.74394000  1.0
  C  C89  1  0.29164000  0.51748000  0.25606000  1.0
  C  C90  1  0.72609000  0.34431000  0.78524000  1.0
  C  C91  1  0.27388000  0.65570000  0.21476000  1.0
  C  C92  1  0.73778000  0.44391000  0.53756000  1.0
  C  C93  1  0.26224000  0.55608000  0.46244000  1.0
  C  C94  1  0.70052000  0.58977000  0.78729000  1.0
  C  C95  1  0.29947000  0.41022000  0.21271000  1.0
  N  N96  1  0.47094000  0.88720000  0.85633000  1.0
  N  N97  1  0.52906000  0.11279000  0.14368000  1.0
  N  N98  1  0.74189000  0.76874000  0.94787000  1.0
  N  N99  1  0.25811000  0.23125000  0.05213000  1.0
  N  N100  1  0.99200000  0.72171000  0.86241000  1.0
  N  N101  1  0.00799000  0.27828000  0.13759000  1.0
  N  N102  1  0.76922000  0.62006000  0.35615000  1.0
  N  N103  1  0.23079000  0.37993000  0.64384000  1.0
  O  O104  1  0.74397000  0.00866000  0.75278000  1.0
  O  O105  1  0.25603000  0.99133000  0.24722000  1.0
  O  O106  1  0.75955000  0.06479000  0.86507000  1.0
  O  O107  1  0.24043000  0.93522000  0.13493000  1.0
  O  O108  1  0.73029000  0.36133000  0.50064000  1.0
  O  O109  1  0.26975000  0.63865000  0.49936000  1.0
  O  O110  1  0.75681000  0.56806000  0.50708000  1.0
  O  O111  1  0.24323000  0.43192000  0.49292000  1.0
  O  O112  1  0.70708000  0.71038000  0.74757000  1.0
  O  O113  1  0.29290000  0.28963000  0.25244000  1.0
  O  O114  1  0.69487000  0.55801000  0.85996000  1.0
  O  O115  1  0.30514000  0.44197000  0.14004000  1.0
