# generated using pymatgen
data_Mg2H27C30(NO6)2
_symmetry_space_group_name_H-M   'P 1'
_cell_length_a   10.90150000
_cell_length_b   15.94500000
_cell_length_c   23.80990000
_cell_angle_alpha   90.02190000
_cell_angle_beta   90.04310000
_cell_angle_gamma   89.96760000
_symmetry_Int_Tables_number   1
_chemical_formula_structural   Mg2H27C30(NO6)2
_chemical_formula_sum   'Mg8 H108 C120 N8 O48'
_cell_volume   4138.73986387
_cell_formula_units_Z   4
loop_
 _symmetry_equiv_pos_site_id
 _symmetry_equiv_pos_as_xyz
  1  'x, y, z'
loop_
 _atom_site_type_symbol
 _atom_site_label
 _atom_site_symmetry_multiplicity
 _atom_site_fract_x
 _atom_site_fract_y
 _atom_site_fract_z
 _atom_site_occupancy
  Mg  Mg0  1  0.55435000  0.13713000  0.16059000  1.0
  Mg  Mg1  1  0.34743000  0.28757000  0.22921000  1.0
  Mg  Mg2  1  0.34870000  0.46376000  0.72998000  1.0
  Mg  Mg3  1  0.43978000  0.62600000  0.34030000  1.0
  Mg  Mg4  1  0.65863000  0.78165000  0.26591000  1.0
  Mg  Mg5  1  0.55736000  0.61349000  0.66190000  1.0
  Mg  Mg6  1  0.43134000  0.12034000  0.83792000  1.0
  Mg  Mg7  1  0.63918000  0.96650000  0.76471000  1.0
  H  H8  1  0.53066000  0.84940000  0.18504000  1.0
  H  H9  1  0.20059000  0.10577000  0.34021000  1.0
  H  H10  1  0.17753000  0.27360000  0.33766000  1.0
  H  H11  1  0.38549000  0.19199000  0.00048000  1.0
  H  H12  1  0.17641000  0.34629000  0.11257000  1.0
  H  H13  1  0.15422000  0.38553000  0.93301000  1.0
  H  H14  1  0.95870000  0.31299000  0.22744000  1.0
  H  H15  1  0.84909000  0.34933000  0.27792000  1.0
  H  H16  1  0.85364000  0.24077000  0.25882000  1.0
  H  H17  1  0.90280000  0.19774000  0.36226000  1.0
  H  H18  1  0.89285000  0.30553000  0.38240000  1.0
  H  H19  1  0.73157000  0.75539000  0.03274000  1.0
  H  H20  1  0.28511000  0.11351000  0.42490000  1.0
  H  H21  1  0.26898000  0.24660000  0.47529000  1.0
  H  H22  1  0.15558000  0.36259000  0.43464000  1.0
  H  H23  1  0.39202000  0.55377000  0.50129000  1.0
  H  H24  1  0.17818000  0.40392000  0.61401000  1.0
  H  H25  1  0.56124000  0.42362000  0.24675000  1.0
  H  H26  1  0.79352000  0.60355000  0.16605000  1.0
  H  H27  1  0.77766000  0.34826000  0.10485000  1.0
  H  H28  1  0.97425000  0.37711000  0.09630000  1.0
  H  H29  1  0.71620000  0.62170000  0.08184000  1.0
  H  H30  1  0.82125000  0.99338000  0.66395000  1.0
  H  H31  1  0.84323000  0.87391000  0.06760000  1.0
  H  H32  1  0.02367000  0.90381000  0.76749000  1.0
  H  H33  1  0.11981000  0.86337000  0.71279000  1.0
  H  H34  1  0.14848000  0.96516000  0.74112000  1.0
  H  H35  1  0.09096000  0.93505000  0.61363000  1.0
  H  H36  1  0.84200000  0.87846000  0.56781000  1.0
  H  H37  1  0.60736000  0.68756000  0.49970000  1.0
  H  H38  1  0.82000000  0.84032000  0.38810000  1.0
  H  H39  1  0.26365000  0.50145000  0.97082000  1.0
  H  H40  1  0.83660000  0.75445000  0.16212000  1.0
  H  H41  1  0.42559000  0.81792000  0.75005000  1.0
  H  H42  1  0.19377000  0.64411000  0.83623000  1.0
  H  H43  1  0.21000000  0.90372000  0.88921000  1.0
  H  H44  1  0.01419000  0.87556000  0.90195000  1.0
  H  H45  1  0.27677000  0.63415000  0.91987000  1.0
  H  H46  1  0.56040000  0.32548000  0.74752000  1.0
  H  H47  1  0.78849000  0.14452000  0.66505000  1.0
  H  H48  1  0.77942000  0.40151000  0.60672000  1.0
  H  H49  1  0.97382000  0.37195000  0.59734000  1.0
  H  H50  1  0.71519000  0.12782000  0.57988000  1.0
  H  H51  1  0.73194000  0.99472000  0.53019000  1.0
  H  H52  1  0.05130000  0.81509000  0.27004000  1.0
  H  H53  1  0.14629000  0.86255000  0.21765000  1.0
  H  H54  1  0.17076000  0.75566000  0.23677000  1.0
  H  H55  1  0.12488000  0.69875000  0.13861000  1.0
  H  H56  1  0.11251000  0.80455000  0.11433000  1.0
  H  H57  1  0.43718000  0.93603000  0.25274000  1.0
  H  H58  1  0.22124000  0.84487000  0.39014000  1.0
  H  H59  1  0.02309000  0.87259000  0.40372000  1.0
  H  H60  1  0.16832000  0.47701000  0.83584000  1.0
  H  H61  1  0.84902000  0.47309000  0.75230000  1.0
  H  H62  1  0.59793000  0.05864000  0.99948000  1.0
  H  H63  1  0.03103000  0.24780000  0.39406000  1.0
  H  H64  1  0.30884000  0.51165000  0.22073000  1.0
  H  H65  1  0.43106000  0.42514000  0.09242000  1.0
  H  H66  1  0.54120000  0.50841000  0.09164000  1.0
  H  H67  1  0.39817000  0.52044000  0.05532000  1.0
  H  H68  1  0.34500000  0.63454000  0.19006000  1.0
  H  H69  1  0.33209000  0.64704000  0.11521000  1.0
  H  H70  1  0.47944000  0.64315000  0.14824000  1.0
  H  H71  1  0.80962000  0.90508000  0.88780000  1.0
  H  H72  1  0.97533000  0.01430000  0.61006000  1.0
  H  H73  1  0.78349000  0.77633000  0.79805000  1.0
  H  H74  1  0.59480000  0.75785000  0.94180000  1.0
  H  H75  1  0.51462000  0.80475000  0.88404000  1.0
  H  H76  1  0.50379000  0.69418000  0.89586000  1.0
  H  H77  1  0.82457000  0.66405000  0.84306000  1.0
  H  H78  1  0.78060000  0.66287000  0.91548000  1.0
  H  H79  1  0.69249000  0.60621000  0.86458000  1.0
  H  H80  1  0.25417000  0.52888000  0.31695000  1.0
  H  H81  1  0.20851000  0.62297000  0.30916000  1.0
  H  H82  1  0.98677000  0.73387000  0.10591000  1.0
  H  H83  1  0.76699000  0.00235000  0.30173000  1.0
  H  H84  1  0.54472000  0.90585000  0.39340000  1.0
  H  H85  1  0.46867000  0.00461000  0.40094000  1.0
  H  H86  1  0.58786000  0.97526000  0.44907000  1.0
  H  H87  1  0.74850000  0.11606000  0.34781000  1.0
  H  H88  1  0.73052000  0.09917000  0.42197000  1.0
  H  H89  1  0.60444000  0.13588000  0.38045000  1.0
  H  H90  1  0.61268000  0.70529000  0.73799000  1.0
  H  H91  1  0.71245000  0.72586000  0.69302000  1.0
  H  H92  1  0.01305000  0.49363000  0.89033000  1.0
  H  H93  1  0.29770000  0.24279000  0.71978000  1.0
  H  H94  1  0.44074000  0.32286000  0.59426000  1.0
  H  H95  1  0.54178000  0.23433000  0.59525000  1.0
  H  H96  1  0.40104000  0.22935000  0.55645000  1.0
  H  H97  1  0.32427000  0.11866000  0.68990000  1.0
  H  H98  1  0.31558000  0.10688000  0.61482000  1.0
  H  H99  1  0.46050000  0.10282000  0.65019000  1.0
  H  H100  1  0.11671000  0.03529000  0.64523000  1.0
  H  H101  1  0.66356000  0.88349000  0.16924000  1.0
  H  H102  1  0.45801000  0.42894000  0.83014000  1.0
  H  H103  1  0.34905000  0.36234000  0.82622000  1.0
  H  H104  1  0.46210000  0.32402000  0.32760000  1.0
  H  H105  1  0.35062000  0.38891000  0.32540000  1.0
  H  H106  1  0.61883000  0.05034000  0.23683000  1.0
  H  H107  1  0.71880000  0.03030000  0.19165000  1.0
  H  H108  1  0.50922000  0.89905000  0.68089000  1.0
  H  H109  1  0.64513000  0.86793000  0.66778000  1.0
  H  H110  1  0.20394000  0.12767000  0.80715000  1.0
  H  H111  1  0.25125000  0.22135000  0.81509000  1.0
  H  H112  1  0.96548000  0.40398000  0.72680000  1.0
  H  H113  1  0.85703000  0.36778000  0.77790000  1.0
  H  H114  1  0.86866000  0.51442000  0.85780000  1.0
  H  H115  1  0.90349000  0.41112000  0.88187000  1.0
  C  C116  1  0.32426000  0.02841000  0.29377000  1.0
  C  C117  1  0.23764000  0.04265000  0.33601000  1.0
  C  C118  1  0.37231000  0.10050000  0.25902000  1.0
  C  C119  1  0.12017000  0.28903000  0.30081000  1.0
  C  C120  1  0.08431000  0.52587000  0.00712000  1.0
  C  C121  1  0.07220000  0.44737000  0.03449000  1.0
  C  C122  1  0.15676000  0.37704000  0.02411000  1.0
  C  C123  1  0.32011000  0.24270000  0.00703000  1.0
  C  C124  1  0.28283000  0.26397000  0.06129000  1.0
  C  C125  1  0.20123000  0.33026000  0.06956000  1.0
  C  C126  1  0.33560000  0.22098000  0.11194000  1.0
  C  C127  1  0.19142000  0.35347000  0.96964000  1.0
  C  C128  1  0.27244000  0.28672000  0.96103000  1.0
  C  C129  1  0.30713000  0.26131000  0.90277000  1.0
  C  C130  1  0.90974000  0.29709000  0.26608000  1.0
  C  C131  1  0.95395000  0.25700000  0.36513000  1.0
  C  C132  1  0.79772000  0.63527000  0.05709000  1.0
  C  C133  1  0.80597000  0.71007000  0.02933000  1.0
  C  C134  1  0.10485000  0.06759000  0.44935000  1.0
  C  C135  1  0.00405000  0.08229000  0.48689000  1.0
  C  C136  1  0.20204000  0.12778000  0.44841000  1.0
  C  C137  1  0.19343000  0.20199000  0.47680000  1.0
  C  C138  1  0.08740000  0.22279000  0.50928000  1.0
  C  C139  1  0.07382000  0.30159000  0.53622000  1.0
  C  C140  1  0.15865000  0.37181000  0.52574000  1.0
  C  C141  1  0.19364000  0.39460000  0.47112000  1.0
  C  C142  1  0.27602000  0.46045000  0.46220000  1.0
  C  C143  1  0.32510000  0.50412000  0.50801000  1.0
  C  C144  1  0.28715000  0.48401000  0.56231000  1.0
  C  C145  1  0.20381000  0.41886000  0.57094000  1.0
  C  C146  1  0.31102000  0.48572000  0.40396000  1.0
  C  C147  1  0.34063000  0.52746000  0.61261000  1.0
  C  C148  1  0.62282000  0.28836000  0.17833000  1.0
  C  C149  1  0.66842000  0.37688000  0.17673000  1.0
  C  C150  1  0.62802000  0.43861000  0.21428000  1.0
  C  C151  1  0.67154000  0.52079000  0.20876000  1.0
  C  C152  1  0.75822000  0.53977000  0.16738000  1.0
  C  C153  1  0.79860000  0.47906000  0.12897000  1.0
  C  C154  1  0.75169000  0.39751000  0.13427000  1.0
  C  C155  1  0.62107000  0.59178000  0.24372000  1.0
  C  C156  1  0.89060000  0.49779000  0.08520000  1.0
  C  C157  1  0.89316000  0.57387000  0.05400000  1.0
  C  C158  1  0.99266000  0.58885000  0.01584000  1.0
  C  C159  1  0.97860000  0.43650000  0.07368000  1.0
  C  C160  1  0.87312000  0.96362000  0.69847000  1.0
  C  C161  1  0.80234000  0.90346000  0.03081000  1.0
  C  C162  1  0.71877000  0.96880000  0.03916000  1.0
  C  C163  1  0.68598000  0.99553000  0.09774000  1.0
  C  C164  1  0.07620000  0.92009000  0.72991000  1.0
  C  C165  1  0.04719000  0.98697000  0.63656000  1.0
  C  C166  1  0.92500000  0.94102000  0.46662000  1.0
  C  C167  1  0.84006000  0.87057000  0.47660000  1.0
  C  C168  1  0.80471000  0.84678000  0.53102000  1.0
  C  C169  1  0.72256000  0.78067000  0.53947000  1.0
  C  C170  1  0.67368000  0.73768000  0.49323000  1.0
  C  C171  1  0.71064000  0.75933000  0.43895000  1.0
  C  C172  1  0.79429000  0.82459000  0.43105000  1.0
  C  C173  1  0.68621000  0.75562000  0.59794000  1.0
  C  C174  1  0.65633000  0.71830000  0.38773000  1.0
  C  C175  1  0.19532000  0.62024000  0.94460000  1.0
  C  C176  1  0.18832000  0.54621000  0.97323000  1.0
  C  C177  1  0.89211000  0.77648000  0.19807000  1.0
  C  C178  1  0.36564000  0.95820000  0.81164000  1.0
  C  C179  1  0.31804000  0.87035000  0.81773000  1.0
  C  C180  1  0.35822000  0.80552000  0.78262000  1.0
  C  C181  1  0.31545000  0.72370000  0.79059000  1.0
  C  C182  1  0.22910000  0.70775000  0.83266000  1.0
  C  C183  1  0.18923000  0.77138000  0.86921000  1.0
  C  C184  1  0.23565000  0.85267000  0.86114000  1.0
  C  C185  1  0.36727000  0.65169000  0.75682000  1.0
  C  C186  1  0.09903000  0.75543000  0.91429000  1.0
  C  C187  1  0.09867000  0.68082000  0.94699000  1.0
  C  C188  1  0.00043000  0.66666667  0.98594000  1.0
  C  C189  1  0.01137000  0.81713000  0.92572000  1.0
  C  C190  1  0.91204000  0.01929000  0.49450000  1.0
  C  C191  1  0.62560000  0.46177000  0.68093000  1.0
  C  C192  1  0.66874000  0.37249000  0.67801000  1.0
  C  C193  1  0.62670000  0.31035000  0.71485000  1.0
  C  C194  1  0.66826000  0.22775000  0.70853000  1.0
  C  C195  1  0.75480000  0.20870000  0.66699000  1.0
  C  C196  1  0.79728000  0.26980000  0.62929000  1.0
  C  C197  1  0.75193000  0.35180000  0.63545000  1.0
  C  C198  1  0.61614000  0.15680000  0.74315000  1.0
  C  C199  1  0.89037000  0.25123000  0.58574000  1.0
  C  C200  1  0.89387000  0.17531000  0.55420000  1.0
  C  C201  1  0.99506000  0.16007000  0.51694000  1.0
  C  C202  1  0.97889000  0.31249000  0.57480000  1.0
  C  C203  1  0.79788000  0.11424000  0.55592000  1.0
  C  C204  1  0.80688000  0.03971000  0.52777000  1.0
  C  C205  1  0.10038000  0.80427000  0.23063000  1.0
  C  C206  1  0.06208000  0.75232000  0.13377000  1.0
  C  C207  1  0.38304000  0.79479000  0.31167000  1.0
  C  C208  1  0.33040000  0.88124000  0.31952000  1.0
  C  C209  1  0.36939000  0.94732000  0.28534000  1.0
  C  C210  1  0.19865000  0.97773000  0.37181000  1.0
  C  C211  1  0.24655000  0.89686000  0.36279000  1.0
  C  C212  1  0.10699000  0.99291000  0.41657000  1.0
  C  C213  1  0.01882000  0.93128000  0.42721000  1.0
  C  C214  1  0.11610000  0.45432000  0.79907000  1.0
  C  C215  1  0.91160000  0.42169000  0.76369000  1.0
  C  C216  1  0.64378000  0.02533000  0.88698000  1.0
  C  C217  1  0.34693000  0.47721000  0.18457000  1.0
  C  C218  1  0.44271000  0.49330000  0.09258000  1.0
  C  C219  1  0.38541000  0.61804000  0.14937000  1.0
  C  C220  1  0.90938000  0.73005000  0.99488000  1.0
  C  C221  1  0.92018000  0.80786000  0.96634000  1.0
  C  C222  1  0.83467000  0.87793000  0.97639000  1.0
  C  C223  1  0.70012000  0.98624000  0.93847000  1.0
  C  C224  1  0.78510000  0.92170000  0.93073000  1.0
  C  C225  1  0.66544000  0.00924000  0.99287000  1.0
  C  C226  1  0.69693000  0.79030000  0.82016000  1.0
  C  C227  1  0.56463000  0.74911000  0.89809000  1.0
  C  C228  1  0.74653000  0.66350000  0.87207000  1.0
  C  C229  1  0.69452000  0.96759000  0.32424000  1.0
  C  C230  1  0.55683000  0.97157000  0.40520000  1.0
  C  C231  1  0.68555000  0.09465000  0.38070000  1.0
  C  C232  1  0.34282000  0.27520000  0.68456000  1.0
  C  C233  1  0.44514000  0.25430000  0.59449000  1.0
  C  C234  1  0.36950000  0.13281000  0.64990000  1.0
  C  C235  1  0.94232000  0.46786000  0.86246000  1.0
  N  N236  1  0.99933000  0.28151000  0.31026000  1.0
  N  N237  1  0.99387000  0.95711000  0.68874000  1.0
  N  N238  1  0.01326000  0.77726000  0.18804000  1.0
  N  N239  1  0.99491000  0.44863000  0.80796000  1.0
  N  N240  1  0.38674000  0.52736000  0.14305000  1.0
  N  N241  1  0.67103000  0.73696000  0.86217000  1.0
  N  N242  1  0.64885000  0.00897000  0.36884000  1.0
  N  N243  1  0.38153000  0.22316000  0.64385000  1.0
  O  O244  1  0.60618000  0.05255000  0.10258000  1.0
  O  O245  1  0.44351000  0.08088000  0.21858000  1.0
  O  O246  1  0.34184000  0.17412000  0.27347000  1.0
  O  O247  1  0.16613000  0.31089000  0.25513000  1.0
  O  O248  1  0.43095000  0.17697000  0.10423000  1.0
  O  O249  1  0.28354000  0.23410000  0.15880000  1.0
  O  O250  1  0.25648000  0.29963000  0.86097000  1.0
  O  O251  1  0.38363000  0.20218000  0.89771000  1.0
  O  O252  1  0.25841000  0.44894000  0.36214000  1.0
  O  O253  1  0.38992000  0.54345000  0.39904000  1.0
  O  O254  1  0.43836000  0.56893000  0.60488000  1.0
  O  O255  1  0.28647000  0.51726000  0.65926000  1.0
  O  O256  1  0.53240000  0.26714000  0.20995000  1.0
  O  O257  1  0.67558000  0.23475000  0.14724000  1.0
  O  O258  1  0.54216000  0.57330000  0.28114000  1.0
  O  O259  1  0.65740000  0.66477000  0.23094000  1.0
  O  O260  1  0.82140000  0.93924000  0.74234000  1.0
  O  O261  1  0.74014000  0.95952000  0.13936000  1.0
  O  O262  1  0.73304000  0.79582000  0.63972000  1.0
  O  O263  1  0.61090000  0.69582000  0.60254000  1.0
  O  O264  1  0.56267000  0.67234000  0.39483000  1.0
  O  O265  1  0.70621000  0.73484000  0.34093000  1.0
  O  O266  1  0.84399000  0.79805000  0.24342000  1.0
  O  O267  1  0.45093000  0.97391000  0.77653000  1.0
  O  O268  1  0.43886000  0.67114000  0.71653000  1.0
  O  O269  1  0.33983000  0.57801000  0.77245000  1.0
  O  O270  1  0.53869000  0.17568000  0.78112000  1.0
  O  O271  1  0.65018000  0.08338000  0.72975000  1.0
  O  O272  1  0.53436000  0.48302000  0.71202000  1.0
  O  O273  1  0.68130000  0.51591000  0.65138000  1.0
  O  O274  1  0.46777000  0.78407000  0.27567000  1.0
  O  O275  1  0.33972000  0.73575000  0.34185000  1.0
  O  O276  1  0.16752000  0.43635000  0.75383000  1.0
  O  O277  1  0.61740000  0.83572000  0.18699000  1.0
  O  O278  1  0.40258000  0.40159000  0.80411000  1.0
  O  O279  1  0.40430000  0.35082000  0.30240000  1.0
  O  O280  1  0.68786000  0.07631000  0.21717000  1.0
  O  O281  1  0.35270000  0.39907000  0.18286000  1.0
  O  O282  1  0.31821000  0.01502000  0.84241000  1.0
  O  O283  1  0.59496000  0.91412000  0.68522000  1.0
  O  O284  1  0.26549000  0.16718000  0.79381000  1.0
  O  O285  1  0.62968000  0.85002000  0.80630000  1.0
  O  O286  1  0.27080000  0.58341000  0.29662000  1.0
  O  O287  1  0.65844000  0.89750000  0.30848000  1.0
  O  O288  1  0.68286000  0.67993000  0.71881000  1.0
  O  O289  1  0.35700000  0.35285000  0.68316000  1.0
  O  O290  1  0.54831000  0.06969000  0.89368000  1.0
  O  O291  1  0.69442000  0.00908000  0.84023000  1.0
