# generated using pymatgen
data_ZnH56C60Br4(NO2)4
_symmetry_space_group_name_H-M   'P 1'
_cell_length_a   8.72827000
_cell_length_b   12.86290000
_cell_length_c   15.10920000
_cell_angle_alpha   113.23900000
_cell_angle_beta   97.43650000
_cell_angle_gamma   97.56820000
_symmetry_Int_Tables_number   1
_chemical_formula_structural   ZnH56C60Br4(NO2)4
_chemical_formula_sum   'Zn1 H56 C60 Br4 N4 O8'
_cell_volume   1514.16817702
_cell_formula_units_Z   1
loop_
 _symmetry_equiv_pos_site_id
 _symmetry_equiv_pos_as_xyz
  1  'x, y, z'
loop_
 _atom_site_type_symbol
 _atom_site_label
 _atom_site_symmetry_multiplicity
 _atom_site_fract_x
 _atom_site_fract_y
 _atom_site_fract_z
 _atom_site_occupancy
  Zn  Zn0  1  0.00000000  0.00000000  0.00000000  1.0
  H  H1  1  0.47995000  0.90819000  0.12470000  1.0
  H  H2  1  0.52005000  0.09181000  0.87531000  1.0
  H  H3  1  0.66742000  0.08440000  0.28158000  1.0
  H  H4  1  0.33258000  0.91560000  0.71842000  1.0
  H  H5  1  0.26126000  0.30996000  0.36063000  1.0
  H  H6  1  0.73873000  0.69004000  0.63937000  1.0
  H  H7  1  0.48426000  0.31579000  0.25433000  1.0
  H  H8  1  0.51573000  0.68421000  0.74567000  1.0
  H  H9  1  0.82241000  0.33054000  0.29111000  1.0
  H  H10  1  0.17759000  0.66946000  0.70888000  1.0
  H  H11  1  0.06955000  0.13555000  0.41609000  1.0
  H  H12  1  0.93046000  0.86446000  0.58391000  1.0
  H  H13  1  0.63733000  0.45941000  0.48709000  1.0
  H  H14  1  0.36267000  0.54059000  0.51291000  1.0
  H  H15  1  0.81722000  0.55850000  0.51391000  1.0
  H  H16  1  0.18278000  0.44150000  0.48609000  1.0
  H  H17  1  0.50097000  0.55042000  0.40659000  1.0
  H  H18  1  0.49903000  0.44959000  0.59341000  1.0
  H  H19  1  0.56733000  0.56455000  0.30475000  1.0
  H  H20  1  0.43267000  0.43546000  0.69526000  1.0
  H  H21  1  0.67430000  0.65603000  0.42783000  1.0
  H  H22  1  0.32570000  0.34397000  0.57217000  1.0
  H  H23  1  0.09447000  0.32080000  0.66510000  1.0
  H  H24  1  0.90553000  0.67920000  0.33490000  1.0
  H  H25  1  0.92008000  0.21404000  0.62824000  1.0
  H  H26  1  0.07992000  0.78596000  0.37176000  1.0
  H  H27  1  0.21352000  0.18038000  0.71864000  1.0
  H  H28  1  0.78649000  0.81963000  0.28136000  1.0
  H  H29  1  0.20992000  0.04284000  0.62108000  1.0
  H  H30  1  0.79009000  0.95716000  0.37891000  1.0
  H  H31  1  0.03247000  0.07601000  0.66337000  1.0
  H  H32  1  0.96753000  0.92399000  0.33663000  1.0
  H  H33  1  0.31133000  0.86442000  0.96854000  1.0
  H  H34  1  0.68867000  0.13557000  0.03146000  1.0
  H  H35  1  0.61938000  0.61966000  0.89951000  1.0
  H  H36  1  0.38062000  0.38034000  0.10048000  1.0
  H  H37  1  0.98093000  0.71985000  0.88335000  1.0
  H  H38  1  0.01907000  0.28015000  0.11665000  1.0
  H  H39  1  0.97509000  0.65749000  0.96931000  1.0
  H  H40  1  0.02491000  0.34251000  0.03068000  1.0
  H  H41  1  0.99276000  0.79219000  0.13630000  1.0
  H  H42  1  0.00724000  0.20782000  0.86370000  1.0
  H  H43  1  0.10407000  0.93516000  0.17219000  1.0
  H  H44  1  0.89593000  0.06484000  0.82781000  1.0
  H  H45  1  0.20129000  0.81484000  0.13798000  1.0
  H  H46  1  0.79871000  0.18515000  0.86201000  1.0
  H  H47  1  0.38789000  0.40126000  0.92535000  1.0
  H  H48  1  0.61211000  0.59874000  0.07465000  1.0
  H  H49  1  0.32281000  0.36892000  0.79948000  1.0
  H  H50  1  0.67719000  0.63108000  0.20052000  1.0
  H  H51  1  0.58268000  0.27952000  0.87613000  1.0
  H  H52  1  0.41732000  0.72049000  0.12387000  1.0
  H  H53  1  0.71768000  0.31905000  0.80878000  1.0
  H  H54  1  0.28232000  0.68095000  0.19123000  1.0
  H  H55  1  0.51602000  0.25307000  0.75004000  1.0
  H  H56  1  0.48398000  0.74693000  0.24996000  1.0
  C  C57  1  0.68000000  0.92848000  0.04788000  1.0
  C  C58  1  0.32000000  0.07153000  0.95212000  1.0
  C  C59  1  0.59690000  0.95250000  0.12865000  1.0
  C  C60  1  0.40310000  0.04750000  0.87135000  1.0
  C  C61  1  0.69222000  0.04220000  0.20859000  1.0
  C  C62  1  0.30778000  0.95780000  0.79142000  1.0
  C  C63  1  0.83686000  0.07052000  0.17830000  1.0
  C  C64  1  0.16314000  0.92948000  0.82171000  1.0
  C  C65  1  0.97171000  0.15117000  0.24196000  1.0
  C  C66  1  0.02829000  0.84883000  0.75804000  1.0
  C  C67  1  0.11971000  0.17120000  0.21752000  1.0
  C  C68  1  0.88028000  0.82880000  0.78248000  1.0
  C  C69  1  0.25488000  0.25755000  0.28326000  1.0
  C  C70  1  0.74511000  0.74245000  0.71674000  1.0
  C  C71  1  0.36771000  0.26056000  0.22888000  1.0
  C  C72  1  0.63228000  0.73944000  0.77112000  1.0
  C  C73  1  0.30208000  0.17536000  0.12924000  1.0
  C  C74  1  0.69792000  0.82464000  0.87076000  1.0
  C  C75  1  0.62253000  0.84258000  0.95134000  1.0
  C  C76  1  0.37746000  0.15742000  0.04866000  1.0
  C  C77  1  0.94966000  0.22493000  0.34238000  1.0
  C  C78  1  0.05034000  0.77507000  0.65761000  1.0
  C  C79  1  0.86526000  0.31326000  0.35396000  1.0
  C  C80  1  0.13474000  0.68673000  0.64604000  1.0
  C  C81  1  0.83381000  0.38040000  0.44554000  1.0
  C  C82  1  0.16619000  0.61961000  0.55446000  1.0
  C  C83  1  0.88736000  0.35571000  0.52519000  1.0
  C  C84  1  0.11264000  0.64429000  0.47481000  1.0
  C  C85  1  0.97258000  0.26834000  0.51629000  1.0
  C  C86  1  0.02742000  0.73166000  0.48371000  1.0
  C  C87  1  0.00435000  0.20420000  0.42383000  1.0
  C  C88  1  0.99566000  0.79580000  0.57617000  1.0
  C  C89  1  0.74410000  0.47564000  0.45813000  1.0
  C  C90  1  0.25590000  0.52436000  0.54187000  1.0
  C  C91  1  0.60668000  0.56868000  0.37807000  1.0
  C  C92  1  0.39332000  0.43132000  0.62194000  1.0
  C  C93  1  0.02507000  0.24165000  0.60250000  1.0
  C  C94  1  0.97493000  0.75835000  0.39750000  1.0
  C  C95  1  0.14373000  0.11179000  0.64878000  1.0
  C  C96  1  0.85627000  0.88821000  0.35122000  1.0
  C  C97  1  0.48148000  0.75347000  0.93520000  1.0
  C  C98  1  0.51852000  0.24652000  0.06481000  1.0
  C  C99  1  0.33225000  0.77708000  0.94834000  1.0
  C  C100  1  0.66775000  0.22292000  0.05166000  1.0
  C  C101  1  0.20532000  0.68978000  0.93547000  1.0
  C  C102  1  0.79468000  0.31021000  0.06453000  1.0
  C  C103  1  0.23191000  0.57719000  0.90709000  1.0
  C  C104  1  0.76808000  0.42281000  0.09292000  1.0
  C  C105  1  0.38022000  0.55037000  0.89417000  1.0
  C  C106  1  0.61979000  0.44964000  0.10583000  1.0
  C  C107  1  0.50353000  0.63973000  0.90875000  1.0
  C  C108  1  0.49648000  0.36027000  0.09125000  1.0
  C  C109  1  0.04638000  0.72074000  0.95103000  1.0
  C  C110  1  0.95361000  0.27926000  0.04897000  1.0
  C  C111  1  0.09135000  0.84377000  0.12317000  1.0
  C  C112  1  0.90865000  0.15623000  0.87682000  1.0
  C  C113  1  0.40846000  0.42979000  0.86684000  1.0
  C  C114  1  0.59154000  0.57021000  0.13316000  1.0
  C  C115  1  0.59580000  0.31313000  0.82004000  1.0
  C  C116  1  0.40420000  0.68687000  0.17996000  1.0
  Br  Br117  1  0.84090000  0.44388000  0.65046000  1.0
  Br  Br118  1  0.15910000  0.55611000  0.34953000  1.0
  Br  Br119  1  0.06281000  0.45244000  0.88332000  1.0
  Br  Br120  1  0.93718000  0.54755000  0.11668000  1.0
  N  N121  1  0.82494000  0.00179000  0.08032000  1.0
  N  N122  1  0.17505000  0.99822000  0.91968000  1.0
  N  N123  1  0.15394000  0.11966000  0.12540000  1.0
  N  N124  1  0.84605000  0.88034000  0.87460000  1.0
  O  O125  1  0.70027000  0.48328000  0.36754000  1.0
  O  O126  1  0.29972000  0.51672000  0.63246000  1.0
  O  O127  1  0.11432000  0.15329000  0.57512000  1.0
  O  O128  1  0.88569000  0.84671000  0.42487000  1.0
  O  O129  1  0.05997000  0.83492000  0.02513000  1.0
  O  O130  1  0.94003000  0.16508000  0.97487000  1.0
  O  O131  1  0.56498000  0.42658000  0.85122000  1.0
  O  O132  1  0.43502000  0.57342000  0.14878000  1.0
