# generated using pymatgen
data_CdH8C13N2ClO2
_symmetry_space_group_name_H-M   'P 1'
_cell_length_a   8.59737000
_cell_length_b   8.65049000
_cell_length_c   18.18621048
_cell_angle_alpha   99.08534321
_cell_angle_beta   99.62134665
_cell_angle_gamma   108.04600000
_symmetry_Int_Tables_number   1
_chemical_formula_structural   CdH8C13N2ClO2
_chemical_formula_sum   'Cd4 H32 C52 N8 Cl4 O8'
_cell_volume   1235.78799476
_cell_formula_units_Z   4
loop_
 _symmetry_equiv_pos_site_id
 _symmetry_equiv_pos_as_xyz
  1  'x, y, z'
loop_
 _atom_site_type_symbol
 _atom_site_label
 _atom_site_symmetry_multiplicity
 _atom_site_fract_x
 _atom_site_fract_y
 _atom_site_fract_z
 _atom_site_occupancy
  Cd  Cd0  1  0.33869000  0.97529000  0.55481000  1.0
  Cd  Cd1  1  0.92107000  0.78343000  0.94540000  1.0
  Cd  Cd2  1  0.66132000  0.02471000  0.44519000  1.0
  Cd  Cd3  1  0.07892000  0.21657000  0.05460000  1.0
  H  H4  1  0.00744000  0.62972000  0.53192000  1.0
  H  H5  1  0.59754000  0.47539000  0.96810000  1.0
  H  H6  1  0.99257000  0.37028000  0.46808000  1.0
  H  H7  1  0.40246000  0.52461000  0.03190000  1.0
  H  H8  1  0.87363000  0.42987000  0.60823000  1.0
  H  H9  1  0.32128000  0.26537000  0.89182000  1.0
  H  H10  1  0.12636000  0.57014000  0.39177000  1.0
  H  H11  1  0.67872000  0.73463000  0.10818000  1.0
  H  H12  1  0.00587000  0.48857000  0.74967000  1.0
  H  H13  1  0.23901000  0.25654000  0.75035000  1.0
  H  H14  1  0.99413000  0.51143000  0.25033000  1.0
  H  H15  1  0.76099000  0.74346000  0.24965000  1.0
  H  H16  1  0.22945000  0.66957000  0.86184000  1.0
  H  H17  1  0.30869000  0.36798000  0.63816000  1.0
  H  H18  1  0.77055000  0.33043000  0.13816000  1.0
  H  H19  1  0.69131000  0.63202000  0.36184000  1.0
  H  H20  1  0.49778000  0.90943000  0.91499000  1.0
  H  H21  1  0.49537000  0.58350000  0.58506000  1.0
  H  H22  1  0.50222000  0.09057000  0.08501000  1.0
  H  H23  1  0.50463000  0.41650000  0.41494000  1.0
  H  H24  1  0.68790000  0.24590000  0.66791000  1.0
  H  H25  1  0.07845000  0.02012000  0.83219000  1.0
  H  H26  1  0.31210000  0.75410000  0.33209000  1.0
  H  H27  1  0.92155000  0.97988000  0.16781000  1.0
  H  H28  1  0.84693000  0.31979000  0.80694000  1.0
  H  H29  1  0.01362000  0.04062000  0.69318000  1.0
  H  H30  1  0.15308000  0.68021000  0.19306000  1.0
  H  H31  1  0.98638000  0.95937000  0.30682000  1.0
  H  H32  1  0.72834000  0.14502000  0.89472000  1.0
  H  H33  1  0.75115000  0.83446000  0.60539000  1.0
  H  H34  1  0.27167000  0.85499000  0.10529000  1.0
  H  H35  1  0.24886000  0.16554000  0.39461000  1.0
  C  C36  1  0.06257000  0.64687000  0.59254000  1.0
  C  C37  1  0.55417000  0.47005000  0.90749000  1.0
  C  C38  1  0.93743000  0.35313000  0.40746000  1.0
  C  C39  1  0.44582000  0.52996000  0.09251000  1.0
  C  C40  1  0.98687000  0.53687000  0.63597000  1.0
  C  C41  1  0.40073000  0.35095000  0.86406000  1.0
  C  C42  1  0.01313000  0.46313000  0.36403000  1.0
  C  C43  1  0.59927000  0.64905000  0.13594000  1.0
  C  C44  1  0.05974000  0.56872000  0.71307000  1.0
  C  C45  1  0.35574000  0.34696000  0.78698000  1.0
  C  C46  1  0.94026000  0.43128000  0.28693000  1.0
  C  C47  1  0.64426000  0.65303000  0.21302000  1.0
  C  C48  1  0.20750000  0.70820000  0.74617000  1.0
  C  C49  1  0.46242000  0.46165000  0.75386000  1.0
  C  C50  1  0.79250000  0.29180000  0.25383000  1.0
  C  C51  1  0.53758000  0.53835000  0.24614000  1.0
  C  C52  1  0.27669000  0.80987000  0.69712000  1.0
  C  C53  1  0.61309000  0.57984000  0.80292000  1.0
  C  C54  1  0.72331000  0.19013000  0.30288000  1.0
  C  C55  1  0.38691000  0.42016000  0.19708000  1.0
  C  C56  1  0.28871000  0.74752000  0.82553000  1.0
  C  C57  1  0.42276000  0.46360000  0.67449000  1.0
  C  C58  1  0.71129000  0.25248000  0.17447000  1.0
  C  C59  1  0.57724000  0.53640000  0.32551000  1.0
  C  C60  1  0.43455000  0.87998000  0.85474000  1.0
  C  C61  1  0.52609000  0.58043000  0.64532000  1.0
  C  C62  1  0.56545000  0.12002000  0.14526000  1.0
  C  C63  1  0.47391000  0.41957000  0.35468000  1.0
  C  C64  1  0.51012000  0.98339000  0.80700000  1.0
  C  C65  1  0.67713000  0.70371000  0.69307000  1.0
  C  C66  1  0.48989000  0.01661000  0.19301000  1.0
  C  C67  1  0.32287000  0.29629000  0.30693000  1.0
  C  C68  1  0.43105000  0.95087000  0.72826000  1.0
  C  C69  1  0.72316000  0.70309000  0.77180000  1.0
  C  C70  1  0.56896000  0.04913000  0.27174000  1.0
  C  C71  1  0.27684000  0.29691000  0.22820000  1.0
  C  C72  1  0.64161000  0.17465000  0.70909000  1.0
  C  C73  1  0.96612000  0.93274000  0.79101000  1.0
  C  C74  1  0.35839000  0.82535000  0.29091000  1.0
  C  C75  1  0.03389000  0.06727000  0.20900000  1.0
  C  C76  1  0.72924000  0.21469000  0.78592000  1.0
  C  C77  1  0.92948000  0.94386000  0.71420000  1.0
  C  C78  1  0.27076000  0.78531000  0.21408000  1.0
  C  C79  1  0.07052000  0.05614000  0.28580000  1.0
  C  C80  1  0.66309000  0.11906000  0.83488000  1.0
  C  C81  1  0.78498000  0.82891000  0.66522000  1.0
  C  C82  1  0.33692000  0.88094000  0.16512000  1.0
  C  C83  1  0.21502000  0.17109000  0.33478000  1.0
  C  C84  1  0.98866000  0.93690000  0.46136000  1.0
  C  C85  1  0.97560000  0.52726000  0.03872000  1.0
  C  C86  1  0.01134000  0.06310000  0.53864000  1.0
  C  C87  1  0.02440000  0.47275000  0.96128000  1.0
  N  N88  1  0.20297000  0.77736000  0.62191000  1.0
  N  N89  1  0.65550000  0.58122000  0.87815000  1.0
  N  N90  1  0.79703000  0.22264000  0.37809000  1.0
  N  N91  1  0.34450000  0.41878000  0.12185000  1.0
  N  N92  1  0.49768000  0.04717000  0.68141000  1.0
  N  N93  1  0.86630000  0.81640000  0.81868000  1.0
  N  N94  1  0.50232000  0.95283000  0.31859000  1.0
  N  N95  1  0.13369000  0.18360000  0.18132000  1.0
  Cl  Cl96  1  0.53790000  0.22991000  0.51724000  1.0
  Cl  Cl97  1  0.21296000  0.02132000  0.98272000  1.0
  Cl  Cl98  1  0.46210000  0.77009000  0.48276000  1.0
  Cl  Cl99  1  0.78704000  0.97869000  0.01728000  1.0
  O  O100  1  0.10869000  0.88524000  0.45253000  1.0
  O  O101  1  0.93342000  0.65593000  0.04776000  1.0
  O  O102  1  0.89130000  0.11476000  0.54747000  1.0
  O  O103  1  0.06658000  0.34407000  0.95224000  1.0
  O  O104  1  0.85167000  0.89439000  0.41192000  1.0
  O  O105  1  0.98197000  0.43987000  0.08808000  1.0
  O  O106  1  0.14832000  0.10561000  0.58808000  1.0
  O  O107  1  0.01803000  0.56013000  0.91192000  1.0
