# generated using pymatgen
data_Cu4H8C13N8
_symmetry_space_group_name_H-M   'P 1'
_cell_length_a   19.84060000
_cell_length_b   19.85150000
_cell_length_c   19.85900000
_cell_angle_alpha   109.30200000
_cell_angle_beta   109.61700000
_cell_angle_gamma   109.46900000
_symmetry_Int_Tables_number   1
_chemical_formula_structural   Cu4H8C13N8
_chemical_formula_sum   'Cu24 H48 C78 N48'
_cell_volume   6023.07978624
_cell_formula_units_Z   6
loop_
 _symmetry_equiv_pos_site_id
 _symmetry_equiv_pos_as_xyz
  1  'x, y, z'
loop_
 _atom_site_type_symbol
 _atom_site_label
 _atom_site_symmetry_multiplicity
 _atom_site_fract_x
 _atom_site_fract_y
 _atom_site_fract_z
 _atom_site_occupancy
  Cu  Cu0  1  0.36090000  0.43448000  0.46983000  1.0
  Cu  Cu1  1  0.43386000  0.47219000  0.35825000  1.0
  Cu  Cu2  1  0.46980000  0.35866000  0.43115000  1.0
  Cu  Cu3  1  0.13960000  0.60889000  0.07252000  1.0
  Cu  Cu4  1  0.06568000  0.42470000  0.03790000  1.0
  Cu  Cu5  1  0.02955000  0.46091000  0.88824000  1.0
  Cu  Cu6  1  0.46428000  0.89070000  0.03082000  1.0
  Cu  Cu7  1  0.61390000  0.07531000  0.14148000  1.0
  Cu  Cu8  1  0.42747000  0.03821000  0.06820000  1.0
  Cu  Cu9  1  0.03608000  0.06634000  0.42741000  1.0
  Cu  Cu10  1  0.88641000  0.02743000  0.46220000  1.0
  Cu  Cu11  1  0.07248000  0.14113000  0.61160000  1.0
  Cu  Cu12  1  0.86062000  0.96928000  0.93337000  1.0
  Cu  Cu13  1  0.93418000  0.85805000  0.97199000  1.0
  Cu  Cu14  1  0.97093000  0.93158000  0.85927000  1.0
  Cu  Cu15  1  0.63995000  0.57256000  0.10911000  1.0
  Cu  Cu16  1  0.56610000  0.53811000  0.92464000  1.0
  Cu  Cu17  1  0.52881000  0.38836000  0.96094000  1.0
  Cu  Cu18  1  0.96349000  0.53102000  0.39085000  1.0
  Cu  Cu19  1  0.11337000  0.64154000  0.57529000  1.0
  Cu  Cu20  1  0.92705000  0.56767000  0.53879000  1.0
  Cu  Cu21  1  0.53593000  0.92780000  0.56684000  1.0
  Cu  Cu22  1  0.38599000  0.96257000  0.52802000  1.0
  Cu  Cu23  1  0.57247000  0.11212000  0.64102000  1.0
  H  H24  1  0.25968000  0.52865000  0.46667000  1.0
  H  H25  1  0.36078000  0.58338000  0.31696000  1.0
  H  H26  1  0.46296000  0.25502000  0.52451000  1.0
  H  H27  1  0.31872000  0.36343000  0.58079000  1.0
  H  H28  1  0.52841000  0.46740000  0.25707000  1.0
  H  H29  1  0.58028000  0.31705000  0.35920000  1.0
  H  H30  1  0.24126000  0.70750000  0.26764000  1.0
  H  H31  1  0.13778000  0.45701000  0.22211000  1.0
  H  H32  1  0.03541000  0.56061000  0.79091000  1.0
  H  H33  1  0.18235000  0.76143000  0.04323000  1.0
  H  H34  1  0.97124000  0.22889000  0.93936000  1.0
  H  H35  1  0.91899000  0.27847000  0.73676000  1.0
  H  H36  1  0.56153000  0.79277000  0.03470000  1.0
  H  H37  1  0.76617000  0.04337000  0.18223000  1.0
  H  H38  1  0.23028000  0.93830000  0.97432000  1.0
  H  H39  1  0.28213000  0.73759000  0.92013000  1.0
  H  H40  1  0.71041000  0.27099000  0.24243000  1.0
  H  H41  1  0.45772000  0.22047000  0.13959000  1.0
  H  H42  1  0.93950000  0.97276000  0.23243000  1.0
  H  H43  1  0.73439000  0.91593000  0.27795000  1.0
  H  H44  1  0.26951000  0.24529000  0.70880000  1.0
  H  H45  1  0.21806000  0.13838000  0.45652000  1.0
  H  H46  1  0.78939000  0.03173000  0.56108000  1.0
  H  H47  1  0.04186000  0.18223000  0.76331000  1.0
  H  H48  1  0.75916000  0.96601000  0.02740000  1.0
  H  H49  1  0.86221000  0.81785000  0.08373000  1.0
  H  H50  1  0.96566000  0.02639000  0.75679000  1.0
  H  H51  1  0.81786000  0.07959000  0.86138000  1.0
  H  H52  1  0.02851000  0.75631000  0.96732000  1.0
  H  H53  1  0.08173000  0.85971000  0.81849000  1.0
  H  H54  1  0.74191000  0.76793000  0.20753000  1.0
  H  H55  1  0.63893000  0.72192000  0.95672000  1.0
  H  H56  1  0.53378000  0.29072000  0.06049000  1.0
  H  H57  1  0.68236000  0.54274000  0.26176000  1.0
  H  H58  1  0.47120000  0.43966000  0.72874000  1.0
  H  H59  1  0.41774000  0.23717000  0.77830000  1.0
  H  H60  1  0.06053000  0.53512000  0.29250000  1.0
  H  H61  1  0.26536000  0.68245000  0.54330000  1.0
  H  H62  1  0.72964000  0.47261000  0.43879000  1.0
  H  H63  1  0.78119000  0.42033000  0.23801000  1.0
  H  H64  1  0.21061000  0.74226000  0.77119000  1.0
  H  H65  1  0.95835000  0.63945000  0.72139000  1.0
  H  H66  1  0.43886000  0.73248000  0.47265000  1.0
  H  H67  1  0.23398000  0.77874000  0.41614000  1.0
  H  H68  1  0.76990000  0.20922000  0.74370000  1.0
  H  H69  1  0.71825000  0.95685000  0.63913000  1.0
  H  H70  1  0.28896000  0.06154000  0.53271000  1.0
  H  H71  1  0.54126000  0.26358000  0.68146000  1.0
  C  C72  1  0.29202000  0.53547000  0.43275000  1.0
  C  C73  1  0.29367000  0.57747000  0.38855000  1.0
  C  C74  1  0.34381000  0.56344000  0.35644000  1.0
  C  C75  1  0.43053000  0.28901000  0.53160000  1.0
  C  C76  1  0.38719000  0.29288000  0.57430000  1.0
  C  C77  1  0.35695000  0.34440000  0.56041000  1.0
  C  C78  1  0.53430000  0.43324000  0.28941000  1.0
  C  C79  1  0.57579000  0.38857000  0.29169000  1.0
  C  C80  1  0.56080000  0.35657000  0.34167000  1.0
  C  C81  1  0.20849000  0.64132000  0.24238000  1.0
  C  C82  1  0.20611000  0.59560000  0.28285000  1.0
  C  C83  1  0.15544000  0.51335000  0.21893000  1.0
  C  C84  1  0.06860000  0.60025000  0.85727000  1.0
  C  C85  1  0.11265000  0.68628000  0.90435000  1.0
  C  C86  1  0.14354000  0.70280000  0.98611000  1.0
  C  C87  1  0.96520000  0.25513000  0.89914000  1.0
  C  C88  1  0.92362000  0.21577000  0.81305000  1.0
  C  C89  1  0.93853000  0.28057000  0.79578000  1.0
  C  C90  1  0.60230000  0.85896000  0.06810000  1.0
  C  C91  1  0.68852000  0.90477000  0.11164000  1.0
  C  C92  1  0.70670000  0.98699000  0.14332000  1.0
  C  C93  1  0.25712000  0.89871000  0.96776000  1.0
  C  C94  1  0.21817000  0.81268000  0.92552000  1.0
  C  C95  1  0.28354000  0.79621000  0.93999000  1.0
  C  C96  1  0.64387000  0.24453000  0.20995000  1.0
  C  C97  1  0.59682000  0.28362000  0.20745000  1.0
  C  C98  1  0.51484000  0.21863000  0.15734000  1.0
  C  C99  1  0.89855000  0.96543000  0.25769000  1.0
  C  C100  1  0.81233000  0.92294000  0.21723000  1.0
  C  C101  1  0.79394000  0.93641000  0.28114000  1.0
  C  C102  1  0.24282000  0.21171000  0.64246000  1.0
  C  C103  1  0.28179000  0.20848000  0.59539000  1.0
  C  C104  1  0.21655000  0.15706000  0.51366000  1.0
  C  C105  1  0.85592000  0.06594000  0.60119000  1.0
  C  C106  1  0.90278000  0.11059000  0.68727000  1.0
  C  C107  1  0.98484000  0.14269000  0.70436000  1.0
  C  C108  1  0.79180000  0.93232000  0.03447000  1.0
  C  C109  1  0.79414000  0.88860000  0.07698000  1.0
  C  C110  1  0.84462000  0.85681000  0.06326000  1.0
  C  C111  1  0.93221000  0.03262000  0.78973000  1.0
  C  C112  1  0.88789000  0.07449000  0.79256000  1.0
  C  C113  1  0.85684000  0.05985000  0.84322000  1.0
  C  C114  1  0.03475000  0.78898000  0.93352000  1.0
  C  C115  1  0.07667000  0.79166000  0.88936000  1.0
  C  C116  1  0.06189000  0.84191000  0.85762000  1.0
  C  C117  1  0.70927000  0.74253000  0.14129000  1.0
  C  C118  1  0.70702000  0.78287000  0.09538000  1.0
  C  C119  1  0.65649000  0.71886000  0.01316000  1.0
  C  C120  1  0.56743000  0.35706000  0.10027000  1.0
  C  C121  1  0.61181000  0.40396000  0.18640000  1.0
  C  C122  1  0.64320000  0.48574000  0.20301000  1.0
  C  C123  1  0.46500000  0.39949000  0.75503000  1.0
  C  C124  1  0.42313000  0.31347000  0.71564000  1.0
  C  C125  1  0.43772000  0.29619000  0.78046000  1.0
  C  C126  1  0.10141000  0.56853000  0.35874000  1.0
  C  C127  1  0.18770000  0.61200000  0.40464000  1.0
  C  C128  1  0.20586000  0.64361000  0.48686000  1.0
  C  C129  1  0.75641000  0.46663000  0.39918000  1.0
  C  C130  1  0.71740000  0.42490000  0.31306000  1.0
  C  C131  1  0.78276000  0.43986000  0.29668000  1.0
  C  C132  1  0.14411000  0.70983000  0.74483000  1.0
  C  C133  1  0.09737000  0.70740000  0.78415000  1.0
  C  C134  1  0.01528000  0.65722000  0.71928000  1.0
  C  C135  1  0.39799000  0.75794000  0.46556000  1.0
  C  C136  1  0.31172000  0.71764000  0.42305000  1.0
  C  C137  1  0.29349000  0.78171000  0.43668000  1.0
  C  C138  1  0.74312000  0.14285000  0.71076000  1.0
  C  C139  1  0.78211000  0.09565000  0.70795000  1.0
  C  C140  1  0.71673000  0.01400000  0.65727000  1.0
  C  C141  1  0.35547000  0.10159000  0.56648000  1.0
  C  C142  1  0.40228000  0.18762000  0.61054000  1.0
  C  C143  1  0.48434000  0.20463000  0.64236000  1.0
  C  C144  1  0.37357000  0.25067000  0.62391000  1.0
  C  C145  1  0.12630000  0.74953000  0.87589000  1.0
  C  C146  1  0.62549000  0.37529000  0.24964000  1.0
  C  C147  1  0.87402000  0.12405000  0.75022000  1.0
  C  C148  1  0.24980000  0.62570000  0.37480000  1.0
  C  C149  1  0.75053000  0.87477000  0.12528000  1.0
  N  N150  1  0.37039000  0.51646000  0.38029000  1.0
  N  N151  1  0.33824000  0.49905000  0.42762000  1.0
  N  N152  1  0.38114000  0.36972000  0.51304000  1.0
  N  N153  1  0.42678000  0.33538000  0.49504000  1.0
  N  N154  1  0.51377000  0.38083000  0.36753000  1.0
  N  N155  1  0.49724000  0.42842000  0.33510000  1.0
  N  N156  1  0.12926000  0.51046000  0.14536000  1.0
  N  N157  1  0.16218000  0.58983000  0.15987000  1.0
  N  N158  1  0.11913000  0.63134000  0.98738000  1.0
  N  N159  1  0.07267000  0.56762000  0.90754000  1.0
  N  N160  1  0.98558000  0.35351000  0.86686000  1.0
  N  N161  1  0.00222000  0.33784000  0.93110000  1.0
  N  N162  1  0.63587000  0.98974000  0.11979000  1.0
  N  N163  1  0.57107000  0.91034000  0.07316000  1.0
  N  N164  1  0.35631000  0.86768000  0.98726000  1.0
  N  N165  1  0.34008000  0.93139000  0.00461000  1.0
  N  N166  1  0.51331000  0.14581000  0.13160000  1.0
  N  N167  1  0.59339000  0.16180000  0.16425000  1.0
  N  N168  1  0.86466000  0.98355000  0.35472000  1.0
  N  N169  1  0.92956000  0.00160000  0.34020000  1.0
  N  N170  1  0.14378000  0.13123000  0.51240000  1.0
  N  N171  1  0.15989000  0.16509000  0.59222000  1.0
  N  N172  1  0.98655000  0.11850000  0.63319000  1.0
  N  N173  1  0.90655000  0.07086000  0.56907000  1.0
  N  N174  1  0.87069000  0.88032000  0.01595000  1.0
  N  N175  1  0.83794000  0.92717000  0.99801000  1.0
  N  N176  1  0.88131000  0.01272000  0.86892000  1.0
  N  N177  1  0.92806000  0.99569000  0.83575000  1.0
  N  N178  1  0.01462000  0.86762000  0.88153000  1.0
  N  N179  1  0.99770000  0.83478000  0.92865000  1.0
  N  N180  1  0.63025000  0.64541000  0.01045000  1.0
  N  N181  1  0.66299000  0.66001000  0.08992000  1.0
  N  N182  1  0.61886000  0.48724000  0.13158000  1.0
  N  N183  1  0.57186000  0.40743000  0.06773000  1.0
  N  N184  1  0.48494000  0.36721000  0.85346000  1.0
  N  N185  1  0.50195000  0.43141000  0.83777000  1.0
  N  N186  1  0.13507000  0.62015000  0.48956000  1.0
  N  N187  1  0.07020000  0.57358000  0.41008000  1.0
  N  N188  1  0.85560000  0.48704000  0.36821000  1.0
  N  N189  1  0.83941000  0.50377000  0.43193000  1.0
  N  N190  1  0.01338000  0.63141000  0.64631000  1.0
  N  N191  1  0.09334000  0.66407000  0.66207000  1.0
  N  N192  1  0.36426000  0.85514000  0.48397000  1.0
  N  N193  1  0.42917000  0.84047000  0.50197000  1.0
  N  N194  1  0.64390000  0.01284000  0.63153000  1.0
  N  N195  1  0.66013000  0.09277000  0.66470000  1.0
  N  N196  1  0.48616000  0.13348000  0.61857000  1.0
  N  N197  1  0.40617000  0.06944000  0.57147000  1.0
