# generated using pymatgen
data_Ni2PH19C18(NO4)2
_symmetry_space_group_name_H-M   'P 1'
_cell_length_a   8.37949000
_cell_length_b   11.43450000
_cell_length_c   12.48900000
_cell_angle_alpha   112.93300000
_cell_angle_beta   96.83970000
_cell_angle_gamma   96.08610000
_symmetry_Int_Tables_number   1
_chemical_formula_structural   Ni2PH19C18(NO4)2
_chemical_formula_sum   'Ni4 P2 H38 C36 N4 O16'
_cell_volume   1078.90332077
_cell_formula_units_Z   2
loop_
 _symmetry_equiv_pos_site_id
 _symmetry_equiv_pos_as_xyz
  1  'x, y, z'
loop_
 _atom_site_type_symbol
 _atom_site_label
 _atom_site_symmetry_multiplicity
 _atom_site_fract_x
 _atom_site_fract_y
 _atom_site_fract_z
 _atom_site_occupancy
  Ni  Ni0  1  0.47878000  0.64468000  0.53758000  1.0
  Ni  Ni1  1  0.52393000  0.35440000  0.46195000  1.0
  Ni  Ni2  1  0.24533000  0.44522000  0.32274000  1.0
  Ni  Ni3  1  0.75314000  0.55428000  0.67342000  1.0
  P  P4  1  0.14703000  0.29704000  0.49379000  1.0
  P  P5  1  0.85243000  0.70008000  0.50418000  1.0
  H  H6  1  0.56659000  0.50833000  0.34965000  1.0
  H  H7  1  0.42440000  0.48466000  0.64195000  1.0
  H  H8  1  0.21186000  0.51728000  0.54130000  1.0
  H  H9  1  0.79107000  0.48037000  0.45364000  1.0
  H  H10  1  0.14670000  0.63524000  0.51487000  1.0
  H  H11  1  0.85734000  0.36339000  0.48181000  1.0
  H  H12  1  0.97730000  0.34863000  0.33221000  1.0
  H  H13  1  0.02617000  0.65249000  0.66823000  1.0
  H  H14  1  0.94207000  0.47630000  0.31729000  1.0
  H  H15  1  0.05891000  0.52552000  0.68367000  1.0
  H  H16  1  0.10963000  0.69443000  0.16094000  1.0
  H  H17  1  0.89685000  0.30706000  0.83913000  1.0
  H  H18  1  0.94559000  0.85834000  0.14212000  1.0
  H  H19  1  0.05345000  0.14025000  0.85967000  1.0
  H  H20  1  0.96769000  0.06968000  0.31192000  1.0
  H  H21  1  0.02770000  0.92764000  0.69075000  1.0
  H  H22  1  0.33087000  0.96020000  0.51211000  1.0
  H  H23  1  0.66991000  0.04016000  0.48938000  1.0
  H  H24  1  0.29147000  0.18080000  0.58347000  1.0
  H  H25  1  0.70404000  0.81820000  0.41963000  1.0
  H  H26  1  0.07954000  0.15478000  0.58458000  1.0
  H  H27  1  0.91536000  0.84494000  0.41645000  1.0
  H  H28  1  0.38922000  0.43697000  0.11563000  1.0
  H  H29  1  0.60683000  0.56447000  0.88499000  1.0
  H  H30  1  0.45119000  0.26368000  0.93789000  1.0
  H  H31  1  0.54829000  0.73732000  0.06393000  1.0
  H  H32  1  0.18248000  0.98917000  0.03951000  1.0
  H  H33  1  0.81567000  0.01186000  0.96170000  1.0
  H  H34  1  0.13822000  0.17325000  0.21256000  1.0
  H  H35  1  0.85731000  0.82805000  0.78778000  1.0
  H  H36  1  0.49167000  0.11558000  0.79316000  1.0
  H  H37  1  0.50580000  0.88596000  0.20810000  1.0
  H  H38  1  0.55526000  0.92864000  0.63219000  1.0
  H  H39  1  0.44234000  0.07330000  0.36874000  1.0
  H  H40  1  0.32455000  0.67265000  0.74764000  1.0
  H  H41  1  0.67750000  0.32860000  0.25434000  1.0
  H  H42  1  0.24895000  0.84565000  0.91260000  1.0
  H  H43  1  0.75206000  0.15518000  0.08934000  1.0
  C  C44  1  0.31924000  0.71649000  0.35156000  1.0
  C  C45  1  0.68999000  0.28604000  0.64650000  1.0
  C  C46  1  0.23111000  0.81873000  0.33728000  1.0
  C  C47  1  0.77274000  0.18259000  0.66339000  1.0
  C  C48  1  0.12287000  0.78966000  0.23235000  1.0
  C  C49  1  0.88050000  0.21108000  0.76840000  1.0
  C  C50  1  0.03112000  0.88108000  0.22315000  1.0
  C  C51  1  0.96849000  0.11798000  0.77846000  1.0
  C  C52  1  0.04398000  0.00023000  0.31809000  1.0
  C  C53  1  0.95317000  0.99795000  0.68412000  1.0
  C  C54  1  0.15308000  0.03174000  0.42359000  1.0
  C  C55  1  0.84470000  0.96713000  0.57853000  1.0
  C  C56  1  0.24664000  0.93970000  0.43106000  1.0
  C  C57  1  0.75391000  0.06050000  0.57049000  1.0
  C  C58  1  0.17025000  0.15910000  0.52878000  1.0
  C  C59  1  0.82611000  0.83986000  0.47312000  1.0
  C  C60  1  0.34696000  0.33555000  0.09405000  1.0
  C  C61  1  0.65008000  0.66576000  0.90655000  1.0
  C  C62  1  0.37989000  0.23754000  0.99502000  1.0
  C  C63  1  0.61861000  0.76352000  0.00639000  1.0
  C  C64  1  0.32454000  0.10786000  0.97146000  1.0
  C  C65  1  0.67428000  0.89315000  0.03006000  1.0
  C  C66  1  0.23177000  0.08592000  0.05052000  1.0
  C  C67  1  0.76598000  0.91519000  0.95056000  1.0
  C  C68  1  0.20371000  0.18849000  0.14765000  1.0
  C  C69  1  0.79227000  0.81260000  0.85279000  1.0
  C  C70  1  0.36350000  0.00004000  0.87086000  1.0
  C  C71  1  0.63613000  0.00102000  0.13086000  1.0
  C  C72  1  0.45102000  0.01976000  0.78834000  1.0
  C  C73  1  0.54786000  0.98175000  0.21324000  1.0
  C  C74  1  0.48812000  0.91535000  0.69702000  1.0
  C  C75  1  0.51096000  0.08639000  0.30452000  1.0
  C  C76  1  0.35981000  0.77240000  0.76088000  1.0
  C  C77  1  0.64144000  0.22896000  0.24107000  1.0
  C  C78  1  0.31758000  0.87152000  0.85416000  1.0
  C  C79  1  0.68307000  0.12958000  0.14780000  1.0
  N  N80  1  0.26243000  0.31182000  0.17066000  1.0
  N  N81  1  0.73335000  0.68925000  0.82932000  1.0
  N  N82  1  0.44367000  0.79274000  0.68268000  1.0
  N  N83  1  0.55680000  0.20900000  0.31915000  1.0
  O  O84  1  0.26909000  0.60170000  0.27460000  1.0
  O  O85  1  0.74955000  0.40173000  0.71885000  1.0
  O  O86  1  0.43336000  0.75225000  0.44123000  1.0
  O  O87  1  0.57218000  0.25010000  0.55956000  1.0
  O  O88  1  0.97060000  0.27763000  0.42883000  1.0
  O  O89  1  0.02893000  0.71924000  0.56832000  1.0
  O  O90  1  0.26668000  0.30071000  0.40876000  1.0
  O  O91  1  0.73232000  0.69197000  0.58900000  1.0
  O  O92  1  0.18780000  0.42104000  0.60973000  1.0
  O  O93  1  0.81173000  0.57897000  0.38628000  1.0
  O  O94  1  0.48122000  0.48032000  0.38638000  1.0
  O  O95  1  0.51313000  0.51171000  0.60712000  1.0
  O  O96  1  0.22936000  0.57101000  0.49401000  1.0
  O  O97  1  0.77645000  0.42914000  0.50276000  1.0
  O  O98  1  0.99698000  0.39946000  0.28352000  1.0
  O  O99  1  0.00643000  0.60328000  0.71805000  1.0
