# generated using pymatgen
data_CuH10C10(NO)3
_symmetry_space_group_name_H-M   'P 1'
_cell_length_a   6.96869000
_cell_length_b   9.02478000
_cell_length_c   11.22560000
_cell_angle_alpha   93.00620000
_cell_angle_beta   96.12000000
_cell_angle_gamma   106.07900000
_symmetry_Int_Tables_number   1
_chemical_formula_structural   CuH10C10(NO)3
_chemical_formula_sum   'Cu2 H20 C20 N6 O6'
_cell_volume   672.01694253
_cell_formula_units_Z   2
loop_
 _symmetry_equiv_pos_site_id
 _symmetry_equiv_pos_as_xyz
  1  'x, y, z'
loop_
 _atom_site_type_symbol
 _atom_site_label
 _atom_site_symmetry_multiplicity
 _atom_site_fract_x
 _atom_site_fract_y
 _atom_site_fract_z
 _atom_site_occupancy
  Cu  Cu0  1  0.00286000  0.20896000  0.04891000  1.0
  Cu  Cu1  1  0.99713000  0.79105000  0.95109000  1.0
  H  H2  1  0.57001000  0.65233000  0.69057000  1.0
  H  H3  1  0.42999000  0.34767000  0.30943000  1.0
  H  H4  1  0.36565000  0.63923000  0.77473000  1.0
  H  H5  1  0.63436000  0.36077000  0.22528000  1.0
  H  H6  1  0.58309000  0.59389000  0.83906000  1.0
  H  H7  1  0.41692000  0.40610000  0.16094000  1.0
  H  H8  1  0.37381000  0.94917000  0.77152000  1.0
  H  H9  1  0.62619000  0.05083000  0.22847000  1.0
  H  H10  1  0.99175000  0.11454000  0.29793000  1.0
  H  H11  1  0.00825000  0.88546000  0.70207000  1.0
  H  H12  1  0.96899000  0.22962000  0.49889000  1.0
  H  H13  1  0.03101000  0.77039000  0.50111000  1.0
  H  H14  1  0.05083000  0.66902000  0.34219000  1.0
  H  H15  1  0.94918000  0.33098000  0.65781000  1.0
  H  H16  1  0.06508000  0.53437000  0.14993000  1.0
  H  H17  1  0.93492000  0.46563000  0.85007000  1.0
  H  H18  1  0.32514000  0.35430000  0.92436000  1.0
  H  H19  1  0.67486000  0.64571000  0.07564000  1.0
  H  H20  1  0.22611000  0.48650000  0.96832000  1.0
  H  H21  1  0.77389000  0.51350000  0.03168000  1.0
  C  C22  1  0.53024000  0.67232000  0.78116000  1.0
  C  C23  1  0.46976000  0.32768000  0.21884000  1.0
  C  C24  1  0.61219000  0.83743000  0.83011000  1.0
  C  C25  1  0.38781000  0.16257000  0.16988000  1.0
  C  C26  1  0.52061000  0.95639000  0.81835000  1.0
  C  C27  1  0.47939000  0.04361000  0.18165000  1.0
  C  C28  1  0.65487000  0.08524000  0.88569000  1.0
  C  C29  1  0.34513000  0.91476000  0.11431000  1.0
  C  C30  1  0.64577000  0.24265000  0.91825000  1.0
  C  C31  1  0.35423000  0.75735000  0.08175000  1.0
  C  C32  1  0.00207000  0.23708000  0.31259000  1.0
  C  C33  1  0.99793000  0.76292000  0.68741000  1.0
  C  C34  1  0.99078000  0.30337000  0.42494000  1.0
  C  C35  1  0.00923000  0.69663000  0.57506000  1.0
  C  C36  1  0.00673000  0.46234000  0.44100000  1.0
  C  C37  1  0.99328000  0.53766000  0.55900000  1.0
  C  C38  1  0.03647000  0.54570000  0.33932000  1.0
  C  C39  1  0.96354000  0.45430000  0.66069000  1.0
  C  C40  1  0.04539000  0.47099000  0.22955000  1.0
  C  C41  1  0.95461000  0.52901000  0.77046000  1.0
  N  N42  1  0.81852000  0.04563000  0.93372000  1.0
  N  N43  1  0.18147000  0.95437000  0.06628000  1.0
  N  N44  1  0.79428000  0.89657000  0.90045000  1.0
  N  N45  1  0.20572000  0.10343000  0.09955000  1.0
  N  N46  1  0.02662000  0.31869000  0.21562000  1.0
  N  N47  1  0.97338000  0.68131000  0.78438000  1.0
  O  O48  1  0.79201000  0.32292000  0.99902000  1.0
  O  O49  1  0.20799000  0.67708000  0.00098000  1.0
  O  O50  1  0.50970000  0.29416000  0.87023000  1.0
  O  O51  1  0.49030000  0.70583000  0.12977000  1.0
  O  O52  1  0.19985000  0.37410000  0.94706000  1.0
  O  O53  1  0.80014000  0.62590000  0.05293000  1.0
