# generated using pymatgen
data_NiH16C24S2(NO)4
_symmetry_space_group_name_H-M   'P 1'
_cell_length_a   8.27002000
_cell_length_b   9.60008000
_cell_length_c   14.88550000
_cell_angle_alpha   92.06410000
_cell_angle_beta   95.79700000
_cell_angle_gamma   105.29200000
_symmetry_Int_Tables_number   1
_chemical_formula_structural   NiH16C24S2(NO)4
_chemical_formula_sum   'Ni2 H32 C48 S4 N8 O8'
_cell_volume   1131.71011939
_cell_formula_units_Z   2
loop_
 _symmetry_equiv_pos_site_id
 _symmetry_equiv_pos_as_xyz
  1  'x, y, z'
loop_
 _atom_site_type_symbol
 _atom_site_label
 _atom_site_symmetry_multiplicity
 _atom_site_fract_x
 _atom_site_fract_y
 _atom_site_fract_z
 _atom_site_occupancy
  Ni  Ni0  1  0.00000000  0.00000000  0.00000000  1.0
  Ni  Ni1  1  0.50000000  0.50000000  0.00000000  1.0
  H  H2  1  0.10090000  0.74061000  0.07854000  1.0
  H  H3  1  0.89911000  0.25939000  0.92146000  1.0
  H  H4  1  0.16893000  0.61542000  0.45998000  1.0
  H  H5  1  0.83107000  0.38458000  0.54002000  1.0
  H  H6  1  0.94470000  0.07708000  0.18976000  1.0
  H  H7  1  0.05530000  0.92292000  0.81024000  1.0
  H  H8  1  0.97903000  0.99225000  0.34657000  1.0
  H  H9  1  0.02097000  0.00775000  0.65343000  1.0
  H  H10  1  0.43082000  0.36091000  0.81239000  1.0
  H  H11  1  0.56918000  0.63909000  0.18761000  1.0
  H  H12  1  0.08022000  0.76775000  0.55479000  1.0
  H  H13  1  0.91978000  0.23225000  0.44521000  1.0
  H  H14  1  0.14490000  0.64307000  0.22883000  1.0
  H  H15  1  0.85510000  0.35693000  0.77117000  1.0
  H  H16  1  0.14201000  0.74684000  0.79173000  1.0
  H  H17  1  0.85799000  0.25316000  0.20827000  1.0
  H  H18  1  0.32210000  0.42148000  0.65835000  1.0
  H  H19  1  0.67790000  0.57852000  0.34165000  1.0
  H  H20  1  0.26339000  0.67832000  0.93887000  1.0
  H  H21  1  0.73661000  0.32168000  0.06113000  1.0
  H  H22  1  0.62980000  0.78989000  0.33730000  1.0
  H  H23  1  0.37020000  0.21011000  0.66270000  1.0
  H  H24  1  0.44025000  0.09362000  0.18350000  1.0
  H  H25  1  0.55975000  0.90638000  0.81650000  1.0
  H  H26  1  0.33894000  0.27849000  0.25991000  1.0
  H  H27  1  0.66106000  0.72151000  0.74009000  1.0
  H  H28  1  0.56738000  0.88767000  0.19098000  1.0
  H  H29  1  0.43262000  0.11233000  0.80902000  1.0
  H  H30  1  0.27913000  0.39162000  0.40174000  1.0
  H  H31  1  0.72087000  0.60837000  0.59825000  1.0
  H  H32  1  0.66736000  0.70655000  0.45252000  1.0
  H  H33  1  0.33264000  0.29345000  0.54748000  1.0
  C  C34  1  0.37857000  0.16336000  0.97772000  1.0
  C  C35  1  0.62144000  0.83664000  0.02228000  1.0
  C  C36  1  0.14872000  0.32142000  0.07164000  1.0
  C  C37  1  0.85128000  0.67858000  0.92836000  1.0
  C  C38  1  0.07577000  0.79391000  0.13938000  1.0
  C  C39  1  0.92423000  0.20609000  0.86062000  1.0
  C  C40  1  0.06466000  0.81053000  0.29984000  1.0
  C  C41  1  0.93534000  0.18947000  0.70016000  1.0
  C  C42  1  0.22500000  0.58931000  0.71344000  1.0
  C  C43  1  0.77500000  0.41069000  0.28656000  1.0
  C  C44  1  0.17299000  0.63124000  0.62198000  1.0
  C  C45  1  0.82701000  0.36876000  0.37802000  1.0
  C  C46  1  0.08940000  0.75784000  0.39170000  1.0
  C  C47  1  0.91060000  0.24216000  0.60830000  1.0
  C  C48  1  0.98777000  0.98119000  0.20209000  1.0
  C  C49  1  0.01223000  0.01881000  0.79791000  1.0
  C  C50  1  0.00679000  0.93376000  0.28868000  1.0
  C  C51  1  0.99321000  0.06624000  0.71132000  1.0
  C  C52  1  0.36620000  0.44560000  0.80425000  1.0
  C  C53  1  0.63380000  0.55440000  0.19574000  1.0
  C  C54  1  0.09940000  0.73931000  0.22349000  1.0
  C  C55  1  0.90060000  0.26069000  0.77651000  1.0
  C  C56  1  0.20455000  0.66062000  0.79314000  1.0
  C  C57  1  0.79545000  0.33938000  0.20686000  1.0
  C  C58  1  0.30456000  0.47789000  0.71972000  1.0
  C  C59  1  0.69543000  0.52211000  0.28028000  1.0
  C  C60  1  0.27154000  0.62268000  0.87524000  1.0
  C  C61  1  0.72847000  0.37732000  0.12476000  1.0
  C  C62  1  0.53765000  0.93697000  0.41743000  1.0
  C  C63  1  0.46235000  0.06303000  0.58257000  1.0
  C  C64  1  0.46677000  0.05792000  0.41438000  1.0
  C  C65  1  0.53323000  0.94208000  0.58562000  1.0
  C  C66  1  0.57083000  0.87718000  0.50490000  1.0
  C  C67  1  0.42917000  0.12282000  0.49510000  1.0
  C  C68  1  0.43293000  0.11547000  0.32867000  1.0
  C  C69  1  0.56707000  0.88453000  0.67134000  1.0
  C  C70  1  0.57309000  0.88001000  0.33644000  1.0
  C  C71  1  0.42691000  0.11999000  0.66356000  1.0
  C  C72  1  0.46887000  0.05118000  0.24848000  1.0
  C  C73  1  0.53113000  0.94882000  0.75152000  1.0
  C  C74  1  0.36429000  0.23611000  0.32538000  1.0
  C  C75  1  0.63570000  0.76389000  0.67462000  1.0
  C  C76  1  0.53875000  0.93573000  0.25284000  1.0
  C  C77  1  0.46125000  0.06427000  0.74716000  1.0
  C  C78  1  0.33079000  0.29829000  0.40390000  1.0
  C  C79  1  0.66920000  0.70170000  0.59610000  1.0
  C  C80  1  0.63723000  0.75824000  0.51241000  1.0
  C  C81  1  0.36277000  0.24175000  0.48759000  1.0
  S  S82  1  0.28745000  0.99208000  0.98177000  1.0
  S  S83  1  0.71256000  0.00792000  0.01823000  1.0
  S  S84  1  0.25528000  0.49049000  0.08833000  1.0
  S  S85  1  0.74472000  0.50951000  0.91167000  1.0
  N  N86  1  0.44456000  0.28797000  0.97352000  1.0
  N  N87  1  0.55544000  0.71203000  0.02648000  1.0
  N  N88  1  0.07186000  0.19828000  0.05914000  1.0
  N  N89  1  0.92814000  0.80171000  0.94086000  1.0
  N  N90  1  0.02181000  0.91338000  0.12853000  1.0
  N  N91  1  0.97819000  0.08662000  0.87147000  1.0
  N  N92  1  0.35430000  0.51961000  0.88073000  1.0
  N  N93  1  0.64570000  0.48039000  0.11927000  1.0
  O  O94  1  0.19739000  0.56506000  0.55309000  1.0
  O  O95  1  0.80261000  0.43494000  0.44691000  1.0
  O  O96  1  0.15379000  0.64597000  0.39396000  1.0
  O  O97  1  0.84621000  0.35403000  0.60604000  1.0
  O  O98  1  0.10483000  0.74052000  0.62087000  1.0
  O  O99  1  0.89517000  0.25949000  0.37913000  1.0
  O  O100  1  0.05031000  0.81658000  0.45926000  1.0
  O  O101  1  0.94970000  0.18342000  0.54074000  1.0
