# generated using pymatgen
data_CdH14C16(N6O)2
_symmetry_space_group_name_H-M   'P 1'
_cell_length_a   7.41115000
_cell_length_b   10.18860000
_cell_length_c   11.50150000
_cell_angle_alpha   89.99990000
_cell_angle_beta   89.99990000
_cell_angle_gamma   87.30070000
_symmetry_Int_Tables_number   1
_chemical_formula_structural   CdH14C16(N6O)2
_chemical_formula_sum   'Cd2 H28 C32 N24 O4'
_cell_volume   867.50594705
_cell_formula_units_Z   2
loop_
 _symmetry_equiv_pos_site_id
 _symmetry_equiv_pos_as_xyz
  1  'x, y, z'
loop_
 _atom_site_type_symbol
 _atom_site_label
 _atom_site_symmetry_multiplicity
 _atom_site_fract_x
 _atom_site_fract_y
 _atom_site_fract_z
 _atom_site_occupancy
  Cd  Cd0  1  0.00000000  0.00000000  0.00000000  1.0
  Cd  Cd1  1  0.50000000  0.00000000  0.50000000  1.0
  H  H2  1  0.91151000  0.33778000  0.00183000  1.0
  H  H3  1  0.58850000  0.66222000  0.50183000  1.0
  H  H4  1  0.08850000  0.66222000  0.99817000  1.0
  H  H5  1  0.41151000  0.33778000  0.49817000  1.0
  H  H6  1  0.77931000  0.55421000  0.07413000  1.0
  H  H7  1  0.72069000  0.44579000  0.57413000  1.0
  H  H8  1  0.22069000  0.44579000  0.92587000  1.0
  H  H9  1  0.27931000  0.55421000  0.42587000  1.0
  H  H10  1  0.75768000  0.60212000  0.28304000  1.0
  H  H11  1  0.74233000  0.39788000  0.78303000  1.0
  H  H12  1  0.24232000  0.39788000  0.71696000  1.0
  H  H13  1  0.25768000  0.60212000  0.21697000  1.0
  H  H14  1  0.87507000  0.43917000  0.43044000  1.0
  H  H15  1  0.62493000  0.56082000  0.93044000  1.0
  H  H16  1  0.12493000  0.56082000  0.56956000  1.0
  H  H17  1  0.37507000  0.43918000  0.06956000  1.0
  H  H18  1  0.14812000  0.00274000  0.28745000  1.0
  H  H19  1  0.35188000  0.99726000  0.78746000  1.0
  H  H20  1  0.85188000  0.99726000  0.71254000  1.0
  H  H21  1  0.64812000  0.00274000  0.21254000  1.0
  H  H22  1  0.21147000  0.21060000  0.90917000  1.0
  H  H23  1  0.28853000  0.78940000  0.40917000  1.0
  H  H24  1  0.78853000  0.78939000  0.09083000  1.0
  H  H25  1  0.71147000  0.21061000  0.59083000  1.0
  H  H26  1  0.05798000  0.19599000  0.81044000  1.0
  H  H27  1  0.44201000  0.80401000  0.31044000  1.0
  H  H28  1  0.94201000  0.80401000  0.18956000  1.0
  H  H29  1  0.55799000  0.19599000  0.68956000  1.0
  C  C30  1  0.95934000  0.26639000  0.17687000  1.0
  C  C31  1  0.54066000  0.73361000  0.67687000  1.0
  C  C32  1  0.04066000  0.73361000  0.82313000  1.0
  C  C33  1  0.45934000  0.26639000  0.32313000  1.0
  C  C34  1  0.89869000  0.35922000  0.09424000  1.0
  C  C35  1  0.60131000  0.64078000  0.59423000  1.0
  C  C36  1  0.10131000  0.64078000  0.90576000  1.0
  C  C37  1  0.39869000  0.35922000  0.40577000  1.0
  C  C38  1  0.82721000  0.47911000  0.13544000  1.0
  C  C39  1  0.67279000  0.52089000  0.63543000  1.0
  C  C40  1  0.17279000  0.52089000  0.86456000  1.0
  C  C41  1  0.32721000  0.47911000  0.36457000  1.0
  C  C42  1  0.81630000  0.50735000  0.25498000  1.0
  C  C43  1  0.68370000  0.49265000  0.75498000  1.0
  C  C44  1  0.18369000  0.49265000  0.74502000  1.0
  C  C45  1  0.31630000  0.50736000  0.24502000  1.0
  C  C46  1  0.87879000  0.41692000  0.33811000  1.0
  C  C47  1  0.62121000  0.58308000  0.83811000  1.0
  C  C48  1  0.12121000  0.58308000  0.66189000  1.0
  C  C49  1  0.37879000  0.41692000  0.16189000  1.0
  C  C50  1  0.94982000  0.29677000  0.29675000  1.0
  C  C51  1  0.55018000  0.70323000  0.79675000  1.0
  C  C52  1  0.05018000  0.70323000  0.70325000  1.0
  C  C53  1  0.44982000  0.29677000  0.20325000  1.0
  C  C54  1  0.08117000  0.09711000  0.26834000  1.0
  C  C55  1  0.41884000  0.90289000  0.76834000  1.0
  C  C56  1  0.91884000  0.90290000  0.73166000  1.0
  C  C57  1  0.58116000  0.09711000  0.23166000  1.0
  C  C58  1  0.06056000  0.17148000  0.47190000  1.0
  C  C59  1  0.43945000  0.82852000  0.97190000  1.0
  C  C60  1  0.93945000  0.82852000  0.52810000  1.0
  C  C61  1  0.56055000  0.17148000  0.02810000  1.0
  N  N62  1  0.03979000  0.14008000  0.16296000  1.0
  N  N63  1  0.46021000  0.85992000  0.66296000  1.0
  N  N64  1  0.96021000  0.85992000  0.83704000  1.0
  N  N65  1  0.53979000  0.14008000  0.33704000  1.0
  N  N66  1  0.02926000  0.18645000  0.35314000  1.0
  N  N67  1  0.47074000  0.81355000  0.85314000  1.0
  N  N68  1  0.97074000  0.81355000  0.64686000  1.0
  N  N69  1  0.52926000  0.18645000  0.14686000  1.0
  N  N70  1  0.95678000  0.22818000  0.55535000  1.0
  N  N71  1  0.54322000  0.77182000  0.05535000  1.0
  N  N72  1  0.04322000  0.77182000  0.44465000  1.0
  N  N73  1  0.45678000  0.22818000  0.94465000  1.0
  N  N74  1  0.03996000  0.19018000  0.65551000  1.0
  N  N75  1  0.46004000  0.80982000  0.15551000  1.0
  N  N76  1  0.96004000  0.80982000  0.34449000  1.0
  N  N77  1  0.53996000  0.19018000  0.84449000  1.0
  N  N78  1  0.18263000  0.11345000  0.63317000  1.0
  N  N79  1  0.31737000  0.88655000  0.13317000  1.0
  N  N80  1  0.81737000  0.88655000  0.36683000  1.0
  N  N81  1  0.68263000  0.11345000  0.86683000  1.0
  N  N82  1  0.20062000  0.09954000  0.51716000  1.0
  N  N83  1  0.29939000  0.90045000  0.01716000  1.0
  N  N84  1  0.79939000  0.90046000  0.48284000  1.0
  N  N85  1  0.70061000  0.09955000  0.98284000  1.0
  O  O86  1  0.08689000  0.18343000  0.89450000  1.0
  O  O87  1  0.41311000  0.81657000  0.39450000  1.0
  O  O88  1  0.91311000  0.81657000  0.10550000  1.0
  O  O89  1  0.58689000  0.18343000  0.60550000  1.0
