# generated using pymatgen
data_NiH32C26(NO2)4
_symmetry_space_group_name_H-M   'P 1'
_cell_length_a   8.02741000
_cell_length_b   8.93490000
_cell_length_c   10.59730000
_cell_angle_alpha   89.15780000
_cell_angle_beta   74.11190000
_cell_angle_gamma   88.25920000
_symmetry_Int_Tables_number   1
_chemical_formula_structural   NiH32C26(NO2)4
_chemical_formula_sum   'Ni1 H32 C26 N4 O8'
_cell_volume   730.69186606
_cell_formula_units_Z   1
loop_
 _symmetry_equiv_pos_site_id
 _symmetry_equiv_pos_as_xyz
  1  'x, y, z'
loop_
 _atom_site_type_symbol
 _atom_site_label
 _atom_site_symmetry_multiplicity
 _atom_site_fract_x
 _atom_site_fract_y
 _atom_site_fract_z
 _atom_site_occupancy
  Ni  Ni0  1  0.50001000  0.50000000  0.50000000  1.0
  H  H1  1  0.72983000  0.81487000  0.91306000  1.0
  H  H2  1  0.27017000  0.18514000  0.08693000  1.0
  H  H3  1  0.49588000  0.37051000  0.71155000  1.0
  H  H4  1  0.50411000  0.62950000  0.28846000  1.0
  H  H5  1  0.62560000  0.40007000  0.95561000  1.0
  H  H6  1  0.37438000  0.59993000  0.04438000  1.0
  H  H7  1  0.67942000  0.18403000  0.80299000  1.0
  H  H8  1  0.32060000  0.81597000  0.19699000  1.0
  H  H9  1  0.74811000  0.89170000  0.11286000  1.0
  H  H10  1  0.25189000  0.10831000  0.88713000  1.0
  H  H11  1  0.69223000  0.10923000  0.26554000  1.0
  H  H12  1  0.30775000  0.89077000  0.73446000  1.0
  H  H13  1  0.29693000  0.28728000  0.34244000  1.0
  H  H14  1  0.70306000  0.71273000  0.65756000  1.0
  H  H15  1  0.12235000  0.49547000  0.71143000  1.0
  H  H16  1  0.87764000  0.50450000  0.28859000  1.0
  H  H17  1  0.84954000  0.34204000  0.66039000  1.0
  H  H18  1  0.15046000  0.65795000  0.33961000  1.0
  H  H19  1  0.02839000  0.17087000  0.32098000  1.0
  H  H20  1  0.97161000  0.82914000  0.67902000  1.0
  H  H21  1  0.82841000  0.24766000  0.42000000  1.0
  H  H22  1  0.17159000  0.75234000  0.57999000  1.0
  H  H23  1  0.83256000  0.06051000  0.59608000  1.0
  H  H24  1  0.16744000  0.93949000  0.40391000  1.0
  H  H25  1  0.84387000  0.97136000  0.44646000  1.0
  H  H26  1  0.15613000  0.02864000  0.55353000  1.0
  H  H27  1  0.33959000  0.18405000  0.65735000  1.0
  H  H28  1  0.66041000  0.81595000  0.34269000  1.0
  H  H29  1  0.53414000  0.08871000  0.66925000  1.0
  H  H30  1  0.46586000  0.91130000  0.33079000  1.0
  H  H31  1  0.51027000  0.14688000  0.51229000  1.0
  H  H32  1  0.48972000  0.85310000  0.48775000  1.0
  C  C33  1  0.61230000  0.39553000  0.21609000  1.0
  C  C34  1  0.38769000  0.60447000  0.78390000  1.0
  C  C35  1  0.65739000  0.26896000  0.12078000  1.0
  C  C36  1  0.34261000  0.73105000  0.87921000  1.0
  C  C37  1  0.65623000  0.28947000  0.98940000  1.0
  C  C38  1  0.34377000  0.71053000  0.01058000  1.0
  C  C39  1  0.68576000  0.16878000  0.90375000  1.0
  C  C40  1  0.31425000  0.83122000  0.09624000  1.0
  C  C41  1  0.71716000  0.02543000  0.94880000  1.0
  C  C42  1  0.28286000  0.97457000  0.05118000  1.0
  C  C43  1  0.72311000  0.00385000  0.07863000  1.0
  C  C44  1  0.27689000  0.99616000  0.92136000  1.0
  C  C45  1  0.69244000  0.12494000  0.16340000  1.0
  C  C46  1  0.30756000  0.87507000  0.83658000  1.0
  C  C47  1  0.21473000  0.32604000  0.43577000  1.0
  C  C48  1  0.78527000  0.67396000  0.56423000  1.0
  C  C49  1  0.11876000  0.42936000  0.62755000  1.0
  C  C50  1  0.88124000  0.57062000  0.37246000  1.0
  C  C51  1  0.98382000  0.35262000  0.60547000  1.0
  C  C52  1  0.01619000  0.64737000  0.39454000  1.0
  C  C53  1  0.95029000  0.18983000  0.42231000  1.0
  C  C54  1  0.04972000  0.81018000  0.57769000  1.0
  C  C55  1  0.91683000  0.04112000  0.49635000  1.0
  C  C56  1  0.08318000  0.95888000  0.50364000  1.0
  C  C57  1  0.48127000  0.17684000  0.61626000  1.0
  C  C58  1  0.51873000  0.82316000  0.38377000  1.0
  N  N59  1  0.04662000  0.28856000  0.48353000  1.0
  N  N60  1  0.95338000  0.71144000  0.51647000  1.0
  N  N61  1  0.26195000  0.41287000  0.52065000  1.0
  N  N62  1  0.73805000  0.58712000  0.47937000  1.0
  O  O63  1  0.60011000  0.36184000  0.33642000  1.0
  O  O64  1  0.39991000  0.63817000  0.66356000  1.0
  O  O65  1  0.58538000  0.52605000  0.17424000  1.0
  O  O66  1  0.41458000  0.47394000  0.82576000  1.0
  O  O67  1  0.73856000  0.90821000  0.86298000  1.0
  O  O68  1  0.26147000  0.09180000  0.13701000  1.0
  O  O69  1  0.55894000  0.31697000  0.62470000  1.0
  O  O70  1  0.44106000  0.68303000  0.37531000  1.0
