# generated using pymatgen
data_ZnH6(C3N2)2
_symmetry_space_group_name_H-M   'P 1'
_cell_length_a   16.23410587
_cell_length_b   16.23430000
_cell_length_c   16.23430000
_cell_angle_alpha   106.96900000
_cell_angle_beta   110.73652679
_cell_angle_gamma   110.73652679
_symmetry_Int_Tables_number   1
_chemical_formula_structural   ZnH6(C3N2)2
_chemical_formula_sum   'Zn8 H48 C48 N32'
_cell_volume   3288.94437537
_cell_formula_units_Z   8
loop_
 _symmetry_equiv_pos_site_id
 _symmetry_equiv_pos_as_xyz
  1  'x, y, z'
loop_
 _atom_site_type_symbol
 _atom_site_label
 _atom_site_symmetry_multiplicity
 _atom_site_fract_x
 _atom_site_fract_y
 _atom_site_fract_z
 _atom_site_occupancy
  Zn  Zn0  1  0.56697000  0.09277000  0.28979000  1.0
  Zn  Zn1  1  0.69702000  0.28979000  0.72282000  1.0
  Zn  Zn2  1  0.80298000  0.02580000  0.09277000  1.0
  Zn  Zn3  1  0.93303000  0.72282000  0.02580000  1.0
  Zn  Zn4  1  0.43303000  0.90723000  0.71021000  1.0
  Zn  Zn5  1  0.30298000  0.71021000  0.27718000  1.0
  Zn  Zn6  1  0.19702000  0.97420000  0.90723000  1.0
  Zn  Zn7  1  0.06697000  0.27718000  0.97420000  1.0
  H  H8  1  0.58588000  0.11183000  0.49712000  1.0
  H  H9  1  0.88530000  0.49712000  0.91124000  1.0
  H  H10  1  0.61470000  0.02594000  0.11182000  1.0
  H  H11  1  0.91412000  0.91124000  0.02594000  1.0
  H  H12  1  0.41412000  0.88817000  0.50288000  1.0
  H  H13  1  0.11470000  0.50288000  0.08876000  1.0
  H  H14  1  0.38530000  0.97406000  0.88818000  1.0
  H  H15  1  0.08588000  0.08876000  0.97406000  1.0
  H  H16  1  0.68057000  0.33710000  0.41584000  1.0
  H  H17  1  0.57874000  0.41583000  0.73527000  1.0
  H  H18  1  0.92126000  0.15653000  0.33710000  1.0
  H  H19  1  0.81943000  0.73527000  0.15653000  1.0
  H  H20  1  0.31943000  0.66290000  0.58416000  1.0
  H  H21  1  0.42126000  0.58417000  0.26473000  1.0
  H  H22  1  0.07874000  0.84347000  0.66290000  1.0
  H  H23  1  0.18057000  0.26473000  0.84348000  1.0
  H  H24  1  0.72979000  0.42516000  0.61374000  1.0
  H  H25  1  0.68858000  0.61373000  0.88395000  1.0
  H  H26  1  0.81142000  0.19537000  0.42515000  1.0
  H  H27  1  0.77021000  0.88395000  0.19536000  1.0
  H  H28  1  0.27021000  0.57484000  0.38626000  1.0
  H  H29  1  0.31142000  0.38627000  0.11605000  1.0
  H  H30  1  0.18858000  0.80463000  0.57485000  1.0
  H  H31  1  0.22979000  0.11605000  0.80464000  1.0
  H  H32  1  0.36133000  0.91907000  0.26542000  1.0
  H  H33  1  0.84635000  0.26542000  0.90409000  1.0
  H  H34  1  0.65365000  0.05774000  0.91906000  1.0
  H  H35  1  0.13867000  0.90408000  0.05773000  1.0
  H  H36  1  0.63867000  0.08093000  0.73458000  1.0
  H  H37  1  0.15365000  0.73458000  0.09591000  1.0
  H  H38  1  0.34635000  0.94226000  0.08094000  1.0
  H  H39  1  0.86133000  0.09592000  0.94227000  1.0
  H  H40  1  0.64326000  0.94320000  0.31249000  1.0
  H  H41  1  0.86929000  0.31248000  0.66923000  1.0
  H  H42  1  0.63071000  0.79994000  0.94319000  1.0
  H  H43  1  0.85675000  0.66923000  0.79994000  1.0
  H  H44  1  0.35674000  0.05680000  0.68751000  1.0
  H  H45  1  0.13071000  0.68752000  0.33077000  1.0
  H  H46  1  0.36929000  0.20006000  0.05681000  1.0
  H  H47  1  0.14325000  0.33077000  0.20006000  1.0
  H  H48  1  0.52333000  0.76718000  0.30592000  1.0
  H  H49  1  0.03874000  0.30592000  0.78259000  1.0
  H  H50  1  0.46127000  0.74386000  0.76719000  1.0
  H  H51  1  0.97667000  0.78259000  0.74385000  1.0
  H  H52  1  0.47667000  0.23282000  0.69408000  1.0
  H  H53  1  0.96126000  0.69408000  0.21741000  1.0
  H  H54  1  0.53874000  0.25615000  0.23282000  1.0
  H  H55  1  0.02333000  0.21741000  0.25615000  1.0
  C  C56  1  0.61833000  0.18537000  0.50201000  1.0
  C  C57  1  0.81664000  0.50202000  0.88368000  1.0
  C  C58  1  0.68336000  0.06704000  0.18537000  1.0
  C  C59  1  0.88167000  0.88368000  0.06705000  1.0
  C  C60  1  0.38167000  0.81463000  0.49799000  1.0
  C  C61  1  0.18336000  0.49798000  0.11632000  1.0
  C  C62  1  0.31664000  0.93296000  0.81463000  1.0
  C  C63  1  0.11833000  0.11632000  0.93295000  1.0
  C  C64  1  0.66760000  0.30282000  0.46164000  1.0
  C  C65  1  0.65882000  0.46164000  0.79404000  1.0
  C  C66  1  0.84118000  0.13522000  0.30282000  1.0
  C  C67  1  0.83240000  0.79404000  0.13522000  1.0
  C  C68  1  0.33240000  0.69718000  0.53836000  1.0
  C  C69  1  0.34118000  0.53836000  0.20596000  1.0
  C  C70  1  0.15882000  0.86477000  0.69718000  1.0
  C  C71  1  0.16760000  0.20596000  0.86478000  1.0
  C  C72  1  0.69271000  0.34685000  0.56012000  1.0
  C  C73  1  0.71327000  0.56011000  0.86741000  1.0
  C  C74  1  0.78673000  0.15414000  0.34684000  1.0
  C  C75  1  0.80729000  0.86741000  0.15413000  1.0
  C  C76  1  0.30729000  0.65315000  0.43988000  1.0
  C  C77  1  0.28673000  0.43989000  0.13259000  1.0
  C  C78  1  0.21327000  0.84586000  0.65316000  1.0
  C  C79  1  0.19271000  0.13260000  0.84587000  1.0
  C  C80  1  0.42193000  0.90165000  0.27723000  1.0
  C  C81  1  0.87558000  0.27724000  0.85530000  1.0
  C  C82  1  0.62442000  0.97972000  0.90165000  1.0
  C  C83  1  0.07807000  0.85530000  0.97973000  1.0
  C  C84  1  0.57807000  0.09835000  0.72277000  1.0
  C  C85  1  0.12443000  0.72277000  0.14471000  1.0
  C  C86  1  0.37558000  0.02028000  0.09835000  1.0
  C  C87  1  0.92193000  0.14470000  0.02027000  1.0
  C  C88  1  0.56674000  0.91200000  0.30157000  1.0
  C  C89  1  0.88956000  0.30156000  0.73482000  1.0
  C  C90  1  0.61044000  0.84527000  0.91201000  1.0
  C  C91  1  0.93326000  0.73483000  0.84526000  1.0
  C  C92  1  0.43326000  0.08800000  0.69843000  1.0
  C  C93  1  0.11043000  0.69843000  0.26517000  1.0
  C  C94  1  0.38957000  0.15474000  0.08800000  1.0
  C  C95  1  0.06674000  0.26517000  0.15474000  1.0
  C  C96  1  0.50724000  0.82485000  0.29851000  1.0
  C  C97  1  0.97366000  0.29850000  0.79127000  1.0
  C  C98  1  0.52634000  0.81761000  0.82485000  1.0
  C  C99  1  0.99277000  0.79128000  0.81762000  1.0
  C  C100  1  0.49277000  0.17516000  0.70150000  1.0
  C  C101  1  0.02634000  0.70150000  0.20873000  1.0
  C  C102  1  0.47366000  0.18238000  0.17515000  1.0
  C  C103  1  0.00723000  0.20872000  0.18238000  1.0
  N  N104  1  0.62026000  0.20030000  0.42520000  1.0
  N  N105  1  0.72489000  0.42519000  0.80493000  1.0
  N  N106  1  0.77511000  0.08004000  0.20030000  1.0
  N  N107  1  0.87974000  0.80493000  0.08004000  1.0
  N  N108  1  0.37974000  0.79970000  0.57480000  1.0
  N  N109  1  0.27511000  0.57481000  0.19507000  1.0
  N  N110  1  0.22489000  0.91996000  0.79970000  1.0
  N  N111  1  0.12026000  0.19507000  0.91996000  1.0
  N  N112  1  0.66119000  0.27174000  0.58511000  1.0
  N  N113  1  0.81337000  0.58512000  0.92392000  1.0
  N  N114  1  0.68663000  0.11055000  0.27175000  1.0
  N  N115  1  0.83881000  0.92393000  0.11056000  1.0
  N  N116  1  0.33881000  0.72826000  0.41489000  1.0
  N  N117  1  0.18663000  0.41488000  0.07608000  1.0
  N  N118  1  0.31337000  0.88945000  0.72825000  1.0
  N  N119  1  0.16119000  0.07607000  0.88944000  1.0
  N  N120  1  0.51206000  0.96036000  0.28792000  1.0
  N  N121  1  0.82756000  0.28792000  0.77586000  1.0
  N  N122  1  0.67244000  0.94830000  0.96036000  1.0
  N  N123  1  0.98794000  0.77586000  0.94830000  1.0
  N  N124  1  0.48794000  0.03964000  0.71208000  1.0
  N  N125  1  0.17244000  0.71208000  0.22414000  1.0
  N  N126  1  0.32756000  0.05170000  0.03964000  1.0
  N  N127  1  0.01206000  0.22414000  0.05170000  1.0
  N  N128  1  0.41546000  0.81865000  0.28296000  1.0
  N  N129  1  0.96432000  0.28296000  0.86751000  1.0
  N  N130  1  0.53568000  0.90318000  0.81864000  1.0
  N  N131  1  0.08454000  0.86750000  0.90318000  1.0
  N  N132  1  0.58454000  0.18136000  0.71704000  1.0
  N  N133  1  0.03569000  0.71705000  0.13250000  1.0
  N  N134  1  0.46432000  0.09682000  0.18136000  1.0
  N  N135  1  0.91546000  0.13250000  0.09682000  1.0
