# generated using pymatgen
data_AlH7C10NO6
_symmetry_space_group_name_H-M   'P 1'
_cell_length_a   6.72217000
_cell_length_b   8.67340000
_cell_length_c   17.76361633
_cell_angle_alpha   91.97132058
_cell_angle_beta   100.65075940
_cell_angle_gamma   103.82560000
_symmetry_Int_Tables_number   1
_chemical_formula_structural   AlH7C10NO6
_chemical_formula_sum   'Al2 H14 C20 N2 O12'
_cell_volume   985.00351862
_cell_formula_units_Z   2
loop_
 _symmetry_equiv_pos_site_id
 _symmetry_equiv_pos_as_xyz
  1  'x, y, z'
loop_
 _atom_site_type_symbol
 _atom_site_label
 _atom_site_symmetry_multiplicity
 _atom_site_fract_x
 _atom_site_fract_y
 _atom_site_fract_z
 _atom_site_occupancy
  Al  Al0  1  0.99874000  0.49911000  0.50015000  1.0
  Al  Al1  1  0.49860000  0.49908000  0.49984000  1.0
  H  H2  1  0.16310000  0.36682000  0.41413000  1.0
  H  H3  1  0.83374000  0.63421000  0.58491000  1.0
  H  H4  1  0.05312000  0.49734000  0.73286000  1.0
  H  H5  1  0.12884000  0.51473000  0.87548000  1.0
  H  H6  1  0.73938000  0.43619000  0.87255000  1.0
  H  H7  1  0.26493000  0.56688000  0.12668000  1.0
  H  H8  1  0.94788000  0.50286000  0.26788000  1.0
  H  H9  1  0.87603000  0.48788000  0.12540000  1.0
  H  H10  1  0.63942000  0.41591000  0.66945000  1.0
  H  H11  1  0.36010000  0.58404000  0.32977000  1.0
  H  H12  1  0.72277000  0.84540000  0.48900000  1.0
  H  H13  1  0.87169000  0.02277000  0.46558000  1.0
  H  H14  1  0.27458000  0.15295000  0.51115000  1.0
  H  H15  1  0.12617000  0.97574000  0.53498000  1.0
  C  C16  1  0.65858000  0.21195000  0.49014000  1.0
  C  C17  1  0.68999000  0.53376000  0.36227000  1.0
  C  C18  1  0.33899000  0.78635000  0.51009000  1.0
  C  C19  1  0.30833000  0.46500000  0.63769000  1.0
  C  C20  1  0.35269000  0.46166000  0.72161000  1.0
  C  C21  1  0.20358000  0.48598000  0.76396000  1.0
  C  C22  1  0.24460000  0.49470000  0.84328000  1.0
  C  C23  1  0.44061000  0.47915000  0.88361000  1.0
  C  C24  1  0.58918000  0.45056000  0.84242000  1.0
  C  C25  1  0.54718000  0.44134000  0.76200000  1.0
  C  C26  1  0.48547000  0.49401000  0.96492000  1.0
  C  C27  1  0.52045000  0.50961000  0.03506000  1.0
  C  C28  1  0.56400000  0.52358000  0.11638000  1.0
  C  C29  1  0.41436000  0.55173000  0.15716000  1.0
  C  C30  1  0.45438000  0.55980000  0.23755000  1.0
  C  C31  1  0.64781000  0.53852000  0.27839000  1.0
  C  C32  1  0.79813000  0.51489000  0.23647000  1.0
  C  C33  1  0.75916000  0.50738000  0.15718000  1.0
  C  C34  1  0.59918000  0.03824000  0.49556000  1.0
  C  C35  1  0.39842000  0.96011000  0.50480000  1.0
  N  N36  1  0.76099000  0.96629000  0.49405000  1.0
  N  N37  1  0.23663000  0.03207000  0.50637000  1.0
  O  O38  1  0.85237000  0.27794000  0.49377000  1.0
  O  O39  1  0.54203000  0.54858000  0.39785000  1.0
  O  O40  1  0.48396000  0.71113000  0.51892000  1.0
  O  O41  1  0.13367000  0.48571000  0.60411000  1.0
  O  O42  1  0.14525000  0.72042000  0.50667000  1.0
  O  O43  1  0.45523000  0.44957000  0.60173000  1.0
  O  O44  1  0.51345000  0.28703000  0.48095000  1.0
  O  O45  1  0.86403000  0.51251000  0.39615000  1.0
  O  O46  1  0.21076000  0.43654000  0.46110000  1.0
  O  O47  1  0.78643000  0.56183000  0.53882000  1.0
  O  O48  1  0.69642000  0.41394000  0.72552000  1.0
  O  O49  1  0.30431000  0.58692000  0.27368000  1.0
