# generated using pymatgen
data_MgH7C11SN2O3
_symmetry_space_group_name_H-M   'P 1'
_cell_length_a   6.77225000
_cell_length_b   36.78540000
_cell_length_c   36.78297743
_cell_angle_alpha   119.60480386
_cell_angle_beta   93.51079726
_cell_angle_gamma   93.50520000
_symmetry_Int_Tables_number   1
_chemical_formula_structural   MgH7C11SN2O3
_chemical_formula_sum   'Mg6 H42 C66 S6 N12 O18'
_cell_volume   7907.95526166
_cell_formula_units_Z   6
loop_
 _symmetry_equiv_pos_site_id
 _symmetry_equiv_pos_as_xyz
  1  'x, y, z'
loop_
 _atom_site_type_symbol
 _atom_site_label
 _atom_site_symmetry_multiplicity
 _atom_site_fract_x
 _atom_site_fract_y
 _atom_site_fract_z
 _atom_site_occupancy
  Mg  Mg0  1  0.63876000  0.63469000  0.30977000  1.0
  Mg  Mg1  1  0.00409000  0.67516000  0.36537000  1.0
  Mg  Mg2  1  0.32875000  0.69027000  0.32482000  1.0
  Mg  Mg3  1  0.01204000  0.36497000  0.69108000  1.0
  Mg  Mg4  1  0.64715000  0.32606000  0.63501000  1.0
  Mg  Mg5  1  0.32103000  0.30891000  0.67395000  1.0
  H  H6  1  0.21877000  0.58924000  0.49726000  1.0
  H  H7  1  0.62911000  0.90800000  0.41075000  1.0
  H  H8  1  0.72187000  0.50281000  0.09198000  1.0
  H  H9  1  0.91648000  0.51348000  0.51048000  1.0
  H  H10  1  0.40240000  0.99699000  0.48652000  1.0
  H  H11  1  0.40585000  0.48957000  0.00302000  1.0
  H  H12  1  0.09088000  0.47387000  0.58003000  1.0
  H  H13  1  0.61716000  0.10608000  0.52600000  1.0
  H  H14  1  0.51070000  0.41992000  0.89387000  1.0
  H  H15  1  0.62507000  0.42598000  0.55780000  1.0
  H  H16  1  0.19909000  0.13185000  0.57391000  1.0
  H  H17  1  0.06674000  0.44205000  0.86825000  1.0
  H  H18  1  0.68018000  0.40729000  0.61125000  1.0
  H  H19  1  0.27295000  0.20400000  0.59262000  1.0
  H  H20  1  0.06839000  0.38873000  0.79602000  1.0
  H  H21  1  0.35248000  0.37580000  0.56596000  1.0
  H  H22  1  0.97668000  0.19008000  0.62423000  1.0
  H  H23  1  0.78588000  0.43418000  0.80988000  1.0
  H  H24  1  0.14699000  0.41155000  0.53755000  1.0
  H  H25  1  0.73527000  0.12598000  0.58837000  1.0
  H  H26  1  0.60838000  0.46245000  0.87397000  1.0
  H  H27  1  0.31020000  0.53152000  0.61605000  1.0
  H  H28  1  0.77859000  0.08437000  0.46831000  1.0
  H  H29  1  0.69414000  0.38396000  0.91560000  1.0
  H  H30  1  0.49984000  0.59196000  0.61686000  1.0
  H  H31  1  0.90807000  0.02473000  0.40794000  1.0
  H  H32  1  0.88338000  0.38317000  0.97522000  1.0
  H  H33  1  0.39092000  0.61500000  0.56628000  1.0
  H  H34  1  0.77593000  0.95118000  0.38502000  1.0
  H  H35  1  0.82511000  0.43385000  0.04883000  1.0
  H  H36  1  0.05007000  0.58701000  0.44690000  1.0
  H  H37  1  0.46247000  0.85983000  0.41292000  1.0
  H  H38  1  0.60324000  0.55304000  0.14018000  1.0
  H  H39  1  0.98488000  0.60236000  0.39729000  1.0
  H  H40  1  0.38201000  0.79492000  0.39753000  1.0
  H  H41  1  0.58761000  0.60269000  0.20508000  1.0
  H  H42  1  0.32814000  0.64261000  0.44701000  1.0
  H  H43  1  0.68504000  0.80449000  0.35745000  1.0
  H  H44  1  0.88099000  0.55306000  0.19556000  1.0
  H  H45  1  0.55279000  0.61659000  0.48373000  1.0
  H  H46  1  0.93561000  0.86721000  0.38344000  1.0
  H  H47  1  0.06927000  0.51626000  0.13291000  1.0
  C  C48  1  0.91235000  0.58316000  0.49281000  1.0
  C  C49  1  0.32875000  0.90964000  0.41683000  1.0
  C  C50  1  0.41975000  0.50721000  0.09043000  1.0
  C  C51  1  0.14717000  0.56568000  0.53559000  1.0
  C  C52  1  0.58121000  0.96986000  0.43432000  1.0
  C  C53  1  0.61185000  0.46450000  0.03015000  1.0
  C  C54  1  0.04114000  0.53108000  0.53416000  1.0
  C  C55  1  0.50980000  0.00305000  0.46894000  1.0
  C  C56  1  0.50722000  0.46594000  0.99697000  1.0
  C  C57  1  0.09863000  0.51948000  0.56380000  1.0
  C  C58  1  0.57913000  0.04424000  0.48048000  1.0
  C  C59  1  0.53511000  0.43627000  0.95576000  1.0
  C  C60  1  0.81314000  0.46639000  0.55216000  1.0
  C  C61  1  0.34671000  0.08580000  0.53353000  1.0
  C  C62  1  0.26084000  0.44777000  0.91428000  1.0
  C  C63  1  0.89992000  0.41305000  0.57361000  1.0
  C  C64  1  0.48689000  0.16056000  0.58684000  1.0
  C  C65  1  0.32579000  0.42630000  0.83945000  1.0
  C  C66  1  0.82804000  0.40056000  0.60105000  1.0
  C  C67  1  0.42749000  0.20048000  0.59932000  1.0
  C  C68  1  0.22652000  0.39889000  0.79954000  1.0
  C  C69  1  0.94315000  0.38051000  0.61749000  1.0
  C  C70  1  0.56269000  0.23694000  0.61945000  1.0
  C  C71  1  0.32532000  0.38249000  0.76307000  1.0
  C  C72  1  0.13911000  0.37209000  0.60481000  1.0
  C  C73  1  0.76706000  0.23268000  0.62792000  1.0
  C  C74  1  0.53396000  0.39518000  0.76730000  1.0
  C  C75  1  0.20612000  0.38410000  0.57636000  1.0
  C  C76  1  0.82211000  0.19224000  0.61593000  1.0
  C  C77  1  0.62926000  0.42368000  0.80773000  1.0
  C  C78  1  0.09249000  0.40433000  0.56076000  1.0
  C  C79  1  0.68815000  0.15642000  0.59560000  1.0
  C  C80  1  0.53114000  0.43917000  0.84355000  1.0
  C  C81  1  0.27256000  0.35102000  0.61953000  1.0
  C  C82  1  0.92146000  0.26846000  0.64899000  1.0
  C  C83  1  0.65267000  0.38048000  0.73150000  1.0
  C  C84  1  0.26396000  0.54145000  0.59364000  1.0
  C  C85  1  0.72252000  0.05207000  0.45846000  1.0
  C  C86  1  0.67056000  0.40641000  0.94793000  1.0
  C  C87  1  0.36973000  0.57533000  0.59415000  1.0
  C  C88  1  0.79438000  0.01869000  0.42458000  1.0
  C  C89  1  0.77583000  0.40587000  0.98129000  1.0
  C  C90  1  0.31035000  0.58806000  0.56559000  1.0
  C  C91  1  0.72207000  0.97744000  0.41191000  1.0
  C  C92  1  0.74497000  0.43448000  0.02256000  1.0
  C  C93  1  0.78179000  0.60665000  0.44231000  1.0
  C  C94  1  0.17455000  0.83569000  0.39332000  1.0
  C  C95  1  0.33952000  0.55770000  0.16439000  1.0
  C  C96  1  0.83891000  0.61031000  0.40818000  1.0
  C  C97  1  0.22804000  0.79788000  0.38962000  1.0
  C  C98  1  0.43071000  0.59183000  0.20215000  1.0
  C  C99  1  0.71667000  0.62535000  0.38740000  1.0
  C  C100  1  0.09088000  0.76209000  0.37461000  1.0
  C  C101  1  0.32908000  0.61264000  0.23793000  1.0
  C  C102  1  0.52442000  0.63615000  0.40129000  1.0
  C  C103  1  0.88785000  0.76520000  0.36384000  1.0
  C  C104  1  0.12298000  0.59874000  0.23483000  1.0
  C  C105  1  0.47197000  0.63265000  0.43602000  1.0
  C  C106  1  0.83880000  0.80343000  0.36737000  1.0
  C  C107  1  0.03586000  0.56402000  0.19662000  1.0
  C  C108  1  0.59501000  0.61859000  0.45674000  1.0
  C  C109  1  0.97581000  0.83822000  0.38144000  1.0
  C  C110  1  0.13829000  0.54328000  0.16187000  1.0
  C  C111  1  0.38131000  0.65198000  0.38245000  1.0
  C  C112  1  0.72910000  0.73052000  0.34802000  1.0
  C  C113  1  0.99880000  0.61761000  0.26951000  1.0
  S  S114  1  0.71030000  0.57847000  0.51413000  1.0
  S  S115  1  0.13141000  0.93566000  0.42154000  1.0
  S  S116  1  0.19652000  0.48587000  0.06442000  1.0
  S  S117  1  0.62578000  0.48181000  0.53368000  1.0
  S  S118  1  0.14377000  0.05197000  0.51814000  1.0
  S  S119  1  0.09206000  0.46628000  0.94820000  1.0
  N  N120  1  0.09889000  0.57775000  0.50534000  1.0
  N  N121  1  0.52073000  0.92756000  0.42226000  1.0
  N  N122  1  0.59382000  0.49476000  0.07246000  1.0
  N  N123  1  0.00461000  0.48447000  0.56429000  1.0
  N  N124  1  0.52020000  0.07978000  0.51546000  1.0
  N  N125  1  0.44036000  0.43570000  0.92023000  1.0
  N  N126  1  0.77376000  0.43250000  0.55865000  1.0
  N  N127  1  0.34127000  0.12618000  0.56738000  1.0
  N  N128  1  0.21464000  0.44121000  0.87388000  1.0
  N  N129  1  0.92067000  0.59231000  0.46060000  1.0
  N  N130  1  0.32786000  0.86828000  0.40764000  1.0
  N  N131  1  0.46018000  0.53936000  0.13178000  1.0
  O  O132  1  0.21638000  0.66299000  0.39752000  1.0
  O  O133  1  0.55315000  0.73454000  0.33699000  1.0
  O  O134  1  0.81885000  0.60255000  0.26547000  1.0
  O  O135  1  0.42291000  0.65429000  0.34961000  1.0
  O  O136  1  0.76878000  0.69539000  0.34569000  1.0
  O  O137  1  0.07331000  0.65041000  0.30465000  1.0
  O  O138  1  0.78792000  0.62948000  0.35620000  1.0
  O  O139  1  0.15830000  0.72679000  0.37049000  1.0
  O  O140  1  0.43156000  0.64383000  0.27324000  1.0
  O  O141  1  0.43797000  0.34069000  0.60448000  1.0
  O  O142  1  0.09719000  0.26378000  0.65936000  1.0
  O  O143  1  0.83297000  0.39556000  0.73615000  1.0
  O  O144  1  0.22063000  0.34366000  0.64885000  1.0
  O  O145  1  0.87686000  0.30513000  0.65632000  1.0
  O  O146  1  0.57152000  0.35114000  0.69485000  1.0
  O  O147  1  0.86528000  0.37075000  0.64461000  1.0
  O  O148  1  0.49461000  0.27382000  0.62922000  1.0
  O  O149  1  0.22040000  0.35537000  0.72620000  1.0
