# generated using pymatgen
data_Co2H14C6Cl4O3
_symmetry_space_group_name_H-M   'P 1'
_cell_length_a   7.57965000
_cell_length_b   7.57945000
_cell_length_c   12.31670000
_cell_angle_alpha   103.31700000
_cell_angle_beta   103.29400000
_cell_angle_gamma   97.64750000
_symmetry_Int_Tables_number   1
_chemical_formula_structural   Co2H14C6Cl4O3
_chemical_formula_sum   'Co4 H28 C12 Cl8 O6'
_cell_volume   657.05335221
_cell_formula_units_Z   2
loop_
 _symmetry_equiv_pos_site_id
 _symmetry_equiv_pos_as_xyz
  1  'x, y, z'
loop_
 _atom_site_type_symbol
 _atom_site_label
 _atom_site_symmetry_multiplicity
 _atom_site_fract_x
 _atom_site_fract_y
 _atom_site_fract_z
 _atom_site_occupancy
  Co  Co0  1  0.03465000  0.03461000  0.38804000  1.0
  Co  Co1  1  0.96533000  0.96522000  0.61188000  1.0
  Co  Co2  1  0.62654000  0.62655000  0.13447000  1.0
  Co  Co3  1  0.37342000  0.37326000  0.86548000  1.0
  H  H4  1  0.27809000  0.99287000  0.12989000  1.0
  H  H5  1  0.00806000  0.72286000  0.87058000  1.0
  H  H6  1  0.72232000  0.00736000  0.87005000  1.0
  H  H7  1  0.99273000  0.27800000  0.12979000  1.0
  H  H8  1  0.39536000  0.89857000  0.02491000  1.0
  H  H9  1  0.10212000  0.60538000  0.97546000  1.0
  H  H10  1  0.60542000  0.10179000  0.97520000  1.0
  H  H11  1  0.89849000  0.39522000  0.02482000  1.0
  H  H12  1  0.52323000  0.06803000  0.15720000  1.0
  H  H13  1  0.93217000  0.47782000  0.84330000  1.0
  H  H14  1  0.47727000  0.93206000  0.84307000  1.0
  H  H15  1  0.06784000  0.52319000  0.15714000  1.0
  H  H16  1  0.29041000  0.86753000  0.28952000  1.0
  H  H17  1  0.13258000  0.70957000  0.71058000  1.0
  H  H18  1  0.70934000  0.13224000  0.71026000  1.0
  H  H19  1  0.86718000  0.29021000  0.28937000  1.0
  H  H20  1  0.53308000  0.96238000  0.33827000  1.0
  H  H21  1  0.03761000  0.46691000  0.66193000  1.0
  H  H22  1  0.46666000  0.03742000  0.66175000  1.0
  H  H23  1  0.96210000  0.53288000  0.33815000  1.0
  H  H24  1  0.47243000  0.70369000  0.42306000  1.0
  H  H25  1  0.29616000  0.52729000  0.57691000  1.0
  H  H26  1  0.52715000  0.29596000  0.57677000  1.0
  H  H27  1  0.70344000  0.47241000  0.42298000  1.0
  H  H28  1  0.34921000  0.55119000  0.28304000  1.0
  H  H29  1  0.44880000  0.65051000  0.71689000  1.0
  H  H30  1  0.65053000  0.44859000  0.71673000  1.0
  H  H31  1  0.55090000  0.34926000  0.28297000  1.0
  C  C32  1  0.40658000  0.95022000  0.11723000  1.0
  C  C33  1  0.05032000  0.59417000  0.88316000  1.0
  C  C34  1  0.59387000  0.04996000  0.88285000  1.0
  C  C35  1  0.95008000  0.40648000  0.11713000  1.0
  C  C36  1  0.42790000  0.83900000  0.28625000  1.0
  C  C37  1  0.16103000  0.57206000  0.71386000  1.0
  C  C38  1  0.57191000  0.16083000  0.71364000  1.0
  C  C39  1  0.83872000  0.42775000  0.28613000  1.0
  C  C40  1  0.46000000  0.67264000  0.32959000  1.0
  C  C41  1  0.32729000  0.53978000  0.67038000  1.0
  C  C42  1  0.53970000  0.32710000  0.67024000  1.0
  C  C43  1  0.67240000  0.45997000  0.32951000  1.0
  Cl  Cl44  1  0.25121000  0.25138000  0.38064000  1.0
  Cl  Cl45  1  0.74867000  0.74849000  0.61923000  1.0
  Cl  Cl46  1  0.85101000  0.14898000  0.50002000  1.0
  Cl  Cl47  1  0.14896000  0.85084000  0.49989000  1.0
  Cl  Cl48  1  0.36977000  0.36978000  0.05467000  1.0
  Cl  Cl49  1  0.63012000  0.63009000  0.94528000  1.0
  Cl  Cl50  1  0.88939000  0.88933000  0.20169000  1.0
  Cl  Cl51  1  0.11057000  0.11055000  0.79824000  1.0
  O  O52  1  0.43679000  0.79917000  0.16726000  1.0
  O  O53  1  0.20102000  0.56333000  0.83287000  1.0
  O  O54  1  0.56331000  0.20083000  0.83271000  1.0
  O  O55  1  0.79897000  0.43666000  0.16715000  1.0
  O  O56  1  0.63213000  0.63219000  0.30898000  1.0
  O  O57  1  0.36764000  0.36759000  0.69094000  1.0
