# generated using pymatgen
data_Hf3H14C39N9O16
_symmetry_space_group_name_H-M   'P 1'
_cell_length_a   17.75520000
_cell_length_b   22.21320000
_cell_length_c   22.21920000
_cell_angle_alpha   65.32220000
_cell_angle_beta   88.69140000
_cell_angle_gamma   88.73930000
_symmetry_Int_Tables_number   1
_chemical_formula_structural   Hf3H14C39N9O16
_chemical_formula_sum   'Hf6 H28 C78 N18 O32'
_cell_volume   7960.07448290
_cell_formula_units_Z   2
loop_
 _symmetry_equiv_pos_site_id
 _symmetry_equiv_pos_as_xyz
  1  'x, y, z'
loop_
 _atom_site_type_symbol
 _atom_site_label
 _atom_site_symmetry_multiplicity
 _atom_site_fract_x
 _atom_site_fract_y
 _atom_site_fract_z
 _atom_site_occupancy
  Hf  Hf0  1  0.79483000  0.95326000  0.02620000  1.0
  Hf  Hf1  1  0.06290000  0.97397000  0.04900000  1.0
  Hf  Hf2  1  0.92705000  0.85899000  0.14532000  1.0
  Hf  Hf3  1  0.93047000  0.06782000  0.92939000  1.0
  Hf  Hf4  1  0.90093000  0.03475000  0.09995000  1.0
  Hf  Hf5  1  0.95806000  0.89560000  0.97445000  1.0
  H  H6  1  0.37907000  0.50800000  0.92758000  1.0
  H  H7  1  0.48603000  0.41342000  0.15345000  1.0
  H  H8  1  0.35257000  0.51740000  0.59469000  1.0
  H  H9  1  0.50841000  0.40436000  0.48254000  1.0
  H  H10  1  0.47666000  0.07268000  0.49193000  1.0
  H  H11  1  0.36979000  0.84662000  0.58760000  1.0
  H  H12  1  0.80094000  0.09143000  0.99070000  1.0
  H  H13  1  0.01373000  0.95225000  0.18091000  1.0
  H  H14  1  0.06023000  0.00262000  0.91160000  1.0
  H  H15  1  0.84590000  0.81863000  0.05965000  1.0
  H  H16  1  0.82995000  0.98590000  0.22524000  1.0
  H  H17  1  0.91107000  0.72758000  0.17707000  1.0
  H  H18  1  0.02746000  0.77044000  0.02941000  1.0
  H  H19  1  0.91976000  0.16330000  0.05975000  1.0
  H  H20  1  0.94163000  0.19644000  0.89217000  1.0
  H  H21  1  0.92177000  0.09226000  0.80294000  1.0
  H  H22  1  0.96476000  0.99831000  0.84638000  1.0
  H  H23  1  0.97195000  0.06725000  0.18611000  1.0
  H  H24  1  0.15810000  0.06140000  0.07227000  1.0
  H  H25  1  0.71626000  0.86621000  0.98056000  1.0
  H  H26  1  0.88261000  0.80630000  0.94905000  1.0
  H  H27  1  0.89568000  0.16040000  0.98917000  1.0
  H  H28  1  0.16633000  0.99091000  0.13210000  1.0
  H  H29  1  0.86602000  0.82577000  0.26411000  1.0
  H  H30  1  0.88633000  0.92534000  0.22878000  1.0
  H  H31  1  0.93255000  0.92796000  0.84776000  1.0
  H  H32  1  0.96453000  0.76893000  0.08523000  1.0
  H  H33  1  0.80166000  0.87734000  0.94833000  1.0
  C  C34  1  0.26356000  0.25911000  0.87544000  1.0
  C  C35  1  0.33601000  0.32711000  0.90107000  1.0
  C  C36  1  0.33663000  0.33422000  0.79635000  1.0
  C  C37  1  0.54894000  0.10385000  0.18532000  1.0
  C  C38  1  0.48188000  0.09941000  0.27491000  1.0
  C  C39  1  0.48424000  0.19447000  0.18093000  1.0
  C  C40  1  0.30838000  0.81493000  0.89767000  1.0
  C  C41  1  0.37153000  0.82010000  0.80608000  1.0
  C  C42  1  0.37478000  0.72566000  0.90071000  1.0
  C  C43  1  0.40986000  0.41841000  0.01143000  1.0
  C  C44  1  0.44044000  0.39074000  0.07640000  1.0
  C  C45  1  0.46245000  0.43393000  0.10398000  1.0
  C  C46  1  0.45577000  0.50307000  0.06940000  1.0
  C  C47  1  0.42453000  0.53063000  0.00468000  1.0
  C  C48  1  0.40285000  0.48752000  0.97697000  1.0
  C  C49  1  0.59356000  0.67048000  0.20210000  1.0
  C  C50  1  0.52789000  0.59848000  0.17660000  1.0
  C  C51  1  0.52444000  0.59153000  0.28134000  1.0
  C  C52  1  0.59522000  0.12248000  0.74207000  1.0
  C  C53  1  0.52160000  0.09843000  0.67367000  1.0
  C  C54  1  0.52314000  0.20281000  0.66726000  1.0
  C  C55  1  0.26125000  0.79575000  0.33267000  1.0
  C  C56  1  0.33379000  0.71751000  0.40910000  1.0
  C  C57  1  0.32902000  0.82186000  0.40313000  1.0
  C  C58  1  0.40830000  0.42633000  0.60563000  1.0
  C  C59  1  0.45287000  0.39387000  0.57356000  1.0
  C  C60  1  0.47413000  0.42900000  0.50701000  1.0
  C  C61  1  0.45277000  0.49545000  0.47162000  1.0
  C  C62  1  0.40788000  0.52779000  0.50362000  1.0
  C  C63  1  0.38680000  0.49274000  0.57019000  1.0
  C  C64  1  0.43145000  0.99511000  0.46983000  1.0
  C  C65  1  0.40034000  0.93029000  0.49766000  1.0
  C  C66  1  0.39335000  0.89614000  0.56682000  1.0
  C  C67  1  0.41501000  0.92419000  0.60970000  1.0
  C  C68  1  0.44576000  0.98914000  0.58180000  1.0
  C  C69  1  0.45290000  0.02324000  0.51268000  1.0
  C  C70  1  0.71901000  0.03033000  0.10827000  1.0
  C  C71  1  0.75354000  0.06494000  0.88655000  1.0
  C  C72  1  0.74628000  0.81963000  0.14718000  1.0
  C  C73  1  0.10639000  0.85239000  0.18539000  1.0
  C  C74  1  0.14008000  0.88859000  0.97618000  1.0
  C  C75  1  0.10638000  0.11355000  0.93178000  1.0
  C  C76  1  0.20785000  0.81353000  0.28091000  1.0
  C  C77  1  0.16148000  0.82742000  0.23751000  1.0
  C  C78  1  0.35267000  0.86690000  0.42930000  1.0
  C  C79  1  0.37572000  0.89876000  0.45818000  1.0
  C  C80  1  0.38381000  0.59420000  0.46888000  1.0
  C  C81  1  0.36127000  0.65108000  0.44013000  1.0
  C  C82  1  0.65028000  0.10289000  0.79250000  1.0
  C  C83  1  0.69797000  0.08700000  0.83496000  1.0
  C  C84  1  0.49450000  0.05370000  0.64851000  1.0
  C  C85  1  0.47064000  0.02094000  0.62092000  1.0
  C  C86  1  0.49790000  0.27002000  0.63656000  1.0
  C  C87  1  0.47633000  0.32724000  0.60813000  1.0
  C  C88  1  0.69084000  0.76770000  0.17051000  1.0
  C  C89  1  0.64537000  0.72363000  0.18397000  1.0
  C  C90  1  0.47660000  0.53007000  0.40514000  1.0
  C  C91  1  0.49852000  0.55937000  0.34813000  1.0
  C  C92  1  0.48077000  0.54292000  0.10037000  1.0
  C  C93  1  0.50413000  0.57221000  0.13172000  1.0
  C  C94  1  0.20575000  0.86493000  0.95237000  1.0
  C  C95  1  0.25589000  0.84344000  0.92829000  1.0
  C  C96  1  0.41236000  0.59964000  0.96892000  1.0
  C  C97  1  0.39783000  0.65816000  0.93662000  1.0
  C  C98  1  0.40395000  0.88851000  0.67889000  1.0
  C  C99  1  0.39124000  0.85645000  0.73780000  1.0
  C  C100  1  0.65283000  0.05221000  0.13336000  1.0
  C  C101  1  0.60212000  0.07444000  0.15618000  1.0
  C  C102  1  0.44387000  0.03065000  0.40081000  1.0
  C  C103  1  0.45873000  0.06293000  0.34233000  1.0
  C  C104  1  0.46391000  0.26269000  0.14481000  1.0
  C  C105  1  0.45124000  0.32156000  0.11246000  1.0
  C  C106  1  0.20853000  0.20854000  0.89413000  1.0
  C  C107  1  0.16118000  0.16582000  0.90936000  1.0
  C  C108  1  0.36200000  0.35187000  0.94641000  1.0
  C  C109  1  0.38531000  0.37920000  0.97961000  1.0
  C  C110  1  0.36311000  0.36475000  0.72957000  1.0
  C  C111  1  0.38493000  0.39234000  0.67234000  1.0
  N  N112  1  0.28678000  0.27685000  0.92305000  1.0
  N  N113  1  0.36257000  0.35821000  0.83836000  1.0
  N  N114  1  0.28679000  0.28490000  0.81164000  1.0
  N  N115  1  0.52622000  0.06663000  0.24809000  1.0
  N  N116  1  0.45976000  0.16353000  0.24435000  1.0
  N  N117  1  0.52847000  0.16731000  0.14842000  1.0
  N  N118  1  0.32788000  0.85224000  0.83408000  1.0
  N  N119  1  0.39605000  0.75664000  0.83643000  1.0
  N  N120  1  0.33121000  0.75211000  0.93429000  1.0
  N  N121  1  0.57377000  0.65123000  0.15458000  1.0
  N  N122  1  0.50219000  0.56600000  0.23942000  1.0
  N  N123  1  0.57007000  0.64378000  0.26583000  1.0
  N  N124  1  0.57097000  0.07558000  0.72368000  1.0
  N  N125  1  0.49596000  0.16145000  0.64296000  1.0
  N  N126  1  0.57286000  0.18661000  0.71664000  1.0
  N  N127  1  0.28623000  0.73243000  0.35830000  1.0
  N  N128  1  0.35654000  0.75950000  0.43437000  1.0
  N  N129  1  0.28132000  0.84336000  0.35178000  1.0
  O  O130  1  0.75647000  0.89821000  0.96362000  1.0
  O  O131  1  0.71000000  0.99764000  0.07401000  1.0
  O  O132  1  0.72733000  0.87076000  0.09540000  1.0
  O  O133  1  0.81904000  0.08837000  0.87125000  1.0
  O  O134  1  0.80822000  0.80875000  0.17742000  1.0
  O  O135  1  0.72976000  0.02324000  0.94305000  1.0
  O  O136  1  0.78106000  0.04767000  0.12391000  1.0
  O  O137  1  0.85983000  0.94383000  0.10319000  1.0
  O  O138  1  0.83734000  0.05505000  0.00507000  1.0
  O  O139  1  0.86853000  0.86005000  0.05388000  1.0
  O  O140  1  0.88403000  0.97194000  0.96165000  1.0
  O  O141  1  0.95806000  0.06846000  0.83718000  1.0
  O  O142  1  0.88071000  0.97639000  0.21392000  1.0
  O  O143  1  0.97719000  0.04129000  0.02470000  1.0
  O  O144  1  0.99102000  0.95507000  0.14045000  1.0
  O  O145  1  0.99885000  0.89616000  0.06188000  1.0
  O  O146  1  0.02378000  0.99023000  0.94790000  1.0
  O  O147  1  0.90548000  0.85574000  0.23851000  1.0
  O  O148  1  0.04246000  0.82648000  0.19624000  1.0
  O  O149  1  0.12911000  0.90197000  0.13312000  1.0
  O  O150  1  0.87961000  0.85428000  0.93217000  1.0
  O  O151  1  0.14932000  0.92588000  0.00567000  1.0
  O  O152  1  0.94495000  0.76320000  0.15159000  1.0
  O  O153  1  0.97525000  0.78239000  0.03398000  1.0
  O  O154  1  0.97277000  0.94657000  0.86371000  1.0
  O  O155  1  0.07759000  0.86909000  0.96338000  1.0
  O  O156  1  0.12999000  0.02479000  0.10545000  1.0
  O  O157  1  0.90505000  0.16332000  0.91802000  1.0
  O  O158  1  0.12854000  0.05992000  0.97992000  1.0
  O  O159  1  0.04361000  0.12493000  0.90362000  1.0
  O  O160  1  0.88377000  0.14557000  0.03887000  1.0
  O  O161  1  0.95957000  0.08571000  0.13957000  1.0
