# generated using pymatgen
data_Cu3H12(C7N13)2
_symmetry_space_group_name_H-M   'P 1'
_cell_length_a   7.57074000
_cell_length_b   8.04497000
_cell_length_c   10.25500000
_cell_angle_alpha   98.18600000
_cell_angle_beta   98.68110000
_cell_angle_gamma   91.86950000
_symmetry_Int_Tables_number   1
_chemical_formula_structural   Cu3H12(C7N13)2
_chemical_formula_sum   'Cu3 H12 C14 N26'
_cell_volume   610.21294635
_cell_formula_units_Z   1
loop_
 _symmetry_equiv_pos_site_id
 _symmetry_equiv_pos_as_xyz
  1  'x, y, z'
loop_
 _atom_site_type_symbol
 _atom_site_label
 _atom_site_symmetry_multiplicity
 _atom_site_fract_x
 _atom_site_fract_y
 _atom_site_fract_z
 _atom_site_occupancy
  Cu  Cu0  1  0.50001000  0.00001000  0.50000000  1.0
  Cu  Cu1  1  0.54776000  0.37548000  0.36319000  1.0
  Cu  Cu2  1  0.45224000  0.62453000  0.63681000  1.0
  H  H3  1  0.96507000  0.62711000  0.64778000  1.0
  H  H4  1  0.03492000  0.37288000  0.35222000  1.0
  H  H5  1  0.06665000  0.93080000  0.64714000  1.0
  H  H6  1  0.93335000  0.06919000  0.35286000  1.0
  H  H7  1  0.21923000  0.09943000  0.85816000  1.0
  H  H8  1  0.78077000  0.90056000  0.14184000  1.0
  H  H9  1  0.29369000  0.77026000  0.21117000  1.0
  H  H10  1  0.70632000  0.22973000  0.78883000  1.0
  H  H11  1  0.33041000  0.23703000  0.06607000  1.0
  H  H12  1  0.66958000  0.76297000  0.93393000  1.0
  H  H13  1  0.01852000  0.51087000  0.86233000  1.0
  H  H14  1  0.98148000  0.48913000  0.13767000  1.0
  C  C15  1  0.03111000  0.70641000  0.73803000  1.0
  C  C16  1  0.96888000  0.29357000  0.26197000  1.0
  C  C17  1  0.08673000  0.87351000  0.73795000  1.0
  C  C18  1  0.91327000  0.12647000  0.26205000  1.0
  C  C19  1  0.17184000  0.96953000  0.85642000  1.0
  C  C20  1  0.82816000  0.03046000  0.14357000  1.0
  C  C21  1  0.19468000  0.88950000  0.96929000  1.0
  C  C22  1  0.80533000  0.11050000  0.03071000  1.0
  C  C23  1  0.32332000  0.90222000  0.20826000  1.0
  C  C24  1  0.67668000  0.09778000  0.79174000  1.0
  C  C25  1  0.33926000  0.14158000  0.13163000  1.0
  C  C26  1  0.66074000  0.85841000  0.86837000  1.0
  C  C27  1  0.06093000  0.64063000  0.85805000  1.0
  C  C28  1  0.93907000  0.35936000  0.14195000  1.0
  N  N29  1  0.14139000  0.73109000  0.97296000  1.0
  N  N30  1  0.85862000  0.26891000  0.02704000  1.0
  N  N31  1  0.28189000  0.97614000  0.09619000  1.0
  N  N32  1  0.71811000  0.02385000  0.90381000  1.0
  N  N33  1  0.41193000  0.16610000  0.25880000  1.0
  N  N34  1  0.58807000  0.83390000  0.74120000  1.0
  N  N35  1  0.40150000  0.01648000  0.30677000  1.0
  N  N36  1  0.59850000  0.98351000  0.69323000  1.0
  N  N37  1  0.36371000  0.77939000  0.50535000  1.0
  N  N38  1  0.63630000  0.22063000  0.49465000  1.0
  N  N39  1  0.22084000  0.73817000  0.43409000  1.0
  N  N40  1  0.77918000  0.26184000  0.56593000  1.0
  N  N41  1  0.08561000  0.69719000  0.36614000  1.0
  N  N42  1  0.91442000  0.30282000  0.63388000  1.0
  N  N43  1  0.28803000  0.44481000  0.53611000  1.0
  N  N44  1  0.71196000  0.55521000  0.46387000  1.0
  N  N45  1  0.27685000  0.30313000  0.56024000  1.0
  N  N46  1  0.72314000  0.69691000  0.43974000  1.0
  N  N47  1  0.26054000  0.16225000  0.57483000  1.0
  N  N48  1  0.73946000  0.83778000  0.42517000  1.0
  N  N49  1  0.44592000  0.50378000  0.22400000  1.0
  N  N50  1  0.55404000  0.49620000  0.77599000  1.0
  N  N51  1  0.53939000  0.57792000  0.16368000  1.0
  N  N52  1  0.46059000  0.42206000  0.83631000  1.0
  N  N53  1  0.62125000  0.65408000  0.10191000  1.0
  N  N54  1  0.37875000  0.34591000  0.89810000  1.0
