# generated using pymatgen
data_SmH13C17O12
_symmetry_space_group_name_H-M   'P 1'
_cell_length_a   10.19190000
_cell_length_b   10.43240000
_cell_length_c   11.09600000
_cell_angle_alpha   96.30610000
_cell_angle_beta   112.41900000
_cell_angle_gamma   103.90900000
_symmetry_Int_Tables_number   1
_chemical_formula_structural   SmH13C17O12
_chemical_formula_sum   'Sm2 H26 C34 O24'
_cell_volume   1031.60382061
_cell_formula_units_Z   2
loop_
 _symmetry_equiv_pos_site_id
 _symmetry_equiv_pos_as_xyz
  1  'x, y, z'
loop_
 _atom_site_type_symbol
 _atom_site_label
 _atom_site_symmetry_multiplicity
 _atom_site_fract_x
 _atom_site_fract_y
 _atom_site_fract_z
 _atom_site_occupancy
  Sm  Sm0  1  0.09250000  0.85485000  0.49070000  1.0
  Sm  Sm1  1  0.90750000  0.14514000  0.50929000  1.0
  H  H2  1  0.57419000  0.86655000  0.45466000  1.0
  H  H3  1  0.42581000  0.13344000  0.54533000  1.0
  H  H4  1  0.16662000  0.60328000  0.13740000  1.0
  H  H5  1  0.83337000  0.39672000  0.86259000  1.0
  H  H6  1  0.58784000  0.59446000  0.13773000  1.0
  H  H7  1  0.41216000  0.40554000  0.86226000  1.0
  H  H8  1  0.10306000  0.53679000  0.90846000  1.0
  H  H9  1  0.89693000  0.46321000  0.09154000  1.0
  H  H10  1  0.12846000  0.38669000  0.83359000  1.0
  H  H11  1  0.87154000  0.61331000  0.16640000  1.0
  H  H12  1  0.99179000  0.27408000  0.16206000  1.0
  H  H13  1  0.00820000  0.72591000  0.83792000  1.0
  H  H14  1  0.20330000  0.96248000  0.18024000  1.0
  H  H15  1  0.79671000  0.03753000  0.81977000  1.0
  H  H16  1  0.44807000  0.91578000  0.05051000  1.0
  H  H17  1  0.55197000  0.08422000  0.94950000  1.0
  H  H18  1  0.25004000  0.24715000  0.93397000  1.0
  H  H19  1  0.75000000  0.75286000  0.06605000  1.0
  H  H20  1  0.34055000  0.96090000  0.78051000  1.0
  H  H21  1  0.65945000  0.03910000  0.21950000  1.0
  H  H22  1  0.40399000  0.92508000  0.67587000  1.0
  H  H23  1  0.59600000  0.07492000  0.32413000  1.0
  H  H24  1  0.19648000  0.65736000  0.64868000  1.0
  H  H25  1  0.80355000  0.34263000  0.35131000  1.0
  H  H26  1  0.10826000  0.56712000  0.50292000  1.0
  H  H27  1  0.89163000  0.43279000  0.49710000  1.0
  C  C28  1  0.76524000  0.78382000  0.36526000  1.0
  C  C29  1  0.23476000  0.21618000  0.63473000  1.0
  C  C30  1  0.59907000  0.73636000  0.30235000  1.0
  C  C31  1  0.40092000  0.26363000  0.69765000  1.0
  C  C32  1  0.51812000  0.78899000  0.36181000  1.0
  C  C33  1  0.48187000  0.21100000  0.63819000  1.0
  C  C34  1  0.36252000  0.73592000  0.30285000  1.0
  C  C35  1  0.63747000  0.26408000  0.69715000  1.0
  C  C36  1  0.27193000  0.77512000  0.37112000  1.0
  C  C37  1  0.72806000  0.22488000  0.62887000  1.0
  C  C38  1  0.28757000  0.63981000  0.18097000  1.0
  C  C39  1  0.71243000  0.36018000  0.81902000  1.0
  C  C40  1  0.36964000  0.59309000  0.12009000  1.0
  C  C41  1  0.63036000  0.40692000  0.87990000  1.0
  C  C42  1  0.52537000  0.63683000  0.18328000  1.0
  C  C43  1  0.47462000  0.36316000  0.81672000  1.0
  C  C44  1  0.15023000  0.45299000  0.92724000  1.0
  C  C45  1  0.84976000  0.54701000  0.07275000  1.0
  C  C46  1  0.11509000  0.27343000  0.04098000  1.0
  C  C47  1  0.88491000  0.72657000  0.95902000  1.0
  C  C48  1  0.05935000  0.22459000  0.12985000  1.0
  C  C49  1  0.94066000  0.77541000  0.87015000  1.0
  C  C50  1  0.08957000  0.11202000  0.17825000  1.0
  C  C51  1  0.91044000  0.88798000  0.82176000  1.0
  C  C52  1  0.02782000  0.06031000  0.27271000  1.0
  C  C53  1  0.97217000  0.93969000  0.72728000  1.0
  C  C54  1  0.17891000  0.04910000  0.14077000  1.0
  C  C55  1  0.82110000  0.95092000  0.85924000  1.0
  C  C56  1  0.23600000  0.09994000  0.05324000  1.0
  C  C57  1  0.76402000  0.90008000  0.94677000  1.0
  C  C58  1  0.33444000  0.03988000  0.01419000  1.0
  C  C59  1  0.66556000  0.96013000  0.98582000  1.0
  C  C60  1  0.20393000  0.21144000  0.00205000  1.0
  C  C61  1  0.79610000  0.78858000  0.99797000  1.0
  O  O62  1  0.83752000  0.70337000  0.35240000  1.0
  O  O63  1  0.16247000  0.29662000  0.64759000  1.0
  O  O64  1  0.83459000  0.90663000  0.43319000  1.0
  O  O65  1  0.16540000  0.09337000  0.56680000  1.0
  O  O66  1  0.32871000  0.88274000  0.46453000  1.0
  O  O67  1  0.67129000  0.11725000  0.53549000  1.0
  O  O68  1  0.13865000  0.69884000  0.33590000  1.0
  O  O69  1  0.86133000  0.30117000  0.66407000  1.0
  O  O70  1  0.30768000  0.50098000  0.99909000  1.0
  O  O71  1  0.69232000  0.49902000  0.00090000  1.0
  O  O72  1  0.07769000  0.38377000  0.99926000  1.0
  O  O73  1  0.92231000  0.61624000  0.00074000  1.0
  O  O74  1  0.96458000  0.13185000  0.31807000  1.0
  O  O75  1  0.03542000  0.86816000  0.68192000  1.0
  O  O76  1  0.04335000  0.94839000  0.30065000  1.0
  O  O77  1  0.95667000  0.05163000  0.69935000  1.0
  O  O78  1  0.39019000  0.08609000  0.93865000  1.0
  O  O79  1  0.60984000  0.91393000  0.06137000  1.0
  O  O80  1  0.36152000  0.93504000  0.06535000  1.0
  O  O81  1  0.63849000  0.06497000  0.93467000  1.0
  O  O82  1  0.32613000  0.89070000  0.70565000  1.0
  O  O83  1  0.67386000  0.10930000  0.29435000  1.0
  O  O84  1  0.10333000  0.63436000  0.56836000  1.0
  O  O85  1  0.89668000  0.36566000  0.43165000  1.0
