# generated using pymatgen
data_Zn4H28C34N4O13
_symmetry_space_group_name_H-M   'P 1'
_cell_length_a   18.62240000
_cell_length_b   18.63370000
_cell_length_c   25.09330000
_cell_angle_alpha   111.71900000
_cell_angle_beta   111.70700000
_cell_angle_gamma   90.17540000
_symmetry_Int_Tables_number   1
_chemical_formula_structural   Zn4H28C34N4O13
_chemical_formula_sum   'Zn8 H56 C68 N8 O26'
_cell_volume   7416.27665157
_cell_formula_units_Z   2
loop_
 _symmetry_equiv_pos_site_id
 _symmetry_equiv_pos_as_xyz
  1  'x, y, z'
loop_
 _atom_site_type_symbol
 _atom_site_label
 _atom_site_symmetry_multiplicity
 _atom_site_fract_x
 _atom_site_fract_y
 _atom_site_fract_z
 _atom_site_occupancy
  Zn  Zn0  1  0.47257000  0.05912000  0.94656000  1.0
  Zn  Zn1  1  0.88762000  0.47381000  0.94667000  1.0
  Zn  Zn2  1  0.47400000  0.88742000  0.94654000  1.0
  Zn  Zn3  1  0.05897000  0.47286000  0.94663000  1.0
  Zn  Zn4  1  0.61241000  0.02655000  0.05340000  1.0
  Zn  Zn5  1  0.02675000  0.61247000  0.05370000  1.0
  Zn  Zn6  1  0.44100000  0.02685000  0.05338000  1.0
  Zn  Zn7  1  0.02689000  0.44127000  0.05371000  1.0
  H  H8  1  0.22839000  0.32154000  0.93591000  1.0
  H  H9  1  0.61353000  0.22904000  0.93628000  1.0
  H  H10  1  0.70752000  0.61443000  0.93580000  1.0
  H  H11  1  0.32284000  0.70723000  0.93630000  1.0
  H  H12  1  0.22051000  0.61561000  0.92918000  1.0
  H  H13  1  0.61632000  0.70915000  0.92993000  1.0
  H  H14  1  0.70877000  0.31354000  0.92919000  1.0
  H  H15  1  0.31373000  0.22093000  0.93005000  1.0
  H  H16  1  0.19054000  0.27291000  0.02870000  1.0
  H  H17  1  0.75563000  0.18954000  0.02677000  1.0
  H  H18  1  0.83815000  0.75578000  0.02862000  1.0
  H  H19  1  0.27118000  0.83720000  0.02676000  1.0
  H  H20  1  0.20681000  0.75111000  0.04004000  1.0
  H  H21  1  0.75241000  0.83443000  0.03997000  1.0
  H  H22  1  0.83328000  0.28884000  0.04005000  1.0
  H  H23  1  0.28765000  0.20568000  0.04010000  1.0
  H  H24  1  0.41697000  0.87823000  0.63636000  1.0
  H  H25  1  0.73704000  0.23593000  0.63620000  1.0
  H  H26  1  0.21955000  0.75821000  0.63633000  1.0
  H  H27  1  0.89919000  0.40023000  0.63618000  1.0
  H  H28  1  0.21616000  0.79243000  0.36394000  1.0
  H  H29  1  0.56897000  0.15628000  0.36363000  1.0
  H  H30  1  0.14794000  0.57155000  0.36398000  1.0
  H  H31  1  0.79455000  0.20729000  0.36363000  1.0
  H  H32  1  0.15507000  0.73435000  0.24674000  1.0
  H  H33  1  0.51018000  0.09944000  0.24641000  1.0
  H  H34  1  0.09175000  0.51237000  0.24679000  1.0
  H  H35  1  0.73616000  0.14680000  0.24640000  1.0
  H  H36  1  0.60424000  0.08912000  0.84691000  1.0
  H  H37  1  0.61227000  0.06376000  0.77401000  1.0
  H  H38  1  0.56984000  0.14690000  0.80285000  1.0
  H  H39  1  0.46401000  0.03460000  0.71882000  1.0
  H  H40  1  0.45669000  0.05999000  0.79161000  1.0
  H  H41  1  0.53020000  0.95176000  0.80787000  1.0
  H  H42  1  0.53567000  0.92600000  0.73455000  1.0
  H  H43  1  0.79137000  0.23914000  0.85860000  1.0
  H  H44  1  0.75089000  0.15387000  0.78799000  1.0
  H  H45  1  0.84601000  0.16136000  0.84421000  1.0
  H  H46  1  0.85597000  0.18742000  0.75544000  1.0
  H  H47  1  0.89618000  0.27128000  0.82587000  1.0
  H  H48  1  0.76911000  0.32398000  0.79510000  1.0
  H  H49  1  0.73007000  0.23922000  0.72463000  1.0
  H  H50  1  0.24265000  0.75785000  0.84688000  1.0
  H  H51  1  0.16169000  0.71030000  0.77400000  1.0
  H  H52  1  0.23297000  0.65602000  0.80283000  1.0
  H  H53  1  0.25475000  0.68422000  0.71877000  1.0
  H  H54  1  0.33486000  0.73158000  0.79155000  1.0
  H  H55  1  0.27767000  0.85611000  0.80781000  1.0
  H  H56  1  0.19895000  0.80861000  0.73446000  1.0
  H  H57  1  0.06709000  0.61942000  0.85860000  1.0
  H  H58  1  0.03704000  0.63415000  0.78802000  1.0
  H  H59  1  0.99811000  0.68286000  0.84422000  1.0
  H  H60  1  0.89938000  0.56805000  0.75537000  1.0
  H  H61  1  0.92949000  0.55461000  0.82580000  1.0
  H  H62  1  0.02591000  0.47121000  0.79514000  1.0
  H  H63  1  0.99450000  0.48543000  0.72464000  1.0
  C  C64  1  0.58488000  0.08479000  0.16972000  1.0
  C  C65  1  0.08501000  0.58507000  0.17008000  1.0
  C  C66  1  0.21991000  0.71988000  0.43973000  1.0
  C  C67  1  0.71966000  0.21968000  0.43939000  1.0
  C  C68  1  0.28047000  0.78043000  0.56081000  1.0
  C  C69  1  0.78025000  0.28021000  0.56049000  1.0
  C  C70  1  0.18814000  0.73140000  0.33790000  1.0
  C  C71  1  0.60498000  0.15443000  0.33757000  1.0
  C  C72  1  0.14987000  0.60653000  0.33792000  1.0
  C  C73  1  0.73250000  0.18304000  0.33757000  1.0
  C  C74  1  0.15462000  0.69907000  0.27290000  1.0
  C  C75  1  0.57247000  0.12261000  0.27257000  1.0
  C  C76  1  0.11832000  0.57383000  0.27291000  1.0
  C  C77  1  0.70004000  0.14978000  0.27257000  1.0
  C  C78  1  0.11996000  0.61998000  0.23996000  1.0
  C  C79  1  0.61979000  0.11968000  0.23961000  1.0
  C  C80  1  0.18553000  0.68549000  0.37096000  1.0
  C  C81  1  0.68526000  0.18526000  0.37063000  1.0
  C  C82  1  0.41506000  0.91501000  0.83006000  1.0
  C  C83  1  0.91504000  0.41511000  0.83023000  1.0
  C  C84  1  0.63673000  0.13487000  0.99770000  1.0
  C  C85  1  0.86273000  0.63679000  0.99914000  1.0
  C  C86  1  0.36107000  0.86277000  0.99772000  1.0
  C  C87  1  0.13633000  0.36234000  0.99920000  1.0
  C  C88  1  0.63636000  0.86199000  0.00061000  1.0
  C  C89  1  0.86202000  0.36369000  0.99959000  1.0
  C  C90  1  0.36427000  0.13868000  0.00072000  1.0
  C  C91  1  0.13755000  0.63585000  0.99953000  1.0
  C  C92  1  0.23388000  0.28909000  0.96530000  1.0
  C  C93  1  0.67551000  0.23419000  0.96497000  1.0
  C  C94  1  0.73141000  0.67626000  0.96519000  1.0
  C  C95  1  0.28952000  0.73073000  0.96498000  1.0
  C  C96  1  0.23325000  0.67573000  0.96399000  1.0
  C  C97  1  0.67661000  0.73149000  0.96444000  1.0
  C  C98  1  0.73081000  0.28823000  0.96400000  1.0
  C  C99  1  0.28794000  0.23313000  0.96457000  1.0
  C  C100  1  0.18951000  0.30376000  0.99908000  1.0
  C  C101  1  0.69499000  0.18885000  0.99785000  1.0
  C  C102  1  0.80953000  0.69533000  0.99900000  1.0
  C  C103  1  0.30293000  0.80896000  0.99788000  1.0
  C  C104  1  0.19589000  0.69304000  0.00307000  1.0
  C  C105  1  0.69406000  0.80792000  0.00349000  1.0
  C  C106  1  0.80724000  0.30997000  0.00309000  1.0
  C  C107  1  0.30952000  0.19572000  0.00362000  1.0
  C  C108  1  0.42065000  0.89821000  0.72773000  1.0
  C  C109  1  0.81698000  0.31662000  0.72748000  1.0
  C  C110  1  0.30720000  0.82955000  0.72770000  1.0
  C  C111  1  0.91046000  0.41084000  0.72748000  1.0
  C  C112  1  0.38680000  0.86530000  0.66243000  1.0
  C  C113  1  0.78537000  0.28488000  0.66220000  1.0
  C  C114  1  0.27578000  0.79720000  0.66240000  1.0
  C  C115  1  0.87686000  0.37726000  0.66219000  1.0
  C  C116  1  0.31481000  0.81477000  0.62945000  1.0
  C  C117  1  0.81459000  0.31452000  0.62912000  1.0
  C  C118  1  0.38002000  0.87998000  0.75992000  1.0
  C  C119  1  0.87998000  0.38002000  0.76003000  1.0
  C  C120  1  0.49922000  0.95088000  0.76078000  1.0
  C  C121  1  0.49380000  0.03544000  0.76609000  1.0
  C  C122  1  0.57440000  0.08659000  0.79922000  1.0
  C  C123  1  0.78462000  0.27921000  0.75982000  1.0
  C  C124  1  0.84074000  0.23249000  0.79096000  1.0
  C  C125  1  0.80539000  0.19458000  0.82218000  1.0
  C  C126  1  0.26160000  0.80993000  0.76071000  1.0
  C  C127  1  0.27224000  0.73067000  0.76603000  1.0
  C  C128  1  0.22478000  0.71270000  0.79919000  1.0
  C  C129  1  0.97511000  0.48063000  0.75982000  1.0
  C  C130  1  0.95008000  0.55848000  0.79091000  1.0
  C  C131  1  0.01666000  0.62759000  0.82218000  1.0
  N  N132  1  0.22708000  0.71391000  0.53103000  1.0
  N  N133  1  0.82219000  0.29551000  0.53065000  1.0
  N  N134  1  0.30404000  0.81718000  0.53100000  1.0
  N  N135  1  0.70844000  0.23516000  0.53069000  1.0
  N  N136  1  0.19569000  0.68360000  0.46944000  1.0
  N  N137  1  0.79098000  0.26544000  0.46909000  1.0
  N  N138  1  0.27382000  0.78589000  0.46941000  1.0
  N  N139  1  0.67807000  0.20368000  0.46913000  1.0
  O  O140  1  0.49988000  0.99983000  0.99970000  1.0
  O  O141  1  0.00000000  0.50003000  0.00003000  1.0
  O  O142  1  0.51026000  0.06797000  0.14265000  1.0
  O  O143  1  0.06873000  0.51048000  0.14304000  1.0
  O  O144  1  0.63244000  0.07461000  0.14267000  1.0
  O  O145  1  0.07425000  0.63263000  0.14304000  1.0
  O  O146  1  0.42569000  0.98945000  0.85695000  1.0
  O  O147  1  0.86806000  0.43612000  0.85736000  1.0
  O  O148  1  0.43125000  0.86741000  0.85690000  1.0
  O  O149  1  0.98914000  0.42119000  0.85736000  1.0
  O  O150  1  0.66433000  0.10176000  0.03588000  1.0
  O  O151  1  0.93442000  0.66440000  0.03677000  1.0
  O  O152  1  0.37156000  0.93410000  0.03581000  1.0
  O  O153  1  0.10240000  0.37246000  0.03693000  1.0
  O  O154  1  0.66339000  0.93321000  0.03949000  1.0
  O  O155  1  0.93284000  0.37616000  0.03909000  1.0
  O  O156  1  0.37595000  0.10622000  0.03952000  1.0
  O  O157  1  0.10611000  0.66288000  0.03896000  1.0
  O  O158  1  0.39527000  0.83483000  0.96041000  1.0
  O  O159  1  0.12848000  0.39761000  0.96282000  1.0
  O  O160  1  0.56524000  0.12537000  0.96030000  1.0
  O  O161  1  0.83413000  0.56513000  0.96290000  1.0
  O  O162  1  0.39503000  0.12633000  0.96089000  1.0
  O  O163  1  0.12303000  0.56576000  0.95840000  1.0
  O  O164  1  0.56581000  0.83445000  0.96075000  1.0
  O  O165  1  0.83542000  0.39262000  0.95844000  1.0
