# generated using pymatgen
data_CuH8C10SBrN2
_symmetry_space_group_name_H-M   'P 1'
_cell_length_a   9.27710000
_cell_length_b   9.54904000
_cell_length_c   12.64400000
_cell_angle_alpha   90.00030000
_cell_angle_beta   90.00010000
_cell_angle_gamma   78.55600000
_symmetry_Int_Tables_number   1
_chemical_formula_structural   CuH8C10SBrN2
_chemical_formula_sum   'Cu4 H32 C40 S4 Br4 N8'
_cell_volume   1097.83049020
_cell_formula_units_Z   4
loop_
 _symmetry_equiv_pos_site_id
 _symmetry_equiv_pos_as_xyz
  1  'x, y, z'
loop_
 _atom_site_type_symbol
 _atom_site_label
 _atom_site_symmetry_multiplicity
 _atom_site_fract_x
 _atom_site_fract_y
 _atom_site_fract_z
 _atom_site_occupancy
  Cu  Cu0  1  0.98738000  0.88544000  0.06403000  1.0
  Cu  Cu1  1  0.01262000  0.61456000  0.56403000  1.0
  Cu  Cu2  1  0.01262000  0.11456000  0.93597000  1.0
  Cu  Cu3  1  0.98738000  0.38544000  0.43597000  1.0
  H  H4  1  0.96427000  0.75482000  0.27017000  1.0
  H  H5  1  0.03573000  0.74518000  0.77017000  1.0
  H  H6  1  0.03573000  0.24517000  0.72983000  1.0
  H  H7  1  0.96427000  0.25482000  0.22982000  1.0
  H  H8  1  0.77273000  0.70026000  0.38829000  1.0
  H  H9  1  0.22726000  0.79973000  0.88829000  1.0
  H  H10  1  0.22727000  0.29973000  0.61171000  1.0
  H  H11  1  0.77273000  0.20026000  0.11171000  1.0
  H  H12  1  0.44778000  0.94098000  0.17515000  1.0
  H  H13  1  0.55222000  0.55901000  0.67515000  1.0
  H  H14  1  0.55222000  0.05902000  0.82486000  1.0
  H  H15  1  0.44778000  0.44099000  0.32485000  1.0
  H  H16  1  0.65679000  0.97911000  0.06186000  1.0
  H  H17  1  0.34321000  0.52088000  0.56186000  1.0
  H  H18  1  0.34321000  0.02089000  0.93814000  1.0
  H  H19  1  0.65679000  0.47912000  0.43814000  1.0
  H  H20  1  0.96832000  0.08187000  0.41530000  1.0
  H  H21  1  0.03168000  0.41814000  0.91530000  1.0
  H  H22  1  0.03168000  0.91813000  0.58470000  1.0
  H  H23  1  0.96832000  0.58187000  0.08470000  1.0
  H  H24  1  0.13620000  0.84608000  0.38788000  1.0
  H  H25  1  0.86380000  0.65392000  0.88788000  1.0
  H  H26  1  0.86380000  0.15392000  0.61212000  1.0
  H  H27  1  0.13620000  0.34608000  0.11212000  1.0
  H  H28  1  0.49735000  0.07225000  0.38379000  1.0
  H  H29  1  0.50264000  0.42775000  0.88379000  1.0
  H  H30  1  0.50264000  0.92775000  0.61621000  1.0
  H  H31  1  0.49736000  0.57225000  0.11621000  1.0
  H  H32  1  0.31405000  0.29655000  0.41264000  1.0
  H  H33  1  0.68595000  0.20345000  0.91263000  1.0
  H  H34  1  0.68595000  0.70346000  0.58737000  1.0
  H  H35  1  0.31405000  0.79655000  0.08737000  1.0
  C  C36  1  0.84873000  0.79472000  0.25098000  1.0
  C  C37  1  0.15127000  0.70528000  0.75098000  1.0
  C  C38  1  0.15127000  0.20528000  0.74902000  1.0
  C  C39  1  0.84873000  0.29472000  0.24902000  1.0
  C  C40  1  0.73994000  0.76366000  0.31754000  1.0
  C  C41  1  0.26006000  0.73633000  0.81753000  1.0
  C  C42  1  0.26006000  0.23633000  0.68247000  1.0
  C  C43  1  0.73994000  0.26366000  0.18246000  1.0
  C  C44  1  0.59237000  0.81643000  0.29197000  1.0
  C  C45  1  0.40763000  0.68356000  0.79197000  1.0
  C  C46  1  0.40763000  0.18357000  0.70803000  1.0
  C  C47  1  0.59237000  0.31644000  0.20803000  1.0
  C  C48  1  0.56092000  0.89696000  0.19873000  1.0
  C  C49  1  0.43908000  0.60303000  0.69873000  1.0
  C  C50  1  0.43909000  0.10304000  0.80127000  1.0
  C  C51  1  0.56092000  0.39696000  0.30127000  1.0
  C  C52  1  0.67661000  0.92086000  0.13644000  1.0
  C  C53  1  0.32339000  0.57914000  0.63644000  1.0
  C  C54  1  0.32339000  0.07914000  0.86356000  1.0
  C  C55  1  0.67661000  0.42086000  0.36356000  1.0
  C  C56  1  0.08671000  0.07484000  0.40935000  1.0
  C  C57  1  0.91329000  0.42516000  0.90935000  1.0
  C  C58  1  0.91329000  0.92516000  0.59065000  1.0
  C  C59  1  0.08671000  0.57484000  0.09065000  1.0
  C  C60  1  0.18007000  0.94376000  0.39346000  1.0
  C  C61  1  0.81992000  0.55624000  0.89346000  1.0
  C  C62  1  0.81992000  0.05624000  0.60654000  1.0
  C  C63  1  0.18008000  0.44376000  0.10654000  1.0
  C  C64  1  0.33146000  0.93923000  0.38421000  1.0
  C  C65  1  0.66854000  0.56077000  0.88420000  1.0
  C  C66  1  0.66854000  0.06077000  0.61580000  1.0
  C  C67  1  0.33146000  0.43923000  0.11579000  1.0
  C  C68  1  0.38114000  0.06852000  0.39063000  1.0
  C  C69  1  0.61885000  0.43148000  0.89063000  1.0
  C  C70  1  0.61885000  0.93149000  0.60937000  1.0
  C  C71  1  0.38115000  0.56852000  0.10937000  1.0
  C  C72  1  0.27951000  0.19409000  0.40693000  1.0
  C  C73  1  0.72049000  0.30590000  0.90693000  1.0
  C  C74  1  0.72049000  0.80591000  0.59307000  1.0
  C  C75  1  0.27951000  0.69410000  0.09307000  1.0
  S  S76  1  0.45101000  0.77217000  0.37082000  1.0
  S  S77  1  0.54898000  0.72783000  0.87082000  1.0
  S  S78  1  0.54899000  0.22783000  0.62918000  1.0
  S  S79  1  0.45101000  0.27217000  0.12918000  1.0
  Br  Br80  1  0.85839000  0.93691000  0.89124000  1.0
  Br  Br81  1  0.14161000  0.56308000  0.39123000  1.0
  Br  Br82  1  0.14161000  0.06308000  0.10876000  1.0
  Br  Br83  1  0.85839000  0.43692000  0.60876000  1.0
  N  N84  1  0.81968000  0.87184000  0.16127000  1.0
  N  N85  1  0.18032000  0.62816000  0.66126000  1.0
  N  N86  1  0.18033000  0.12815000  0.83874000  1.0
  N  N87  1  0.81968000  0.37185000  0.33873000  1.0
  N  N88  1  0.13354000  0.19958000  0.41758000  1.0
  N  N89  1  0.86645000  0.30042000  0.91758000  1.0
  N  N90  1  0.86646000  0.80042000  0.58242000  1.0
  N  N91  1  0.13355000  0.69958000  0.08243000  1.0
