# generated using pymatgen
data_ZnH18PdC18(N3O)2
_symmetry_space_group_name_H-M   'P 1'
_cell_length_a   8.15586000
_cell_length_b   8.19312000
_cell_length_c   9.00023000
_cell_angle_alpha   115.78300000
_cell_angle_beta   105.17600000
_cell_angle_gamma   99.61170000
_symmetry_Int_Tables_number   1
_chemical_formula_structural   ZnH18PdC18(N3O)2
_chemical_formula_sum   'Zn1 H18 Pd1 C18 N6 O2'
_cell_volume   494.61268511
_cell_formula_units_Z   1
loop_
 _symmetry_equiv_pos_site_id
 _symmetry_equiv_pos_as_xyz
  1  'x, y, z'
loop_
 _atom_site_type_symbol
 _atom_site_label
 _atom_site_symmetry_multiplicity
 _atom_site_fract_x
 _atom_site_fract_y
 _atom_site_fract_z
 _atom_site_occupancy
  Zn  Zn0  1  0.50000000  0.00000000  0.50000000  1.0
  H  H1  1  0.22037000  0.67376000  0.39952000  1.0
  H  H2  1  0.77964000  0.32624000  0.60048000  1.0
  H  H3  1  0.50863000  0.38305000  0.54469000  1.0
  H  H4  1  0.49138000  0.61695000  0.45530000  1.0
  H  H5  1  0.41679000  0.66569000  0.70268000  1.0
  H  H6  1  0.58321000  0.33431000  0.29732000  1.0
  H  H7  1  0.25787000  0.65833000  0.90821000  1.0
  H  H8  1  0.74213000  0.34167000  0.09179000  1.0
  H  H9  1  0.20078000  0.37055000  0.94155000  1.0
  H  H10  1  0.79923000  0.62945000  0.05845000  1.0
  H  H11  1  0.42309000  0.03542000  0.84128000  1.0
  H  H12  1  0.57690000  0.96458000  0.15871000  1.0
  H  H13  1  0.22523000  0.07245000  0.87598000  1.0
  H  H14  1  0.77477000  0.92755000  0.12402000  1.0
  H  H15  1  0.12757000  0.75558000  0.63496000  1.0
  H  H16  1  0.87243000  0.24442000  0.36504000  1.0
  H  H17  1  0.06677000  0.88918000  0.53020000  1.0
  H  H18  1  0.93323000  0.11082000  0.46980000  1.0
  Pd  Pd19  1  0.00000000  0.00000000  0.00000000  1.0
  C  C20  1  0.44154000  0.38753000  0.63552000  1.0
  C  C21  1  0.55846000  0.61247000  0.36448000  1.0
  C  C22  1  0.38963000  0.54436000  0.72387000  1.0
  C  C23  1  0.61037000  0.45564000  0.27613000  1.0
  C  C24  1  0.30198000  0.53967000  0.83636000  1.0
  C  C25  1  0.69802000  0.46033000  0.16364000  1.0
  C  C26  1  0.27000000  0.37888000  0.85543000  1.0
  C  C27  1  0.73000000  0.62112000  0.14457000  1.0
  C  C28  1  0.32888000  0.22748000  0.76491000  1.0
  C  C29  1  0.67112000  0.77252000  0.23509000  1.0
  C  C30  1  0.29489000  0.05232000  0.78291000  1.0
  C  C31  1  0.70511000  0.94768000  0.21709000  1.0
  C  C32  1  0.18179000  0.86753000  0.60774000  1.0
  C  C33  1  0.81821000  0.13247000  0.39226000  1.0
  C  C34  1  0.19691000  0.98288000  0.16958000  1.0
  C  C35  1  0.80308000  0.01712000  0.83040000  1.0
  C  C36  1  0.07638000  0.28090000  0.15853000  1.0
  C  C37  1  0.92361000  0.71910000  0.84147000  1.0
  N  N38  1  0.41451000  0.23334000  0.65610000  1.0
  N  N39  1  0.58548000  0.76666000  0.34390000  1.0
  N  N40  1  0.31390000  0.97228000  0.26906000  1.0
  N  N41  1  0.68611000  0.02772000  0.73095000  1.0
  N  N42  1  0.11983000  0.44739000  0.24804000  1.0
  N  N43  1  0.88017000  0.55261000  0.75196000  1.0
  O  O44  1  0.29150000  0.80526000  0.50726000  1.0
  O  O45  1  0.70850000  0.19474000  0.49274000  1.0
