# generated using pymatgen
data_Zn4H9C28S2Cl5O13
_symmetry_space_group_name_H-M   'P 1'
_cell_length_a   18.37480000
_cell_length_b   19.63120000
_cell_length_c   32.66140000
_cell_angle_alpha   86.13130000
_cell_angle_beta   73.70470000
_cell_angle_gamma   62.10460000
_symmetry_Int_Tables_number   1
_chemical_formula_structural   Zn4H9C28S2Cl5O13
_chemical_formula_sum   'Zn16 H36 C112 S8 Cl20 O52'
_cell_volume   9966.01221844
_cell_formula_units_Z   4
loop_
 _symmetry_equiv_pos_site_id
 _symmetry_equiv_pos_as_xyz
  1  'x, y, z'
loop_
 _atom_site_type_symbol
 _atom_site_label
 _atom_site_symmetry_multiplicity
 _atom_site_fract_x
 _atom_site_fract_y
 _atom_site_fract_z
 _atom_site_occupancy
  Zn  Zn0  1  0.87536000  0.54523000  0.51876000  1.0
  Zn  Zn1  1  0.04693000  0.47934000  0.43948000  1.0
  Zn  Zn2  1  0.05469000  0.39946000  0.52493000  1.0
  Zn  Zn3  1  0.03972000  0.57009000  0.51654000  1.0
  Zn  Zn4  1  0.62445000  0.18195000  0.73643000  1.0
  Zn  Zn5  1  0.47914000  0.34961000  0.72562000  1.0
  Zn  Zn6  1  0.44485000  0.26935000  0.81196000  1.0
  Zn  Zn7  1  0.44890000  0.20186000  0.72478000  1.0
  Zn  Zn8  1  0.46877000  0.75454000  0.31409000  1.0
  Zn  Zn9  1  0.46476000  0.68528000  0.22768000  1.0
  Zn  Zn10  1  0.62622000  0.70197000  0.22768000  1.0
  Zn  Zn11  1  0.44612000  0.85145000  0.22969000  1.0
  Zn  Zn12  1  0.02329000  0.90159000  0.02490000  1.0
  Zn  Zn13  1  0.06556000  0.04654000  0.01523000  1.0
  Zn  Zn14  1  0.87591000  0.06999000  0.02382000  1.0
  Zn  Zn15  1  0.02285000  0.98874000  0.93871000  1.0
  H  H16  1  0.79124000  0.95462000  0.66289000  1.0
  H  H17  1  0.32348000  0.96897000  0.40925000  1.0
  H  H18  1  0.56977000  0.44554000  0.62304000  1.0
  H  H19  1  0.56968000  0.49669000  0.66608000  1.0
  H  H20  1  0.66293000  0.54468000  0.61397000  1.0
  H  H21  1  0.66425000  0.49277000  0.57087000  1.0
  H  H22  1  0.36405000  0.66033000  0.42448000  1.0
  H  H23  1  0.27739000  0.75331000  0.42330000  1.0
  H  H24  1  0.17323000  0.71355000  0.47282000  1.0
  H  H25  1  0.26015000  0.62101000  0.47466000  1.0
  H  H26  1  0.55891000  0.75210000  0.42472000  1.0
  H  H27  1  0.55644000  0.66249000  0.42453000  1.0
  H  H28  1  0.65260000  0.61194000  0.47337000  1.0
  H  H29  1  0.65483000  0.70165000  0.47384000  1.0
  H  H30  1  0.33456000  0.20506000  0.63082000  1.0
  H  H31  1  0.24447000  0.24833000  0.67670000  1.0
  H  H32  1  0.14559000  0.29836000  0.62915000  1.0
  H  H33  1  0.23559000  0.25530000  0.58321000  1.0
  H  H34  1  0.17775000  0.66198000  0.96204000  1.0
  H  H35  1  0.92856000  0.10022000  0.83336000  1.0
  H  H36  1  0.93401000  0.00731000  0.83191000  1.0
  H  H37  1  0.83813000  0.05236000  0.78303000  1.0
  H  H38  1  0.83183000  0.14552000  0.78468000  1.0
  H  H39  1  0.17319000  0.19749000  0.96879000  1.0
  H  H40  1  0.26682000  0.10785000  0.96649000  1.0
  H  H41  1  0.35788000  0.16148000  0.91746000  1.0
  H  H42  1  0.26419000  0.25086000  0.91952000  1.0
  H  H43  1  0.95976000  0.29328000  0.08800000  1.0
  H  H44  1  0.26419000  0.00734000  0.06974000  1.0
  H  H45  1  0.17128000  0.05635000  0.11369000  1.0
  H  H46  1  0.26350000  0.01073000  0.16442000  1.0
  H  H47  1  0.35673000  0.96339000  0.12033000  1.0
  H  H48  1  0.93003000  0.74696000  0.08664000  1.0
  H  H49  1  0.93198000  0.79331000  0.13111000  1.0
  H  H50  1  0.83291000  0.74864000  0.18111000  1.0
  H  H51  1  0.83230000  0.70103000  0.13680000  1.0
  C  C52  1  0.87376000  0.56204000  0.42926000  1.0
  C  C53  1  0.13253000  0.31201000  0.44185000  1.0
  C  C54  1  0.88302000  0.41297000  0.56950000  1.0
  C  C55  1  0.14305000  0.45387000  0.56649000  1.0
  C  C56  1  0.85987000  0.68157000  0.56116000  1.0
  C  C57  1  0.13394000  0.57239000  0.43049000  1.0
  C  C58  1  0.66374000  0.29938000  0.68895000  1.0
  C  C59  1  0.37366000  0.43852000  0.80872000  1.0
  C  C60  1  0.61576000  0.18061000  0.82800000  1.0
  C  C61  1  0.35103000  0.18318000  0.80973000  1.0
  C  C62  1  0.61423000  0.06741000  0.68660000  1.0
  C  C63  1  0.37388000  0.33724000  0.67708000  1.0
  C  C64  1  0.36724000  0.67449000  0.31480000  1.0
  C  C65  1  0.64207000  0.56884000  0.18520000  1.0
  C  C66  1  0.64834000  0.67780000  0.31552000  1.0
  C  C67  1  0.61451000  0.83782000  0.18130000  1.0
  C  C68  1  0.37509000  0.92485000  0.31843000  1.0
  C  C69  1  0.35835000  0.80916000  0.18331000  1.0
  C  C70  1  0.13248000  0.91956000  0.07007000  1.0
  C  C71  1  0.91171000  0.18257000  0.06130000  1.0
  C  C72  1  0.84301000  0.94804000  0.06836000  1.0
  C  C73  1  0.84138000  0.07753000  0.94131000  1.0
  C  C74  1  0.11599000  0.81903000  0.93923000  1.0
  C  C75  1  0.13315000  0.06318000  0.92424000  1.0
  C  C76  1  0.71919000  0.80686000  0.59655000  1.0
  C  C77  1  0.74732000  0.94165000  0.65269000  1.0
  C  C78  1  0.80703000  0.75674000  0.58612000  1.0
  C  C79  1  0.66027000  0.99173000  0.66216000  1.0
  C  C80  1  0.76876000  0.87462000  0.62852000  1.0
  C  C81  1  0.69725000  0.87462000  0.62054000  1.0
  C  C82  1  0.20185000  0.21964000  0.37370000  1.0
  C  C83  1  0.30623000  0.01460000  0.38749000  1.0
  C  C84  1  0.18029000  0.23654000  0.41756000  1.0
  C  C85  1  0.32737000  0.99977000  0.34374000  1.0
  C  C86  1  0.26087000  0.09509000  0.39863000  1.0
  C  C87  1  0.24816000  0.13909000  0.36296000  1.0
  C  C88  1  0.72581000  0.32318000  0.66010000  1.0
  C  C89  1  0.83381000  0.37912000  0.60060000  1.0
  C  C90  1  0.69284000  0.39175000  0.64015000  1.0
  C  C91  1  0.86964000  0.30945000  0.62112000  1.0
  C  C92  1  0.74443000  0.41821000  0.61163000  1.0
  C  C93  1  0.81679000  0.28226000  0.65010000  1.0
  C  C94  1  0.61007000  0.45983000  0.63635000  1.0
  C  C95  1  0.66871000  0.48973000  0.60384000  1.0
  C  C96  1  0.30508000  0.64891000  0.34152000  1.0
  C  C97  1  0.18706000  0.60177000  0.39903000  1.0
  C  C98  1  0.28231000  0.66026000  0.38595000  1.0
  C  C99  1  0.20646000  0.59150000  0.35395000  1.0
  C  C100  1  0.22535000  0.63819000  0.41350000  1.0
  C  C101  1  0.26469000  0.61377000  0.32571000  1.0
  C  C102  1  0.29786000  0.69101000  0.42224000  1.0
  C  C103  1  0.23293000  0.66602000  0.45350000  1.0
  C  C104  1  0.71096000  0.64781000  0.34156000  1.0
  C  C105  1  0.82197000  0.58912000  0.39791000  1.0
  C  C106  1  0.67982000  0.65645000  0.38606000  1.0
  C  C107  1  0.85617000  0.57891000  0.35259000  1.0
  C  C108  1  0.73275000  0.62850000  0.41298000  1.0
  C  C109  1  0.80209000  0.60847000  0.32505000  1.0
  C  C110  1  0.59812000  0.68904000  0.42276000  1.0
  C  C111  1  0.65823000  0.65746000  0.45338000  1.0
  C  C112  1  0.31407000  0.37414000  0.64994000  1.0
  C  C113  1  0.19998000  0.43191000  0.59527000  1.0
  C  C114  1  0.27755000  0.33265000  0.63862000  1.0
  C  C115  1  0.23434000  0.47673000  0.60716000  1.0
  C  C116  1  0.22318000  0.36020000  0.61245000  1.0
  C  C117  1  0.29005000  0.44849000  0.63389000  1.0
  C  C118  1  0.27332000  0.25719000  0.64383000  1.0
  C  C119  1  0.21151000  0.28851000  0.61409000  1.0
  C  C120  1  0.29969000  0.58814000  0.81908000  1.0
  C  C121  1  0.19411000  0.67151000  0.92825000  1.0
  C  C122  1  0.32441000  0.51405000  0.83316000  1.0
  C  C123  1  0.16875000  0.74463000  0.91353000  1.0
  C  C124  1  0.24176000  0.61425000  0.89380000  1.0
  C  C125  1  0.25213000  0.64534000  0.85368000  1.0
  C  C126  1  0.77837000  0.10423000  0.91564000  1.0
  C  C127  1  0.66697000  0.15482000  0.85967000  1.0
  C  C128  1  0.80939000  0.09710000  0.87123000  1.0
  C  C129  1  0.63333000  0.16116000  0.90499000  1.0
  C  C130  1  0.75617000  0.12171000  0.84445000  1.0
  C  C131  1  0.68778000  0.13688000  0.93230000  1.0
  C  C132  1  0.89089000  0.06976000  0.83457000  1.0
  C  C133  1  0.83055000  0.09795000  0.80408000  1.0
  C  C134  1  0.18939000  0.08948000  0.89237000  1.0
  C  C135  1  0.29507000  0.15056000  0.83572000  1.0
  C  C136  1  0.22617000  0.12723000  0.90720000  1.0
  C  C137  1  0.25929000  0.11145000  0.81943000  1.0
  C  C138  1  0.27623000  0.15677000  0.88015000  1.0
  C  C139  1  0.20811000  0.08130000  0.84710000  1.0
  C  C140  1  0.23385000  0.15431000  0.94742000  1.0
  C  C141  1  0.29080000  0.18777000  0.91668000  1.0
  C  C142  1  0.67142000  0.44234000  0.14938000  1.0
  C  C143  1  0.89247000  0.30707000  0.09669000  1.0
  C  C144  1  0.69635000  0.49355000  0.16085000  1.0
  C  C145  1  0.86447000  0.25833000  0.08570000  1.0
  C  C146  1  0.82191000  0.37509000  0.11998000  1.0
  C  C147  1  0.74278000  0.37532000  0.12607000  1.0
  C  C148  1  0.18796000  0.88674000  0.09964000  1.0
  C  C149  1  0.29740000  0.83375000  0.15659000  1.0
  C  C150  1  0.22459000  0.92878000  0.11030000  1.0
  C  C151  1  0.26028000  0.78979000  0.14696000  1.0
  C  C152  1  0.27613000  0.90387000  0.13793000  1.0
  C  C153  1  0.20704000  0.81543000  0.11904000  1.0
  C  C154  1  0.23188000  0.00269000  0.10282000  1.0
  C  C155  1  0.29005000  0.97452000  0.13441000  1.0
  C  C156  1  0.77942000  0.92436000  0.09530000  1.0
  C  C157  1  0.66602000  0.87122000  0.15188000  1.0
  C  C158  1  0.80954000  0.85376000  0.11357000  1.0
  C  C159  1  0.63314000  0.94307000  0.13313000  1.0
  C  C160  1  0.75531000  0.82868000  0.14094000  1.0
  C  C161  1  0.68861000  0.96896000  0.10547000  1.0
  C  C162  1  0.89044000  0.78266000  0.11681000  1.0
  C  C163  1  0.82883000  0.75425000  0.14805000  1.0
  S  S164  1  0.86237000  0.79244000  0.60585000  1.0
  S  S165  1  0.60380000  0.95777000  0.64211000  1.0
  S  S166  1  0.21699000  0.15368000  0.44530000  1.0
  S  S167  1  0.29261000  0.08248000  0.31590000  1.0
  S  S168  1  0.28974000  0.51481000  0.88864000  1.0
  S  S169  1  0.20283000  0.74463000  0.85812000  1.0
  S  S170  1  0.80726000  0.45899000  0.14294000  1.0
  S  S171  1  0.75368000  0.29387000  0.10335000  1.0
  Cl  Cl172  1  0.64452000  0.79209000  0.58254000  1.0
  Cl  Cl173  1  0.17922000  0.28426000  0.33567000  1.0
  Cl  Cl174  1  0.32058000  0.61139000  0.76728000  1.0
  Cl  Cl175  1  0.56959000  0.45441000  0.16005000  1.0
  Cl  Cl176  1  0.97885000  0.25536000  0.61248000  1.0
  Cl  Cl177  1  0.86614000  0.19898000  0.67435000  1.0
  Cl  Cl178  1  0.15532000  0.55498000  0.33244000  1.0
  Cl  Cl179  1  0.28485000  0.59557000  0.27185000  1.0
  Cl  Cl180  1  0.96489000  0.52726000  0.32901000  1.0
  Cl  Cl181  1  0.85160000  0.59468000  0.27092000  1.0
  Cl  Cl182  1  0.20855000  0.56798000  0.59015000  1.0
  Cl  Cl183  1  0.32573000  0.50828000  0.64757000  1.0
  Cl  Cl184  1  0.52498000  0.19633000  0.92878000  1.0
  Cl  Cl185  1  0.64150000  0.14446000  0.98650000  1.0
  Cl  Cl186  1  0.27519000  0.10010000  0.76532000  1.0
  Cl  Cl187  1  0.17167000  0.03176000  0.82388000  1.0
  Cl  Cl188  1  0.27590000  0.70517000  0.17089000  1.0
  Cl  Cl189  1  0.16812000  0.75589000  0.10873000  1.0
  Cl  Cl190  1  0.52438000  0.00261000  0.14387000  1.0
  Cl  Cl191  1  0.64246000  0.05528000  0.08326000  1.0
  O  O192  1  0.00086000  0.49985000  0.50184000  1.0
  O  O193  1  0.83305000  0.55893000  0.46764000  1.0
  O  O194  1  0.09491000  0.37058000  0.42193000  1.0
  O  O195  1  0.96413000  0.37389000  0.55650000  1.0
  O  O196  1  0.95236000  0.54611000  0.41609000  1.0
  O  O197  1  0.83724000  0.47999000  0.55831000  1.0
  O  O198  1  0.13214000  0.31259000  0.48116000  1.0
  O  O199  1  0.11522000  0.40592000  0.56397000  1.0
  O  O200  1  0.94084000  0.65513000  0.55504000  1.0
  O  O201  1  0.12753000  0.51505000  0.54682000  1.0
  O  O202  1  0.82306000  0.64963000  0.54815000  1.0
  O  O203  1  0.13873000  0.50871000  0.42022000  1.0
  O  O204  1  0.09070000  0.61205000  0.46644000  1.0
  O  O205  1  0.50017000  0.25023000  0.75001000  1.0
  O  O206  1  0.68937000  0.22943000  0.69817000  1.0
  O  O207  1  0.40424000  0.43729000  0.76842000  1.0
  O  O208  1  0.53529000  0.22408000  0.84120000  1.0
  O  O209  1  0.58671000  0.35416000  0.70118000  1.0
  O  O210  1  0.66007000  0.15649000  0.78910000  1.0
  O  O211  1  0.38136000  0.38012000  0.83070000  1.0
  O  O212  1  0.36492000  0.22588000  0.83123000  1.0
  O  O213  1  0.53509000  0.10823000  0.68771000  1.0
  O  O214  1  0.38128000  0.16599000  0.76967000  1.0
  O  O215  1  0.65713000  0.08535000  0.70443000  1.0
  O  O216  1  0.42308000  0.36432000  0.68013000  1.0
  O  O217  1  0.37096000  0.27800000  0.69478000  1.0
  O  O218  1  0.50125000  0.74951000  0.25137000  1.0
  O  O219  1  0.40011000  0.70002000  0.33570000  1.0
  O  O220  1  0.56305000  0.58714000  0.20179000  1.0
  O  O221  1  0.67720000  0.66702000  0.27512000  1.0
  O  O222  1  0.38218000  0.66990000  0.27441000  1.0
  O  O223  1  0.56898000  0.71177000  0.33703000  1.0
  O  O224  1  0.67863000  0.60956000  0.18797000  1.0
  O  O225  1  0.65884000  0.77809000  0.19870000  1.0
  O  O226  1  0.38936000  0.92959000  0.27790000  1.0
  O  O227  1  0.53402000  0.86840000  0.18656000  1.0
  O  O228  1  0.39749000  0.86348000  0.33843000  1.0
  O  O229  1  0.40827000  0.73740000  0.18343000  1.0
  O  O230  1  0.35730000  0.86411000  0.20283000  1.0
  O  O231  1  0.99918000  0.00171000  0.00081000  1.0
  O  O232  1  0.08419000  0.89116000  0.06747000  1.0
  O  O233  1  0.99354000  0.15015000  0.04732000  1.0
  O  O234  1  0.81936000  0.01958000  0.06433000  1.0
  O  O235  1  0.13791000  0.97613000  0.05003000  1.0
  O  O236  1  0.91850000  0.89258000  0.05240000  1.0
  O  O237  1  0.86263000  0.15605000  0.05656000  1.0
  O  O238  1  0.81771000  0.10858000  0.97886000  1.0
  O  O239  1  0.09700000  0.87951000  0.91816000  1.0
  O  O240  1  0.91674000  0.02535000  0.92185000  1.0
  O  O241  1  0.09382000  0.81648000  0.97977000  1.0
  O  O242  1  0.14148000  0.05876000  0.96208000  1.0
  O  O243  1  0.08078000  0.04960000  0.91220000  1.0
