# generated using pymatgen
data_CuH28C26(NO4)2
_symmetry_space_group_name_H-M   'P 1'
_cell_length_a   9.07854000
_cell_length_b   11.08720000
_cell_length_c   13.41260000
_cell_angle_alpha   72.28700000
_cell_angle_beta   89.99970000
_cell_angle_gamma   89.99970000
_symmetry_Int_Tables_number   1
_chemical_formula_structural   CuH28C26(NO4)2
_chemical_formula_sum   'Cu2 H56 C52 N4 O16'
_cell_volume   1286.05046881
_cell_formula_units_Z   2
loop_
 _symmetry_equiv_pos_site_id
 _symmetry_equiv_pos_as_xyz
  1  'x, y, z'
loop_
 _atom_site_type_symbol
 _atom_site_label
 _atom_site_symmetry_multiplicity
 _atom_site_fract_x
 _atom_site_fract_y
 _atom_site_fract_z
 _atom_site_occupancy
  Cu  Cu0  1  0.00000000  0.00000000  0.00000000  1.0
  Cu  Cu1  1  0.50000000  0.00000000  0.50000000  1.0
  H  H2  1  0.37387000  0.06980000  0.31459000  1.0
  H  H3  1  0.87387000  0.93020000  0.18540000  1.0
  H  H4  1  0.62613000  0.93020000  0.68540000  1.0
  H  H5  1  0.12613000  0.06980000  0.81460000  1.0
  H  H6  1  0.23638000  0.06813000  0.11641000  1.0
  H  H7  1  0.73638000  0.93186000  0.38359000  1.0
  H  H8  1  0.76362000  0.93186000  0.88359000  1.0
  H  H9  1  0.26362000  0.06813000  0.61641000  1.0
  H  H10  1  0.56329000  0.77294000  0.17618000  1.0
  H  H11  1  0.06330000  0.22705000  0.32382000  1.0
  H  H12  1  0.43670000  0.22705000  0.82381000  1.0
  H  H13  1  0.93670000  0.77295000  0.67618000  1.0
  H  H14  1  0.40752000  0.66845000  0.07027000  1.0
  H  H15  1  0.90753000  0.33155000  0.42973000  1.0
  H  H16  1  0.59247000  0.33155000  0.92973000  1.0
  H  H17  1  0.09248000  0.66845000  0.57027000  1.0
  H  H18  1  0.16929000  0.77225000  0.99457000  1.0
  H  H19  1  0.66929000  0.22776000  0.50542000  1.0
  H  H20  1  0.83071000  0.22776000  0.00542000  1.0
  H  H21  1  0.33071000  0.77224000  0.49458000  1.0
  H  H22  1  0.60148000  0.94824000  0.24360000  1.0
  H  H23  1  0.10148000  0.05176000  0.25640000  1.0
  H  H24  1  0.39852000  0.05176000  0.75640000  1.0
  H  H25  1  0.89852000  0.94824000  0.74360000  1.0
  H  H26  1  0.51070000  0.09242000  0.17920000  1.0
  H  H27  1  0.01069000  0.90758000  0.32080000  1.0
  H  H28  1  0.48931000  0.90758000  0.82080000  1.0
  H  H29  1  0.98930000  0.09242000  0.67920000  1.0
  H  H30  1  0.69167000  0.54316000  0.24786000  1.0
  H  H31  1  0.19168000  0.45685000  0.25214000  1.0
  H  H32  1  0.30833000  0.45685000  0.75214000  1.0
  H  H33  1  0.80833000  0.54315000  0.74786000  1.0
  H  H34  1  0.80097000  0.67843000  0.83999000  1.0
  H  H35  1  0.30097000  0.32157000  0.66001000  1.0
  H  H36  1  0.19903000  0.32157000  0.16000000  1.0
  H  H37  1  0.69903000  0.67843000  0.34000000  1.0
  H  H38  1  0.94690000  0.56681000  0.88311000  1.0
  H  H39  1  0.44690000  0.43319000  0.61689000  1.0
  H  H40  1  0.05310000  0.43319000  0.11689000  1.0
  H  H41  1  0.55310000  0.56681000  0.38311000  1.0
  H  H42  1  0.95832000  0.71992000  0.90106000  1.0
  H  H43  1  0.45831000  0.28007000  0.59894000  1.0
  H  H44  1  0.04168000  0.28008000  0.09894000  1.0
  H  H45  1  0.54168000  0.71992000  0.40106000  1.0
  H  H46  1  0.58482000  0.30443000  0.25107000  1.0
  H  H47  1  0.08483000  0.69557000  0.24893000  1.0
  H  H48  1  0.41518000  0.69557000  0.74893000  1.0
  H  H49  1  0.91518000  0.30442000  0.75107000  1.0
  H  H50  1  0.69068000  0.24248000  0.16608000  1.0
  H  H51  1  0.19067000  0.75752000  0.33392000  1.0
  H  H52  1  0.30932000  0.75752000  0.83392000  1.0
  H  H53  1  0.80933000  0.24248000  0.66608000  1.0
  H  H54  1  0.51763000  0.31685000  0.12449000  1.0
  H  H55  1  0.01764000  0.68315000  0.37552000  1.0
  H  H56  1  0.48237000  0.68315000  0.87552000  1.0
  H  H57  1  0.98237000  0.31684000  0.62448000  1.0
  C  C58  1  0.27843000  0.97880000  0.10982000  1.0
  C  C59  1  0.77843000  0.02120000  0.39018000  1.0
  C  C60  1  0.72157000  0.02120000  0.89018000  1.0
  C  C61  1  0.22157000  0.97880000  0.60982000  1.0
  C  C62  1  0.41059000  0.92729000  0.15699000  1.0
  C  C63  1  0.91059000  0.07270000  0.34301000  1.0
  C  C64  1  0.58942000  0.07270000  0.84301000  1.0
  C  C65  1  0.08941000  0.92730000  0.65699000  1.0
  C  C66  1  0.45891000  0.81437000  0.14215000  1.0
  C  C67  1  0.95891000  0.18563000  0.35785000  1.0
  C  C68  1  0.54109000  0.18563000  0.85785000  1.0
  C  C69  1  0.04109000  0.81437000  0.64215000  1.0
  C  C70  1  0.37352000  0.75698000  0.08273000  1.0
  C  C71  1  0.87353000  0.24302000  0.41727000  1.0
  C  C72  1  0.62647000  0.24302000  0.91727000  1.0
  C  C73  1  0.12647000  0.75698000  0.58273000  1.0
  C  C74  1  0.24171000  0.81343000  0.04008000  1.0
  C  C75  1  0.74171000  0.18657000  0.45992000  1.0
  C  C76  1  0.75829000  0.18658000  0.95992000  1.0
  C  C77  1  0.25829000  0.81342000  0.54008000  1.0
  C  C78  1  0.49253000  0.99243000  0.22388000  1.0
  C  C79  1  0.99253000  0.00756000  0.27612000  1.0
  C  C80  1  0.50747000  0.00757000  0.77612000  1.0
  C  C81  1  0.00747000  0.99243000  0.72388000  1.0
  C  C82  1  0.84886000  0.76013000  0.09989000  1.0
  C  C83  1  0.34887000  0.23987000  0.40011000  1.0
  C  C84  1  0.15113000  0.23987000  0.90011000  1.0
  C  C85  1  0.65113000  0.76013000  0.59989000  1.0
  C  C86  1  0.81510000  0.59247000  0.00639000  1.0
  C  C87  1  0.31510000  0.40753000  0.49360000  1.0
  C  C88  1  0.18490000  0.40753000  0.99360000  1.0
  C  C89  1  0.68490000  0.59247000  0.50640000  1.0
  C  C90  1  0.79912000  0.63685000  0.09152000  1.0
  C  C91  1  0.29913000  0.36315000  0.40848000  1.0
  C  C92  1  0.20087000  0.36315000  0.90848000  1.0
  C  C93  1  0.70087000  0.63685000  0.59152000  1.0
  C  C94  1  0.72100000  0.54045000  0.17037000  1.0
  C  C95  1  0.22102000  0.45956000  0.32963000  1.0
  C  C96  1  0.27899000  0.45956000  0.82963000  1.0
  C  C97  1  0.77899000  0.54044000  0.67037000  1.0
  C  C98  1  0.69282000  0.44429000  0.12982000  1.0
  C  C99  1  0.19282000  0.55572000  0.37018000  1.0
  C  C100  1  0.30718000  0.55572000  0.87018000  1.0
  C  C101  1  0.80718000  0.44428000  0.62982000  1.0
  C  C102  1  0.88404000  0.64194000  0.90187000  1.0
  C  C103  1  0.38404000  0.35805000  0.59813000  1.0
  C  C104  1  0.11595000  0.35806000  0.09813000  1.0
  C  C105  1  0.61595000  0.64194000  0.40187000  1.0
  C  C106  1  0.61800000  0.32049000  0.16960000  1.0
  C  C107  1  0.11801000  0.67951000  0.33041000  1.0
  C  C108  1  0.38200000  0.67951000  0.83040000  1.0
  C  C109  1  0.88200000  0.32049000  0.66959000  1.0
  N  N110  1  0.19553000  0.92305000  0.05364000  1.0
  N  N111  1  0.69554000  0.07695000  0.44637000  1.0
  N  N112  1  0.80447000  0.07695000  0.94637000  1.0
  N  N113  1  0.30447000  0.92305000  0.55363000  1.0
  O  O114  1  0.92056000  0.82983000  0.01990000  1.0
  O  O115  1  0.42056000  0.17017000  0.48010000  1.0
  O  O116  1  0.07944000  0.17017000  0.98010000  1.0
  O  O117  1  0.57944000  0.82983000  0.51991000  1.0
  O  O118  1  0.81916000  0.79022000  0.18151000  1.0
  O  O119  1  0.31916000  0.20978000  0.31849000  1.0
  O  O120  1  0.18084000  0.20978000  0.81849000  1.0
  O  O121  1  0.68085000  0.79022000  0.68151000  1.0
  O  O122  1  0.41217000  0.98339000  0.31776000  1.0
  O  O123  1  0.91216000  0.01661000  0.18224000  1.0
  O  O124  1  0.58783000  0.01660000  0.68224000  1.0
  O  O125  1  0.08783000  0.98339000  0.81776000  1.0
  O  O126  1  0.74976000  0.47543000  0.02889000  1.0
  O  O127  1  0.24977000  0.52457000  0.47111000  1.0
  O  O128  1  0.25023000  0.52456000  0.97111000  1.0
  O  O129  1  0.75024000  0.47543000  0.52890000  1.0
