# generated using pymatgen
data_Cu2H8C14N6O
_symmetry_space_group_name_H-M   'P 1'
_cell_length_a   9.24996000
_cell_length_b   9.25009000
_cell_length_c   9.43400000
_cell_angle_alpha   100.67000000
_cell_angle_beta   100.66700000
_cell_angle_gamma   115.99000000
_symmetry_Int_Tables_number   1
_chemical_formula_structural   Cu2H8C14N6O
_chemical_formula_sum   'Cu4 H16 C28 N12 O2'
_cell_volume   679.86641539
_cell_formula_units_Z   2
loop_
 _symmetry_equiv_pos_site_id
 _symmetry_equiv_pos_as_xyz
  1  'x, y, z'
loop_
 _atom_site_type_symbol
 _atom_site_label
 _atom_site_symmetry_multiplicity
 _atom_site_fract_x
 _atom_site_fract_y
 _atom_site_fract_z
 _atom_site_occupancy
  Cu  Cu0  1  0.84609000  0.75545000  0.84666000  1.0
  Cu  Cu1  1  0.24458000  0.15392000  0.65335000  1.0
  Cu  Cu2  1  0.15391000  0.24455000  0.15334000  1.0
  Cu  Cu3  1  0.75542000  0.84608000  0.34665000  1.0
  H  H4  1  0.23639000  0.93913000  0.95451000  1.0
  H  H5  1  0.06088000  0.76363000  0.54549000  1.0
  H  H6  1  0.76362000  0.06088000  0.04549000  1.0
  H  H7  1  0.93912000  0.23637000  0.45451000  1.0
  H  H8  1  0.46507000  0.85713000  0.98033000  1.0
  H  H9  1  0.14285000  0.53493000  0.51967000  1.0
  H  H10  1  0.53493000  0.14286000  0.01967000  1.0
  H  H11  1  0.85714000  0.46507000  0.48033000  1.0
  H  H12  1  0.38218000  0.55075000  0.90164000  1.0
  H  H13  1  0.44923000  0.61782000  0.59836000  1.0
  H  H14  1  0.61782000  0.44924000  0.09836000  1.0
  H  H15  1  0.55076000  0.38218000  0.40164000  1.0
  H  H16  1  0.07582000  0.33703000  0.80363000  1.0
  H  H17  1  0.66297000  0.92418000  0.69637000  1.0
  H  H18  1  0.92418000  0.66297000  0.19637000  1.0
  H  H19  1  0.33703000  0.07582000  0.30363000  1.0
  C  C20  1  0.20684000  0.80740000  0.92343000  1.0
  C  C21  1  0.19259000  0.79316000  0.57657000  1.0
  C  C22  1  0.79316000  0.19260000  0.07657000  1.0
  C  C23  1  0.80741000  0.20684000  0.42343000  1.0
  C  C24  1  0.33248000  0.76114000  0.93702000  1.0
  C  C25  1  0.23886000  0.66752000  0.56299000  1.0
  C  C26  1  0.66751000  0.23886000  0.06298000  1.0
  C  C27  1  0.76114000  0.33248000  0.43702000  1.0
  C  C28  1  0.28696000  0.59069000  0.89313000  1.0
  C  C29  1  0.40930000  0.71304000  0.60688000  1.0
  C  C30  1  0.71304000  0.40931000  0.10687000  1.0
  C  C31  1  0.59070000  0.28696000  0.39313000  1.0
  C  C32  1  0.11626000  0.47117000  0.83787000  1.0
  C  C33  1  0.52883000  0.88375000  0.66213000  1.0
  C  C34  1  0.88374000  0.52883000  0.16213000  1.0
  C  C35  1  0.47117000  0.11625000  0.33787000  1.0
  C  C36  1  0.99868000  0.52808000  0.83109000  1.0
  C  C37  1  0.47192000  0.00132000  0.66891000  1.0
  C  C38  1  0.00131000  0.47192000  0.16891000  1.0
  C  C39  1  0.52808000  0.99868000  0.33109000  1.0
  C  C40  1  0.81914000  0.41278000  0.78375000  1.0
  C  C41  1  0.58723000  0.18086000  0.71625000  1.0
  C  C42  1  0.18086000  0.58723000  0.21625000  1.0
  C  C43  1  0.41277000  0.81914000  0.28375000  1.0
  C  C44  1  0.80092000  0.80625000  0.02790000  1.0
  C  C45  1  0.19375000  0.19910000  0.47208000  1.0
  C  C46  1  0.19908000  0.19375000  0.97210000  1.0
  C  C47  1  0.80625000  0.80091000  0.52791000  1.0
  N  N48  1  0.04167000  0.69372000  0.87195000  1.0
  N  N49  1  0.30629000  0.95834000  0.62805000  1.0
  N  N50  1  0.95833000  0.30628000  0.12805000  1.0
  N  N51  1  0.69371000  0.04166000  0.37195000  1.0
  N  N52  1  0.69796000  0.45200000  0.77140000  1.0
  N  N53  1  0.54800000  0.30204000  0.72859000  1.0
  N  N54  1  0.30204000  0.54799000  0.22859000  1.0
  N  N55  1  0.45200000  0.69795000  0.27141000  1.0
  N  N56  1  0.78182000  0.82193000  0.14902000  1.0
  N  N57  1  0.17806000  0.21817000  0.35097000  1.0
  N  N58  1  0.21817000  0.17807000  0.85098000  1.0
  N  N59  1  0.82194000  0.78183000  0.64902000  1.0
  O  O60  1  0.75764000  0.24237000  0.75001000  1.0
  O  O61  1  0.24236000  0.75763000  0.25000000  1.0
