# generated using pymatgen
data_CdH11C11SN2O5
_symmetry_space_group_name_H-M   'P 1'
_cell_length_a   5.82707000
_cell_length_b   10.38310000
_cell_length_c   11.13700000
_cell_angle_alpha   93.62650000
_cell_angle_beta   92.47880000
_cell_angle_gamma   90.73670000
_symmetry_Int_Tables_number   1
_chemical_formula_structural   CdH11C11SN2O5
_chemical_formula_sum   'Cd2 H22 C22 S2 N4 O10'
_cell_volume   671.76179548
_cell_formula_units_Z   2
loop_
 _symmetry_equiv_pos_site_id
 _symmetry_equiv_pos_as_xyz
  1  'x, y, z'
loop_
 _atom_site_type_symbol
 _atom_site_label
 _atom_site_symmetry_multiplicity
 _atom_site_fract_x
 _atom_site_fract_y
 _atom_site_fract_z
 _atom_site_occupancy
  Cd  Cd0  1  0.66455000  0.03578000  0.14635000  1.0
  Cd  Cd1  1  0.33545000  0.96422000  0.85365000  1.0
  H  H2  1  0.28167000  0.21940000  0.30636000  1.0
  H  H3  1  0.71831000  0.78058000  0.69366000  1.0
  H  H4  1  0.87415000  0.03622000  0.43804000  1.0
  H  H5  1  0.12588000  0.96379000  0.56194000  1.0
  H  H6  1  0.71603000  0.20266000  0.62174000  1.0
  H  H7  1  0.28401000  0.79733000  0.37825000  1.0
  H  H8  1  0.27949000  0.31305000  0.62783000  1.0
  H  H9  1  0.72053000  0.68692000  0.37219000  1.0
  H  H10  1  0.17278000  0.35545000  0.48420000  1.0
  H  H11  1  0.82721000  0.64452000  0.51582000  1.0
  H  H12  1  0.35773000  0.54069000  0.60927000  1.0
  H  H13  1  0.64226000  0.45928000  0.39073000  1.0
  H  H14  1  0.61905000  0.45820000  0.61702000  1.0
  H  H15  1  0.38094000  0.54178000  0.38299000  1.0
  H  H16  1  0.30576000  0.67352000  0.19162000  1.0
  H  H17  1  0.69424000  0.32649000  0.80837000  1.0
  H  H18  1  0.30865000  0.41518000  0.17710000  1.0
  H  H19  1  0.69134000  0.58483000  0.82289000  1.0
  H  H20  1  0.19242000  0.09549000  0.08635000  1.0
  H  H21  1  0.80758000  0.90452000  0.91364000  1.0
  H  H22  1  0.19419000  0.94800000  0.10672000  1.0
  H  H23  1  0.80581000  0.05201000  0.89327000  1.0
  C  C24  1  0.42381000  0.19229000  0.36593000  1.0
  C  C25  1  0.57618000  0.80769000  0.63408000  1.0
  C  C26  1  0.72841000  0.09995000  0.43854000  1.0
  C  C27  1  0.27162000  0.90005000  0.56145000  1.0
  C  C28  1  0.65384000  0.18313000  0.52914000  1.0
  C  C29  1  0.34619000  0.81686000  0.47085000  1.0
  C  C30  1  0.33010000  0.34454000  0.54048000  1.0
  C  C31  1  0.66990000  0.65544000  0.45954000  1.0
  C  C32  1  0.46551000  0.47215000  0.55846000  1.0
  C  C33  1  0.53448000  0.52783000  0.44155000  1.0
  C  C34  1  0.85633000  0.79247000  0.17047000  1.0
  C  C35  1  0.14367000  0.20754000  0.82952000  1.0
  C  C36  1  0.93384000  0.65792000  0.16367000  1.0
  C  C37  1  0.06616000  0.34209000  0.83633000  1.0
  C  C38  1  0.15430000  0.61055000  0.17883000  1.0
  C  C39  1  0.84569000  0.38946000  0.82116000  1.0
  C  C40  1  0.15619000  0.47424000  0.17005000  1.0
  C  C41  1  0.84381000  0.52576000  0.82995000  1.0
  C  C42  1  0.93832000  0.42049000  0.14685000  1.0
  C  C43  1  0.06167000  0.57952000  0.85314000  1.0
  C  C44  1  0.86871000  0.28291000  0.13485000  1.0
  C  C45  1  0.13127000  0.71710000  0.86515000  1.0
  S  S46  1  0.73281000  0.53633000  0.13445000  1.0
  S  S47  1  0.26718000  0.46369000  0.86556000  1.0
  N  N48  1  0.58389000  0.10633000  0.33781000  1.0
  N  N49  1  0.41612000  0.89367000  0.66219000  1.0
  N  N50  1  0.46064000  0.24109000  0.48136000  1.0
  N  N51  1  0.53937000  0.75890000  0.51865000  1.0
  O  O52  1  0.64065000  0.81180000  0.15848000  1.0
  O  O53  1  0.35935000  0.18821000  0.84151000  1.0
  O  O54  1  0.00377000  0.88482000  0.18979000  1.0
  O  O55  1  0.99623000  0.11520000  0.81019000  1.0
  O  O56  1  0.65880000  0.25544000  0.10660000  1.0
  O  O57  1  0.34118000  0.74457000  0.89340000  1.0
  O  O58  1  0.01892000  0.19792000  0.15819000  1.0
  O  O59  1  0.98106000  0.80209000  0.84181000  1.0
  O  O60  1  0.27934000  0.01543000  0.06425000  1.0
  O  O61  1  0.72066000  0.98459000  0.93574000  1.0
