# generated using pymatgen
data_CaH6C8SO8
_symmetry_space_group_name_H-M   'P 1'
_cell_length_a   6.84341000
_cell_length_b   8.23109000
_cell_length_c   9.47975000
_cell_angle_alpha   83.40510000
_cell_angle_beta   89.99850000
_cell_angle_gamma   89.99910000
_symmetry_Int_Tables_number   1
_chemical_formula_structural   CaH6C8SO8
_chemical_formula_sum   'Ca2 H12 C16 S2 O16'
_cell_volume   530.44885310
_cell_formula_units_Z   2
loop_
 _symmetry_equiv_pos_site_id
 _symmetry_equiv_pos_as_xyz
  1  'x, y, z'
loop_
 _atom_site_type_symbol
 _atom_site_label
 _atom_site_symmetry_multiplicity
 _atom_site_fract_x
 _atom_site_fract_y
 _atom_site_fract_z
 _atom_site_occupancy
  Ca  Ca0  1  0.25000000  0.76410000  0.50673000  1.0
  Ca  Ca1  1  0.75000000  0.23590000  0.49327000  1.0
  H  H2  1  0.25001000  0.71422000  0.20176000  1.0
  H  H3  1  0.74999000  0.28578000  0.79824000  1.0
  H  H4  1  0.12846000  0.50961000  0.31641000  1.0
  H  H5  1  0.62845000  0.49039000  0.68359000  1.0
  H  H6  1  0.87153000  0.49039000  0.68359000  1.0
  H  H7  1  0.37155000  0.50961000  0.31641000  1.0
  H  H8  1  0.25000000  0.26870000  0.20903000  1.0
  H  H9  1  0.75000000  0.73129000  0.79098000  1.0
  H  H10  1  0.24999000  0.51035000  0.02237000  1.0
  H  H11  1  0.75001000  0.48965000  0.97764000  1.0
  H  H12  1  0.25001000  0.94656000  0.88314000  1.0
  H  H13  1  0.75000000  0.05345000  0.11686000  1.0
  C  C14  1  0.25001000  0.95145000  0.16913000  1.0
  C  C15  1  0.74999000  0.04855000  0.83087000  1.0
  C  C16  1  0.25000000  0.09375000  0.05775000  1.0
  C  C17  1  0.75000000  0.90625000  0.94224000  1.0
  C  C18  1  0.25000000  0.25256000  0.09672000  1.0
  C  C19  1  0.75000000  0.74744000  0.90329000  1.0
  C  C20  1  0.24999000  0.38638000  0.99240000  1.0
  C  C21  1  0.75001000  0.61362000  0.00760000  1.0
  C  C22  1  0.24999000  0.36422000  0.84795000  1.0
  C  C23  1  0.75001000  0.63578000  0.15205000  1.0
  C  C24  1  0.25000000  0.20362000  0.81010000  1.0
  C  C25  1  0.75001000  0.79639000  0.18990000  1.0
  C  C26  1  0.25000000  0.06974000  0.91401000  1.0
  C  C27  1  0.75000000  0.93026000  0.08599000  1.0
  C  C28  1  0.24999000  0.51453000  0.74090000  1.0
  C  C29  1  0.75002000  0.48547000  0.25910000  1.0
  S  S30  1  0.25000000  0.16471000  0.62889000  1.0
  S  S31  1  0.75000000  0.83529000  0.37111000  1.0
  O  O32  1  0.25001000  0.80752000  0.11860000  1.0
  O  O33  1  0.74999000  0.19247000  0.88139000  1.0
  O  O34  1  0.25001000  0.57632000  0.32543000  1.0
  O  O35  1  0.74999000  0.42368000  0.67456000  1.0
  O  O36  1  0.25000000  0.96729000  0.29785000  1.0
  O  O37  1  0.75000000  0.03271000  0.70215000  1.0
  O  O38  1  0.08780000  0.57815000  0.69825000  1.0
  O  O39  1  0.58782000  0.42185000  0.30176000  1.0
  O  O40  1  0.91219000  0.42185000  0.30175000  1.0
  O  O41  1  0.41218000  0.57815000  0.69824000  1.0
  O  O42  1  0.07402000  0.24185000  0.56428000  1.0
  O  O43  1  0.57402000  0.75816000  0.43572000  1.0
  O  O44  1  0.92598000  0.75815000  0.43572000  1.0
  O  O45  1  0.42598000  0.24185000  0.56428000  1.0
  O  O46  1  0.25000000  0.98585000  0.63407000  1.0
  O  O47  1  0.75001000  0.01415000  0.36592000  1.0
