# generated using pymatgen
data_Cu2Mo4H16C20N12O13
_symmetry_space_group_name_H-M   'P 1'
_cell_length_a   11.51910000
_cell_length_b   11.84050000
_cell_length_c   12.53800000
_cell_angle_alpha   91.26050000
_cell_angle_beta   104.60840000
_cell_angle_gamma   105.34910000
_symmetry_Int_Tables_number   1
_chemical_formula_structural   Cu2Mo4H16C20N12O13
_chemical_formula_sum   'Cu4 Mo8 H32 C40 N24 O26'
_cell_volume   1588.53844455
_cell_formula_units_Z   2
loop_
 _symmetry_equiv_pos_site_id
 _symmetry_equiv_pos_as_xyz
  1  'x, y, z'
loop_
 _atom_site_type_symbol
 _atom_site_label
 _atom_site_symmetry_multiplicity
 _atom_site_fract_x
 _atom_site_fract_y
 _atom_site_fract_z
 _atom_site_occupancy
  Cu  Cu0  1  0.33774000  0.91946000  0.46006000  1.0
  Cu  Cu1  1  0.66226000  0.08053000  0.53995000  1.0
  Cu  Cu2  1  0.15413000  0.10189000  0.52111000  1.0
  Cu  Cu3  1  0.84587000  0.89811000  0.47889000  1.0
  Mo  Mo4  1  0.23276000  0.04258000  0.22474000  1.0
  Mo  Mo5  1  0.76725000  0.95741000  0.77526000  1.0
  Mo  Mo6  1  0.94854000  0.87877000  0.22872000  1.0
  Mo  Mo7  1  0.05146000  0.12124000  0.77127000  1.0
  Mo  Mo8  1  0.29565000  0.16796000  0.00248000  1.0
  Mo  Mo9  1  0.70435000  0.83204000  0.99753000  1.0
  Mo  Mo10  1  0.96313000  0.13510000  0.04408000  1.0
  Mo  Mo11  1  0.03687000  0.86489000  0.95593000  1.0
  H  H12  1  0.20845000  0.71843000  0.59740000  1.0
  H  H13  1  0.79155000  0.28156000  0.40260000  1.0
  H  H14  1  0.77118000  0.35324000  0.14903000  1.0
  H  H15  1  0.22881000  0.64675000  0.85096000  1.0
  H  H16  1  0.51986000  0.19311000  0.33527000  1.0
  H  H17  1  0.48014000  0.80690000  0.66473000  1.0
  H  H18  1  0.43460000  0.52328000  0.39854000  1.0
  H  H19  1  0.56540000  0.47672000  0.60144000  1.0
  H  H20  1  0.79451000  0.52733000  0.24615000  1.0
  H  H21  1  0.20551000  0.47267000  0.75387000  1.0
  H  H22  1  0.74628000  0.64295000  0.77125000  1.0
  H  H23  1  0.25372000  0.35705000  0.22876000  1.0
  H  H24  1  0.94199000  0.39262000  0.70623000  1.0
  H  H25  1  0.05800000  0.60738000  0.29376000  1.0
  H  H26  1  0.57580000  0.31586000  0.95228000  1.0
  H  H27  1  0.42418000  0.68413000  0.04770000  1.0
  H  H28  1  0.45724000  0.33775000  0.32964000  1.0
  H  H29  1  0.54276000  0.66226000  0.67035000  1.0
  H  H30  1  0.05109000  0.53300000  0.59979000  1.0
  H  H31  1  0.94891000  0.46700000  0.40021000  1.0
  H  H32  1  0.83120000  0.26978000  0.78002000  1.0
  H  H33  1  0.16880000  0.73022000  0.21999000  1.0
  H  H34  1  0.76735000  0.71441000  0.31100000  1.0
  H  H35  1  0.23267000  0.28559000  0.68903000  1.0
  H  H36  1  0.85569000  0.78138000  0.66430000  1.0
  H  H37  1  0.14432000  0.21862000  0.33571000  1.0
  H  H38  1  0.38068000  0.70436000  0.34556000  1.0
  H  H39  1  0.61932000  0.29565000  0.65443000  1.0
  H  H40  1  0.67083000  0.52919000  0.87616000  1.0
  H  H41  1  0.32916000  0.47081000  0.12382000  1.0
  H  H42  1  0.73372000  0.11265000  0.13425000  1.0
  H  H43  1  0.26626000  0.88734000  0.86574000  1.0
  C  C44  1  0.58078000  0.73976000  0.39889000  1.0
  C  C45  1  0.41922000  0.26025000  0.60110000  1.0
  C  C46  1  0.83459000  0.50682000  0.74573000  1.0
  C  C47  1  0.16541000  0.49318000  0.25427000  1.0
  C  C48  1  0.71653000  0.28580000  0.18753000  1.0
  C  C49  1  0.28346000  0.71420000  0.81247000  1.0
  C  C50  1  0.58540000  0.20135000  0.28544000  1.0
  C  C51  1  0.41460000  0.79865000  0.71457000  1.0
  C  C52  1  0.51393000  0.52490000  0.36550000  1.0
  C  C53  1  0.48606000  0.47511000  0.63449000  1.0
  C  C54  1  0.71666000  0.52576000  0.28112000  1.0
  C  C55  1  0.28335000  0.47424000  0.71890000  1.0
  C  C56  1  0.80994000  0.61615000  0.73173000  1.0
  C  C57  1  0.19006000  0.38385000  0.26827000  1.0
  C  C58  1  0.92124000  0.47709000  0.69653000  1.0
  C  C59  1  0.07875000  0.52290000  0.30347000  1.0
  C  C60  1  0.03228000  0.75746000  0.57171000  1.0
  C  C61  1  0.96772000  0.24253000  0.42829000  1.0
  C  C62  1  0.64418000  0.33863000  0.90483000  1.0
  C  C63  1  0.35580000  0.66136000  0.09516000  1.0
  C  C64  1  0.63048000  0.41901000  0.28772000  1.0
  C  C65  1  0.36952000  0.58099000  0.71227000  1.0
  C  C66  1  0.52811000  0.41949000  0.32935000  1.0
  C  C67  1  0.47188000  0.58051000  0.67065000  1.0
  C  C68  1  0.96007000  0.66746000  0.62340000  1.0
  C  C69  1  0.03993000  0.33254000  0.37660000  1.0
  C  C70  1  0.98359000  0.55718000  0.63653000  1.0
  C  C71  1  0.01642000  0.44282000  0.36347000  1.0
  C  C72  1  0.77216000  0.30890000  0.81507000  1.0
  C  C73  1  0.22784000  0.69110000  0.18493000  1.0
  C  C74  1  0.70209000  0.63154000  0.31799000  1.0
  C  C75  1  0.29792000  0.36845000  0.68202000  1.0
  C  C76  1  0.87180000  0.69503000  0.67077000  1.0
  C  C77  1  0.12821000  0.30497000  0.32924000  1.0
  C  C78  1  0.60097000  0.63222000  0.36088000  1.0
  C  C79  1  0.39903000  0.36779000  0.63911000  1.0
  C  C80  1  0.68913000  0.44480000  0.86645000  1.0
  C  C81  1  0.31086000  0.55519000  0.13355000  1.0
  C  C82  1  0.69605000  0.16569000  0.18043000  1.0
  C  C83  1  0.30394000  0.83431000  0.81957000  1.0
  N  N84  1  0.47701000  0.85581000  0.44691000  1.0
  N  N85  1  0.52300000  0.14419000  0.55308000  1.0
  N  N86  1  0.61581000  0.11459000  0.24271000  1.0
  N  N87  1  0.38418000  0.88541000  0.75729000  1.0
  N  N88  1  0.14766000  0.76416000  0.56078000  1.0
  N  N89  1  0.85235000  0.23584000  0.43923000  1.0
  N  N90  1  0.00392000  0.85431000  0.53195000  1.0
  N  N91  1  0.99608000  0.14569000  0.46805000  1.0
  N  N92  1  0.64508000  0.30984000  0.25561000  1.0
  N  N93  1  0.35491000  0.69016000  0.74439000  1.0
  N  N94  1  0.66370000  0.84034000  0.45148000  1.0
  N  N95  1  0.33630000  0.15966000  0.54851000  1.0
  N  N96  1  0.77134000  0.42628000  0.80728000  1.0
  N  N97  1  0.22865000  0.57372000  0.19272000  1.0
  N  N98  1  0.19186000  0.86491000  0.51795000  1.0
  N  N99  1  0.80814000  0.13509000  0.48205000  1.0
  N  N100  1  0.59629000  0.90934000  0.47901000  1.0
  N  N101  1  0.40371000  0.09066000  0.52098000  1.0
  N  N102  1  0.10485000  0.91928000  0.50203000  1.0
  N  N103  1  0.89515000  0.08072000  0.49798000  1.0
  N  N104  1  0.46595000  0.75098000  0.39595000  1.0
  N  N105  1  0.53405000  0.24901000  0.60404000  1.0
  N  N106  1  0.69595000  0.25515000  0.87225000  1.0
  N  N107  1  0.30404000  0.74485000  0.12775000  1.0
  O  O108  1  0.93531000  0.26323000  0.08286000  1.0
  O  O109  1  0.06470000  0.73677000  0.91714000  1.0
  O  O110  1  0.85515000  0.90605000  0.31036000  1.0
  O  O111  1  0.14485000  0.09396000  0.68964000  1.0
  O  O112  1  0.28780000  0.93507000  0.29762000  1.0
  O  O113  1  0.71219000  0.06493000  0.70238000  1.0
  O  O114  1  0.12721000  0.14629000  0.09919000  1.0
  O  O115  1  0.87279000  0.85372000  0.90081000  1.0
  O  O116  1  0.37566000  0.29820000  0.08306000  1.0
  O  O117  1  0.62434000  0.70180000  0.91694000  1.0
  O  O118  1  0.31795000  0.17189000  0.30606000  1.0
  O  O119  1  0.68206000  0.82811000  0.69395000  1.0
  O  O120  1  0.87289000  0.01254000  0.09729000  1.0
  O  O121  1  0.12712000  0.98746000  0.90271000  1.0
  O  O122  1  0.01130000  0.77315000  0.29357000  1.0
  O  O123  1  0.98871000  0.22685000  0.70644000  1.0
  O  O124  1  0.30731000  0.05213000  0.10652000  1.0
  O  O125  1  0.69269000  0.94787000  0.89349000  1.0
  O  O126  1  0.07633000  0.89087000  0.10587000  1.0
  O  O127  1  0.92367000  0.10913000  0.89413000  1.0
  O  O128  1  0.39151000  0.14549000  0.92590000  1.0
  O  O129  1  0.60849000  0.85451000  0.07411000  1.0
  O  O130  1  0.82895000  0.78349000  0.10526000  1.0
  O  O131  1  0.17104000  0.21651000  0.89474000  1.0
  O  O132  1  0.08177000  0.02071000  0.27319000  1.0
  O  O133  1  0.91824000  0.97929000  0.72680000  1.0
