# generated using pymatgen
data_AlHC8S2Cl2O5
_symmetry_space_group_name_H-M   'P 1'
_cell_length_a   6.66608000
_cell_length_b   17.01760000
_cell_length_c   17.80970000
_cell_angle_alpha   89.95210000
_cell_angle_beta   90.79230000
_cell_angle_gamma   89.88230000
_symmetry_Int_Tables_number   1
_chemical_formula_structural   AlHC8S2Cl2O5
_chemical_formula_sum   'Al4 H4 C32 S8 Cl8 O20'
_cell_volume   2020.14635241
_cell_formula_units_Z   4
loop_
 _symmetry_equiv_pos_site_id
 _symmetry_equiv_pos_as_xyz
  1  'x, y, z'
loop_
 _atom_site_type_symbol
 _atom_site_label
 _atom_site_symmetry_multiplicity
 _atom_site_fract_x
 _atom_site_fract_y
 _atom_site_fract_z
 _atom_site_occupancy
  Al  Al0  1  0.03373000  0.99701000  0.50068000  1.0
  Al  Al1  1  0.53455000  0.00228000  0.50310000  1.0
  Al  Al2  1  0.96547000  0.49772000  0.99690000  1.0
  Al  Al3  1  0.46628000  0.50299000  0.99932000  1.0
  H  H4  1  0.79222000  0.09798000  0.47269000  1.0
  H  H5  1  0.29558000  0.90215000  0.47123000  1.0
  H  H6  1  0.70779000  0.40202000  0.02731000  1.0
  H  H7  1  0.20444000  0.59784000  0.02877000  1.0
  C  C8  1  0.28454000  0.09838000  0.40352000  1.0
  C  C9  1  0.27224000  0.09288000  0.60185000  1.0
  C  C10  1  0.77849000  0.90440000  0.59991000  1.0
  C  C11  1  0.78419000  0.90291000  0.40205000  1.0
  C  C12  1  0.21547000  0.40161000  0.09648000  1.0
  C  C13  1  0.22775000  0.40713000  0.89814000  1.0
  C  C14  1  0.72151000  0.59560000  0.90009000  1.0
  C  C15  1  0.71581000  0.59708000  0.09796000  1.0
  C  C16  1  0.11069000  0.20771000  0.67238000  1.0
  C  C17  1  0.38928000  0.29229000  0.82761000  1.0
  C  C18  1  0.26420000  0.15401000  0.66032000  1.0
  C  C19  1  0.23579000  0.34599000  0.83967000  1.0
  C  C20  1  0.34375000  0.24174000  0.76659000  1.0
  C  C21  1  0.15621000  0.25826000  0.73340000  1.0
  C  C22  1  0.61990000  0.78682000  0.33097000  1.0
  C  C23  1  0.88009000  0.71318000  0.16903000  1.0
  C  C24  1  0.76904000  0.84273000  0.34299000  1.0
  C  C25  1  0.73095000  0.65727000  0.15702000  1.0
  C  C26  1  0.83969000  0.76047000  0.23246000  1.0
  C  C27  1  0.66030000  0.73953000  0.26754000  1.0
  C  C28  1  0.90725000  0.78293000  0.67449000  1.0
  C  C29  1  0.59273000  0.71706000  0.82551000  1.0
  C  C30  1  0.77421000  0.84408000  0.65880000  1.0
  C  C31  1  0.72577000  0.65591000  0.84120000  1.0
  C  C32  1  0.65890000  0.76346000  0.76465000  1.0
  C  C33  1  0.84108000  0.73653000  0.73534000  1.0
  C  C34  1  0.12027000  0.21394000  0.33130000  1.0
  C  C35  1  0.37977000  0.28606000  0.16870000  1.0
  C  C36  1  0.27066000  0.15849000  0.34419000  1.0
  C  C37  1  0.22937000  0.34150000  0.15581000  1.0
  C  C38  1  0.34013000  0.23952000  0.23271000  1.0
  C  C39  1  0.15992000  0.26048000  0.26729000  1.0
  S  S40  1  0.46517000  0.16579000  0.72264000  1.0
  S  S41  1  0.03482000  0.33422000  0.77736000  1.0
  S  S42  1  0.95967000  0.83684000  0.27731000  1.0
  S  S43  1  0.54032000  0.66316000  0.22269000  1.0
  S  S44  1  0.56738000  0.84433000  0.71759000  1.0
  S  S45  1  0.93260000  0.65566000  0.78240000  1.0
  S  S46  1  0.46176000  0.16403000  0.27873000  1.0
  S  S47  1  0.03827000  0.33596000  0.22127000  1.0
  Cl  Cl48  1  0.89693000  0.21706000  0.61910000  1.0
  Cl  Cl49  1  0.60304000  0.28294000  0.88090000  1.0
  Cl  Cl50  1  0.41396000  0.77081000  0.38519000  1.0
  Cl  Cl51  1  0.08603000  0.72918000  0.11481000  1.0
  Cl  Cl52  1  0.12103000  0.76157000  0.62684000  1.0
  Cl  Cl53  1  0.37895000  0.73843000  0.87315000  1.0
  Cl  Cl54  1  0.91420000  0.23033000  0.38531000  1.0
  Cl  Cl55  1  0.58582000  0.26967000  0.11468000  1.0
  O  O56  1  0.12127000  0.08068000  0.43542000  1.0
  O  O57  1  0.44199000  0.08011000  0.57179000  1.0
  O  O58  1  0.61357000  0.94102000  0.58833000  1.0
  O  O59  1  0.95728000  0.93315000  0.41381000  1.0
  O  O60  1  0.94126000  0.91532000  0.56487000  1.0
  O  O61  1  0.62331000  0.91921000  0.43639000  1.0
  O  O62  1  0.45798000  0.06938000  0.41780000  1.0
  O  O63  1  0.10830000  0.05856000  0.58586000  1.0
  O  O64  1  0.78571000  0.04805000  0.49888000  1.0
  O  O65  1  0.28693000  0.95139000  0.49851000  1.0
  O  O66  1  0.04204000  0.43061000  0.08219000  1.0
  O  O67  1  0.39170000  0.44144000  0.91413000  1.0
  O  O68  1  0.55874000  0.58468000  0.93513000  1.0
  O  O69  1  0.87670000  0.58077000  0.06362000  1.0
  O  O70  1  0.88643000  0.55899000  0.91168000  1.0
  O  O71  1  0.54273000  0.56684000  0.08620000  1.0
  O  O72  1  0.37875000  0.41931000  0.06457000  1.0
  O  O73  1  0.05800000  0.41990000  0.92821000  1.0
  O  O74  1  0.71432000  0.45195000  0.00112000  1.0
  O  O75  1  0.21306000  0.54861000  0.00149000  1.0
