# generated using pymatgen
data_MnH4C7O5
_symmetry_space_group_name_H-M   'P 1'
_cell_length_a   9.22105000
_cell_length_b   9.22104000
_cell_length_c   21.03690000
_cell_angle_alpha   89.98330000
_cell_angle_beta   89.98290000
_cell_angle_gamma   60.01400000
_symmetry_Int_Tables_number   1
_chemical_formula_structural   MnH4C7O5
_chemical_formula_sum   'Mn6 H24 C42 O30'
_cell_volume   1549.29415334
_cell_formula_units_Z   6
loop_
 _symmetry_equiv_pos_site_id
 _symmetry_equiv_pos_as_xyz
  1  'x, y, z'
loop_
 _atom_site_type_symbol
 _atom_site_label
 _atom_site_symmetry_multiplicity
 _atom_site_fract_x
 _atom_site_fract_y
 _atom_site_fract_z
 _atom_site_occupancy
  Mn  Mn0  1  0.98341000  0.00560000  0.08327000  1.0
  Mn  Mn1  1  0.01084000  0.98346000  0.41668000  1.0
  Mn  Mn2  1  0.00576000  0.01092000  0.75014000  1.0
  Mn  Mn3  1  0.99442000  0.01659000  0.91674000  1.0
  Mn  Mn4  1  0.01654000  0.98917000  0.58333000  1.0
  Mn  Mn5  1  0.98906000  0.99424000  0.24987000  1.0
  H  H6  1  0.24129000  0.64125000  0.14297000  1.0
  H  H7  1  0.11745000  0.24081000  0.47629000  1.0
  H  H8  1  0.64106000  0.11700000  0.80969000  1.0
  H  H9  1  0.35875000  0.75873000  0.85703000  1.0
  H  H10  1  0.75919000  0.88256000  0.52372000  1.0
  H  H11  1  0.88300000  0.35893000  0.19032000  1.0
  H  H12  1  0.71898000  0.90869000  0.02075000  1.0
  H  H13  1  0.37257000  0.71912000  0.35428000  1.0
  H  H14  1  0.90861000  0.37298000  0.68779000  1.0
  H  H15  1  0.09128000  0.28103000  0.97926000  1.0
  H  H16  1  0.28088000  0.62744000  0.64572000  1.0
  H  H17  1  0.62704000  0.09138000  0.31222000  1.0
  H  H18  1  0.49930000  0.41629000  0.09748000  1.0
  H  H19  1  0.08391000  0.49911000  0.43097000  1.0
  H  H20  1  0.41643000  0.08374000  0.76408000  1.0
  H  H21  1  0.58371000  0.50070000  0.90253000  1.0
  H  H22  1  0.50088000  0.91610000  0.56904000  1.0
  H  H23  1  0.91625000  0.58357000  0.23593000  1.0
  H  H24  1  0.46423000  0.93791000  0.06660000  1.0
  H  H25  1  0.59814000  0.46465000  0.40021000  1.0
  H  H26  1  0.93766000  0.59843000  0.73377000  1.0
  H  H27  1  0.06205000  0.53579000  0.93341000  1.0
  H  H28  1  0.53536000  0.40186000  0.59979000  1.0
  H  H29  1  0.40158000  0.06232000  0.26624000  1.0
  C  C30  1  0.25175000  0.74829000  0.00001000  1.0
  C  C31  1  0.00026000  0.25137000  0.33328000  1.0
  C  C32  1  0.74863000  0.99973000  0.66666667  1.0
  C  C33  1  0.30482000  0.64393000  0.05412000  1.0
  C  C34  1  0.05116000  0.30454000  0.38746000  1.0
  C  C35  1  0.64420000  0.05075000  0.72083000  1.0
  C  C36  1  0.35609000  0.69520000  0.94589000  1.0
  C  C37  1  0.69547000  0.94883000  0.61255000  1.0
  C  C38  1  0.94923000  0.35580000  0.27918000  1.0
  C  C39  1  0.71705000  0.28295000  0.00000000  1.0
  C  C40  1  0.99995000  0.71704000  0.33350000  1.0
  C  C41  1  0.28296000  0.00005000  0.66651000  1.0
  C  C42  1  0.55626000  0.44373000  0.00000000  1.0
  C  C43  1  0.00007000  0.55615000  0.33344000  1.0
  C  C44  1  0.44385000  0.99992000  0.66657000  1.0
  C  C45  1  0.45725000  0.49545000  0.05517000  1.0
  C  C46  1  0.04710000  0.45707000  0.38859000  1.0
  C  C47  1  0.49566000  0.04686000  0.72180000  1.0
  C  C48  1  0.50456000  0.54275000  0.94483000  1.0
  C  C49  1  0.54293000  0.95289000  0.61142000  1.0
  C  C50  1  0.95313000  0.50435000  0.27821000  1.0
  C  C51  1  0.72281000  0.99997000  0.16651000  1.0
  C  C52  1  0.27697000  0.72303000  0.50000000  1.0
  C  C53  1  0.00000000  0.27720000  0.83349000  1.0
  C  C54  1  0.66370000  0.96095000  0.11094000  1.0
  C  C55  1  0.37533000  0.66393000  0.44448000  1.0
  C  C56  1  0.96091000  0.37560000  0.77798000  1.0
  C  C57  1  0.03903000  0.33630000  0.88907000  1.0
  C  C58  1  0.33607000  0.62466000  0.55553000  1.0
  C  C59  1  0.62441000  0.03908000  0.22202000  1.0
  C  C60  1  0.25723000  0.00008000  0.16636000  1.0
  C  C61  1  0.74245000  0.25756000  0.50000000  1.0
  C  C62  1  0.99991000  0.74277000  0.83365000  1.0
  C  C63  1  0.41807000  0.00011000  0.16642000  1.0
  C  C64  1  0.58159000  0.41840000  0.50000000  1.0
  C  C65  1  0.99987000  0.58195000  0.83359000  1.0
  C  C66  1  0.51093000  0.96543000  0.10997000  1.0
  C  C67  1  0.52369000  0.51130000  0.44354000  1.0
  C  C68  1  0.96520000  0.52398000  0.77710000  1.0
  C  C69  1  0.03453000  0.48908000  0.89005000  1.0
  C  C70  1  0.48870000  0.47631000  0.55646000  1.0
  C  C71  1  0.47604000  0.03478000  0.22291000  1.0
  O  O72  1  0.10706000  0.89298000  0.00001000  1.0
  O  O73  1  0.00028000  0.10662000  0.33321000  1.0
  O  O74  1  0.89338000  0.99972000  0.66680000  1.0
  O  O75  1  0.19161000  0.70289000  0.10389000  1.0
  O  O76  1  0.10519000  0.19130000  0.43721000  1.0
  O  O77  1  0.70314000  0.10469000  0.77068000  1.0
  O  O78  1  0.29715000  0.80841000  0.89613000  1.0
  O  O79  1  0.80870000  0.89481000  0.56280000  1.0
  O  O80  1  0.89531000  0.29685000  0.22933000  1.0
  O  O81  1  0.80081000  0.23799000  0.05182000  1.0
  O  O82  1  0.96120000  0.80067000  0.38535000  1.0
  O  O83  1  0.23776000  0.96140000  0.71833000  1.0
  O  O84  1  0.76201000  0.19917000  0.94818000  1.0
  O  O85  1  0.19932000  0.03881000  0.61466000  1.0
  O  O86  1  0.03860000  0.76223000  0.28167000  1.0
  O  O87  1  0.86769000  0.99984000  0.16659000  1.0
  O  O88  1  0.13219000  0.86780000  0.50001000  1.0
  O  O89  1  0.00016000  0.13231000  0.83342000  1.0
  O  O90  1  0.77119000  0.91820000  0.05956000  1.0
  O  O91  1  0.31079000  0.77134000  0.39308000  1.0
  O  O92  1  0.91822000  0.31102000  0.72655000  1.0
  O  O93  1  0.08177000  0.22882000  0.94045000  1.0
  O  O94  1  0.22866000  0.68921000  0.60692000  1.0
  O  O95  1  0.68899000  0.08176000  0.27346000  1.0
  O  O96  1  0.16605000  0.05395000  0.11649000  1.0
  O  O97  1  0.78025000  0.16650000  0.45008000  1.0
  O  O98  1  0.05383000  0.78038000  0.78385000  1.0
  O  O99  1  0.94607000  0.83395000  0.88352000  1.0
  O  O100  1  0.83350000  0.21973000  0.54991000  1.0
  O  O101  1  0.21962000  0.94617000  0.21616000  1.0
