# generated using pymatgen
data_CuH7C16N9
_symmetry_space_group_name_H-M   'P 1'
_cell_length_a   7.48269000
_cell_length_b   10.86760248
_cell_length_c   11.36010000
_cell_angle_alpha   114.31876211
_cell_angle_beta   91.72630000
_cell_angle_gamma   109.74843179
_symmetry_Int_Tables_number   1
_chemical_formula_structural   CuH7C16N9
_chemical_formula_sum   'Cu2 H14 C32 N18'
_cell_volume   776.72559022
_cell_formula_units_Z   2
loop_
 _symmetry_equiv_pos_site_id
 _symmetry_equiv_pos_as_xyz
  1  'x, y, z'
loop_
 _atom_site_type_symbol
 _atom_site_label
 _atom_site_symmetry_multiplicity
 _atom_site_fract_x
 _atom_site_fract_y
 _atom_site_fract_z
 _atom_site_occupancy
  Cu  Cu0  1  0.08462000  0.65044000  0.25762000  1.0
  Cu  Cu1  1  0.91538000  0.34956000  0.74238000  1.0
  H  H2  1  0.37553000  0.94349000  0.27333000  1.0
  H  H3  1  0.62447000  0.05651000  0.72667000  1.0
  H  H4  1  0.74883000  0.43174000  0.36723000  1.0
  H  H5  1  0.25117000  0.56825000  0.63277000  1.0
  H  H6  1  0.16382000  0.07070000  0.69974000  1.0
  H  H7  1  0.83618000  0.92930000  0.30026000  1.0
  H  H8  1  0.69746000  0.58441000  0.62331000  1.0
  H  H9  1  0.30255000  0.41559000  0.37669000  1.0
  H  H10  1  0.49564000  0.20390000  0.43633000  1.0
  H  H11  1  0.50437000  0.79610000  0.56366000  1.0
  H  H12  1  0.92406000  0.84876000  0.70003000  1.0
  H  H13  1  0.07595000  0.15124000  0.29997000  1.0
  H  H14  1  0.38680000  0.27167000  0.65472000  1.0
  H  H15  1  0.61321000  0.72834000  0.34528000  1.0
  C  C16  1  0.21412000  0.04718000  0.60701000  1.0
  C  C17  1  0.78588000  0.95282000  0.39299000  1.0
  C  C18  1  0.33016000  0.97520000  0.36783000  1.0
  C  C19  1  0.66982000  0.02479000  0.63217000  1.0
  C  C20  1  0.39839000  0.12155000  0.46091000  1.0
  C  C21  1  0.60160000  0.87844000  0.53908000  1.0
  C  C22  1  0.33841000  0.15776000  0.58147000  1.0
  C  C23  1  0.66159000  0.84224000  0.41853000  1.0
  C  C24  1  0.15089000  0.90301000  0.50904000  1.0
  C  C25  1  0.84911000  0.09700000  0.49096000  1.0
  C  C26  1  0.01550000  0.77581000  0.51548000  1.0
  C  C27  1  0.98450000  0.22419000  0.48452000  1.0
  C  C28  1  0.79353000  0.61917000  0.56363000  1.0
  C  C29  1  0.20648000  0.38083000  0.43637000  1.0
  C  C30  1  0.82131000  0.54573000  0.43783000  1.0
  C  C31  1  0.17869000  0.45428000  0.56218000  1.0
  C  C32  1  0.57041000  0.67623000  0.03201000  1.0
  C  C33  1  0.42959000  0.32378000  0.96798000  1.0
  C  C34  1  0.41384000  0.67759000  0.09518000  1.0
  C  C35  1  0.58616000  0.32241000  0.90481000  1.0
  C  C36  1  0.72793000  0.66656000  0.09194000  1.0
  C  C37  1  0.27208000  0.33345000  0.90806000  1.0
  C  C38  1  0.56525000  0.67570000  0.90790000  1.0
  C  C39  1  0.43476000  0.32430000  0.09209000  1.0
  C  C40  1  0.93866000  0.31289000  0.12040000  1.0
  C  C41  1  0.06136000  0.68713000  0.87961000  1.0
  C  C42  1  0.84112000  0.16187000  0.05757000  1.0
  C  C43  1  0.15889000  0.83813000  0.94244000  1.0
  C  C44  1  0.88460000  0.07533000  0.94024000  1.0
  C  C45  1  0.11541000  0.92468000  0.05977000  1.0
  C  C46  1  0.71154000  0.09469000  0.12083000  1.0
  C  C47  1  0.28846000  0.90531000  0.87918000  1.0
  N  N48  1  0.20863000  0.86906000  0.39138000  1.0
  N  N49  1  0.79137000  0.13094000  0.60862000  1.0
  N  N50  1  0.95942000  0.64456000  0.40965000  1.0
  N  N51  1  0.04057000  0.35543000  0.59034000  1.0
  N  N52  1  0.28745000  0.68105000  0.15321000  1.0
  N  N53  1  0.71255000  0.31895000  0.84678000  1.0
  N  N54  1  0.85666000  0.65734000  0.14439000  1.0
  N  N55  1  0.14333000  0.34266000  0.85562000  1.0
  N  N56  1  0.56016000  0.67358000  0.80383000  1.0
  N  N57  1  0.43984000  0.32641000  0.19616000  1.0
  N  N58  1  0.02656000  0.43942000  0.18052000  1.0
  N  N59  1  0.97343000  0.56057000  0.81948000  1.0
  N  N60  1  0.92199000  0.00162000  0.84363000  1.0
  N  N61  1  0.07802000  0.99838000  0.15638000  1.0
  N  N62  1  0.60653000  0.04016000  0.17551000  1.0
  N  N63  1  0.39345000  0.95984000  0.82448000  1.0
  N  N64  1  0.91764000  0.76285000  0.61077000  1.0
  N  N65  1  0.08235000  0.23714000  0.38924000  1.0
