# generated using pymatgen
data_ZnH14C30S(NO2)4
_symmetry_space_group_name_H-M   'P 1'
_cell_length_a   16.63080000
_cell_length_b   17.78950000
_cell_length_c   19.76700000
_cell_angle_alpha   91.94880000
_cell_angle_beta   90.00000000
_cell_angle_gamma   90.00000000
_symmetry_Int_Tables_number   1
_chemical_formula_structural   ZnH14C30S(NO2)4
_chemical_formula_sum   'Zn4 H56 C120 S4 N16 O32'
_cell_volume   5844.75596074
_cell_formula_units_Z   4
loop_
 _symmetry_equiv_pos_site_id
 _symmetry_equiv_pos_as_xyz
  1  'x, y, z'
loop_
 _atom_site_type_symbol
 _atom_site_label
 _atom_site_symmetry_multiplicity
 _atom_site_fract_x
 _atom_site_fract_y
 _atom_site_fract_z
 _atom_site_occupancy
  Zn  Zn0  1  0.89340000  0.94263000  0.51061000  1.0
  Zn  Zn1  1  0.39340000  0.55737000  0.48939000  1.0
  Zn  Zn2  1  0.10660000  0.05737000  0.48939000  1.0
  Zn  Zn3  1  0.60660000  0.44263000  0.51061000  1.0
  H  H4  1  0.94530000  0.81375000  0.73984000  1.0
  H  H5  1  0.44530000  0.68625000  0.26016000  1.0
  H  H6  1  0.05470000  0.18625000  0.26016000  1.0
  H  H7  1  0.55470000  0.31375000  0.73984000  1.0
  H  H8  1  0.92464000  0.79752000  0.27843000  1.0
  H  H9  1  0.42464000  0.70248000  0.72157000  1.0
  H  H10  1  0.07536000  0.20248000  0.72157000  1.0
  H  H11  1  0.57536000  0.29752000  0.27843000  1.0
  H  H12  1  0.11362000  0.62695000  0.50680000  1.0
  H  H13  1  0.61362000  0.87304000  0.49319000  1.0
  H  H14  1  0.88639000  0.37304000  0.49319000  1.0
  H  H15  1  0.38639000  0.12695000  0.50681000  1.0
  H  H16  1  0.94130000  0.82768000  0.61312000  1.0
  H  H17  1  0.44130000  0.67232000  0.38688000  1.0
  H  H18  1  0.05870000  0.17232000  0.38688000  1.0
  H  H19  1  0.55870000  0.32768000  0.61312000  1.0
  H  H20  1  0.85379000  0.04079000  0.76028000  1.0
  H  H21  1  0.35379000  0.45921000  0.23972000  1.0
  H  H22  1  0.14621000  0.95921000  0.23972000  1.0
  H  H23  1  0.64621000  0.54079000  0.76027000  1.0
  H  H24  1  0.01113000  0.74352000  0.51061000  1.0
  H  H25  1  0.51113000  0.75648000  0.48939000  1.0
  H  H26  1  0.98887000  0.25648000  0.48939000  1.0
  H  H27  1  0.48887000  0.24352000  0.51061000  1.0
  H  H28  1  0.88109000  0.03559000  0.26255000  1.0
  H  H29  1  0.38109000  0.46442000  0.73745000  1.0
  H  H30  1  0.11891000  0.96441000  0.73745000  1.0
  H  H31  1  0.61891000  0.53558000  0.26255000  1.0
  H  H32  1  0.09953000  0.88525000  0.07221000  1.0
  H  H33  1  0.59953000  0.61475000  0.92779000  1.0
  H  H34  1  0.90047000  0.11475000  0.92779000  1.0
  H  H35  1  0.40047000  0.38525000  0.07221000  1.0
  H  H36  1  0.85249000  0.04380000  0.63289000  1.0
  H  H37  1  0.35249000  0.45620000  0.36711000  1.0
  H  H38  1  0.14751000  0.95620000  0.36711000  1.0
  H  H39  1  0.64751000  0.54380000  0.63289000  1.0
  H  H40  1  0.92449000  0.81812000  0.40546000  1.0
  H  H41  1  0.42449000  0.68188000  0.59454000  1.0
  H  H42  1  0.07551000  0.18188000  0.59455000  1.0
  H  H43  1  0.57551000  0.31812000  0.40545000  1.0
  H  H44  1  0.09993000  0.89515000  0.94487000  1.0
  H  H45  1  0.59993000  0.60484000  0.05513000  1.0
  H  H46  1  0.90007000  0.10484000  0.05514000  1.0
  H  H47  1  0.40007000  0.39515000  0.94486000  1.0
  H  H48  1  0.69836000  0.93169000  0.07566000  1.0
  H  H49  1  0.19836000  0.56832000  0.92435000  1.0
  H  H50  1  0.30164000  0.06832000  0.92435000  1.0
  H  H51  1  0.80164000  0.43169000  0.07565000  1.0
  H  H52  1  0.69783000  0.93394000  0.94762000  1.0
  H  H53  1  0.19783000  0.56606000  0.05239000  1.0
  H  H54  1  0.30217000  0.06606000  0.05239000  1.0
  H  H55  1  0.80217000  0.43394000  0.94762000  1.0
  H  H56  1  0.88069000  0.04557000  0.38962000  1.0
  H  H57  1  0.38069000  0.45443000  0.61038000  1.0
  H  H58  1  0.11931000  0.95443000  0.61038000  1.0
  H  H59  1  0.61931000  0.54557000  0.38962000  1.0
  C  C60  1  0.11527000  0.81527000  0.49622000  1.0
  C  C61  1  0.61527000  0.68473000  0.50378000  1.0
  C  C62  1  0.88473000  0.18473000  0.50378000  1.0
  C  C63  1  0.38473000  0.31527000  0.49622000  1.0
  C  C64  1  0.97253000  0.90781000  0.93851000  1.0
  C  C65  1  0.47253000  0.59219000  0.06149000  1.0
  C  C66  1  0.02747000  0.09219000  0.06149000  1.0
  C  C67  1  0.52747000  0.40781000  0.93851000  1.0
  C  C68  1  0.28248000  0.66106000  0.49154000  1.0
  C  C69  1  0.78248000  0.83894000  0.50846000  1.0
  C  C70  1  0.71753000  0.33894000  0.50846000  1.0
  C  C71  1  0.21753000  0.16106000  0.49154000  1.0
  C  C72  1  0.92446000  0.86567000  0.71805000  1.0
  C  C73  1  0.42447000  0.63433000  0.28195000  1.0
  C  C74  1  0.07553000  0.13433000  0.28195000  1.0
  C  C75  1  0.57553000  0.36567000  0.71805000  1.0
  C  C76  1  0.97425000  0.91506000  0.86404000  1.0
  C  C77  1  0.47425000  0.58494000  0.13596000  1.0
  C  C78  1  0.02575000  0.08494000  0.13596000  1.0
  C  C79  1  0.52575000  0.41506000  0.86404000  1.0
  C  C80  1  0.91500000  0.85334000  0.30133000  1.0
  C  C81  1  0.41500000  0.64666000  0.69867000  1.0
  C  C82  1  0.08500000  0.14665000  0.69867000  1.0
  C  C83  1  0.58500000  0.35334000  0.30133000  1.0
  C  C84  1  0.90179000  0.91546000  0.26186000  1.0
  C  C85  1  0.40179000  0.58454000  0.73814000  1.0
  C  C86  1  0.09821000  0.08454000  0.73814000  1.0
  C  C87  1  0.59821000  0.41546000  0.26186000  1.0
  C  C88  1  0.12980000  0.68576000  0.50186000  1.0
  C  C89  1  0.62980000  0.81423000  0.49814000  1.0
  C  C90  1  0.87020000  0.31423000  0.49814000  1.0
  C  C91  1  0.37020000  0.18576000  0.50186000  1.0
  C  C92  1  0.89914000  0.92655000  0.75882000  1.0
  C  C93  1  0.39914000  0.57345000  0.24118000  1.0
  C  C94  1  0.10086000  0.07345000  0.24118000  1.0
  C  C95  1  0.60086000  0.42655000  0.75882000  1.0
  C  C96  1  0.97238000  0.89914000  0.08045000  1.0
  C  C97  1  0.47238000  0.60086000  0.91955000  1.0
  C  C98  1  0.02762000  0.10086000  0.91955000  1.0
  C  C99  1  0.52762000  0.39914000  0.08045000  1.0
  C  C100  1  0.92262000  0.87296000  0.64816000  1.0
  C  C101  1  0.42263000  0.62704000  0.35184000  1.0
  C  C102  1  0.07737000  0.12704000  0.35184000  1.0
  C  C103  1  0.57737000  0.37296000  0.64816000  1.0
  C  C104  1  0.82361000  0.92479000  0.86466000  1.0
  C  C105  1  0.32361000  0.57521000  0.13534000  1.0
  C  C106  1  0.17639000  0.07521000  0.13534000  1.0
  C  C107  1  0.67639000  0.42479000  0.86466000  1.0
  C  C108  1  0.87280000  0.99217000  0.72956000  1.0
  C  C109  1  0.37280000  0.50783000  0.27044000  1.0
  C  C110  1  0.12720000  0.00783000  0.27044000  1.0
  C  C111  1  0.62720000  0.49217000  0.72956000  1.0
  C  C112  1  0.07604000  0.74712000  0.50393000  1.0
  C  C113  1  0.57604000  0.75288000  0.49607000  1.0
  C  C114  1  0.92397000  0.25288000  0.49607000  1.0
  C  C115  1  0.42396000  0.24712000  0.50393000  1.0
  C  C116  1  0.82554000  0.91724000  0.08180000  1.0
  C  C117  1  0.32554000  0.58276000  0.91820000  1.0
  C  C118  1  0.17446000  0.08276000  0.91820000  1.0
  C  C119  1  0.67446000  0.41724000  0.08180000  1.0
  C  C120  1  0.89879000  0.91257000  0.97409000  1.0
  C  C121  1  0.39879000  0.58744000  0.02592000  1.0
  C  C122  1  0.10121000  0.08744000  0.02592000  1.0
  C  C123  1  0.60121000  0.41257000  0.97408000  1.0
  C  C124  1  0.97393000  0.89621000  0.15535000  1.0
  C  C125  1  0.47393000  0.60379000  0.84465000  1.0
  C  C126  1  0.02607000  0.10379000  0.84465000  1.0
  C  C127  1  0.52607000  0.39621000  0.15535000  1.0
  C  C128  1  0.88997000  0.98616000  0.29260000  1.0
  C  C129  1  0.38997000  0.51384000  0.70740000  1.0
  C  C130  1  0.11003000  0.01384000  0.70741000  1.0
  C  C131  1  0.61003000  0.48616000  0.29259000  1.0
  C  C132  1  0.04384000  0.89324000  0.04430000  1.0
  C  C133  1  0.54385000  0.60676000  0.95570000  1.0
  C  C134  1  0.95615000  0.10676000  0.95570000  1.0
  C  C135  1  0.45616000  0.39324000  0.04430000  1.0
  C  C136  1  0.82493000  0.91825000  0.15694000  1.0
  C  C137  1  0.32494000  0.58175000  0.84306000  1.0
  C  C138  1  0.17507000  0.08174000  0.84306000  1.0
  C  C139  1  0.67507000  0.41825000  0.15694000  1.0
  C  C140  1  0.87253000  0.99429000  0.65925000  1.0
  C  C141  1  0.37252000  0.50571000  0.34075000  1.0
  C  C142  1  0.12748000  0.00571000  0.34075000  1.0
  C  C143  1  0.62748000  0.49429000  0.65925000  1.0
  C  C144  1  0.20903000  0.70800000  0.49338000  1.0
  C  C145  1  0.70903000  0.79200000  0.50662000  1.0
  C  C146  1  0.79097000  0.29200000  0.50662000  1.0
  C  C147  1  0.29097000  0.20800000  0.49338000  1.0
  C  C148  1  0.89885000  0.90935000  0.04597000  1.0
  C  C149  1  0.39885000  0.59066000  0.95403000  1.0
  C  C150  1  0.10115000  0.09065000  0.95403000  1.0
  C  C151  1  0.60115000  0.40935000  0.04597000  1.0
  C  C152  1  0.91555000  0.86445000  0.37149000  1.0
  C  C153  1  0.41555000  0.63555000  0.62851000  1.0
  C  C154  1  0.08445000  0.13555000  0.62851000  1.0
  C  C155  1  0.58444000  0.36445000  0.37149000  1.0
  C  C156  1  0.82515000  0.92164000  0.93952000  1.0
  C  C157  1  0.32516000  0.57836000  0.06048000  1.0
  C  C158  1  0.17484000  0.07836000  0.06048000  1.0
  C  C159  1  0.67484000  0.42164000  0.93952000  1.0
  C  C160  1  0.04402000  0.89831000  0.97354000  1.0
  C  C161  1  0.54402000  0.60169000  0.02646000  1.0
  C  C162  1  0.95598000  0.10169000  0.02646000  1.0
  C  C163  1  0.45598000  0.39831000  0.97354000  1.0
  C  C164  1  0.75391000  0.92591000  0.04672000  1.0
  C  C165  1  0.25391000  0.57409000  0.95328000  1.0
  C  C166  1  0.24609000  0.07409000  0.95329000  1.0
  C  C167  1  0.74609000  0.42591000  0.04672000  1.0
  C  C168  1  0.75365000  0.92757000  0.97571000  1.0
  C  C169  1  0.25365000  0.57243000  0.02429000  1.0
  C  C170  1  0.24635000  0.07243000  0.02429000  1.0
  C  C171  1  0.74635000  0.42757000  0.97571000  1.0
  C  C172  1  0.89072000  0.99182000  0.36294000  1.0
  C  C173  1  0.39072000  0.50818000  0.63706000  1.0
  C  C174  1  0.10928000  0.00818000  0.63706000  1.0
  C  C175  1  0.60928000  0.49182000  0.36294000  1.0
  C  C176  1  0.08000000  0.89138000  0.49793000  1.0
  C  C177  1  0.58000000  0.60861000  0.50207000  1.0
  C  C178  1  0.92000000  0.10861000  0.50207000  1.0
  C  C179  1  0.42000000  0.39138000  0.49793000  1.0
  S  S180  1  0.21750000  0.80372000  0.48694000  1.0
  S  S181  1  0.71750000  0.69628000  0.51306000  1.0
  S  S182  1  0.78250000  0.19628000  0.51306000  1.0
  S  S183  1  0.28250000  0.30372000  0.48694000  1.0
  N  N184  1  0.90328000  0.93238000  0.40164000  1.0
  N  N185  1  0.40328000  0.56762000  0.59836000  1.0
  N  N186  1  0.09672000  0.06762000  0.59836000  1.0
  N  N187  1  0.59672000  0.43238000  0.40164000  1.0
  N  N188  1  0.89936000  0.92134000  0.83160000  1.0
  N  N189  1  0.39936000  0.57866000  0.16840000  1.0
  N  N190  1  0.10064000  0.07866000  0.16840000  1.0
  N  N191  1  0.60064000  0.42134000  0.83160000  1.0
  N  N192  1  0.89705000  0.93608000  0.61955000  1.0
  N  N193  1  0.39705000  0.56392000  0.38045000  1.0
  N  N194  1  0.10295000  0.06392000  0.38045000  1.0
  N  N195  1  0.60295000  0.43608000  0.61955000  1.0
  N  N196  1  0.90014000  0.90806000  0.18882000  1.0
  N  N197  1  0.40014000  0.59194000  0.81118000  1.0
  N  N198  1  0.09986000  0.09193000  0.81118000  1.0
  N  N199  1  0.59986000  0.40806000  0.18882000  1.0
  O  O200  1  0.00775000  0.89811000  0.51711000  1.0
  O  O201  1  0.50775000  0.60188000  0.48289000  1.0
  O  O202  1  0.99225000  0.10188000  0.48289000  1.0
  O  O203  1  0.49225000  0.39812000  0.51711000  1.0
  O  O204  1  0.12692000  0.94523000  0.48210000  1.0
  O  O205  1  0.62692000  0.55477000  0.51790000  1.0
  O  O206  1  0.87308000  0.05477000  0.51790000  1.0
  O  O207  1  0.37308000  0.44523000  0.48210000  1.0
  O  O208  1  0.35074000  0.69272000  0.48890000  1.0
  O  O209  1  0.85074000  0.80729000  0.51110000  1.0
  O  O210  1  0.64926000  0.30729000  0.51110000  1.0
  O  O211  1  0.14926000  0.19271000  0.48890000  1.0
  O  O212  1  0.03765000  0.91658000  0.83193000  1.0
  O  O213  1  0.53765000  0.58342000  0.16807000  1.0
  O  O214  1  0.96235000  0.08341000  0.16807000  1.0
  O  O215  1  0.46235000  0.41658000  0.83193000  1.0
  O  O216  1  0.03625000  0.88548000  0.18706000  1.0
  O  O217  1  0.53625000  0.61452000  0.81294000  1.0
  O  O218  1  0.96375000  0.11452000  0.81294000  1.0
  O  O219  1  0.46375000  0.38548000  0.18706000  1.0
  O  O220  1  0.27324000  0.58944000  0.49333000  1.0
  O  O221  1  0.77324000  0.91056000  0.50667000  1.0
  O  O222  1  0.72676000  0.41057000  0.50667000  1.0
  O  O223  1  0.22676000  0.08943000  0.49333000  1.0
  O  O224  1  0.76116000  0.93017000  0.83227000  1.0
  O  O225  1  0.26116000  0.56984000  0.16773000  1.0
  O  O226  1  0.23884000  0.06984000  0.16773000  1.0
  O  O227  1  0.73884000  0.43017000  0.83227000  1.0
  O  O228  1  0.76339000  0.92753000  0.19033000  1.0
  O  O229  1  0.26339000  0.57247000  0.80967000  1.0
  O  O230  1  0.23662000  0.07247000  0.80967000  1.0
  O  O231  1  0.73661000  0.42753000  0.19033000  1.0
