# generated using pymatgen
data_CdH16C12(N2O3)2
_symmetry_space_group_name_H-M   'P 1'
_cell_length_a   8.26952000
_cell_length_b   8.86450000
_cell_length_c   11.04390000
_cell_angle_alpha   79.20100000
_cell_angle_beta   90.00070000
_cell_angle_gamma   90.00010000
_symmetry_Int_Tables_number   1
_chemical_formula_structural   CdH16C12(N2O3)2
_chemical_formula_sum   'Cd2 H32 C24 N8 O12'
_cell_volume   795.23770798
_cell_formula_units_Z   2
loop_
 _symmetry_equiv_pos_site_id
 _symmetry_equiv_pos_as_xyz
  1  'x, y, z'
loop_
 _atom_site_type_symbol
 _atom_site_label
 _atom_site_symmetry_multiplicity
 _atom_site_fract_x
 _atom_site_fract_y
 _atom_site_fract_z
 _atom_site_occupancy
  Cd  Cd0  1  0.50000000  0.00000000  0.50000000  1.0
  Cd  Cd1  1  0.00000000  0.50000000  0.00000000  1.0
  H  H2  1  0.66782000  0.64432000  0.60746000  1.0
  H  H3  1  0.16783000  0.85568000  0.89255000  1.0
  H  H4  1  0.33218000  0.35568000  0.39255000  1.0
  H  H5  1  0.83217000  0.14432000  0.10746000  1.0
  H  H6  1  0.59088000  0.86155000  0.23819000  1.0
  H  H7  1  0.09088000  0.63845000  0.26181000  1.0
  H  H8  1  0.40912000  0.13845000  0.76181000  1.0
  H  H9  1  0.90912000  0.36154000  0.73819000  1.0
  H  H10  1  0.82982000  0.36853000  0.37596000  1.0
  H  H11  1  0.32982000  0.13148000  0.12403000  1.0
  H  H12  1  0.17017000  0.63147000  0.62404000  1.0
  H  H13  1  0.67017000  0.86853000  0.87596000  1.0
  H  H14  1  0.71358000  0.32441000  0.51303000  1.0
  H  H15  1  0.21358000  0.17559000  0.98696000  1.0
  H  H16  1  0.28641000  0.67559000  0.48697000  1.0
  H  H17  1  0.78641000  0.82441000  0.01303000  1.0
  H  H18  1  0.90904000  0.40657000  0.51561000  1.0
  H  H19  1  0.40904000  0.09343000  0.98439000  1.0
  H  H20  1  0.09095000  0.59343000  0.48439000  1.0
  H  H21  1  0.59095000  0.90657000  0.01561000  1.0
  H  H22  1  0.71854000  0.59596000  0.23485000  1.0
  H  H23  1  0.21854000  0.90404000  0.26515000  1.0
  H  H24  1  0.28146000  0.40403000  0.76515000  1.0
  H  H25  1  0.78146000  0.09596000  0.73485000  1.0
  H  H26  1  0.69557000  0.14432000  0.30108000  1.0
  H  H27  1  0.19557000  0.35569000  0.19892000  1.0
  H  H28  1  0.30444000  0.85569000  0.69892000  1.0
  H  H29  1  0.80443000  0.64431000  0.80108000  1.0
  H  H30  1  0.52642000  0.23643000  0.26839000  1.0
  H  H31  1  0.02642000  0.26357000  0.23162000  1.0
  H  H32  1  0.47359000  0.76356000  0.73161000  1.0
  H  H33  1  0.97358000  0.73643000  0.76839000  1.0
  C  C34  1  0.66959000  0.66189000  0.50767000  1.0
  C  C35  1  0.16959000  0.83811000  0.99232000  1.0
  C  C36  1  0.33041000  0.33811000  0.49233000  1.0
  C  C37  1  0.83041000  0.16189000  0.00768000  1.0
  C  C38  1  0.72487000  0.56445000  0.43301000  1.0
  C  C39  1  0.22487000  0.93555000  0.06698000  1.0
  C  C40  1  0.27513000  0.43555000  0.56699000  1.0
  C  C41  1  0.77513000  0.06445000  0.93302000  1.0
  C  C42  1  0.62531000  0.77714000  0.31817000  1.0
  C  C43  1  0.12531000  0.72286000  0.18183000  1.0
  C  C44  1  0.37469000  0.22286000  0.68183000  1.0
  C  C45  1  0.87468000  0.27714000  0.81817000  1.0
  C  C46  1  0.79770000  0.40826000  0.46100000  1.0
  C  C47  1  0.29770000  0.09175000  0.03900000  1.0
  C  C48  1  0.20230000  0.59174000  0.53900000  1.0
  C  C49  1  0.70229000  0.90825000  0.96100000  1.0
  C  C50  1  0.88946000  0.01368000  0.54181000  1.0
  C  C51  1  0.38945000  0.48633000  0.95819000  1.0
  C  C52  1  0.11055000  0.98633000  0.45819000  1.0
  C  C53  1  0.61055000  0.51367000  0.04181000  1.0
  C  C54  1  0.95233000  0.05116000  0.41437000  1.0
  C  C55  1  0.45233000  0.44885000  0.08563000  1.0
  C  C56  1  0.04768000  0.94885000  0.58563000  1.0
  C  C57  1  0.54767000  0.55115000  0.91437000  1.0
  N  N58  1  0.60796000  0.79356000  0.43512000  1.0
  N  N59  1  0.10796000  0.70644000  0.06488000  1.0
  N  N60  1  0.39204000  0.20644000  0.56489000  1.0
  N  N61  1  0.89204000  0.29355000  0.93512000  1.0
  N  N62  1  0.69567000  0.64040000  0.31385000  1.0
  N  N63  1  0.19567000  0.85961000  0.18615000  1.0
  N  N64  1  0.30433000  0.35960000  0.68615000  1.0
  N  N65  1  0.80433000  0.14039000  0.81385000  1.0
  O  O66  1  0.75739000  0.03086000  0.59538000  1.0
  O  O67  1  0.25738000  0.46914000  0.90462000  1.0
  O  O68  1  0.24262000  0.96914000  0.40462000  1.0
  O  O69  1  0.74261000  0.53086000  0.09538000  1.0
  O  O70  1  0.89858000  0.11541000  0.31047000  1.0
  O  O71  1  0.39857000  0.38460000  0.18953000  1.0
  O  O72  1  0.10143000  0.88459000  0.68953000  1.0
  O  O73  1  0.60143000  0.61540000  0.81047000  1.0
  O  O74  1  0.57510000  0.13534000  0.30258000  1.0
  O  O75  1  0.07510000  0.36467000  0.19742000  1.0
  O  O76  1  0.42490000  0.86467000  0.69742000  1.0
  O  O77  1  0.92489000  0.63533000  0.80258000  1.0
