# generated using pymatgen
data_GdH12C10NO8
_symmetry_space_group_name_H-M   'P 1'
_cell_length_a   9.26023000
_cell_length_b   10.65540000
_cell_length_c   13.24860000
_cell_angle_alpha   89.99960000
_cell_angle_beta   86.09150000
_cell_angle_gamma   89.99960000
_symmetry_Int_Tables_number   1
_chemical_formula_structural   GdH12C10NO8
_chemical_formula_sum   'Gd4 H48 C40 N4 O32'
_cell_volume   1304.21818380
_cell_formula_units_Z   4
loop_
 _symmetry_equiv_pos_site_id
 _symmetry_equiv_pos_as_xyz
  1  'x, y, z'
loop_
 _atom_site_type_symbol
 _atom_site_label
 _atom_site_symmetry_multiplicity
 _atom_site_fract_x
 _atom_site_fract_y
 _atom_site_fract_z
 _atom_site_occupancy
  Gd  Gd0  1  0.59618000  0.73689000  0.36124000  1.0
  Gd  Gd1  1  0.90382000  0.23689000  0.63876000  1.0
  Gd  Gd2  1  0.40382000  0.26311000  0.63876000  1.0
  Gd  Gd3  1  0.09618000  0.76310000  0.36124000  1.0
  H  H4  1  0.05292000  0.78994000  0.01317000  1.0
  H  H5  1  0.44708000  0.28994000  0.98683000  1.0
  H  H6  1  0.94708000  0.21007000  0.98683000  1.0
  H  H7  1  0.55293000  0.71006000  0.01316000  1.0
  H  H8  1  0.64085000  0.94735000  0.11441000  1.0
  H  H9  1  0.85915000  0.44735000  0.88559000  1.0
  H  H10  1  0.35915000  0.05265000  0.88558000  1.0
  H  H11  1  0.14085000  0.55266000  0.11441000  1.0
  H  H12  1  0.61824000  0.02605000  0.93498000  1.0
  H  H13  1  0.88176000  0.52604000  0.06503000  1.0
  H  H14  1  0.38176000  0.97395000  0.06502000  1.0
  H  H15  1  0.11824000  0.47396000  0.93497000  1.0
  H  H16  1  0.01086000  0.86733000  0.83769000  1.0
  H  H17  1  0.48914000  0.36733000  0.16231000  1.0
  H  H18  1  0.98914000  0.13267000  0.16231000  1.0
  H  H19  1  0.51086000  0.63267000  0.83769000  1.0
  H  H20  1  0.82903000  0.54436000  0.31160000  1.0
  H  H21  1  0.67097000  0.04436000  0.68840000  1.0
  H  H22  1  0.17097000  0.45564000  0.68840000  1.0
  H  H23  1  0.32902000  0.95564000  0.31159000  1.0
  H  H24  1  0.70686000  0.51456000  0.23461000  1.0
  H  H25  1  0.79313000  0.01457000  0.76539000  1.0
  H  H26  1  0.29314000  0.48544000  0.76538000  1.0
  H  H27  1  0.20686000  0.98544000  0.23461000  1.0
  H  H28  1  0.98285000  0.69387000  0.60609000  1.0
  H  H29  1  0.51715000  0.19387000  0.39391000  1.0
  H  H30  1  0.01714000  0.30613000  0.39391000  1.0
  H  H31  1  0.48285000  0.80613000  0.60609000  1.0
  H  H32  1  0.34651000  0.56031000  0.41893000  1.0
  H  H33  1  0.15349000  0.06031000  0.58107000  1.0
  H  H34  1  0.65349000  0.43969000  0.58107000  1.0
  H  H35  1  0.84651000  0.93968000  0.41893000  1.0
  H  H36  1  0.47540000  0.46648000  0.41197000  1.0
  H  H37  1  0.02460000  0.96648000  0.58803000  1.0
  H  H38  1  0.52460000  0.53352000  0.58803000  1.0
  H  H39  1  0.97540000  0.03352000  0.41197000  1.0
  H  H40  1  0.86413000  0.66400000  0.77899000  1.0
  H  H41  1  0.63586000  0.16400000  0.22101000  1.0
  H  H42  1  0.13586000  0.33600000  0.22101000  1.0
  H  H43  1  0.36413000  0.83600000  0.77899000  1.0
  H  H44  1  0.69378000  0.63848000  0.72709000  1.0
  H  H45  1  0.80622000  0.13848000  0.27291000  1.0
  H  H46  1  0.30622000  0.36152000  0.27291000  1.0
  H  H47  1  0.19378000  0.86152000  0.72709000  1.0
  H  H48  1  0.77712000  0.78895000  0.71672000  1.0
  H  H49  1  0.72288000  0.28896000  0.28329000  1.0
  H  H50  1  0.22288000  0.21104000  0.28328000  1.0
  H  H51  1  0.27712000  0.71104000  0.71672000  1.0
  C  C52  1  0.87026000  0.82261000  0.18280000  1.0
  C  C53  1  0.62975000  0.32261000  0.81720000  1.0
  C  C54  1  0.12975000  0.17738000  0.81720000  1.0
  C  C55  1  0.37025000  0.67739000  0.18280000  1.0
  C  C56  1  0.84914000  0.86365000  0.07582000  1.0
  C  C57  1  0.65086000  0.36365000  0.92418000  1.0
  C  C58  1  0.15086000  0.13634000  0.92418000  1.0
  C  C59  1  0.34914000  0.63635000  0.07582000  1.0
  C  C60  1  0.95435000  0.83997000  0.99750000  1.0
  C  C61  1  0.54565000  0.33997000  0.00250000  1.0
  C  C62  1  0.04565000  0.16003000  0.00250000  1.0
  C  C63  1  0.45435000  0.66003000  0.99750000  1.0
  C  C64  1  0.72427000  0.92953000  0.05402000  1.0
  C  C65  1  0.77573000  0.42953000  0.94598000  1.0
  C  C66  1  0.27573000  0.07047000  0.94598000  1.0
  C  C67  1  0.22427000  0.57047000  0.05402000  1.0
  C  C68  1  0.71193000  0.97163000  0.95545000  1.0
  C  C69  1  0.78807000  0.47162000  0.04455000  1.0
  C  C70  1  0.28807000  0.02838000  0.04456000  1.0
  C  C71  1  0.21193000  0.52837000  0.95545000  1.0
  C  C72  1  0.93130000  0.88374000  0.90095000  1.0
  C  C73  1  0.56870000  0.38374000  0.09905000  1.0
  C  C74  1  0.06871000  0.11626000  0.09904000  1.0
  C  C75  1  0.43130000  0.61627000  0.90095000  1.0
  C  C76  1  0.87647000  0.64780000  0.61554000  1.0
  C  C77  1  0.62353000  0.14780000  0.38446000  1.0
  C  C78  1  0.12353000  0.35220000  0.38447000  1.0
  C  C79  1  0.37647000  0.85221000  0.61554000  1.0
  C  C80  1  0.79155000  0.68214000  0.52529000  1.0
  C  C81  1  0.70845000  0.18214000  0.47471000  1.0
  C  C82  1  0.20845000  0.31786000  0.47471000  1.0
  C  C83  1  0.29155000  0.81786000  0.52529000  1.0
  C  C84  1  0.90533000  0.50677000  0.61766000  1.0
  C  C85  1  0.59467000  0.00677000  0.38234000  1.0
  C  C86  1  0.09467000  0.49323000  0.38234000  1.0
  C  C87  1  0.40533000  0.99323000  0.61766000  1.0
  C  C88  1  0.79782000  0.68762000  0.71616000  1.0
  C  C89  1  0.70218000  0.18762000  0.28384000  1.0
  C  C90  1  0.20218000  0.31238000  0.28384000  1.0
  C  C91  1  0.29782000  0.81238000  0.71616000  1.0
  N  N92  1  0.81314000  0.94926000  0.88006000  1.0
  N  N93  1  0.68686000  0.44926000  0.11995000  1.0
  N  N94  1  0.18686000  0.05074000  0.11994000  1.0
  N  N95  1  0.31314000  0.55074000  0.88005000  1.0
  O  O96  1  0.76102000  0.82796000  0.24498000  1.0
  O  O97  1  0.73898000  0.32797000  0.75503000  1.0
  O  O98  1  0.23898000  0.17204000  0.75503000  1.0
  O  O99  1  0.26103000  0.67204000  0.24497000  1.0
  O  O100  1  0.99617000  0.78800000  0.20263000  1.0
  O  O101  1  0.50383000  0.28801000  0.79736000  1.0
  O  O102  1  0.00383000  0.21200000  0.79736000  1.0
  O  O103  1  0.49618000  0.71199000  0.20263000  1.0
  O  O104  1  0.85946000  0.71451000  0.44203000  1.0
  O  O105  1  0.64053000  0.21451000  0.55797000  1.0
  O  O106  1  0.14053000  0.28549000  0.55797000  1.0
  O  O107  1  0.35946000  0.78549000  0.44203000  1.0
  O  O108  1  0.65372000  0.67840000  0.53220000  1.0
  O  O109  1  0.84627000  0.17841000  0.46780000  1.0
  O  O110  1  0.34627000  0.32159000  0.46780000  1.0
  O  O111  1  0.15373000  0.82159000  0.53220000  1.0
  O  O112  1  0.98706000  0.46268000  0.68190000  1.0
  O  O113  1  0.51294000  0.96268000  0.31810000  1.0
  O  O114  1  0.01294000  0.53732000  0.31811000  1.0
  O  O115  1  0.48706000  0.03732000  0.68190000  1.0
  O  O116  1  0.84061000  0.43391000  0.55803000  1.0
  O  O117  1  0.65939000  0.93390000  0.44198000  1.0
  O  O118  1  0.15939000  0.56609000  0.44198000  1.0
  O  O119  1  0.34061000  0.06610000  0.55802000  1.0
  O  O120  1  0.72427000  0.55369000  0.30243000  1.0
  O  O121  1  0.77572000  0.05369000  0.69757000  1.0
  O  O122  1  0.27572000  0.44631000  0.69757000  1.0
  O  O123  1  0.22428000  0.94631000  0.30243000  1.0
  O  O124  1  0.45054000  0.55288000  0.39610000  1.0
  O  O125  1  0.04946000  0.05288000  0.60390000  1.0
  O  O126  1  0.54946000  0.44712000  0.60390000  1.0
  O  O127  1  0.95054000  0.94712000  0.39610000  1.0
