# generated using pymatgen
data_Zn2H17C34N2O8F
_symmetry_space_group_name_H-M   'P 1'
_cell_length_a   9.82930000
_cell_length_b   10.90130000
_cell_length_c   15.93920000
_cell_angle_alpha   87.56510000
_cell_angle_beta   88.91650000
_cell_angle_gamma   88.80050000
_symmetry_Int_Tables_number   1
_chemical_formula_structural   Zn2H17C34N2O8F
_chemical_formula_sum   'Zn2 H17 C34 N2 O8 F1'
_cell_volume   1705.72594007
_cell_formula_units_Z   1
loop_
 _symmetry_equiv_pos_site_id
 _symmetry_equiv_pos_as_xyz
  1  'x, y, z'
loop_
 _atom_site_type_symbol
 _atom_site_label
 _atom_site_symmetry_multiplicity
 _atom_site_fract_x
 _atom_site_fract_y
 _atom_site_fract_z
 _atom_site_occupancy
  Zn  Zn0  1  0.64978000  0.50091000  0.49820000  1.0
  Zn  Zn1  1  0.35638000  0.51115000  0.51183000  1.0
  H  H2  1  0.35134000  0.33563000  0.97075000  1.0
  H  H3  1  0.87442000  0.65849000  0.43551000  1.0
  H  H4  1  0.56619000  0.32318000  0.08762000  1.0
  H  H5  1  0.25569000  0.55728000  0.04068000  1.0
  H  H6  1  0.42204000  0.69179000  0.92345000  1.0
  H  H7  1  0.63684000  0.67944000  0.04038000  1.0
  H  H8  1  0.73279000  0.45770000  0.97006000  1.0
  H  H9  1  0.35136000  0.13027000  0.58150000  1.0
  H  H10  1  0.73763000  0.09974000  0.22742000  1.0
  H  H11  1  0.76457000  0.87058000  0.25225000  1.0
  H  H12  1  0.65510000  0.76781000  0.37575000  1.0
  H  H13  1  0.36264000  0.90126000  0.60004000  1.0
  H  H14  1  0.13094000  0.66872000  0.44865000  1.0
  H  H15  1  0.25043000  0.33436000  0.62337000  1.0
  H  H16  1  0.12756000  0.15083000  0.68022000  1.0
  H  H17  1  0.88367000  0.12281000  0.64650000  1.0
  H  H18  1  0.75843000  0.28137000  0.56088000  1.0
  C  C19  1  0.48346000  0.27391000  0.47646000  1.0
  C  C20  1  0.69389000  0.05299000  0.28305000  1.0
  C  C21  1  0.70773000  0.92482000  0.29750000  1.0
  C  C22  1  0.52600000  0.46791000  0.66666667  1.0
  C  C23  1  0.64721000  0.86713000  0.36680000  1.0
  C  C24  1  0.57165000  0.93548000  0.42655000  1.0
  C  C25  1  0.55909000  0.06721000  0.41409000  1.0
  C  C26  1  0.48273000  0.13643000  0.47332000  1.0
  C  C27  1  0.41172000  0.07604000  0.53796000  1.0
  C  C28  1  0.41930000  0.94769000  0.54897000  1.0
  C  C29  1  0.50063000  0.87815000  0.49659000  1.0
  C  C30  1  0.50726000  0.48699000  0.92108000  1.0
  C  C31  1  0.14411000  0.32079000  0.60926000  1.0
  C  C32  1  0.07462000  0.22014000  0.64094000  1.0
  C  C33  1  0.93590000  0.20472000  0.62253000  1.0
  C  C34  1  0.50657000  0.74187000  0.51388000  1.0
  C  C35  1  0.86500000  0.29256000  0.57545000  1.0
  C  C36  1  0.93257000  0.39847000  0.54360000  1.0
  C  C37  1  0.07541000  0.41047000  0.55808000  1.0
  C  C38  1  0.07404000  0.59288000  0.47782000  1.0
  C  C39  1  0.93195000  0.58534000  0.46853000  1.0
  C  C40  1  0.48854000  0.54912000  0.34351000  1.0
  C  C41  1  0.57401000  0.60272000  0.02393000  1.0
  C  C42  1  0.53478000  0.40456000  0.04978000  1.0
  C  C43  1  0.41458000  0.41225000  0.98689000  1.0
  C  C44  1  0.52493000  0.46493000  0.75730000  1.0
  C  C45  1  0.47963000  0.55289000  0.25322000  1.0
  C  C46  1  0.62687000  0.48000000  0.98643000  1.0
  C  C47  1  0.48159000  0.52793000  0.08975000  1.0
  C  C48  1  0.45377000  0.61038000  0.96115000  1.0
  C  C49  1  0.36173000  0.53498000  0.02457000  1.0
  C  C50  1  0.51766000  0.47206000  0.83344000  1.0
  C  C51  1  0.47608000  0.54434000  0.17729000  1.0
  C  C52  1  0.62005000  0.11987000  0.33986000  1.0
  N  N53  1  0.14387000  0.50793000  0.52191000  1.0
  N  N54  1  0.86316000  0.48990000  0.49970000  1.0
  O  O55  1  0.59934000  0.32122000  0.48561000  1.0
  O  O56  1  0.36948000  0.33047000  0.47687000  1.0
  O  O57  1  0.63971000  0.48093000  0.62844000  1.0
  O  O58  1  0.41009000  0.45855000  0.63257000  1.0
  O  O59  1  0.62212000  0.68751000  0.50843000  1.0
  O  O60  1  0.39382000  0.69116000  0.53338000  1.0
  O  O61  1  0.60811000  0.53414000  0.37282000  1.0
  O  O62  1  0.37745000  0.55956000  0.38546000  1.0
  F  F63  1  0.60027000  0.24229000  0.32203000  1.0
