# generated using pymatgen
data_AlH10C17(SO6)2
_symmetry_space_group_name_H-M   'P 1'
_cell_length_a   6.75390000
_cell_length_b   22.17360000
_cell_length_c   26.97830000
_cell_angle_alpha   102.18600000
_cell_angle_beta   92.63340000
_cell_angle_gamma   92.37760000
_symmetry_Int_Tables_number   1
_chemical_formula_structural   AlH10C17(SO6)2
_chemical_formula_sum   'Al4 H40 C68 S8 O48'
_cell_volume   3939.59324920
_cell_formula_units_Z   4
loop_
 _symmetry_equiv_pos_site_id
 _symmetry_equiv_pos_as_xyz
  1  'x, y, z'
loop_
 _atom_site_type_symbol
 _atom_site_label
 _atom_site_symmetry_multiplicity
 _atom_site_fract_x
 _atom_site_fract_y
 _atom_site_fract_z
 _atom_site_occupancy
  Al  Al0  1  0.18914000  0.24619000  0.74656000  1.0
  Al  Al1  1  0.81143000  0.75202000  0.25202000  1.0
  Al  Al2  1  0.68888000  0.24526000  0.74487000  1.0
  Al  Al3  1  0.31162000  0.75306000  0.25362000  1.0
  H  H4  1  0.75614000  0.67106000  0.37008000  1.0
  H  H5  1  0.24486000  0.32875000  0.62939000  1.0
  H  H6  1  0.23821000  0.83199000  0.12977000  1.0
  H  H7  1  0.76244000  0.16755000  0.86933000  1.0
  H  H8  1  0.75029000  0.60887000  0.43737000  1.0
  H  H9  1  0.25046000  0.39126000  0.56232000  1.0
  H  H10  1  0.23444000  0.89333000  0.06222000  1.0
  H  H11  1  0.76674000  0.10686000  0.93728000  1.0
  H  H12  1  0.36447000  0.62818000  0.34708000  1.0
  H  H13  1  0.63633000  0.37130000  0.65244000  1.0
  H  H14  1  0.86331000  0.87725000  0.15927000  1.0
  H  H15  1  0.13774000  0.12159000  0.83979000  1.0
  H  H16  1  0.31437000  0.56374000  0.50380000  1.0
  H  H17  1  0.68615000  0.43642000  0.49609000  1.0
  H  H18  1  0.73494000  0.03475000  0.07505000  1.0
  H  H19  1  0.26726000  0.96503000  0.92440000  1.0
  H  H20  1  0.26742000  0.49849000  0.56562000  1.0
  H  H21  1  0.73315000  0.50165000  0.43428000  1.0
  H  H22  1  0.68685000  0.10137000  0.01412000  1.0
  H  H23  1  0.31559000  0.89836000  0.98531000  1.0
  H  H24  1  0.65748000  0.48647000  0.96390000  1.0
  H  H25  1  0.34809000  0.51467000  0.03306000  1.0
  H  H26  1  0.28132000  0.95723000  0.55365000  1.0
  H  H27  1  0.72046000  0.04329000  0.44385000  1.0
  H  H28  1  0.48974000  0.56298000  0.39142000  1.0
  H  H29  1  0.51075000  0.43664000  0.60829000  1.0
  H  H30  1  0.00271000  0.93696000  0.11167000  1.0
  H  H31  1  0.99854000  0.06263000  0.88801000  1.0
  H  H32  1  0.61683000  0.59699000  0.92926000  1.0
  H  H33  1  0.07518000  0.41843000  0.10277000  1.0
  H  H34  1  0.76244000  0.98019000  0.62099000  1.0
  H  H35  1  0.23914000  0.02063000  0.37634000  1.0
  H  H36  1  0.12953000  0.60440000  0.90229000  1.0
  H  H37  1  0.53849000  0.39136000  0.03877000  1.0
  H  H38  1  0.74653000  0.10678000  0.63618000  1.0
  H  H39  1  0.25507000  0.89306000  0.36141000  1.0
  H  H40  1  0.45805000  0.32572000  0.76946000  1.0
  H  H41  1  0.54222000  0.67276000  0.22891000  1.0
  H  H42  1  0.93155000  0.17257000  0.75931000  1.0
  H  H43  1  0.06870000  0.82544000  0.23873000  1.0
  C  C44  1  0.40709000  0.17067000  0.66725000  1.0
  C  C45  1  0.59355000  0.82847000  0.33089000  1.0
  C  C46  1  0.96426000  0.32444000  0.82322000  1.0
  C  C47  1  0.03615000  0.67350000  0.17551000  1.0
  C  C48  1  0.44610000  0.18070000  0.80731000  1.0
  C  C49  1  0.55495000  0.81762000  0.19123000  1.0
  C  C50  1  0.93462000  0.31050000  0.68540000  1.0
  C  C51  1  0.06605000  0.68868000  0.31379000  1.0
  C  C52  1  0.88493000  0.64639000  0.37885000  1.0
  C  C53  1  0.11602000  0.35344000  0.62072000  1.0
  C  C54  1  0.37294000  0.85613000  0.12181000  1.0
  C  C55  1  0.62800000  0.14333000  0.87732000  1.0
  C  C56  1  0.88167000  0.61094000  0.41558000  1.0
  C  C57  1  0.11914000  0.38907000  0.58411000  1.0
  C  C58  1  0.37210000  0.89028000  0.08416000  1.0
  C  C59  1  0.62909000  0.10953000  0.91520000  1.0
  C  C60  1  0.04610000  0.57859000  0.42760000  1.0
  C  C61  1  0.95466000  0.42147000  0.57221000  1.0
  C  C62  1  0.54298000  0.92270000  0.07336000  1.0
  C  C63  1  0.45857000  0.07700000  0.92607000  1.0
  C  C64  1  0.22182000  0.58587000  0.40237000  1.0
  C  C65  1  0.77890000  0.41402000  0.59741000  1.0
  C  C66  1  0.72193000  0.91678000  0.10104000  1.0
  C  C67  1  0.27944000  0.08271000  0.89840000  1.0
  C  C68  1  0.22837000  0.62283000  0.36647000  1.0
  C  C69  1  0.77249000  0.37683000  0.63313000  1.0
  C  C70  1  0.72451000  0.88167000  0.13827000  1.0
  C  C71  1  0.27657000  0.11745000  0.86089000  1.0
  C  C72  1  0.05986000  0.65214000  0.35379000  1.0
  C  C73  1  0.94107000  0.34748000  0.64570000  1.0
  C  C74  1  0.55066000  0.85226000  0.14971000  1.0
  C  C75  1  0.45029000  0.14673000  0.84923000  1.0
  C  C76  1  0.17701000  0.53562000  0.50157000  1.0
  C  C77  1  0.82348000  0.46459000  0.49836000  1.0
  C  C78  1  0.63306000  0.01898000  0.04198000  1.0
  C  C79  1  0.36919000  0.98075000  0.95746000  1.0
  C  C80  1  0.14996000  0.49841000  0.53648000  1.0
  C  C81  1  0.85054000  0.50179000  0.46344000  1.0
  C  C82  1  0.60612000  0.05650000  0.00723000  1.0
  C  C83  1  0.39633000  0.94323000  0.99218000  1.0
  C  C84  1  0.97348000  0.46200000  0.53561000  1.0
  C  C85  1  0.02702000  0.53817000  0.46431000  1.0
  C  C86  1  0.47434000  0.03829000  0.96419000  1.0
  C  C87  1  0.52784000  0.96146000  0.03527000  1.0
  C  C88  1  0.81028000  0.49321000  0.97972000  1.0
  C  C89  1  0.19499000  0.50820000  0.01735000  1.0
  C  C90  1  0.38034000  0.97630000  0.52938000  1.0
  C  C91  1  0.62152000  0.02417000  0.46811000  1.0
  C  C92  1  0.94574000  0.55415000  0.98644000  1.0
  C  C93  1  0.06249000  0.44760000  0.01048000  1.0
  C  C94  1  0.60132000  0.95992000  0.52123000  1.0
  C  C95  1  0.40045000  0.04056000  0.47628000  1.0
  C  C96  1  0.03068000  0.62998000  0.12722000  1.0
  C  C97  1  0.96986000  0.36856000  0.87121000  1.0
  C  C98  1  0.60720000  0.86900000  0.38002000  1.0
  C  C99  1  0.39402000  0.13093000  0.61778000  1.0
  C  C100  1  0.88436000  0.48533000  0.03355000  1.0
  C  C101  1  0.12117000  0.51506000  0.96332000  1.0
  C  C102  1  0.34102000  0.97007000  0.47114000  1.0
  C  C103  1  0.66068000  0.03040000  0.52634000  1.0
  C  C104  1  0.02080000  0.54726000  0.04169000  1.0
  C  C105  1  0.98461000  0.45368000  0.95535000  1.0
  C  C106  1  0.56259000  0.95315000  0.46174000  1.0
  C  C107  1  0.43921000  0.04734000  0.53576000  1.0
  C  C108  1  0.03125000  0.59329000  0.08687000  1.0
  C  C109  1  0.97120000  0.40673000  0.91078000  1.0
  C  C110  1  0.60462000  0.90619000  0.42001000  1.0
  C  C111  1  0.39706000  0.09417000  0.57755000  1.0
  S  S112  1  0.88825000  0.62707000  0.97211000  1.0
  S  S113  1  0.15428000  0.37981000  0.02566000  1.0
  S  S114  1  0.71529000  0.90730000  0.55385000  1.0
  S  S115  1  0.28701000  0.09326000  0.44366000  1.0
  S  S116  1  0.28968000  0.53184000  0.91937000  1.0
  S  S117  1  0.74516000  0.46584000  0.08251000  1.0
  S  S118  1  0.86339000  0.07475000  0.56180000  1.0
  S  S119  1  0.13826000  0.92580000  0.43567000  1.0
  O  O120  1  0.61400000  0.19669000  0.79272000  1.0
  O  O121  1  0.38702000  0.80161000  0.20578000  1.0
  O  O122  1  0.10075000  0.29978000  0.70544000  1.0
  O  O123  1  0.89964000  0.69928000  0.29384000  1.0
  O  O124  1  0.24715000  0.19012000  0.68568000  1.0
  O  O125  1  0.75331000  0.80877000  0.31254000  1.0
  O  O126  1  0.79252000  0.31041000  0.80154000  1.0
  O  O127  1  0.20806000  0.68781000  0.19703000  1.0
  O  O128  1  0.27638000  0.19068000  0.78841000  1.0
  O  O129  1  0.72467000  0.80716000  0.20980000  1.0
  O  O130  1  0.76472000  0.29278000  0.69769000  1.0
  O  O131  1  0.23570000  0.70609000  0.30118000  1.0
  O  O132  1  0.13026000  0.30521000  0.80803000  1.0
  O  O133  1  0.87007000  0.69227000  0.19109000  1.0
  O  O134  1  0.58308000  0.18107000  0.68831000  1.0
  O  O135  1  0.41736000  0.81767000  0.31003000  1.0
  O  O136  1  0.44556000  0.28307000  0.75101000  1.0
  O  O137  1  0.55483000  0.71525000  0.24776000  1.0
  O  O138  1  0.93364000  0.20773000  0.74316000  1.0
  O  O139  1  0.06690000  0.79054000  0.25520000  1.0
  O  O140  1  0.38421000  0.55457000  0.41292000  1.0
  O  O141  1  0.61649000  0.44535000  0.58697000  1.0
  O  O142  1  0.89268000  0.94566000  0.08997000  1.0
  O  O143  1  0.10879000  0.05401000  0.90969000  1.0
  O  O144  1  0.78098000  0.66015000  0.01279000  1.0
  O  O145  1  0.07206000  0.65360000  0.95792000  1.0
  O  O146  1  0.75942000  0.60782000  0.92106000  1.0
  O  O147  1  0.01203000  0.32914000  0.00986000  1.0
  O  O148  1  0.35131000  0.37453000  0.00546000  1.0
  O  O149  1  0.19473000  0.39961000  0.08476000  1.0
  O  O150  1  0.59111000  0.85178000  0.54396000  1.0
  O  O151  1  0.92447000  0.90704000  0.54676000  1.0
  O  O152  1  0.67698000  0.94181000  0.61117000  1.0
  O  O153  1  0.07774000  0.09372000  0.45060000  1.0
  O  O154  1  0.41168000  0.14869000  0.45366000  1.0
  O  O155  1  0.32557000  0.05876000  0.38634000  1.0
  O  O156  1  0.42886000  0.57816000  0.95068000  1.0
  O  O157  1  0.36351000  0.47609000  0.89119000  1.0
  O  O158  1  0.16649000  0.56293000  0.88187000  1.0
  O  O159  1  0.89226000  0.46280000  0.12291000  1.0
  O  O160  1  0.58660000  0.50712000  0.09246000  1.0
  O  O161  1  0.67170000  0.39791000  0.06020000  1.0
  O  O162  1  0.03539000  0.03989000  0.55121000  1.0
  O  O163  1  0.85091000  0.13761000  0.55718000  1.0
  O  O164  1  0.81690000  0.07017000  0.61952000  1.0
  O  O165  1  0.14989000  0.86302000  0.44060000  1.0
  O  O166  1  0.96660000  0.96091000  0.44602000  1.0
  O  O167  1  0.18528000  0.92992000  0.37790000  1.0
