# generated using pymatgen
data_FeH68C66S6(N3O2)2
_symmetry_space_group_name_H-M   'P 1'
_cell_length_a   15.37580000
_cell_length_b   15.37570000
_cell_length_c   20.37880000
_cell_angle_alpha   90.59620000
_cell_angle_beta   90.59640000
_cell_angle_gamma   118.04400000
_symmetry_Int_Tables_number   1
_chemical_formula_structural   FeH68C66S6(N3O2)2
_chemical_formula_sum   'Fe2 H136 C132 S12 N12 O8'
_cell_volume   4251.28147303
_cell_formula_units_Z   2
loop_
 _symmetry_equiv_pos_site_id
 _symmetry_equiv_pos_as_xyz
  1  'x, y, z'
loop_
 _atom_site_type_symbol
 _atom_site_label
 _atom_site_symmetry_multiplicity
 _atom_site_fract_x
 _atom_site_fract_y
 _atom_site_fract_z
 _atom_site_occupancy
  Fe  Fe0  1  0.50000000  0.00000000  0.50000000  1.0
  Fe  Fe1  1  0.00001000  0.50000000  0.00000000  1.0
  H  H2  1  0.86096000  0.06167000  0.55535000  1.0
  H  H3  1  0.08775000  0.31904000  0.65413000  1.0
  H  H4  1  0.25041000  0.14205000  0.60355000  1.0
  H  H5  1  0.16206000  0.05167000  0.54882000  1.0
  H  H6  1  0.35834000  0.08653000  0.53686000  1.0
  H  H7  1  0.38165000  0.84558000  0.60392000  1.0
  H  H8  1  0.24144000  0.80134000  0.68001000  1.0
  H  H9  1  0.14949000  0.90156000  0.67875000  1.0
  H  H10  1  0.06168000  0.39784000  0.56924000  1.0
  H  H11  1  0.96176000  0.39639000  0.52353000  1.0
  H  H12  1  0.01946000  0.32618000  0.49587000  1.0
  H  H13  1  0.84233000  0.23711000  0.67003000  1.0
  H  H14  1  0.84586000  0.33585000  0.62389000  1.0
  H  H15  1  0.95296000  0.35122000  0.66814000  1.0
  H  H16  1  0.84959000  0.17620000  0.48862000  1.0
  H  H17  1  0.79805000  0.25069000  0.51892000  1.0
  H  H18  1  0.77262000  0.13966000  0.55835000  1.0
  H  H19  1  0.83274000  0.65598000  0.77744000  1.0
  H  H20  1  0.98274000  0.77297000  0.59615000  1.0
  H  H21  1  0.66457000  0.81019000  0.68505000  1.0
  H  H22  1  0.72173000  0.84615000  0.60687000  1.0
  H  H23  1  0.59878000  0.88549000  0.56153000  1.0
  H  H24  1  0.57685000  0.12918000  0.62796000  1.0
  H  H25  1  0.68209000  0.14774000  0.72637000  1.0
  H  H26  1  0.75485000  0.03158000  0.73970000  1.0
  H  H27  1  0.93042000  0.49516000  0.73334000  1.0
  H  H28  1  0.83062000  0.51788000  0.75203000  1.0
  H  H29  1  0.95136000  0.59831000  0.78342000  1.0
  H  H30  1  0.08812000  0.69776000  0.70391000  1.0
  H  H31  1  0.06418000  0.69596000  0.61816000  1.0
  H  H32  1  0.05626000  0.58933000  0.65589000  1.0
  H  H33  1  0.87879000  0.58950000  0.57590000  1.0
  H  H34  1  0.78869000  0.51685000  0.63341000  1.0
  H  H35  1  0.88396000  0.48756000  0.61225000  1.0
  H  H36  1  0.93834000  0.13904000  0.94464000  1.0
  H  H37  1  0.68097000  0.91225000  0.84587000  1.0
  H  H38  1  0.85795000  0.74959000  0.89644000  1.0
  H  H39  1  0.94833000  0.83794000  0.95118000  1.0
  H  H40  1  0.91347000  0.64166000  0.96314000  1.0
  H  H41  1  0.15441000  0.61834000  0.89608000  1.0
  H  H42  1  0.19866000  0.75856000  0.81998000  1.0
  H  H43  1  0.09844000  0.85051000  0.82125000  1.0
  H  H44  1  0.60217000  0.93832000  0.93076000  1.0
  H  H45  1  0.60361000  0.03824000  0.97646000  1.0
  H  H46  1  0.67382000  0.98053000  0.00412000  1.0
  H  H47  1  0.76289000  0.15767000  0.82996000  1.0
  H  H48  1  0.66415000  0.15414000  0.87611000  1.0
  H  H49  1  0.64879000  0.04704000  0.83186000  1.0
  H  H50  1  0.82380000  0.15041000  0.01138000  1.0
  H  H51  1  0.74930000  0.20194000  0.98108000  1.0
  H  H52  1  0.86034000  0.22738000  0.94165000  1.0
  H  H53  1  0.34402000  0.16726000  0.72256000  1.0
  H  H54  1  0.22703000  0.01726000  0.90385000  1.0
  H  H55  1  0.18981000  0.33543000  0.81494000  1.0
  H  H56  1  0.15385000  0.27827000  0.89313000  1.0
  H  H57  1  0.11452000  0.40122000  0.93846000  1.0
  H  H58  1  0.87084000  0.42316000  0.87204000  1.0
  H  H59  1  0.85227000  0.31792000  0.77363000  1.0
  H  H60  1  0.96843000  0.24516000  0.76030000  1.0
  H  H61  1  0.50484000  0.06958000  0.76666000  1.0
  H  H62  1  0.48212000  0.16937000  0.74797000  1.0
  H  H63  1  0.40168000  0.04864000  0.71658000  1.0
  H  H64  1  0.30224000  0.91188000  0.79608000  1.0
  H  H65  1  0.30403000  0.93582000  0.88184000  1.0
  H  H66  1  0.41067000  0.94374000  0.84411000  1.0
  H  H67  1  0.41049000  0.12121000  0.92410000  1.0
  H  H68  1  0.48315000  0.21131000  0.86659000  1.0
  H  H69  1  0.51244000  0.11604000  0.88775000  1.0
  H  H70  1  0.13904000  0.93834000  0.44464000  1.0
  H  H71  1  0.91225000  0.68096000  0.34587000  1.0
  H  H72  1  0.74958000  0.85795000  0.39644000  1.0
  H  H73  1  0.83794000  0.94833000  0.45118000  1.0
  H  H74  1  0.64166000  0.91348000  0.46315000  1.0
  H  H75  1  0.61836000  0.15443000  0.39608000  1.0
  H  H76  1  0.75857000  0.19867000  0.31999000  1.0
  H  H77  1  0.85051000  0.09844000  0.32125000  1.0
  H  H78  1  0.93832000  0.60216000  0.43076000  1.0
  H  H79  1  0.03825000  0.60361000  0.47647000  1.0
  H  H80  1  0.98054000  0.67382000  0.50413000  1.0
  H  H81  1  0.15767000  0.76288000  0.32996000  1.0
  H  H82  1  0.15414000  0.66415000  0.37611000  1.0
  H  H83  1  0.04704000  0.64878000  0.33186000  1.0
  H  H84  1  0.15041000  0.82380000  0.51138000  1.0
  H  H85  1  0.20195000  0.74931000  0.48108000  1.0
  H  H86  1  0.22737000  0.86034000  0.44165000  1.0
  H  H87  1  0.16726000  0.34403000  0.22256000  1.0
  H  H88  1  0.01726000  0.22704000  0.40385000  1.0
  H  H89  1  0.33543000  0.18981000  0.31494000  1.0
  H  H90  1  0.27827000  0.15385000  0.39314000  1.0
  H  H91  1  0.40122000  0.11452000  0.43846000  1.0
  H  H92  1  0.42316000  0.87083000  0.37204000  1.0
  H  H93  1  0.31791000  0.85227000  0.27363000  1.0
  H  H94  1  0.24515000  0.96842000  0.26030000  1.0
  H  H95  1  0.06958000  0.50484000  0.26667000  1.0
  H  H96  1  0.16938000  0.48212000  0.24797000  1.0
  H  H97  1  0.04864000  0.40168000  0.21659000  1.0
  H  H98  1  0.91188000  0.30224000  0.29609000  1.0
  H  H99  1  0.93582000  0.30404000  0.38184000  1.0
  H  H100  1  0.94374000  0.41067000  0.34411000  1.0
  H  H101  1  0.12121000  0.41050000  0.42410000  1.0
  H  H102  1  0.21131000  0.48315000  0.36659000  1.0
  H  H103  1  0.11604000  0.51244000  0.38775000  1.0
  H  H104  1  0.06166000  0.86096000  0.05536000  1.0
  H  H105  1  0.31904000  0.08775000  0.15414000  1.0
  H  H106  1  0.14205000  0.25041000  0.10356000  1.0
  H  H107  1  0.05167000  0.16205000  0.04882000  1.0
  H  H108  1  0.08652000  0.35834000  0.03686000  1.0
  H  H109  1  0.84558000  0.38165000  0.10392000  1.0
  H  H110  1  0.80134000  0.24144000  0.18002000  1.0
  H  H111  1  0.90156000  0.14949000  0.17875000  1.0
  H  H112  1  0.39783000  0.06168000  0.06924000  1.0
  H  H113  1  0.39638000  0.96175000  0.02354000  1.0
  H  H114  1  0.32618000  0.01946000  0.99588000  1.0
  H  H115  1  0.23711000  0.84232000  0.17004000  1.0
  H  H116  1  0.33585000  0.84586000  0.12389000  1.0
  H  H117  1  0.35121000  0.95296000  0.16815000  1.0
  H  H118  1  0.17620000  0.84959000  0.98862000  1.0
  H  H119  1  0.25070000  0.79805000  0.01892000  1.0
  H  H120  1  0.13966000  0.77262000  0.05836000  1.0
  H  H121  1  0.65598000  0.83274000  0.27744000  1.0
  H  H122  1  0.77297000  0.98274000  0.09615000  1.0
  H  H123  1  0.81018000  0.66456000  0.18506000  1.0
  H  H124  1  0.84614000  0.72172000  0.10687000  1.0
  H  H125  1  0.88547000  0.59877000  0.06154000  1.0
  H  H126  1  0.12915000  0.57682000  0.12796000  1.0
  H  H127  1  0.14772000  0.68207000  0.22637000  1.0
  H  H128  1  0.03157000  0.75483000  0.23970000  1.0
  H  H129  1  0.49516000  0.93042000  0.23334000  1.0
  H  H130  1  0.51788000  0.83062000  0.25203000  1.0
  H  H131  1  0.59831000  0.95136000  0.28342000  1.0
  H  H132  1  0.69776000  0.08812000  0.20392000  1.0
  H  H133  1  0.69596000  0.06418000  0.11816000  1.0
  H  H134  1  0.58933000  0.05626000  0.15589000  1.0
  H  H135  1  0.58950000  0.87879000  0.07590000  1.0
  H  H136  1  0.51685000  0.78869000  0.13341000  1.0
  H  H137  1  0.48756000  0.88396000  0.11225000  1.0
  C  C138  1  0.10597000  0.18952000  0.65589000  1.0
  C  C139  1  0.06822000  0.09039000  0.63536000  1.0
  C  C140  1  0.97803000  0.04467000  0.60078000  1.0
  C  C141  1  0.92996000  0.09926000  0.58310000  1.0
  C  C142  1  0.96939000  0.19933000  0.59955000  1.0
  C  C143  1  0.05624000  0.24220000  0.63792000  1.0
  C  C144  1  0.19589000  0.06326000  0.59844000  1.0
  C  C145  1  0.24549000  0.00022000  0.60613000  1.0
  C  C146  1  0.32786000  0.02174000  0.56782000  1.0
  C  C147  1  0.34235000  0.88882000  0.60647000  1.0
  C  C148  1  0.26362000  0.86446000  0.64821000  1.0
  C  C149  1  0.21297000  0.91982000  0.64781000  1.0
  C  C150  1  0.92075000  0.26168000  0.57790000  1.0
  C  C151  1  0.99557000  0.35091000  0.53960000  1.0
  C  C152  1  0.88894000  0.29890000  0.63880000  1.0
  C  C153  1  0.83019000  0.20319000  0.53341000  1.0
  C  C154  1  0.90813000  0.84690000  0.63819000  1.0
  C  C155  1  0.84885000  0.84957000  0.68951000  1.0
  C  C156  1  0.82465000  0.78152000  0.74027000  1.0
  C  C157  1  0.85426000  0.70825000  0.73760000  1.0
  C  C158  1  0.90906000  0.70134000  0.68538000  1.0
  C  C159  1  0.93784000  0.77364000  0.63702000  1.0
  C  C160  1  0.71672000  0.87347000  0.65622000  1.0
  C  C161  1  0.68221000  0.94943000  0.65136000  1.0
  C  C162  1  0.62131000  0.94412000  0.59861000  1.0
  C  C163  1  0.60737000  0.07894000  0.63606000  1.0
  C  C164  1  0.66695000  0.08914000  0.69051000  1.0
  C  C165  1  0.70633000  0.02453000  0.69832000  1.0
  C  C166  1  0.93219000  0.61512000  0.67826000  1.0
  C  C167  1  0.90946000  0.55363000  0.74062000  1.0
  C  C168  1  0.04155000  0.65220000  0.66286000  1.0
  C  C169  1  0.86711000  0.54849000  0.62150000  1.0
  C  C170  1  0.40725000  0.76986000  0.47723000  1.0
  C  C171  1  0.81048000  0.89403000  0.84411000  1.0
  C  C172  1  0.90961000  0.93178000  0.86464000  1.0
  C  C173  1  0.95533000  0.02197000  0.89922000  1.0
  C  C174  1  0.90074000  0.07004000  0.91690000  1.0
  C  C175  1  0.80067000  0.03061000  0.90045000  1.0
  C  C176  1  0.75780000  0.94376000  0.86208000  1.0
  C  C177  1  0.93674000  0.80410000  0.90156000  1.0
  C  C178  1  0.99978000  0.75451000  0.89387000  1.0
  C  C179  1  0.97825000  0.67213000  0.93218000  1.0
  C  C180  1  0.11117000  0.65764000  0.89354000  1.0
  C  C181  1  0.13554000  0.73637000  0.85179000  1.0
  C  C182  1  0.08018000  0.78703000  0.85219000  1.0
  C  C183  1  0.73832000  0.07925000  0.92209000  1.0
  C  C184  1  0.64909000  0.00443000  0.96040000  1.0
  C  C185  1  0.70110000  0.11106000  0.86120000  1.0
  C  C186  1  0.79681000  0.16981000  0.96659000  1.0
  C  C187  1  0.15310000  0.09187000  0.86181000  1.0
  C  C188  1  0.15043000  0.15115000  0.81049000  1.0
  C  C189  1  0.21848000  0.17536000  0.75972000  1.0
  C  C190  1  0.29175000  0.14574000  0.76240000  1.0
  C  C191  1  0.29866000  0.09094000  0.81462000  1.0
  C  C192  1  0.22636000  0.06215000  0.86297000  1.0
  C  C193  1  0.12654000  0.28329000  0.84378000  1.0
  C  C194  1  0.05058000  0.31780000  0.84864000  1.0
  C  C195  1  0.05589000  0.37870000  0.90139000  1.0
  C  C196  1  0.92106000  0.39263000  0.86394000  1.0
  C  C197  1  0.91087000  0.33306000  0.80949000  1.0
  C  C198  1  0.97548000  0.29367000  0.80168000  1.0
  C  C199  1  0.38488000  0.06781000  0.82174000  1.0
  C  C200  1  0.44637000  0.09054000  0.75937000  1.0
  C  C201  1  0.34780000  0.95844000  0.83713000  1.0
  C  C202  1  0.45151000  0.13288000  0.87850000  1.0
  C  C203  1  0.23018000  0.59279000  0.02278000  1.0
  C  C204  1  0.89403000  0.81048000  0.34411000  1.0
  C  C205  1  0.93178000  0.90961000  0.36464000  1.0
  C  C206  1  0.02197000  0.95533000  0.39922000  1.0
  C  C207  1  0.07004000  0.90073000  0.41690000  1.0
  C  C208  1  0.03061000  0.80067000  0.40045000  1.0
  C  C209  1  0.94376000  0.75780000  0.36208000  1.0
  C  C210  1  0.80410000  0.93674000  0.40156000  1.0
  C  C211  1  0.75451000  0.99979000  0.39387000  1.0
  C  C212  1  0.67214000  0.97826000  0.43218000  1.0
  C  C213  1  0.65765000  0.11118000  0.39354000  1.0
  C  C214  1  0.73638000  0.13555000  0.35180000  1.0
  C  C215  1  0.78703000  0.08018000  0.35219000  1.0
  C  C216  1  0.07924000  0.73832000  0.42209000  1.0
  C  C217  1  0.00443000  0.64909000  0.46040000  1.0
  C  C218  1  0.11105000  0.70109000  0.36120000  1.0
  C  C219  1  0.16981000  0.79681000  0.46659000  1.0
  C  C220  1  0.09187000  0.15310000  0.36181000  1.0
  C  C221  1  0.15115000  0.15043000  0.31049000  1.0
  C  C222  1  0.17535000  0.21848000  0.25972000  1.0
  C  C223  1  0.14574000  0.29175000  0.26240000  1.0
  C  C224  1  0.09094000  0.29866000  0.31462000  1.0
  C  C225  1  0.06216000  0.22636000  0.36298000  1.0
  C  C226  1  0.28328000  0.12653000  0.34378000  1.0
  C  C227  1  0.31780000  0.05057000  0.34864000  1.0
  C  C228  1  0.37869000  0.05588000  0.40139000  1.0
  C  C229  1  0.39263000  0.92106000  0.36394000  1.0
  C  C230  1  0.33305000  0.91086000  0.30949000  1.0
  C  C231  1  0.29367000  0.97547000  0.30167000  1.0
  C  C232  1  0.06782000  0.38488000  0.32174000  1.0
  C  C233  1  0.09054000  0.44637000  0.25938000  1.0
  C  C234  1  0.95845000  0.34780000  0.33714000  1.0
  C  C235  1  0.13289000  0.45151000  0.37851000  1.0
  C  C236  1  0.59277000  0.23017000  0.52277000  1.0
  C  C237  1  0.18952000  0.10597000  0.15590000  1.0
  C  C238  1  0.09039000  0.06822000  0.13537000  1.0
  C  C239  1  0.04467000  0.97803000  0.10078000  1.0
  C  C240  1  0.09927000  0.92996000  0.08310000  1.0
  C  C241  1  0.19933000  0.96939000  0.09956000  1.0
  C  C242  1  0.24220000  0.05624000  0.13793000  1.0
  C  C243  1  0.06326000  0.19589000  0.09844000  1.0
  C  C244  1  0.00022000  0.24549000  0.10613000  1.0
  C  C245  1  0.02174000  0.32786000  0.06782000  1.0
  C  C246  1  0.88882000  0.34236000  0.10646000  1.0
  C  C247  1  0.86446000  0.26363000  0.14821000  1.0
  C  C248  1  0.91982000  0.21297000  0.14781000  1.0
  C  C249  1  0.26168000  0.92075000  0.07791000  1.0
  C  C250  1  0.35091000  0.99557000  0.03961000  1.0
  C  C251  1  0.29890000  0.88894000  0.13880000  1.0
  C  C252  1  0.20319000  0.83019000  0.03341000  1.0
  C  C253  1  0.84690000  0.90813000  0.13819000  1.0
  C  C254  1  0.84957000  0.84885000  0.18951000  1.0
  C  C255  1  0.78152000  0.82464000  0.24028000  1.0
  C  C256  1  0.70825000  0.85426000  0.23760000  1.0
  C  C257  1  0.70134000  0.90906000  0.18538000  1.0
  C  C258  1  0.77364000  0.93784000  0.13702000  1.0
  C  C259  1  0.87346000  0.71671000  0.15622000  1.0
  C  C260  1  0.94942000  0.68220000  0.15136000  1.0
  C  C261  1  0.94411000  0.62130000  0.09860000  1.0
  C  C262  1  0.07893000  0.60736000  0.13606000  1.0
  C  C263  1  0.08912000  0.66693000  0.19050000  1.0
  C  C264  1  0.02452000  0.70632000  0.19832000  1.0
  C  C265  1  0.61512000  0.93218000  0.17826000  1.0
  C  C266  1  0.55363000  0.90946000  0.24063000  1.0
  C  C267  1  0.65220000  0.04155000  0.16287000  1.0
  C  C268  1  0.54848000  0.86711000  0.12150000  1.0
  C  C269  1  0.76985000  0.40723000  0.97723000  1.0
  S  S270  1  0.22216000  0.25492000  0.69613000  1.0
  S  S271  1  0.93248000  0.92299000  0.56865000  1.0
  S  S272  1  0.33563000  0.65714000  0.45697000  1.0
  S  S273  1  0.74508000  0.77784000  0.80387000  1.0
  S  S274  1  0.07701000  0.06752000  0.93135000  1.0
  S  S275  1  0.34291000  0.66440000  0.04304000  1.0
  S  S276  1  0.77784000  0.74508000  0.30387000  1.0
  S  S277  1  0.06752000  0.07700000  0.43135000  1.0
  S  S278  1  0.66440000  0.34291000  0.54303000  1.0
  S  S279  1  0.25492000  0.22216000  0.19613000  1.0
  S  S280  1  0.92300000  0.93248000  0.06865000  1.0
  S  S281  1  0.65711000  0.33562000  0.95697000  1.0
  N  N282  1  0.37458000  0.96682000  0.56647000  1.0
  N  N283  1  0.58527000  0.00784000  0.58998000  1.0
  N  N284  1  0.46056000  0.85434000  0.49186000  1.0
  N  N285  1  0.03317000  0.62540000  0.93353000  1.0
  N  N286  1  0.99217000  0.41474000  0.91002000  1.0
  N  N287  1  0.14568000  0.53948000  0.00815000  1.0
  N  N288  1  0.62542000  0.03318000  0.43354000  1.0
  N  N289  1  0.41474000  0.99217000  0.41002000  1.0
  N  N290  1  0.53943000  0.14570000  0.50814000  1.0
  N  N291  1  0.96682000  0.37459000  0.06646000  1.0
  N  N292  1  0.00782000  0.58525000  0.08998000  1.0
  N  N293  1  0.85434000  0.46056000  0.99185000  1.0
  O  O294  1  0.12027000  0.03902000  0.64637000  1.0
  O  O295  1  0.81222000  0.91604000  0.68845000  1.0
  O  O296  1  0.96098000  0.87972000  0.85362000  1.0
  O  O297  1  0.08397000  0.18778000  0.81155000  1.0
  O  O298  1  0.87972000  0.96098000  0.35363000  1.0
  O  O299  1  0.18778000  0.08397000  0.31155000  1.0
  O  O300  1  0.03902000  0.12028000  0.14638000  1.0
  O  O301  1  0.91603000  0.81222000  0.18845000  1.0
