# generated using pymatgen
data_CoH22C18S(NO)6
_symmetry_space_group_name_H-M   'P 1'
_cell_length_a   8.79073000
_cell_length_b   11.47940000
_cell_length_c   12.66700000
_cell_angle_alpha   89.13870000
_cell_angle_beta   79.21510000
_cell_angle_gamma   69.41730000
_symmetry_Int_Tables_number   1
_chemical_formula_structural   CoH22C18S(NO)6
_chemical_formula_sum   'Co2 H44 C36 S2 N12 O12'
_cell_volume   1173.73102548
_cell_formula_units_Z   2
loop_
 _symmetry_equiv_pos_site_id
 _symmetry_equiv_pos_as_xyz
  1  'x, y, z'
loop_
 _atom_site_type_symbol
 _atom_site_label
 _atom_site_symmetry_multiplicity
 _atom_site_fract_x
 _atom_site_fract_y
 _atom_site_fract_z
 _atom_site_occupancy
  Co  Co0  1  0.76432000  0.23912000  0.70189000  1.0
  Co  Co1  1  0.23568000  0.76088000  0.29812000  1.0
  H  H2  1  0.04588000  0.09501000  0.61992000  1.0
  H  H3  1  0.95413000  0.90498000  0.38009000  1.0
  H  H4  1  0.91771000  0.01846000  0.63133000  1.0
  H  H5  1  0.08230000  0.98153000  0.36869000  1.0
  H  H6  1  0.45908000  0.21471000  0.65495000  1.0
  H  H7  1  0.54092000  0.78529000  0.34505000  1.0
  H  H8  1  0.61324000  0.15587000  0.55817000  1.0
  H  H9  1  0.38676000  0.84412000  0.44183000  1.0
  H  H10  1  0.27660000  0.24021000  0.24539000  1.0
  H  H11  1  0.72339000  0.75979000  0.75461000  1.0
  H  H12  1  0.07130000  0.25995000  0.96002000  1.0
  H  H13  1  0.92870000  0.74006000  0.03998000  1.0
  H  H14  1  0.80858000  0.52436000  0.23049000  1.0
  H  H15  1  0.19142000  0.47564000  0.76950000  1.0
  H  H16  1  0.14968000  0.39826000  0.38541000  1.0
  H  H17  1  0.85031000  0.60173000  0.61458000  1.0
  H  H18  1  0.00117000  0.54026000  0.35502000  1.0
  H  H19  1  0.99883000  0.45973000  0.64498000  1.0
  H  H20  1  0.04904000  0.25670000  0.51675000  1.0
  H  H21  1  0.95097000  0.74330000  0.48325000  1.0
  H  H22  1  0.54200000  0.47980000  0.59875000  1.0
  H  H23  1  0.45799000  0.52018000  0.40125000  1.0
  H  H24  1  0.69380000  0.57948000  0.42446000  1.0
  H  H25  1  0.30619000  0.42051000  0.57553000  1.0
  H  H26  1  0.35273000  0.12477000  0.96055000  1.0
  H  H27  1  0.64727000  0.87523000  0.03944000  1.0
  H  H28  1  0.44435000  0.11922000  0.07686000  1.0
  H  H29  1  0.55565000  0.88078000  0.92313000  1.0
  H  H30  1  0.38519000  0.97232000  0.22926000  1.0
  H  H31  1  0.61482000  0.02768000  0.77074000  1.0
  H  H32  1  0.11028000  0.81044000  0.08168000  1.0
  H  H33  1  0.88971000  0.18956000  0.91833000  1.0
  H  H34  1  0.17704000  0.99419000  0.94988000  1.0
  H  H35  1  0.82295000  0.00581000  0.05012000  1.0
  H  H36  1  0.80333000  0.54205000  0.99083000  1.0
  H  H37  1  0.19667000  0.45796000  0.00917000  1.0
  H  H38  1  0.78590000  0.39804000  0.96319000  1.0
  H  H39  1  0.21410000  0.60197000  0.03680000  1.0
  H  H40  1  0.58938000  0.69183000  0.14194000  1.0
  H  H41  1  0.41063000  0.30818000  0.85806000  1.0
  H  H42  1  0.27664000  0.48631000  0.23565000  1.0
  H  H43  1  0.72337000  0.51370000  0.76434000  1.0
  H  H44  1  0.56273000  0.33519000  0.09678000  1.0
  H  H45  1  0.43727000  0.66482000  0.90321000  1.0
  C  C46  1  0.03860000  0.38530000  0.25018000  1.0
  C  C47  1  0.96140000  0.61470000  0.74982000  1.0
  C  C48  1  0.17621000  0.28393000  0.20191000  1.0
  C  C49  1  0.82379000  0.71607000  0.79809000  1.0
  C  C50  1  0.18713000  0.23894000  0.09779000  1.0
  C  C51  1  0.81287000  0.76107000  0.90221000  1.0
  C  C52  1  0.05893000  0.29516000  0.04206000  1.0
  C  C53  1  0.94107000  0.70484000  0.95794000  1.0
  C  C54  1  0.91997000  0.39626000  0.09039000  1.0
  C  C55  1  0.08003000  0.60374000  0.90961000  1.0
  C  C56  1  0.91122000  0.44131000  0.19389000  1.0
  C  C57  1  0.08878000  0.55869000  0.80611000  1.0
  C  C58  1  0.03038000  0.43925000  0.35964000  1.0
  C  C59  1  0.96962000  0.56075000  0.64035000  1.0
  C  C60  1  0.92953000  0.32789000  0.51439000  1.0
  C  C61  1  0.07047000  0.67210000  0.48561000  1.0
  C  C62  1  0.66862000  0.44690000  0.55503000  1.0
  C  C63  1  0.33138000  0.55309000  0.44496000  1.0
  C  C64  1  0.73974000  0.49678000  0.46874000  1.0
  C  C65  1  0.26026000  0.50320000  0.53124000  1.0
  C  C66  1  0.33134000  0.12487000  0.04873000  1.0
  C  C67  1  0.66866000  0.87513000  0.95126000  1.0
  C  C68  1  0.31644000  0.95433000  0.17266000  1.0
  C  C69  1  0.68356000  0.04567000  0.82734000  1.0
  C  C70  1  0.17931000  0.87002000  0.09054000  1.0
  C  C71  1  0.82067000  0.12999000  0.90947000  1.0
  C  C72  1  0.20859000  0.96052000  0.02644000  1.0
  C  C73  1  0.79140000  0.03948000  0.97357000  1.0
  C  C74  1  0.78444000  0.46016000  0.02858000  1.0
  C  C75  1  0.21557000  0.53985000  0.97142000  1.0
  C  C76  1  0.53923000  0.61764000  0.14800000  1.0
  C  C77  1  0.46077000  0.38236000  0.85201000  1.0
  C  C78  1  0.38471000  0.50560000  0.19673000  1.0
  C  C79  1  0.61529000  0.49440000  0.80326000  1.0
  C  C80  1  0.52412000  0.43083000  0.12768000  1.0
  C  C81  1  0.47589000  0.56918000  0.87231000  1.0
  S  S82  1  0.16948000  0.20049000  0.72774000  1.0
  S  S83  1  0.83052000  0.79951000  0.27226000  1.0
  N  N84  1  0.90427000  0.42043000  0.44430000  1.0
  N  N85  1  0.09574000  0.57956000  0.55570000  1.0
  N  N86  1  0.78791000  0.34233000  0.58333000  1.0
  N  N87  1  0.21208000  0.65766000  0.41667000  1.0
  N  N88  1  0.29528000  0.01232000  0.07940000  1.0
  N  N89  1  0.70471000  0.98768000  0.92060000  1.0
  N  N90  1  0.24671000  0.86723000  0.18141000  1.0
  N  N91  1  0.75329000  0.13277000  0.81860000  1.0
  N  N92  1  0.61975000  0.50308000  0.09691000  1.0
  N  N93  1  0.38026000  0.49693000  0.90309000  1.0
  N  N94  1  0.39556000  0.62186000  0.20954000  1.0
  N  N95  1  0.60444000  0.37815000  0.79046000  1.0
  O  O96  1  0.92879000  0.09692000  0.60855000  1.0
  O  O97  1  0.07122000  0.90307000  0.39146000  1.0
  O  O98  1  0.58433000  0.17384000  0.63553000  1.0
  O  O99  1  0.41567000  0.82615000  0.36448000  1.0
  O  O100  1  0.98954000  0.27947000  0.75893000  1.0
  O  O101  1  0.01047000  0.72053000  0.24107000  1.0
  O  O102  1  0.26576000  0.28476000  0.69344000  1.0
  O  O103  1  0.73424000  0.71524000  0.30656000  1.0
  O  O104  1  0.19471000  0.11415000  0.63203000  1.0
  O  O105  1  0.80529000  0.88585000  0.36796000  1.0
  O  O106  1  0.23019000  0.12774000  0.81840000  1.0
  O  O107  1  0.76980000  0.87226000  0.18161000  1.0
