# generated using pymatgen
data_NiH18C19(NO2)3
_symmetry_space_group_name_H-M   'P 1'
_cell_length_a   9.67461000
_cell_length_b   10.10220000
_cell_length_c   10.69040000
_cell_angle_alpha   66.84940000
_cell_angle_beta   87.53750000
_cell_angle_gamma   87.40990000
_symmetry_Int_Tables_number   1
_chemical_formula_structural   NiH18C19(NO2)3
_chemical_formula_sum   'Ni2 H36 C38 N6 O12'
_cell_volume   959.34706368
_cell_formula_units_Z   2
loop_
 _symmetry_equiv_pos_site_id
 _symmetry_equiv_pos_as_xyz
  1  'x, y, z'
loop_
 _atom_site_type_symbol
 _atom_site_label
 _atom_site_symmetry_multiplicity
 _atom_site_fract_x
 _atom_site_fract_y
 _atom_site_fract_z
 _atom_site_occupancy
  Ni  Ni0  1  0.00000000  0.00000000  0.50000000  1.0
  Ni  Ni1  1  0.00000000  0.50000000  0.50000000  1.0
  H  H2  1  0.06963000  0.58869000  0.07195000  1.0
  H  H3  1  0.93038000  0.41130000  0.92806000  1.0
  H  H4  1  0.14865000  0.64895000  0.82909000  1.0
  H  H5  1  0.85136000  0.35105000  0.17092000  1.0
  H  H6  1  0.56026000  0.70598000  0.93281000  1.0
  H  H7  1  0.43974000  0.29402000  0.06719000  1.0
  H  H8  1  0.47877000  0.65263000  0.17254000  1.0
  H  H9  1  0.52124000  0.34737000  0.82746000  1.0
  H  H10  1  0.51104000  0.70246000  0.70434000  1.0
  H  H11  1  0.48896000  0.29754000  0.29565000  1.0
  H  H12  1  0.33457000  0.70832000  0.65657000  1.0
  H  H13  1  0.66543000  0.29168000  0.34343000  1.0
  H  H14  1  0.61411000  0.89659000  0.70029000  1.0
  H  H15  1  0.38589000  0.10341000  0.29971000  1.0
  H  H16  1  0.61381000  0.16447000  0.64641000  1.0
  H  H17  1  0.38618000  0.83553000  0.35359000  1.0
  H  H18  1  0.38831000  0.30343000  0.58892000  1.0
  H  H19  1  0.61168000  0.69657000  0.41108000  1.0
  H  H20  1  0.11036000  0.30812000  0.27164000  1.0
  H  H21  1  0.88965000  0.69188000  0.72837000  1.0
  H  H22  1  0.19267000  0.31636000  0.01612000  1.0
  H  H23  1  0.80734000  0.68365000  0.98389000  1.0
  H  H24  1  0.14623000  0.88267000  0.28906000  1.0
  H  H25  1  0.85375000  0.11734000  0.71093000  1.0
  H  H26  1  0.24002000  0.92443000  0.05301000  1.0
  H  H27  1  0.75998000  0.07557000  0.94699000  1.0
  H  H28  1  0.27069000  0.10248000  0.93414000  1.0
  H  H29  1  0.72931000  0.89752000  0.06586000  1.0
  H  H30  1  0.02262000  0.15438000  0.89354000  1.0
  H  H31  1  0.97737000  0.84563000  0.10645000  1.0
  H  H32  1  0.07334000  0.99475000  0.87088000  1.0
  H  H33  1  0.92665000  0.00526000  0.12912000  1.0
  H  H34  1  0.09670000  0.69974000  0.54007000  1.0
  H  H35  1  0.90329000  0.30026000  0.45993000  1.0
  H  H36  1  0.21651000  0.61752000  0.49019000  1.0
  H  H37  1  0.78348000  0.38249000  0.50981000  1.0
  C  C38  1  0.21875000  0.59708000  0.27763000  1.0
  C  C39  1  0.78126000  0.40293000  0.72237000  1.0
  C  C40  1  0.26892000  0.61932000  0.13565000  1.0
  C  C41  1  0.73108000  0.38068000  0.86435000  1.0
  C  C42  1  0.17699000  0.61465000  0.03968000  1.0
  C  C43  1  0.82302000  0.38534000  0.96033000  1.0
  C  C44  1  0.22106000  0.64726000  0.90510000  1.0
  C  C45  1  0.77894000  0.35273000  0.09490000  1.0
  C  C46  1  0.35888000  0.68340000  0.86542000  1.0
  C  C47  1  0.64113000  0.31660000  0.13458000  1.0
  C  C48  1  0.45210000  0.68157000  0.96295000  1.0
  C  C49  1  0.54790000  0.31843000  0.03704000  1.0
  C  C50  1  0.40775000  0.65112000  0.09665000  1.0
  C  C51  1  0.59226000  0.34888000  0.90335000  1.0
  C  C52  1  0.40502000  0.73919000  0.71734000  1.0
  C  C53  1  0.59498000  0.26080000  0.28266000  1.0
  C  C54  1  0.52134000  0.96565000  0.67119000  1.0
  C  C55  1  0.47866000  0.03435000  0.32881000  1.0
  C  C56  1  0.52033000  0.11100000  0.64179000  1.0
  C  C57  1  0.47966000  0.88900000  0.35821000  1.0
  C  C58  1  0.39413000  0.18889000  0.60860000  1.0
  C  C59  1  0.60587000  0.81111000  0.39141000  1.0
  C  C60  1  0.27354000  0.12369000  0.60020000  1.0
  C  C61  1  0.72646000  0.87631000  0.39980000  1.0
  C  C62  1  0.27630000  0.97213000  0.62662000  1.0
  C  C63  1  0.72370000  0.02787000  0.37338000  1.0
  C  C64  1  0.14271000  0.21386000  0.56994000  1.0
  C  C65  1  0.85728000  0.78614000  0.43006000  1.0
  C  C66  1  0.13087000  0.22034000  0.23828000  1.0
  C  C67  1  0.86912000  0.77966000  0.76172000  1.0
  C  C68  1  0.17238000  0.22620000  0.11140000  1.0
  C  C69  1  0.82762000  0.77380000  0.88860000  1.0
  C  C70  1  0.14869000  0.99898000  0.25251000  1.0
  C  C71  1  0.85130000  0.00102000  0.74748000  1.0
  C  C72  1  0.19667000  0.03521000  0.01116000  1.0
  C  C73  1  0.80333000  0.96479000  0.98884000  1.0
  C  C74  1  0.05608000  0.04096000  0.94810000  1.0
  C  C75  1  0.94392000  0.95905000  0.05189000  1.0
  N  N76  1  0.40492000  0.89877000  0.66509000  1.0
  N  N77  1  0.59508000  0.10123000  0.33491000  1.0
  N  N78  1  0.11544000  0.07750000  0.32502000  1.0
  N  N79  1  0.88455000  0.92250000  0.67498000  1.0
  N  N80  1  0.18417000  0.08500000  0.12244000  1.0
  N  N81  1  0.81583000  0.91500000  0.87755000  1.0
  O  O82  1  0.09897000  0.54416000  0.31302000  1.0
  O  O83  1  0.90104000  0.45582000  0.68698000  1.0
  O  O84  1  0.29716000  0.63572000  0.34886000  1.0
  O  O85  1  0.70284000  0.36429000  0.65114000  1.0
  O  O86  1  0.17641000  0.89878000  0.62252000  1.0
  O  O87  1  0.82359000  0.10122000  0.37748000  1.0
  O  O88  1  0.03404000  0.17219000  0.53192000  1.0
  O  O89  1  0.96596000  0.82781000  0.46808000  1.0
  O  O90  1  0.14737000  0.60579000  0.56741000  1.0
  O  O91  1  0.85263000  0.39422000  0.43260000  1.0
  O  O92  1  0.14429000  0.33239000  0.58326000  1.0
  O  O93  1  0.85571000  0.66761000  0.41674000  1.0
