# generated using pymatgen
data_ZnC13NCl4(O2F)2
_symmetry_space_group_name_H-M   'P 1'
_cell_length_a   11.03080000
_cell_length_b   14.76250000
_cell_length_c   16.15780000
_cell_angle_alpha   89.78270000
_cell_angle_beta   89.01490000
_cell_angle_gamma   69.64170000
_symmetry_Int_Tables_number   1
_chemical_formula_structural   ZnC13NCl4(O2F)2
_chemical_formula_sum   'Zn2 C26 N2 Cl8 O8 F4'
_cell_volume   2466.44515310
_cell_formula_units_Z   2
loop_
 _symmetry_equiv_pos_site_id
 _symmetry_equiv_pos_as_xyz
  1  'x, y, z'
loop_
 _atom_site_type_symbol
 _atom_site_label
 _atom_site_symmetry_multiplicity
 _atom_site_fract_x
 _atom_site_fract_y
 _atom_site_fract_z
 _atom_site_occupancy
  Zn  Zn0  1  0.53006000  0.39835000  0.49850000  1.0
  Zn  Zn1  1  0.46984000  0.60152000  0.49859000  1.0
  C  C2  1  0.50175000  0.49989000  0.33846000  1.0
  C  C3  1  0.49832000  0.49997000  0.65814000  1.0
  C  C4  1  0.38325000  0.08296000  0.49792000  1.0
  C  C5  1  0.61619000  0.91699000  0.49785000  1.0
  C  C6  1  0.50656000  0.09251000  0.49786000  1.0
  C  C7  1  0.49286000  0.90743000  0.49800000  1.0
  C  C8  1  0.62003000  0.01050000  0.49778000  1.0
  C  C9  1  0.37939000  0.98945000  0.49796000  1.0
  C  C10  1  0.51899000  0.18483000  0.49835000  1.0
  C  C11  1  0.48044000  0.81513000  0.49854000  1.0
  C  C12  1  0.25381000  0.53663000  0.49475000  1.0
  C  C13  1  0.74625000  0.46337000  0.49363000  1.0
  C  C14  1  0.11387000  0.54530000  0.48879000  1.0
  C  C15  1  0.88655000  0.45457000  0.48804000  1.0
  C  C16  1  0.06827000  0.49964000  0.43154000  1.0
  C  C17  1  0.93538000  0.50042000  0.43132000  1.0
  C  C18  1  0.39627000  0.49159000  0.95619000  1.0
  C  C19  1  0.60256000  0.50882000  0.04064000  1.0
  C  C20  1  0.50131000  0.50026000  0.91026000  1.0
  C  C21  1  0.49770000  0.49986000  0.08655000  1.0
  C  C22  1  0.60651000  0.50894000  0.95452000  1.0
  C  C23  1  0.39254000  0.49105000  0.04233000  1.0
  C  C24  1  0.50030000  0.50018000  0.82304000  1.0
  C  C25  1  0.49907000  0.49985000  0.17371000  1.0
  C  C26  1  0.50107000  0.50000000  0.24898000  1.0
  C  C27  1  0.49882000  0.50000000  0.74774000  1.0
  N  N28  1  0.46576000  0.74108000  0.49926000  1.0
  N  N29  1  0.53378000  0.25882000  0.49909000  1.0
  Cl  Cl30  1  0.83923000  0.56401000  0.35178000  1.0
  Cl  Cl31  1  0.16894000  0.43646000  0.35174000  1.0
  Cl  Cl32  1  0.98153000  0.38353000  0.56372000  1.0
  Cl  Cl33  1  0.01456000  0.61619000  0.56462000  1.0
  Cl  Cl34  1  0.26150000  0.48040000  0.09400000  1.0
  Cl  Cl35  1  0.73772000  0.51952000  0.90304000  1.0
  Cl  Cl36  1  0.24512000  0.18090000  0.49854000  1.0
  Cl  Cl37  1  0.75429000  0.81907000  0.49840000  1.0
  O  O38  1  0.50744000  0.42114000  0.37342000  1.0
  O  O39  1  0.45526000  0.58236000  0.62354000  1.0
  O  O40  1  0.49632000  0.57846000  0.37320000  1.0
  O  O41  1  0.54117000  0.41750000  0.62319000  1.0
  O  O42  1  0.33063000  0.45240000  0.51072000  1.0
  O  O43  1  0.66866000  0.54771000  0.50971000  1.0
  O  O44  1  0.28039000  0.61287000  0.48491000  1.0
  O  O45  1  0.72005000  0.38718000  0.48355000  1.0
  F  F46  1  0.29568000  0.48346000  0.91428000  1.0
  F  F47  1  0.70292000  0.51730000  0.08254000  1.0
  F  F48  1  0.26519000  0.97631000  0.49820000  1.0
  F  F49  1  0.73421000  0.02364000  0.49784000  1.0
