# generated using pymatgen
data_ZnH21C27N3O5
_symmetry_space_group_name_H-M   'P 1'
_cell_length_a   14.81790000
_cell_length_b   16.26760000
_cell_length_c   21.52690000
_cell_angle_alpha   89.99990000
_cell_angle_beta   90.00010000
_cell_angle_gamma   89.99960000
_symmetry_Int_Tables_number   1
_chemical_formula_structural   ZnH21C27N3O5
_chemical_formula_sum   'Zn8 H168 C216 N24 O40'
_cell_volume   5189.09519564
_cell_formula_units_Z   8
loop_
 _symmetry_equiv_pos_site_id
 _symmetry_equiv_pos_as_xyz
  1  'x, y, z'
loop_
 _atom_site_type_symbol
 _atom_site_label
 _atom_site_symmetry_multiplicity
 _atom_site_fract_x
 _atom_site_fract_y
 _atom_site_fract_z
 _atom_site_occupancy
  Zn  Zn0  1  0.76210000  0.41640000  0.99043000  1.0
  Zn  Zn1  1  0.76211000  0.08360000  0.50958000  1.0
  Zn  Zn2  1  0.73789000  0.58358000  0.49043000  1.0
  Zn  Zn3  1  0.73790000  0.91641000  0.00957000  1.0
  Zn  Zn4  1  0.23790000  0.58360000  0.00958000  1.0
  Zn  Zn5  1  0.23789000  0.91640000  0.49041000  1.0
  Zn  Zn6  1  0.26211000  0.41643000  0.50957000  1.0
  Zn  Zn7  1  0.26211000  0.08359000  0.99042000  1.0
  H  H8  1  0.80274000  0.02758000  0.27534000  1.0
  H  H9  1  0.80276000  0.47241000  0.22467000  1.0
  H  H10  1  0.69726000  0.97241000  0.77534000  1.0
  H  H11  1  0.69724000  0.52758000  0.72468000  1.0
  H  H12  1  0.19726000  0.97241000  0.72466000  1.0
  H  H13  1  0.19724000  0.52759000  0.77532000  1.0
  H  H14  1  0.30277000  0.02760000  0.22467000  1.0
  H  H15  1  0.30276000  0.47241000  0.27533000  1.0
  H  H16  1  0.88556000  0.77463000  0.32368000  1.0
  H  H17  1  0.88556000  0.72536000  0.17633000  1.0
  H  H18  1  0.61444000  0.22537000  0.82366000  1.0
  H  H19  1  0.61444000  0.27463000  0.67634000  1.0
  H  H20  1  0.11443000  0.22537000  0.67633000  1.0
  H  H21  1  0.11444000  0.27466000  0.82367000  1.0
  H  H22  1  0.38557000  0.77465000  0.17633000  1.0
  H  H23  1  0.38556000  0.72537000  0.32366000  1.0
  H  H24  1  0.85668000  0.90317000  0.26429000  1.0
  H  H25  1  0.85668000  0.59681000  0.23571000  1.0
  H  H26  1  0.64332000  0.09682000  0.76428000  1.0
  H  H27  1  0.64332000  0.40317000  0.73573000  1.0
  H  H28  1  0.14332000  0.09683000  0.73572000  1.0
  H  H29  1  0.14332000  0.40320000  0.76428000  1.0
  H  H30  1  0.35670000  0.90319000  0.23571000  1.0
  H  H31  1  0.35668000  0.59682000  0.26428000  1.0
  H  H32  1  0.57123000  0.87266000  0.29396000  1.0
  H  H33  1  0.57123000  0.62732000  0.20605000  1.0
  H  H34  1  0.92876000  0.12732000  0.79397000  1.0
  H  H35  1  0.92877000  0.37269000  0.70605000  1.0
  H  H36  1  0.42877000  0.12733000  0.70603000  1.0
  H  H37  1  0.42877000  0.37269000  0.79395000  1.0
  H  H38  1  0.07125000  0.87268000  0.20605000  1.0
  H  H39  1  0.07123000  0.62730000  0.29395000  1.0
  H  H40  1  0.60242000  0.74678000  0.35823000  1.0
  H  H41  1  0.60241000  0.75321000  0.14178000  1.0
  H  H42  1  0.89758000  0.25321000  0.85823000  1.0
  H  H43  1  0.89759000  0.24681000  0.64178000  1.0
  H  H44  1  0.39758000  0.25321000  0.64176000  1.0
  H  H45  1  0.39758000  0.24680000  0.85822000  1.0
  H  H46  1  0.10242000  0.74680000  0.14178000  1.0
  H  H47  1  0.10241000  0.75319000  0.35821000  1.0
  H  H48  1  0.89514000  0.12843000  0.24046000  1.0
  H  H49  1  0.89517000  0.37156000  0.25955000  1.0
  H  H50  1  0.60485000  0.87156000  0.74046000  1.0
  H  H51  1  0.60484000  0.62844000  0.75956000  1.0
  H  H52  1  0.10486000  0.87156000  0.75954000  1.0
  H  H53  1  0.10482000  0.62844000  0.74044000  1.0
  H  H54  1  0.39517000  0.12844000  0.25956000  1.0
  H  H55  1  0.39517000  0.37155000  0.24045000  1.0
  H  H56  1  0.91044000  0.26167000  0.18409000  1.0
  H  H57  1  0.91045000  0.23832000  0.31593000  1.0
  H  H58  1  0.58954000  0.73833000  0.68408000  1.0
  H  H59  1  0.58954000  0.76168000  0.81593000  1.0
  H  H60  1  0.08955000  0.73832000  0.81592000  1.0
  H  H61  1  0.08954000  0.76168000  0.68407000  1.0
  H  H62  1  0.41047000  0.26168000  0.31593000  1.0
  H  H63  1  0.41047000  0.23832000  0.18408000  1.0
  H  H64  1  0.64868000  0.22669000  0.10364000  1.0
  H  H65  1  0.64870000  0.27332000  0.39639000  1.0
  H  H66  1  0.85130000  0.77332000  0.60363000  1.0
  H  H67  1  0.85131000  0.72668000  0.89638000  1.0
  H  H68  1  0.35131000  0.77331000  0.89637000  1.0
  H  H69  1  0.35129000  0.72669000  0.60362000  1.0
  H  H70  1  0.14869000  0.22669000  0.39637000  1.0
  H  H71  1  0.14870000  0.27331000  0.10362000  1.0
  H  H72  1  0.62957000  0.09707000  0.16360000  1.0
  H  H73  1  0.62960000  0.40294000  0.33642000  1.0
  H  H74  1  0.87041000  0.90294000  0.66359000  1.0
  H  H75  1  0.87040000  0.59706000  0.83642000  1.0
  H  H76  1  0.37043000  0.90293000  0.83640000  1.0
  H  H77  1  0.37039000  0.59706000  0.66358000  1.0
  H  H78  1  0.12959000  0.09708000  0.33640000  1.0
  H  H79  1  0.12960000  0.40292000  0.16359000  1.0
  H  H80  1  0.91268000  0.47267000  0.90872000  1.0
  H  H81  1  0.91269000  0.02732000  0.59129000  1.0
  H  H82  1  0.58732000  0.52730000  0.40871000  1.0
  H  H83  1  0.58732000  0.97268000  0.09129000  1.0
  H  H84  1  0.08733000  0.52733000  0.09129000  1.0
  H  H85  1  0.08731000  0.97268000  0.40870000  1.0
  H  H86  1  0.41268000  0.47270000  0.59129000  1.0
  H  H87  1  0.41269000  0.02733000  0.90870000  1.0
  H  H88  1  0.01711000  0.59356000  0.90361000  1.0
  H  H89  1  0.01712000  0.90643000  0.59639000  1.0
  H  H90  1  0.48287000  0.40642000  0.40362000  1.0
  H  H91  1  0.48288000  0.09356000  0.09638000  1.0
  H  H92  1  0.98289000  0.40644000  0.09639000  1.0
  H  H93  1  0.98287000  0.09357000  0.40361000  1.0
  H  H94  1  0.51713000  0.59358000  0.59638000  1.0
  H  H95  1  0.51712000  0.90643000  0.90360000  1.0
  H  H96  1  0.90605000  0.67365000  0.07899000  1.0
  H  H97  1  0.90606000  0.82635000  0.42101000  1.0
  H  H98  1  0.59392000  0.32634000  0.57901000  1.0
  H  H99  1  0.59394000  0.17366000  0.92099000  1.0
  H  H100  1  0.09395000  0.32635000  0.92101000  1.0
  H  H101  1  0.09395000  0.17365000  0.57899000  1.0
  H  H102  1  0.40608000  0.67365000  0.42098000  1.0
  H  H103  1  0.40605000  0.82633000  0.07899000  1.0
  H  H104  1  0.81304000  0.54676000  0.08007000  1.0
  H  H105  1  0.81305000  0.95325000  0.41993000  1.0
  H  H106  1  0.68693000  0.45323000  0.58008000  1.0
  H  H107  1  0.68696000  0.04676000  0.91993000  1.0
  H  H108  1  0.18696000  0.45324000  0.91993000  1.0
  H  H109  1  0.18696000  0.04676000  0.58006000  1.0
  H  H110  1  0.31306000  0.54676000  0.41992000  1.0
  H  H111  1  0.31304000  0.95323000  0.08006000  1.0
  H  H112  1  0.06701000  0.72068000  0.94534000  1.0
  H  H113  1  0.06703000  0.77932000  0.55465000  1.0
  H  H114  1  0.43295000  0.27931000  0.44537000  1.0
  H  H115  1  0.43295000  0.22067000  0.05464000  1.0
  H  H116  1  0.93298000  0.27932000  0.05466000  1.0
  H  H117  1  0.93296000  0.22068000  0.44536000  1.0
  H  H118  1  0.56706000  0.72068000  0.55463000  1.0
  H  H119  1  0.56703000  0.77932000  0.94534000  1.0
  H  H120  1  0.07604000  0.71810000  0.02698000  1.0
  H  H121  1  0.07603000  0.78190000  0.47300000  1.0
  H  H122  1  0.42395000  0.28188000  0.52701000  1.0
  H  H123  1  0.42396000  0.21810000  0.97299000  1.0
  H  H124  1  0.92396000  0.28190000  0.97301000  1.0
  H  H125  1  0.92397000  0.21811000  0.52700000  1.0
  H  H126  1  0.57606000  0.71811000  0.47298000  1.0
  H  H127  1  0.57604000  0.78189000  0.02699000  1.0
  H  H128  1  0.92391000  0.80450000  0.95400000  1.0
  H  H129  1  0.92393000  0.69551000  0.54602000  1.0
  H  H130  1  0.57607000  0.19551000  0.45401000  1.0
  H  H131  1  0.57606000  0.30448000  0.04601000  1.0
  H  H132  1  0.07607000  0.19551000  0.04602000  1.0
  H  H133  1  0.07606000  0.30449000  0.45397000  1.0
  H  H134  1  0.42394000  0.80448000  0.54599000  1.0
  H  H135  1  0.42393000  0.69550000  0.95398000  1.0
  H  H136  1  0.93203000  0.80220000  0.03579000  1.0
  H  H137  1  0.93201000  0.69780000  0.46424000  1.0
  H  H138  1  0.56797000  0.19779000  0.53580000  1.0
  H  H139  1  0.56798000  0.30221000  0.96423000  1.0
  H  H140  1  0.06798000  0.19780000  0.96423000  1.0
  H  H141  1  0.06800000  0.30221000  0.53575000  1.0
  H  H142  1  0.43203000  0.80221000  0.46420000  1.0
  H  H143  1  0.43202000  0.69779000  0.03577000  1.0
  H  H144  1  0.05100000  0.87482000  0.89135000  1.0
  H  H145  1  0.05100000  0.62516000  0.60866000  1.0
  H  H146  1  0.44900000  0.12519000  0.39135000  1.0
  H  H147  1  0.44900000  0.37483000  0.10866000  1.0
  H  H148  1  0.94899000  0.12517000  0.10866000  1.0
  H  H149  1  0.94900000  0.37485000  0.39134000  1.0
  H  H150  1  0.55100000  0.87481000  0.60865000  1.0
  H  H151  1  0.55100000  0.62516000  0.89135000  1.0
  H  H152  1  0.15850000  0.99299000  0.89317000  1.0
  H  H153  1  0.15850000  0.50700000  0.60682000  1.0
  H  H154  1  0.34151000  0.00702000  0.39316000  1.0
  H  H155  1  0.34151000  0.49300000  0.10682000  1.0
  H  H156  1  0.84149000  0.00701000  0.10683000  1.0
  H  H157  1  0.84150000  0.49302000  0.39318000  1.0
  H  H158  1  0.65850000  0.99298000  0.60683000  1.0
  H  H159  1  0.65848000  0.50698000  0.89318000  1.0
  H  H160  1  0.14212000  0.01153000  0.08471000  1.0
  H  H161  1  0.14211000  0.48850000  0.41528000  1.0
  H  H162  1  0.35787000  0.98844000  0.58470000  1.0
  H  H163  1  0.35788000  0.51152000  0.91528000  1.0
  H  H164  1  0.85789000  0.98848000  0.91529000  1.0
  H  H165  1  0.85789000  0.51150000  0.58472000  1.0
  H  H166  1  0.64213000  0.01155000  0.41529000  1.0
  H  H167  1  0.64212000  0.48848000  0.08472000  1.0
  H  H168  1  0.03091000  0.89534000  0.09059000  1.0
  H  H169  1  0.03090000  0.60468000  0.40941000  1.0
  H  H170  1  0.46909000  0.10462000  0.59060000  1.0
  H  H171  1  0.46909000  0.39533000  0.90941000  1.0
  H  H172  1  0.96910000  0.10467000  0.90941000  1.0
  H  H173  1  0.96911000  0.39532000  0.59058000  1.0
  H  H174  1  0.53091000  0.89536000  0.40940000  1.0
  H  H175  1  0.53091000  0.60466000  0.09059000  1.0
  C  C176  1  0.74633000  0.75481000  0.34638000  1.0
  C  C177  1  0.74633000  0.74518000  0.15364000  1.0
  C  C178  1  0.75367000  0.24518000  0.84637000  1.0
  C  C179  1  0.75368000  0.25483000  0.65364000  1.0
  C  C180  1  0.25367000  0.24519000  0.65363000  1.0
  C  C181  1  0.25367000  0.25484000  0.84636000  1.0
  C  C182  1  0.24634000  0.75483000  0.15363000  1.0
  C  C183  1  0.24632000  0.74517000  0.34636000  1.0
  C  C184  1  0.81726000  0.79876000  0.31906000  1.0
  C  C185  1  0.81726000  0.70123000  0.18094000  1.0
  C  C186  1  0.68274000  0.20123000  0.81905000  1.0
  C  C187  1  0.68274000  0.29877000  0.68095000  1.0
  C  C188  1  0.18274000  0.20124000  0.68094000  1.0
  C  C189  1  0.18274000  0.29878000  0.81905000  1.0
  C  C190  1  0.31727000  0.79877000  0.18094000  1.0
  C  C191  1  0.31725000  0.70124000  0.31905000  1.0
  C  C192  1  0.80061000  0.87072000  0.28613000  1.0
  C  C193  1  0.80060000  0.62927000  0.21387000  1.0
  C  C194  1  0.69939000  0.12927000  0.78613000  1.0
  C  C195  1  0.69939000  0.37073000  0.71388000  1.0
  C  C196  1  0.19939000  0.12928000  0.71387000  1.0
  C  C197  1  0.19939000  0.37074000  0.78612000  1.0
  C  C198  1  0.30062000  0.87074000  0.21387000  1.0
  C  C199  1  0.30060000  0.62927000  0.28613000  1.0
  C  C200  1  0.71162000  0.89828000  0.27795000  1.0
  C  C201  1  0.71162000  0.60171000  0.22206000  1.0
  C  C202  1  0.78838000  0.10171000  0.77795000  1.0
  C  C203  1  0.78838000  0.39829000  0.72206000  1.0
  C  C204  1  0.28838000  0.10172000  0.72205000  1.0
  C  C205  1  0.28838000  0.39830000  0.77794000  1.0
  C  C206  1  0.21164000  0.89830000  0.22205000  1.0
  C  C207  1  0.21163000  0.60170000  0.27794000  1.0
  C  C208  1  0.64016000  0.85215000  0.30270000  1.0
  C  C209  1  0.64015000  0.64783000  0.19731000  1.0
  C  C210  1  0.85984000  0.14783000  0.80270000  1.0
  C  C211  1  0.85984000  0.35217000  0.69731000  1.0
  C  C212  1  0.35984000  0.14784000  0.69729000  1.0
  C  C213  1  0.35984000  0.35217000  0.80269000  1.0
  C  C214  1  0.14017000  0.85217000  0.19730000  1.0
  C  C215  1  0.14016000  0.64783000  0.30269000  1.0
  C  C216  1  0.65741000  0.78197000  0.33768000  1.0
  C  C217  1  0.65741000  0.71802000  0.16233000  1.0
  C  C218  1  0.84258000  0.21802000  0.83768000  1.0
  C  C219  1  0.84258000  0.28199000  0.66233000  1.0
  C  C220  1  0.34258000  0.21803000  0.66231000  1.0
  C  C221  1  0.34258000  0.28199000  0.83767000  1.0
  C  C222  1  0.15743000  0.78199000  0.16233000  1.0
  C  C223  1  0.15741000  0.71801000  0.33768000  1.0
  C  C224  1  0.76063000  0.10506000  0.20633000  1.0
  C  C225  1  0.76065000  0.39494000  0.29368000  1.0
  C  C226  1  0.73935000  0.89494000  0.70633000  1.0
  C  C227  1  0.73935000  0.60506000  0.79368000  1.0
  C  C228  1  0.23937000  0.89494000  0.79367000  1.0
  C  C229  1  0.23934000  0.60506000  0.70632000  1.0
  C  C230  1  0.26065000  0.10507000  0.29368000  1.0
  C  C231  1  0.26065000  0.39493000  0.20632000  1.0
  C  C232  1  0.84086000  0.15080000  0.21066000  1.0
  C  C233  1  0.84088000  0.34921000  0.28935000  1.0
  C  C234  1  0.65913000  0.84920000  0.71066000  1.0
  C  C235  1  0.65912000  0.65079000  0.78935000  1.0
  C  C236  1  0.15914000  0.84920000  0.78934000  1.0
  C  C237  1  0.15910000  0.65080000  0.71064000  1.0
  C  C238  1  0.34088000  0.15080000  0.28935000  1.0
  C  C239  1  0.34088000  0.34920000  0.21065000  1.0
  C  C240  1  0.84925000  0.22504000  0.17934000  1.0
  C  C241  1  0.84927000  0.27496000  0.32068000  1.0
  C  C242  1  0.65073000  0.77496000  0.67933000  1.0
  C  C243  1  0.65073000  0.72504000  0.82068000  1.0
  C  C244  1  0.15074000  0.77495000  0.82067000  1.0
  C  C245  1  0.15072000  0.72504000  0.67932000  1.0
  C  C246  1  0.34928000  0.22504000  0.32068000  1.0
  C  C247  1  0.34927000  0.27495000  0.17932000  1.0
  C  C248  1  0.77953000  0.25437000  0.14143000  1.0
  C  C249  1  0.77953000  0.24563000  0.35859000  1.0
  C  C250  1  0.72046000  0.74563000  0.64142000  1.0
  C  C251  1  0.72046000  0.75437000  0.85858000  1.0
  C  C252  1  0.22047000  0.74563000  0.85858000  1.0
  C  C253  1  0.22046000  0.75438000  0.64141000  1.0
  C  C254  1  0.27955000  0.25438000  0.35858000  1.0
  C  C255  1  0.27955000  0.24562000  0.14142000  1.0
  C  C256  1  0.70196000  0.20592000  0.13468000  1.0
  C  C257  1  0.70198000  0.29409000  0.36534000  1.0
  C  C258  1  0.79802000  0.79409000  0.63467000  1.0
  C  C259  1  0.79802000  0.70591000  0.86534000  1.0
  C  C260  1  0.29804000  0.79408000  0.86533000  1.0
  C  C261  1  0.29801000  0.70592000  0.63466000  1.0
  C  C262  1  0.20198000  0.20592000  0.36533000  1.0
  C  C263  1  0.20199000  0.29408000  0.13466000  1.0
  C  C264  1  0.69099000  0.13293000  0.16735000  1.0
  C  C265  1  0.69102000  0.36708000  0.33268000  1.0
  C  C266  1  0.80899000  0.86708000  0.66734000  1.0
  C  C267  1  0.80898000  0.63292000  0.83267000  1.0
  C  C268  1  0.30900000  0.86707000  0.83266000  1.0
  C  C269  1  0.30897000  0.63292000  0.66733000  1.0
  C  C270  1  0.19101000  0.13293000  0.33266000  1.0
  C  C271  1  0.19102000  0.36707000  0.16733000  1.0
  C  C272  1  0.76830000  0.68073000  0.38541000  1.0
  C  C273  1  0.76830000  0.81926000  0.11459000  1.0
  C  C274  1  0.73170000  0.31926000  0.88541000  1.0
  C  C275  1  0.73170000  0.18075000  0.61460000  1.0
  C  C276  1  0.23170000  0.31927000  0.61459000  1.0
  C  C277  1  0.23170000  0.18075000  0.88541000  1.0
  C  C278  1  0.26830000  0.68075000  0.11459000  1.0
  C  C279  1  0.26828000  0.81925000  0.38540000  1.0
  C  C280  1  0.78743000  0.33607000  0.10960000  1.0
  C  C281  1  0.78742000  0.16392000  0.39041000  1.0
  C  C282  1  0.71256000  0.66393000  0.60960000  1.0
  C  C283  1  0.71258000  0.83608000  0.89040000  1.0
  C  C284  1  0.21257000  0.66392000  0.89040000  1.0
  C  C285  1  0.21258000  0.83609000  0.60959000  1.0
  C  C286  1  0.28744000  0.33608000  0.39040000  1.0
  C  C287  1  0.28743000  0.16392000  0.10960000  1.0
  C  C288  1  0.68991000  0.97238000  0.23962000  1.0
  C  C289  1  0.68992000  0.52761000  0.26038000  1.0
  C  C290  1  0.81009000  0.02761000  0.73963000  1.0
  C  C291  1  0.81008000  0.47238000  0.76039000  1.0
  C  C292  1  0.31009000  0.02761000  0.76037000  1.0
  C  C293  1  0.31008000  0.47240000  0.73962000  1.0
  C  C294  1  0.18993000  0.97239000  0.26038000  1.0
  C  C295  1  0.18992000  0.52760000  0.23962000  1.0
  C  C296  1  0.91460000  0.51821000  0.94590000  1.0
  C  C297  1  0.91461000  0.98178000  0.55410000  1.0
  C  C298  1  0.58539000  0.48176000  0.44590000  1.0
  C  C299  1  0.58539000  0.01822000  0.05410000  1.0
  C  C300  1  0.08539000  0.48179000  0.05410000  1.0
  C  C301  1  0.08538000  0.01822000  0.44589000  1.0
  C  C302  1  0.41461000  0.51823000  0.55410000  1.0
  C  C303  1  0.41462000  0.98178000  0.94589000  1.0
  C  C304  1  0.97082000  0.58654000  0.94269000  1.0
  C  C305  1  0.97083000  0.91346000  0.55731000  1.0
  C  C306  1  0.52917000  0.41344000  0.44270000  1.0
  C  C307  1  0.52917000  0.08654000  0.05730000  1.0
  C  C308  1  0.02918000  0.41346000  0.05731000  1.0
  C  C309  1  0.02917000  0.08655000  0.44269000  1.0
  C  C310  1  0.47084000  0.58656000  0.55729000  1.0
  C  C311  1  0.47083000  0.91345000  0.94269000  1.0
  C  C312  1  0.96889000  0.64514000  0.99029000  1.0
  C  C313  1  0.96890000  0.85487000  0.50971000  1.0
  C  C314  1  0.53108000  0.35485000  0.49030000  1.0
  C  C315  1  0.53110000  0.14514000  0.00970000  1.0
  C  C316  1  0.03111000  0.35487000  0.00972000  1.0
  C  C317  1  0.03110000  0.14514000  0.49029000  1.0
  C  C318  1  0.46891000  0.64514000  0.50969000  1.0
  C  C319  1  0.46889000  0.85486000  0.99028000  1.0
  C  C320  1  0.91053000  0.63060000  0.04039000  1.0
  C  C321  1  0.91054000  0.86941000  0.45961000  1.0
  C  C322  1  0.58944000  0.36939000  0.54041000  1.0
  C  C323  1  0.58946000  0.13060000  0.95960000  1.0
  C  C324  1  0.08946000  0.36940000  0.95961000  1.0
  C  C325  1  0.08946000  0.13060000  0.54038000  1.0
  C  C326  1  0.41056000  0.63060000  0.45959000  1.0
  C  C327  1  0.41054000  0.86939000  0.04038000  1.0
  C  C328  1  0.85746000  0.56058000  0.04107000  1.0
  C  C329  1  0.85746000  0.93942000  0.45893000  1.0
  C  C330  1  0.64252000  0.43941000  0.54108000  1.0
  C  C331  1  0.64254000  0.06058000  0.95893000  1.0
  C  C332  1  0.14254000  0.43942000  0.95893000  1.0
  C  C333  1  0.14254000  0.06058000  0.54106000  1.0
  C  C334  1  0.35748000  0.56058000  0.45892000  1.0
  C  C335  1  0.35746000  0.93941000  0.04106000  1.0
  C  C336  1  0.02721000  0.72056000  0.98834000  1.0
  C  C337  1  0.02722000  0.77944000  0.51166000  1.0
  C  C338  1  0.47276000  0.27943000  0.48836000  1.0
  C  C339  1  0.47277000  0.22056000  0.01165000  1.0
  C  C340  1  0.97278000  0.27944000  0.01166000  1.0
  C  C341  1  0.97278000  0.22057000  0.48834000  1.0
  C  C342  1  0.52724000  0.72056000  0.51164000  1.0
  C  C343  1  0.52722000  0.77943000  0.98833000  1.0
  C  C344  1  0.97196000  0.80093000  0.99283000  1.0
  C  C345  1  0.97195000  0.69907000  0.50719000  1.0
  C  C346  1  0.52803000  0.19906000  0.49284000  1.0
  C  C347  1  0.52804000  0.30092000  0.00718000  1.0
  C  C348  1  0.02805000  0.19908000  0.00718000  1.0
  C  C349  1  0.02805000  0.30093000  0.49281000  1.0
  C  C350  1  0.47197000  0.80093000  0.50716000  1.0
  C  C351  1  0.47196000  0.69906000  0.99282000  1.0
  C  C352  1  0.03351000  0.87388000  0.99142000  1.0
  C  C353  1  0.03351000  0.62612000  0.50858000  1.0
  C  C354  1  0.46648000  0.12611000  0.49142000  1.0
  C  C355  1  0.46648000  0.37388000  0.00858000  1.0
  C  C356  1  0.96649000  0.12612000  0.00858000  1.0
  C  C357  1  0.96649000  0.37389000  0.49141000  1.0
  C  C358  1  0.53352000  0.87389000  0.50858000  1.0
  C  C359  1  0.53351000  0.62611000  0.99142000  1.0
  C  C360  1  0.06962000  0.90290000  0.93542000  1.0
  C  C361  1  0.06961000  0.59709000  0.56458000  1.0
  C  C362  1  0.43038000  0.09709000  0.43542000  1.0
  C  C363  1  0.43039000  0.40290000  0.06458000  1.0
  C  C364  1  0.93038000  0.09710000  0.06458000  1.0
  C  C365  1  0.93038000  0.40292000  0.43542000  1.0
  C  C366  1  0.56962000  0.90290000  0.56458000  1.0
  C  C367  1  0.56962000  0.59708000  0.93542000  1.0
  C  C368  1  0.13002000  0.96791000  0.93580000  1.0
  C  C369  1  0.13001000  0.53209000  0.56420000  1.0
  C  C370  1  0.36998000  0.03209000  0.43580000  1.0
  C  C371  1  0.36999000  0.46791000  0.06420000  1.0
  C  C372  1  0.86998000  0.03210000  0.06420000  1.0
  C  C373  1  0.86998000  0.46792000  0.43580000  1.0
  C  C374  1  0.63002000  0.96791000  0.56420000  1.0
  C  C375  1  0.63001000  0.53208000  0.93581000  1.0
  C  C376  1  0.12023000  0.97867000  0.04311000  1.0
  C  C377  1  0.12022000  0.52135000  0.45688000  1.0
  C  C378  1  0.37978000  0.02131000  0.54311000  1.0
  C  C379  1  0.37978000  0.47866000  0.95688000  1.0
  C  C380  1  0.87978000  0.02134000  0.95689000  1.0
  C  C381  1  0.87978000  0.47866000  0.54312000  1.0
  C  C382  1  0.62022000  0.97868000  0.45689000  1.0
  C  C383  1  0.62022000  0.52133000  0.04312000  1.0
  C  C384  1  0.05926000  0.91405000  0.04612000  1.0
  C  C385  1  0.05926000  0.58597000  0.45388000  1.0
  C  C386  1  0.44074000  0.08594000  0.54612000  1.0
  C  C387  1  0.44073000  0.41404000  0.95388000  1.0
  C  C388  1  0.94075000  0.08596000  0.95388000  1.0
  C  C389  1  0.94075000  0.41404000  0.54611000  1.0
  C  C390  1  0.55926000  0.91406000  0.45388000  1.0
  C  C391  1  0.55926000  0.58596000  0.04612000  1.0
  N  N392  1  0.75492000  0.03284000  0.24153000  1.0
  N  N393  1  0.75493000  0.46716000  0.25849000  1.0
  N  N394  1  0.74508000  0.96715000  0.74153000  1.0
  N  N395  1  0.74507000  0.53284000  0.75849000  1.0
  N  N396  1  0.24508000  0.96715000  0.75847000  1.0
  N  N397  1  0.24506000  0.53285000  0.74151000  1.0
  N  N398  1  0.25494000  0.03285000  0.25848000  1.0
  N  N399  1  0.25493000  0.46715000  0.24152000  1.0
  N  N400  1  0.15554000  0.00495000  0.98897000  1.0
  N  N401  1  0.15553000  0.49507000  0.51102000  1.0
  N  N402  1  0.34446000  0.99504000  0.48897000  1.0
  N  N403  1  0.34447000  0.50494000  0.01103000  1.0
  N  N404  1  0.84447000  0.99506000  0.01103000  1.0
  N  N405  1  0.84447000  0.50494000  0.48898000  1.0
  N  N406  1  0.65554000  0.00495000  0.51103000  1.0
  N  N407  1  0.65553000  0.49505000  0.98898000  1.0
  N  N408  1  0.85865000  0.50536000  0.99428000  1.0
  N  N409  1  0.85866000  0.99464000  0.50573000  1.0
  N  N410  1  0.64133000  0.49462000  0.49428000  1.0
  N  N411  1  0.64134000  0.00537000  0.00573000  1.0
  N  N412  1  0.14135000  0.49464000  0.00572000  1.0
  N  N413  1  0.14134000  0.00537000  0.49427000  1.0
  N  N414  1  0.35867000  0.50538000  0.50573000  1.0
  N  N415  1  0.35866000  0.99463000  0.99426000  1.0
  O  O416  1  0.73771000  0.34305000  0.05999000  1.0
  O  O417  1  0.73771000  0.15693000  0.44002000  1.0
  O  O418  1  0.76227000  0.65695000  0.55999000  1.0
  O  O419  1  0.76228000  0.84306000  0.94002000  1.0
  O  O420  1  0.26229000  0.65694000  0.94002000  1.0
  O  O421  1  0.26227000  0.84307000  0.55997000  1.0
  O  O422  1  0.23773000  0.34307000  0.44001000  1.0
  O  O423  1  0.23774000  0.15694000  0.05998000  1.0
  O  O424  1  0.83841000  0.39081000  0.13080000  1.0
  O  O425  1  0.83839000  0.10918000  0.36920000  1.0
  O  O426  1  0.66158000  0.60919000  0.63080000  1.0
  O  O427  1  0.66161000  0.89081000  0.86920000  1.0
  O  O428  1  0.16159000  0.60919000  0.86921000  1.0
  O  O429  1  0.16162000  0.89082000  0.63080000  1.0
  O  O430  1  0.33842000  0.39081000  0.36920000  1.0
  O  O431  1  0.33840000  0.10918000  0.13080000  1.0
  O  O432  1  0.84589000  0.65058000  0.38378000  1.0
  O  O433  1  0.84588000  0.84943000  0.11624000  1.0
  O  O434  1  0.65412000  0.34942000  0.88376000  1.0
  O  O435  1  0.65412000  0.15058000  0.61625000  1.0
  O  O436  1  0.15411000  0.34942000  0.61622000  1.0
  O  O437  1  0.15411000  0.15059000  0.88376000  1.0
  O  O438  1  0.34589000  0.65059000  0.11623000  1.0
  O  O439  1  0.34587000  0.84942000  0.38376000  1.0
  O  O440  1  0.70287000  0.65452000  0.42069000  1.0
  O  O441  1  0.70287000  0.84545000  0.07931000  1.0
  O  O442  1  0.79712000  0.34545000  0.92069000  1.0
  O  O443  1  0.79713000  0.15456000  0.57932000  1.0
  O  O444  1  0.29713000  0.34547000  0.57932000  1.0
  O  O445  1  0.29713000  0.15456000  0.92068000  1.0
  O  O446  1  0.20288000  0.65456000  0.07931000  1.0
  O  O447  1  0.20286000  0.84544000  0.42068000  1.0
  O  O448  1  0.61958000  0.97658000  0.20858000  1.0
  O  O449  1  0.61958000  0.52340000  0.29143000  1.0
  O  O450  1  0.88042000  0.02341000  0.70858000  1.0
  O  O451  1  0.88041000  0.47660000  0.79143000  1.0
  O  O452  1  0.38043000  0.02341000  0.79141000  1.0
  O  O453  1  0.38041000  0.47662000  0.70857000  1.0
  O  O454  1  0.11959000  0.97660000  0.29143000  1.0
  O  O455  1  0.11959000  0.52339000  0.20857000  1.0
