# generated using pymatgen
data_Zn4H46C59(NO5)4
_symmetry_space_group_name_H-M   'P 1'
_cell_length_a   9.77850000
_cell_length_b   11.05370000
_cell_length_c   22.20680000
_cell_angle_alpha   89.94930000
_cell_angle_beta   90.73650000
_cell_angle_gamma   89.99950000
_symmetry_Int_Tables_number   1
_chemical_formula_structural   Zn4H46C59(NO5)4
_chemical_formula_sum   'Zn4 H46 C59 N4 O20'
_cell_volume   2400.10279996
_cell_formula_units_Z   1
loop_
 _symmetry_equiv_pos_site_id
 _symmetry_equiv_pos_as_xyz
  1  'x, y, z'
loop_
 _atom_site_type_symbol
 _atom_site_label
 _atom_site_symmetry_multiplicity
 _atom_site_fract_x
 _atom_site_fract_y
 _atom_site_fract_z
 _atom_site_occupancy
  Zn  Zn0  1  0.34393000  0.50073000  0.49338000  1.0
  Zn  Zn1  1  0.62870000  0.49983000  0.50148000  1.0
  Zn  Zn2  1  0.65837000  0.48148000  0.99637000  1.0
  Zn  Zn3  1  0.37303000  0.48973000  0.99856000  1.0
  H  H4  1  0.83860000  0.62693000  0.43633000  1.0
  H  H5  1  0.89119000  0.37770000  0.63484000  1.0
  H  H6  1  0.88081000  0.25797000  0.58113000  1.0
  H  H7  1  0.13916000  0.26467000  0.57061000  1.0
  H  H8  1  0.14704000  0.38590000  0.62363000  1.0
  H  H9  1  0.28288000  0.11497000  0.53076000  1.0
  H  H10  1  0.77623000  0.11081000  0.42944000  1.0
  H  H11  1  0.82532000  0.11186000  0.50699000  1.0
  H  H12  1  0.82195000  0.88447000  0.50896000  1.0
  H  H13  1  0.77256000  0.88300000  0.43116000  1.0
  H  H14  1  0.32086000  0.68192000  0.86250000  1.0
  H  H15  1  0.27293000  0.66723000  0.64054000  1.0
  H  H16  1  0.72490000  0.47536000  0.19245000  1.0
  H  H17  1  0.18475000  0.54911000  0.18833000  1.0
  H  H18  1  0.18835000  0.38813000  0.19271000  1.0
  H  H19  1  0.19105000  0.40212000  0.30664000  1.0
  H  H20  1  0.18950000  0.56288000  0.30071000  1.0
  H  H21  1  0.15023000  0.60790000  0.06943000  1.0
  H  H22  1  0.14316000  0.39188000  0.86243000  1.0
  H  H23  1  0.14794000  0.26347000  0.91136000  1.0
  H  H24  1  0.88698000  0.26136000  0.91132000  1.0
  H  H25  1  0.88857000  0.38916000  0.86201000  1.0
  H  H26  1  0.72438000  0.10167000  0.96202000  1.0
  H  H27  1  0.21878000  0.10018000  0.05104000  1.0
  H  H28  1  0.17865000  0.08774000  0.97274000  1.0
  H  H29  1  0.18734000  0.86079000  0.98095000  1.0
  H  H30  1  0.23391000  0.87286000  0.05840000  1.0
  H  H31  1  0.10313000  0.75162000  0.42660000  1.0
  H  H32  1  0.21307000  0.63380000  0.40271000  1.0
  H  H33  1  0.04599000  0.65078000  0.36975000  1.0
  H  H34  1  0.18223000  0.84141000  0.50235000  1.0
  H  H35  1  0.26059000  0.80170000  0.57111000  1.0
  H  H36  1  0.17493000  0.94458000  0.56383000  1.0
  H  H37  1  0.79025000  0.57665000  0.33258000  1.0
  H  H38  1  0.78604000  0.41954000  0.34411000  1.0
  H  H39  1  0.85328000  0.47832000  0.27556000  1.0
  H  H40  1  0.95075000  0.68110000  0.11209000  1.0
  H  H41  1  0.80298000  0.69280000  0.06374000  1.0
  H  H42  1  0.81585000  0.57091000  0.11384000  1.0
  H  H43  1  0.82060000  0.81493000  0.98952000  1.0
  H  H44  1  0.75875000  0.80496000  0.91509000  1.0
  H  H45  1  0.84422000  0.93906000  0.93940000  1.0
  H  H46  1  0.65965000  0.40961000  0.64101000  1.0
  H  H47  1  0.68539000  0.41014000  0.84673000  1.0
  H  H48  1  0.17246000  0.83679000  0.85770000  1.0
  H  H49  1  0.12293000  0.82170000  0.65159000  1.0
  C  C50  1  0.48897000  0.26618000  0.50012000  1.0
  C  C51  1  0.46770000  0.50736000  0.61665000  1.0
  C  C52  1  0.49211000  0.73550000  0.50239000  1.0
  C  C53  1  0.50154000  0.49766000  0.37992000  1.0
  C  C54  1  0.51734000  0.25133000  0.98756000  1.0
  C  C55  1  0.50088000  0.50630000  0.87769000  1.0
  C  C56  1  0.51729000  0.72170000  0.99514000  1.0
  C  C57  1  0.50568000  0.47312000  0.11541000  1.0
  C  C58  1  0.92420000  0.43634000  0.54052000  1.0
  C  C59  1  0.04707000  0.57587000  0.45849000  1.0
  C  C60  1  0.06588000  0.43950000  0.53455000  1.0
  C  C61  1  0.90450000  0.57201000  0.46532000  1.0
  C  C62  1  0.92907000  0.34534000  0.59141000  1.0
  C  C63  1  0.09059000  0.34929000  0.58470000  1.0
  C  C64  1  0.49146000  0.13158000  0.50358000  1.0
  C  C65  1  0.48949000  0.87035000  0.50620000  1.0
  C  C66  1  0.60772000  0.06365000  0.49129000  1.0
  C  C67  1  0.37087000  0.93789000  0.52136000  1.0
  C  C68  1  0.60587000  0.93746000  0.49276000  1.0
  C  C69  1  0.37498000  0.06458000  0.51947000  1.0
  C  C70  1  0.75670000  0.06964000  0.47353000  1.0
  C  C71  1  0.75474000  0.92659000  0.47487000  1.0
  C  C72  1  0.49472000  0.52100000  0.81135000  1.0
  C  C73  1  0.39395000  0.59564000  0.78155000  1.0
  C  C74  1  0.59009000  0.45729000  0.77746000  1.0
  C  C75  1  0.31132000  0.67810000  0.81361000  1.0
  C  C76  1  0.22117000  0.75598000  0.78507000  1.0
  C  C77  1  0.47517000  0.51870000  0.68309000  1.0
  C  C78  1  0.58125000  0.45684000  0.71327000  1.0
  C  C79  1  0.38226000  0.59302000  0.71709000  1.0
  C  C80  1  0.28474000  0.67049000  0.68930000  1.0
  C  C81  1  0.20652000  0.75125000  0.72160000  1.0
  C  C82  1  0.50665000  0.47406000  0.18260000  1.0
  C  C83  1  0.50964000  0.48809000  0.31284000  1.0
  C  C84  1  0.38687000  0.47456000  0.21574000  1.0
  C  C85  1  0.63404000  0.48544000  0.27988000  1.0
  C  C86  1  0.38924000  0.48101000  0.27848000  1.0
  C  C87  1  0.62874000  0.47814000  0.21676000  1.0
  C  C88  1  0.23217000  0.47161000  0.21156000  1.0
  C  C89  1  0.23438000  0.47976000  0.28257000  1.0
  C  C90  1  0.08801000  0.43317000  0.95597000  1.0
  C  C91  1  0.94745000  0.55782000  0.03786000  1.0
  C  C92  1  0.94547000  0.43268000  0.95662000  1.0
  C  C93  1  0.09089000  0.55668000  0.03635000  1.0
  C  C94  1  0.09749000  0.35036000  0.90235000  1.0
  C  C95  1  0.93502000  0.34923000  0.90257000  1.0
  C  C96  1  0.51282000  0.11675000  0.98397000  1.0
  C  C97  1  0.52065000  0.85564000  0.98716000  1.0
  C  C98  1  0.39591000  0.04845000  0.99442000  1.0
  C  C99  1  0.63906000  0.92365000  0.97137000  1.0
  C  C100  1  0.40167000  0.92242000  0.99691000  1.0
  C  C101  1  0.63192000  0.05037000  0.97166000  1.0
  C  C102  1  0.24499000  0.05314000  0.00921000  1.0
  C  C103  1  0.25209000  0.91050000  0.01339000  1.0
  C  C104  1  0.10650000  0.65683000  0.41166000  1.0
  C  C105  1  0.23991000  0.87836000  0.54088000  1.0
  C  C106  1  0.77359000  0.48989000  0.30950000  1.0
  C  C107  1  0.87657000  0.63013000  0.08478000  1.0
  C  C108  1  0.77287000  0.86765000  0.95302000  1.0
  N  N109  1  0.83992000  0.50148000  0.50592000  1.0
  N  N110  1  0.13104000  0.50649000  0.49410000  1.0
  N  N111  1  0.16375000  0.49340000  0.99568000  1.0
  N  N112  1  0.87155000  0.49230000  0.99690000  1.0
  O  O113  1  0.37466000  0.31959000  0.50766000  1.0
  O  O114  1  0.60288000  0.31777000  0.48945000  1.0
  O  O115  1  0.57809000  0.47018000  0.59021000  1.0
  O  O116  1  0.35867000  0.53061000  0.58725000  1.0
  O  O117  1  0.60551000  0.68310000  0.51424000  1.0
  O  O118  1  0.38166000  0.68284000  0.48615000  1.0
  O  O119  1  0.38418000  0.47854000  0.40284000  1.0
  O  O120  1  0.60961000  0.52464000  0.40976000  1.0
  O  O121  1  0.63546000  0.29971000  0.99273000  1.0
  O  O122  1  0.40328000  0.30714000  0.98622000  1.0
  O  O123  1  0.39308000  0.52093000  0.90801000  1.0
  O  O124  1  0.61706000  0.47484000  0.90166000  1.0
  O  O125  1  0.40230000  0.67474000  0.00800000  1.0
  O  O126  1  0.62897000  0.66291000  0.98936000  1.0
  O  O127  1  0.62011000  0.47692000  0.08858000  1.0
  O  O128  1  0.38831000  0.47048000  0.08975000  1.0
  O  O129  1  0.67837000  0.39231000  0.68528000  1.0
  O  O130  1  0.69247000  0.39153000  0.80227000  1.0
  O  O131  1  0.14467000  0.83991000  0.81543000  1.0
  O  O132  1  0.11515000  0.82985000  0.69510000  1.0
