# generated using pymatgen
data_CuH11C13IN
_symmetry_space_group_name_H-M   'P 1'
_cell_length_a   4.00600000
_cell_length_b   15.75720000
_cell_length_c   18.99710000
_cell_angle_alpha   75.90200000
_cell_angle_beta   89.99870000
_cell_angle_gamma   89.99950000
_symmetry_Int_Tables_number   1
_chemical_formula_structural   CuH11C13IN
_chemical_formula_sum   'Cu4 H44 C52 I4 N4'
_cell_volume   1163.04237137
_cell_formula_units_Z   4
loop_
 _symmetry_equiv_pos_site_id
 _symmetry_equiv_pos_as_xyz
  1  'x, y, z'
loop_
 _atom_site_type_symbol
 _atom_site_label
 _atom_site_symmetry_multiplicity
 _atom_site_fract_x
 _atom_site_fract_y
 _atom_site_fract_z
 _atom_site_occupancy
  Cu  Cu0  1  0.06195000  0.98524000  0.20748000  1.0
  Cu  Cu1  1  0.56195000  0.01477000  0.29252000  1.0
  Cu  Cu2  1  0.93806000  0.01476000  0.79252000  1.0
  Cu  Cu3  1  0.43806000  0.98523000  0.70748000  1.0
  H  H4  1  0.29641000  0.80129000  0.23133000  1.0
  H  H5  1  0.79648000  0.19872000  0.26866000  1.0
  H  H6  1  0.70354000  0.19871000  0.76867000  1.0
  H  H7  1  0.20358000  0.80128000  0.73133000  1.0
  H  H8  1  0.34166000  0.68905000  0.15959000  1.0
  H  H9  1  0.84173000  0.31095000  0.34042000  1.0
  H  H10  1  0.65824000  0.31094000  0.84042000  1.0
  H  H11  1  0.15832000  0.68905000  0.65958000  1.0
  H  H12  1  0.84061000  0.87147000  0.98378000  1.0
  H  H13  1  0.34065000  0.12853000  0.51622000  1.0
  H  H14  1  0.15935000  0.12853000  0.01622000  1.0
  H  H15  1  0.65938000  0.87147000  0.48378000  1.0
  H  H16  1  0.81249000  0.97399000  0.06321000  1.0
  H  H17  1  0.31255000  0.02601000  0.43679000  1.0
  H  H18  1  0.18749000  0.02601000  0.93680000  1.0
  H  H19  1  0.68749000  0.97399000  0.56320000  1.0
  H  H20  1  0.26574000  0.64517000  0.04811000  1.0
  H  H21  1  0.76579000  0.35483000  0.45189000  1.0
  H  H22  1  0.73420000  0.35483000  0.95189000  1.0
  H  H23  1  0.23427000  0.64517000  0.54811000  1.0
  H  H24  1  0.86599000  0.77326000  0.92950000  1.0
  H  H25  1  0.36601000  0.22673000  0.57051000  1.0
  H  H26  1  0.13397000  0.22673000  0.07051000  1.0
  H  H27  1  0.63403000  0.77327000  0.42949000  1.0
  H  H28  1  0.01141000  0.48688000  0.78507000  1.0
  H  H29  1  0.51139000  0.51311000  0.71494000  1.0
  H  H30  1  0.98859000  0.51312000  0.21494000  1.0
  H  H31  1  0.48859000  0.48689000  0.28506000  1.0
  H  H32  1  0.73766000  0.63301000  0.74393000  1.0
  H  H33  1  0.23762000  0.36698000  0.75607000  1.0
  H  H34  1  0.26236000  0.36698000  0.25607000  1.0
  H  H35  1  0.76235000  0.63302000  0.24392000  1.0
  H  H36  1  0.74214000  0.73661000  0.82331000  1.0
  H  H37  1  0.24209000  0.26338000  0.67669000  1.0
  H  H38  1  0.25789000  0.26339000  0.17668000  1.0
  H  H39  1  0.75791000  0.73662000  0.32331000  1.0
  H  H40  1  0.30637000  0.55105000  0.98358000  1.0
  H  H41  1  0.80638000  0.44895000  0.51642000  1.0
  H  H42  1  0.69363000  0.44895000  0.01642000  1.0
  H  H43  1  0.19366000  0.55106000  0.48358000  1.0
  H  H44  1  0.29996000  0.44749000  0.90479000  1.0
  H  H45  1  0.79995000  0.55251000  0.59521000  1.0
  H  H46  1  0.70003000  0.55251000  0.09521000  1.0
  H  H47  1  0.20004000  0.44750000  0.40479000  1.0
  C  C48  1  0.19932000  0.81386000  0.17606000  1.0
  C  C49  1  0.69936000  0.18615000  0.32394000  1.0
  C  C50  1  0.80064000  0.18614000  0.82394000  1.0
  C  C51  1  0.30068000  0.81386000  0.67606000  1.0
  C  C52  1  0.22296000  0.75166000  0.13564000  1.0
  C  C53  1  0.72301000  0.24834000  0.36436000  1.0
  C  C54  1  0.77697000  0.24833000  0.86437000  1.0
  C  C55  1  0.27704000  0.75166000  0.63564000  1.0
  C  C56  1  0.09840000  0.76939000  0.06420000  1.0
  C  C57  1  0.59845000  0.23061000  0.43579000  1.0
  C  C58  1  0.90155000  0.23060000  0.93580000  1.0
  C  C59  1  0.40159000  0.76940000  0.56420000  1.0
  C  C60  1  0.94756000  0.85203000  0.03812000  1.0
  C  C61  1  0.44761000  0.14796000  0.46187000  1.0
  C  C62  1  0.05240000  0.14796000  0.96188000  1.0
  C  C63  1  0.55243000  0.85204000  0.53812000  1.0
  C  C64  1  0.93180000  0.91022000  0.08207000  1.0
  C  C65  1  0.43183000  0.08979000  0.41793000  1.0
  C  C66  1  0.06820000  0.08978000  0.91793000  1.0
  C  C67  1  0.56820000  0.91022000  0.58207000  1.0
  C  C68  1  0.12961000  0.70454000  0.02183000  1.0
  C  C69  1  0.62965000  0.29546000  0.47817000  1.0
  C  C70  1  0.87034000  0.29546000  0.97818000  1.0
  C  C71  1  0.37040000  0.70455000  0.52183000  1.0
  C  C72  1  0.00359000  0.71357000  0.95426000  1.0
  C  C73  1  0.50363000  0.28642000  0.54575000  1.0
  C  C74  1  0.99636000  0.28643000  0.04574000  1.0
  C  C75  1  0.49642000  0.71358000  0.45425000  1.0
  C  C76  1  0.01853000  0.53319000  0.81930000  1.0
  C  C77  1  0.51851000  0.46680000  0.68071000  1.0
  C  C78  1  0.98148000  0.46680000  0.18070000  1.0
  C  C79  1  0.48146000  0.53320000  0.31929000  1.0
  C  C80  1  0.86555000  0.61492000  0.79616000  1.0
  C  C81  1  0.36552000  0.38506000  0.70385000  1.0
  C  C82  1  0.13447000  0.38507000  0.20384000  1.0
  C  C83  1  0.63446000  0.61494000  0.29615000  1.0
  C  C84  1  0.86723000  0.67334000  0.84055000  1.0
  C  C85  1  0.36722000  0.32665000  0.65945000  1.0
  C  C86  1  0.13277000  0.32666000  0.15945000  1.0
  C  C87  1  0.63279000  0.67335000  0.34054000  1.0
  C  C88  1  0.02240000  0.65123000  0.90923000  1.0
  C  C89  1  0.52242000  0.34876000  0.59078000  1.0
  C  C90  1  0.97758000  0.34877000  0.09077000  1.0
  C  C91  1  0.47761000  0.65124000  0.40922000  1.0
  C  C92  1  0.18193000  0.56933000  0.93111000  1.0
  C  C93  1  0.68195000  0.43066000  0.56890000  1.0
  C  C94  1  0.81804000  0.43067000  0.06890000  1.0
  C  C95  1  0.31809000  0.56935000  0.43110000  1.0
  C  C96  1  0.17844000  0.51098000  0.88676000  1.0
  C  C97  1  0.67841000  0.48901000  0.61324000  1.0
  C  C98  1  0.82157000  0.48902000  0.11324000  1.0
  C  C99  1  0.32156000  0.51100000  0.38675000  1.0
  I  I100  1  0.06786000  0.90614000  0.34489000  1.0
  I  I101  1  0.56786000  0.09388000  0.15511000  1.0
  I  I102  1  0.93216000  0.09387000  0.65511000  1.0
  I  I103  1  0.43214000  0.90612000  0.84489000  1.0
  N  N104  1  0.05701000  0.89295000  0.15023000  1.0
  N  N105  1  0.55704000  0.10705000  0.34976000  1.0
  N  N106  1  0.94299000  0.10704000  0.84977000  1.0
  N  N107  1  0.44299000  0.89295000  0.65024000  1.0
