# generated using pymatgen
data_Zn2H20C27N7O8F3
_symmetry_space_group_name_H-M   'P 1'
_cell_length_a   9.79621000
_cell_length_b   11.10240000
_cell_length_c   22.21480000
_cell_angle_alpha   90.73490000
_cell_angle_beta   90.31970000
_cell_angle_gamma   91.74700000
_symmetry_Int_Tables_number   1
_chemical_formula_structural   Zn2H20C27N7O8F3
_chemical_formula_sum   'Zn4 H40 C54 N14 O16 F6'
_cell_volume   2414.74889927
_cell_formula_units_Z   2
loop_
 _symmetry_equiv_pos_site_id
 _symmetry_equiv_pos_as_xyz
  1  'x, y, z'
loop_
 _atom_site_type_symbol
 _atom_site_label
 _atom_site_symmetry_multiplicity
 _atom_site_fract_x
 _atom_site_fract_y
 _atom_site_fract_z
 _atom_site_occupancy
  Zn  Zn0  1  0.35372000  0.49302000  0.49599000  1.0
  Zn  Zn1  1  0.64376000  0.50177000  0.50291000  1.0
  Zn  Zn2  1  0.64416000  0.49387000  0.99281000  1.0
  Zn  Zn3  1  0.35543000  0.48319000  0.99752000  1.0
  H  H4  1  0.87698000  0.40185000  0.63415000  1.0
  H  H5  1  0.85859000  0.27547000  0.58396000  1.0
  H  H6  1  0.11558000  0.26313000  0.57901000  1.0
  H  H7  1  0.13308000  0.39102000  0.62849000  1.0
  H  H8  1  0.82016000  0.12730000  0.46201000  1.0
  H  H9  1  0.82122000  0.10870000  0.54173000  1.0
  H  H10  1  0.82331000  0.88449000  0.52746000  1.0
  H  H11  1  0.81277000  0.90385000  0.44780000  1.0
  H  H12  1  0.19432000  0.55428000  0.18500000  1.0
  H  H13  1  0.18976000  0.39518000  0.19376000  1.0
  H  H14  1  0.18525000  0.42611000  0.30665000  1.0
  H  H15  1  0.20240000  0.58513000  0.29542000  1.0
  H  H16  1  0.13557000  0.38271000  0.86731000  1.0
  H  H17  1  0.11213000  0.25353000  0.91383000  1.0
  H  H18  1  0.85713000  0.27098000  0.90520000  1.0
  H  H19  1  0.88040000  0.40024000  0.85892000  1.0
  H  H20  1  0.19192000  0.10787000  0.03336000  1.0
  H  H21  1  0.18467000  0.08410000  0.95368000  1.0
  H  H22  1  0.18269000  0.86013000  0.96824000  1.0
  H  H23  1  0.19433000  0.88489000  0.04799000  1.0
  H  H24  1  0.23432000  0.59663000  0.40073000  1.0
  H  H25  1  0.07809000  0.63894000  0.37428000  1.0
  H  H26  1  0.76777000  0.68277000  0.44018000  1.0
  H  H27  1  0.92463000  0.72908000  0.41326000  1.0
  H  H28  1  0.25266000  0.78552000  0.50906000  1.0
  H  H29  1  0.18100000  0.91798000  0.53081000  1.0
  H  H30  1  0.25694000  0.20365000  0.48927000  1.0
  H  H31  1  0.17643000  0.06580000  0.47622000  1.0
  H  H32  1  0.75248000  0.45601000  0.35367000  1.0
  H  H33  1  0.82380000  0.40174000  0.28861000  1.0
  H  H34  1  0.75652000  0.45406000  0.14233000  1.0
  H  H35  1  0.84097000  0.49295000  0.20893000  1.0
  H  H36  1  0.76660000  0.66005000  0.06837000  1.0
  H  H37  1  0.91795000  0.67040000  0.11118000  1.0
  H  H38  1  0.24626000  0.60957000  0.08632000  1.0
  H  H39  1  0.12255000  0.71455000  0.08447000  1.0
  H  H40  1  0.75374000  0.78661000  0.98782000  1.0
  H  H41  1  0.82337000  0.91809000  0.96024000  1.0
  H  H42  1  0.75243000  0.20689000  0.98670000  1.0
  H  H43  1  0.83271000  0.07850000  0.00890000  1.0
  C  C44  1  0.50602000  0.26420000  0.50122000  1.0
  C  C45  1  0.48183000  0.51530000  0.61535000  1.0
  C  C46  1  0.50049000  0.73512000  0.49446000  1.0
  C  C47  1  0.50618000  0.49122000  0.37912000  1.0
  C  C48  1  0.50274000  0.25483000  0.98661000  1.0
  C  C49  1  0.48606000  0.51808000  0.87991000  1.0
  C  C50  1  0.50270000  0.72710000  0.00450000  1.0
  C  C51  1  0.50821000  0.47209000  0.11444000  1.0
  C  C52  1  0.92824000  0.44382000  0.53961000  1.0
  C  C53  1  0.07257000  0.56280000  0.45634000  1.0
  C  C54  1  0.06742000  0.43714000  0.53639000  1.0
  C  C55  1  0.92683000  0.57910000  0.46374000  1.0
  C  C56  1  0.91557000  0.36050000  0.59269000  1.0
  C  C57  1  0.07734000  0.35312000  0.58932000  1.0
  C  C58  1  0.50077000  0.13066000  0.50100000  1.0
  C  C59  1  0.49760000  0.86822000  0.49555000  1.0
  C  C60  1  0.62025000  0.06394000  0.49967000  1.0
  C  C61  1  0.37475000  0.93243000  0.50016000  1.0
  C  C62  1  0.61871000  0.93957000  0.49468000  1.0
  C  C63  1  0.37622000  0.06192000  0.49940000  1.0
  C  C64  1  0.77470000  0.07584000  0.49925000  1.0
  C  C65  1  0.77302000  0.93418000  0.49148000  1.0
  C  C66  1  0.48229000  0.53082000  0.81223000  1.0
  C  C67  1  0.40284000  0.61589000  0.78076000  1.0
  C  C68  1  0.55708000  0.45096000  0.77903000  1.0
  C  C69  1  0.32723000  0.70487000  0.81122000  1.0
  C  C70  1  0.24737000  0.78454000  0.78080000  1.0
  C  C71  1  0.47881000  0.52853000  0.68325000  1.0
  C  C72  1  0.55564000  0.45005000  0.71571000  1.0
  C  C73  1  0.40035000  0.61425000  0.71555000  1.0
  C  C74  1  0.32102000  0.70100000  0.68616000  1.0
  C  C75  1  0.24400000  0.78234000  0.71753000  1.0
  C  C76  1  0.51222000  0.46933000  0.18111000  1.0
  C  C77  1  0.51232000  0.48529000  0.31240000  1.0
  C  C78  1  0.39233000  0.47899000  0.21509000  1.0
  C  C79  1  0.63496000  0.46936000  0.27988000  1.0
  C  C80  1  0.39282000  0.48918000  0.27721000  1.0
  C  C81  1  0.63520000  0.46383000  0.21506000  1.0
  C  C82  1  0.23798000  0.48022000  0.21023000  1.0
  C  C83  1  0.23882000  0.49674000  0.28082000  1.0
  C  C84  1  0.06773000  0.42717000  0.95928000  1.0
  C  C85  1  0.92989000  0.56926000  0.03393000  1.0
  C  C86  1  0.92886000  0.43715000  0.95489000  1.0
  C  C87  1  0.07738000  0.56050000  0.03769000  1.0
  C  C88  1  0.07712000  0.34462000  0.90492000  1.0
  C  C89  1  0.91593000  0.35582000  0.89973000  1.0
  C  C90  1  0.50752000  0.12158000  0.98827000  1.0
  C  C91  1  0.50774000  0.86012000  0.99996000  1.0
  C  C92  1  0.38754000  0.05009000  0.99349000  1.0
  C  C93  1  0.63107000  0.92892000  0.99262000  1.0
  C  C94  1  0.38770000  0.92633000  0.99980000  1.0
  C  C95  1  0.63110000  0.05809000  0.98848000  1.0
  C  C96  1  0.23336000  0.05561000  0.99567000  1.0
  C  C97  1  0.23354000  0.91440000  0.00402000  1.0
  N  N98  1  0.85340000  0.51416000  0.50376000  1.0
  N  N99  1  0.14390000  0.49428000  0.49431000  1.0
  N  N100  1  0.14597000  0.48805000  0.00037000  1.0
  N  N101  1  0.85484000  0.50589000  0.99238000  1.0
  N  N102  1  0.13675000  0.62217000  0.41084000  1.0
  N  N103  1  0.86461000  0.65922000  0.42762000  1.0
  N  N104  1  0.24649000  0.87611000  0.50255000  1.0
  N  N105  1  0.24932000  0.11425000  0.49967000  1.0
  N  N106  1  0.76152000  0.46275000  0.30795000  1.0
  N  N107  1  0.76087000  0.44887000  0.18821000  1.0
  N  N108  1  0.86859000  0.64491000  0.07280000  1.0
  N  N109  1  0.14407000  0.62545000  0.08248000  1.0
  N  N110  1  0.75896000  0.87829000  0.99037000  1.0
  N  N111  1  0.75842000  0.11533000  0.98343000  1.0
  O  O112  1  0.39520000  0.31776000  0.48804000  1.0
  O  O113  1  0.61920000  0.31885000  0.51356000  1.0
  O  O114  1  0.59637000  0.53911000  0.59120000  1.0
  O  O115  1  0.37261000  0.47857000  0.58963000  1.0
  O  O116  1  0.61524000  0.68555000  0.48576000  1.0
  O  O117  1  0.38893000  0.67455000  0.50308000  1.0
  O  O118  1  0.39019000  0.51207000  0.40289000  1.0
  O  O119  1  0.61465000  0.47426000  0.40998000  1.0
  O  O120  1  0.61412000  0.31537000  0.97571000  1.0
  O  O121  1  0.38816000  0.30220000  0.99677000  1.0
  O  O122  1  0.37606000  0.48279000  0.90460000  1.0
  O  O123  1  0.60096000  0.53978000  0.90497000  1.0
  O  O124  1  0.38819000  0.67170000  0.99768000  1.0
  O  O125  1  0.61564000  0.67310000  0.01482000  1.0
  O  O126  1  0.61834000  0.45600000  0.08469000  1.0
  O  O127  1  0.39304000  0.49258000  0.08959000  1.0
  F  F128  1  0.63008000  0.36587000  0.68737000  1.0
  F  F129  1  0.63203000  0.36701000  0.80661000  1.0
  F  F130  1  0.32010000  0.70884000  0.62552000  1.0
  F  F131  1  0.16803000  0.86233000  0.68808000  1.0
  F  F132  1  0.17492000  0.86692000  0.81103000  1.0
  F  F133  1  0.33333333  0.71658000  0.87178000  1.0
