# generated using pymatgen
data_CaCuH27C19(NO2)5
_symmetry_space_group_name_H-M   'P 1'
_cell_length_a   8.49459000
_cell_length_b   16.87590000
_cell_length_c   18.71460000
_cell_angle_alpha   89.99990000
_cell_angle_beta   89.99980000
_cell_angle_gamma   77.77500000
_symmetry_Int_Tables_number   1
_chemical_formula_structural   CaCuH27C19(NO2)5
_chemical_formula_sum   'Ca4 Cu4 H108 C76 N20 O40'
_cell_volume   2621.97349696
_cell_formula_units_Z   4
loop_
 _symmetry_equiv_pos_site_id
 _symmetry_equiv_pos_as_xyz
  1  'x, y, z'
loop_
 _atom_site_type_symbol
 _atom_site_label
 _atom_site_symmetry_multiplicity
 _atom_site_fract_x
 _atom_site_fract_y
 _atom_site_fract_z
 _atom_site_occupancy
  Ca  Ca0  1  0.44531000  0.11725000  0.96569000  1.0
  Ca  Ca1  1  0.94532000  0.61725000  0.53431000  1.0
  Ca  Ca2  1  0.55469000  0.88275000  0.03432000  1.0
  Ca  Ca3  1  0.05468000  0.38276000  0.46569000  1.0
  Cu  Cu4  1  0.09613000  0.20250000  0.17089000  1.0
  Cu  Cu5  1  0.59613000  0.70250000  0.32911000  1.0
  Cu  Cu6  1  0.90387000  0.79750000  0.82911000  1.0
  Cu  Cu7  1  0.40388000  0.29750000  0.67089000  1.0
  H  H8  1  0.99602000  0.10461000  0.29220000  1.0
  H  H9  1  0.49602000  0.60461000  0.20779000  1.0
  H  H10  1  0.00399000  0.89539000  0.70780000  1.0
  H  H11  1  0.50398000  0.39539000  0.79220000  1.0
  H  H12  1  0.11393000  0.00452000  0.28136000  1.0
  H  H13  1  0.61393000  0.50452000  0.21864000  1.0
  H  H14  1  0.88608000  0.99548000  0.71864000  1.0
  H  H15  1  0.38607000  0.49548000  0.78136000  1.0
  H  H16  1  0.86549000  0.00531000  0.22443000  1.0
  H  H17  1  0.36549000  0.50531000  0.27557000  1.0
  H  H18  1  0.13452000  0.99469000  0.77557000  1.0
  H  H19  1  0.63451000  0.49469000  0.72443000  1.0
  H  H20  1  0.99944000  0.00407000  0.15420000  1.0
  H  H21  1  0.49944000  0.50407000  0.34580000  1.0
  H  H22  1  0.00057000  0.99593000  0.84580000  1.0
  H  H23  1  0.50056000  0.49593000  0.65420000  1.0
  H  H24  1  0.72170000  0.09795000  0.14132000  1.0
  H  H25  1  0.22170000  0.59795000  0.35868000  1.0
  H  H26  1  0.27830000  0.90205000  0.85868000  1.0
  H  H27  1  0.77830000  0.40205000  0.64132000  1.0
  H  H28  1  0.77388000  0.15625000  0.21395000  1.0
  H  H29  1  0.27388000  0.65625000  0.28605000  1.0
  H  H30  1  0.22612000  0.84375000  0.78605000  1.0
  H  H31  1  0.72612000  0.34376000  0.71395000  1.0
  H  H32  1  0.69542000  0.23945000  0.06199000  1.0
  H  H33  1  0.19542000  0.73945000  0.43801000  1.0
  H  H34  1  0.30458000  0.76055000  0.93801000  1.0
  H  H35  1  0.80458000  0.26055000  0.56199000  1.0
  H  H36  1  0.70349000  0.26016000  0.15453000  1.0
  H  H37  1  0.20348000  0.76016000  0.34547000  1.0
  H  H38  1  0.29652000  0.73984000  0.84547000  1.0
  H  H39  1  0.79652000  0.23984000  0.65453000  1.0
  H  H40  1  0.30932000  0.38772000  0.17113000  1.0
  H  H41  1  0.80931000  0.88772000  0.32887000  1.0
  H  H42  1  0.69068000  0.61228000  0.82887000  1.0
  H  H43  1  0.19069000  0.11228000  0.67113000  1.0
  H  H44  1  0.33710000  0.30476000  0.11013000  1.0
  H  H45  1  0.83711000  0.80476000  0.38987000  1.0
  H  H46  1  0.66289000  0.69524000  0.88987000  1.0
  H  H47  1  0.16290000  0.19524000  0.61013000  1.0
  H  H48  1  0.50621000  0.26299000  0.24077000  1.0
  H  H49  1  0.00621000  0.76299000  0.25922000  1.0
  H  H50  1  0.49378000  0.73702000  0.75923000  1.0
  H  H51  1  0.99379000  0.23701000  0.74077000  1.0
  H  H52  1  0.46093000  0.20315000  0.16811000  1.0
  H  H53  1  0.96093000  0.70315000  0.33189000  1.0
  H  H54  1  0.53907000  0.79685000  0.83189000  1.0
  H  H55  1  0.03908000  0.29685000  0.66810000  1.0
  H  H56  1  0.46702000  0.16978000  0.32657000  1.0
  H  H57  1  0.96702000  0.66978000  0.17343000  1.0
  H  H58  1  0.53298000  0.83022000  0.67343000  1.0
  H  H59  1  0.03297000  0.33022000  0.82657000  1.0
  H  H60  1  0.53111000  0.10504000  0.25387000  1.0
  H  H61  1  0.03111000  0.60504000  0.24613000  1.0
  H  H62  1  0.46889000  0.89496000  0.74613000  1.0
  H  H63  1  0.96889000  0.39496000  0.75387000  1.0
  H  H64  1  0.31884000  0.06464000  0.31969000  1.0
  H  H65  1  0.81884000  0.56464000  0.18030000  1.0
  H  H66  1  0.68116000  0.93536000  0.68031000  1.0
  H  H67  1  0.18116000  0.43536000  0.81969000  1.0
  H  H68  1  0.19311000  0.16206000  0.31705000  1.0
  H  H69  1  0.69311000  0.66206000  0.18294000  1.0
  H  H70  1  0.80688000  0.83795000  0.68294000  1.0
  H  H71  1  0.30688000  0.33794000  0.81706000  1.0
  H  H72  1  0.66542000  0.39812000  0.04318000  1.0
  H  H73  1  0.16541000  0.89812000  0.45682000  1.0
  H  H74  1  0.33458000  0.60188000  0.95682000  1.0
  H  H75  1  0.83459000  0.10188000  0.54318000  1.0
  H  H76  1  0.81377000  0.51250000  0.04677000  1.0
  H  H77  1  0.31376000  0.01250000  0.45323000  1.0
  H  H78  1  0.18623000  0.48750000  0.95323000  1.0
  H  H79  1  0.68623000  0.98750000  0.54676000  1.0
  H  H80  1  0.08946000  0.48855000  0.09957000  1.0
  H  H81  1  0.58946000  0.98855000  0.40043000  1.0
  H  H82  1  0.91054000  0.51145000  0.90043000  1.0
  H  H83  1  0.41054000  0.01145000  0.59957000  1.0
  H  H84  1  0.40353000  0.00321000  0.20677000  1.0
  H  H85  1  0.90353000  0.50322000  0.29322000  1.0
  H  H86  1  0.59647000  0.99678000  0.79323000  1.0
  H  H87  1  0.09646000  0.49678000  0.70678000  1.0
  H  H88  1  0.23499000  0.98904000  0.15901000  1.0
  H  H89  1  0.73499000  0.48905000  0.34099000  1.0
  H  H90  1  0.76501000  0.01095000  0.84099000  1.0
  H  H91  1  0.26500000  0.51095000  0.65901000  1.0
  H  H92  1  0.05196000  0.07514000  0.06480000  1.0
  H  H93  1  0.55197000  0.57514000  0.43520000  1.0
  H  H94  1  0.94804000  0.92486000  0.93521000  1.0
  H  H95  1  0.44803000  0.42487000  0.56480000  1.0
  H  H96  1  0.02670000  0.17134000  0.02544000  1.0
  H  H97  1  0.52670000  0.67134000  0.47456000  1.0
  H  H98  1  0.97330000  0.82866000  0.97456000  1.0
  H  H99  1  0.47330000  0.32866000  0.52544000  1.0
  H  H100  1  0.18793000  0.38291000  0.27597000  1.0
  H  H101  1  0.68794000  0.88291000  0.22403000  1.0
  H  H102  1  0.81206000  0.61709000  0.72403000  1.0
  H  H103  1  0.31205000  0.11709000  0.77598000  1.0
  H  H104  1  0.27120000  0.29483000  0.32388000  1.0
  H  H105  1  0.77119000  0.79483000  0.17612000  1.0
  H  H106  1  0.72880000  0.70518000  0.67612000  1.0
  H  H107  1  0.22881000  0.20517000  0.82388000  1.0
  H  H108  1  0.10928000  0.07017000  0.93141000  1.0
  H  H109  1  0.60929000  0.57017000  0.56859000  1.0
  H  H110  1  0.89073000  0.92982000  0.06859000  1.0
  H  H111  1  0.39071000  0.42983000  0.43141000  1.0
  H  H112  1  0.26433000  0.00005000  0.94169000  1.0
  H  H113  1  0.76434000  0.50005000  0.55831000  1.0
  H  H114  1  0.73568000  0.99995000  0.05830000  1.0
  H  H115  1  0.23566000  0.49995000  0.44169000  1.0
  C  C116  1  0.05880000  0.06089000  0.25270000  1.0
  C  C117  1  0.55880000  0.56088000  0.24730000  1.0
  C  C118  1  0.94120000  0.93911000  0.74730000  1.0
  C  C119  1  0.44120000  0.43912000  0.75270000  1.0
  C  C120  1  0.93931000  0.04277000  0.19758000  1.0
  C  C121  1  0.43931000  0.54277000  0.30242000  1.0
  C  C122  1  0.06070000  0.95723000  0.80242000  1.0
  C  C123  1  0.56069000  0.45723000  0.69758000  1.0
  C  C124  1  0.82226000  0.11687000  0.16881000  1.0
  C  C125  1  0.32225000  0.61688000  0.33119000  1.0
  C  C126  1  0.17775000  0.88312000  0.83119000  1.0
  C  C127  1  0.67774000  0.38313000  0.66881000  1.0
  C  C128  1  0.77741000  0.24581000  0.10610000  1.0
  C  C129  1  0.27741000  0.74580000  0.39390000  1.0
  C  C130  1  0.22259000  0.75419000  0.89390000  1.0
  C  C131  1  0.72259000  0.25420000  0.60610000  1.0
  C  C132  1  0.85973000  0.31511000  0.09495000  1.0
  C  C133  1  0.35972000  0.81511000  0.40505000  1.0
  C  C134  1  0.14027000  0.68489000  0.90505000  1.0
  C  C135  1  0.64028000  0.18489000  0.59494000  1.0
  C  C136  1  0.09234000  0.36302000  0.12343000  1.0
  C  C137  1  0.59234000  0.86302000  0.37657000  1.0
  C  C138  1  0.90766000  0.63698000  0.87657000  1.0
  C  C139  1  0.40767000  0.13698000  0.62343000  1.0
  C  C140  1  0.25940000  0.33565000  0.15333000  1.0
  C  C141  1  0.75940000  0.83565000  0.34667000  1.0
  C  C142  1  0.74060000  0.66435000  0.84667000  1.0
  C  C143  1  0.24060000  0.16435000  0.65333000  1.0
  C  C144  1  0.42225000  0.22562000  0.22154000  1.0
  C  C145  1  0.92225000  0.72563000  0.27845000  1.0
  C  C146  1  0.57775000  0.77438000  0.77846000  1.0
  C  C147  1  0.07775000  0.27438000  0.72154000  1.0
  C  C148  1  0.43176000  0.15339000  0.27286000  1.0
  C  C149  1  0.93176000  0.65339000  0.22713000  1.0
  C  C150  1  0.56824000  0.84661000  0.72714000  1.0
  C  C151  1  0.06824000  0.34661000  0.77286000  1.0
  C  C152  1  0.28167000  0.11908000  0.28600000  1.0
  C  C153  1  0.78167000  0.61908000  0.21400000  1.0
  C  C154  1  0.71833000  0.88092000  0.71400000  1.0
  C  C155  1  0.21833000  0.38092000  0.78600000  1.0
  C  C156  1  0.78612000  0.38984000  0.06585000  1.0
  C  C157  1  0.28611000  0.88984000  0.43415000  1.0
  C  C158  1  0.21388000  0.61016000  0.93416000  1.0
  C  C159  1  0.71388000  0.11017000  0.56584000  1.0
  C  C160  1  0.86910000  0.45283000  0.06767000  1.0
  C  C161  1  0.36910000  0.95283000  0.43233000  1.0
  C  C162  1  0.13089000  0.54717000  0.93233000  1.0
  C  C163  1  0.63090000  0.04717000  0.56767000  1.0
  C  C164  1  0.02342000  0.43982000  0.09759000  1.0
  C  C165  1  0.52342000  0.93981000  0.40241000  1.0
  C  C166  1  0.97658000  0.56018000  0.90241000  1.0
  C  C167  1  0.47658000  0.06019000  0.59759000  1.0
  C  C168  1  0.29815000  0.03604000  0.17687000  1.0
  C  C169  1  0.79815000  0.53605000  0.32313000  1.0
  C  C170  1  0.70186000  0.96395000  0.82313000  1.0
  C  C171  1  0.20185000  0.46395000  0.67687000  1.0
  C  C172  1  0.35512000  0.07050000  0.10888000  1.0
  C  C173  1  0.85511000  0.57050000  0.39111000  1.0
  C  C174  1  0.64489000  0.92949000  0.89111000  1.0
  C  C175  1  0.14489000  0.42950000  0.60889000  1.0
  C  C176  1  0.96163000  0.13012000  0.05233000  1.0
  C  C177  1  0.46164000  0.63011000  0.44767000  1.0
  C  C178  1  0.03837000  0.86988000  0.94767000  1.0
  C  C179  1  0.53836000  0.36989000  0.55233000  1.0
  C  C180  1  0.84646000  0.10434000  0.99794000  1.0
  C  C181  1  0.34646000  0.60434000  0.50206000  1.0
  C  C182  1  0.15354000  0.89566000  0.00207000  1.0
  C  C183  1  0.65353000  0.39567000  0.49794000  1.0
  C  C184  1  0.19158000  0.31738000  0.27871000  1.0
  C  C185  1  0.69157000  0.81738000  0.22129000  1.0
  C  C186  1  0.80842000  0.68262000  0.72129000  1.0
  C  C187  1  0.30842000  0.18262000  0.77871000  1.0
  C  C188  1  0.02171000  0.30666000  0.30149000  1.0
  C  C189  1  0.52171000  0.80666000  0.19851000  1.0
  C  C190  1  0.97829000  0.69334000  0.69851000  1.0
  C  C191  1  0.47829000  0.19334000  0.80149000  1.0
  N  N192  1  0.19242000  0.09619000  0.22320000  1.0
  N  N193  1  0.69242000  0.59619000  0.27679000  1.0
  N  N194  1  0.80759000  0.90381000  0.77679000  1.0
  N  N195  1  0.30758000  0.40381000  0.72321000  1.0
  N  N196  1  0.89464000  0.16865000  0.11993000  1.0
  N  N197  1  0.39464000  0.66865000  0.38007000  1.0
  N  N198  1  0.10536000  0.83135000  0.88007000  1.0
  N  N199  1  0.60536000  0.33136000  0.61993000  1.0
  N  N200  1  0.00960000  0.30342000  0.12126000  1.0
  N  N201  1  0.50960000  0.80341000  0.37874000  1.0
  N  N202  1  0.99040000  0.69658000  0.87874000  1.0
  N  N203  1  0.49040000  0.19659000  0.62126000  1.0
  N  N204  1  0.25975000  0.27679000  0.21218000  1.0
  N  N205  1  0.75974000  0.77679000  0.28782000  1.0
  N  N206  1  0.74025000  0.72322000  0.78782000  1.0
  N  N207  1  0.24026000  0.22321000  0.71218000  1.0
  N  N208  1  0.28243000  0.29002000  0.96571000  1.0
  N  N209  1  0.78243000  0.79002000  0.53429000  1.0
  N  N210  1  0.71757000  0.70998000  0.03430000  1.0
  N  N211  1  0.21757000  0.20999000  0.46571000  1.0
  O  O212  1  0.44903000  0.02122000  0.06911000  1.0
  O  O213  1  0.94902000  0.52123000  0.43089000  1.0
  O  O214  1  0.55099000  0.97877000  0.93090000  1.0
  O  O215  1  0.05098000  0.47877000  0.56910000  1.0
  O  O216  1  0.30479000  0.14468000  0.09272000  1.0
  O  O217  1  0.80479000  0.64468000  0.40727000  1.0
  O  O218  1  0.69522000  0.85531000  0.90728000  1.0
  O  O219  1  0.19521000  0.35531000  0.59272000  1.0
  O  O220  1  0.90908000  0.07883000  0.93899000  1.0
  O  O221  1  0.40909000  0.57883000  0.56101000  1.0
  O  O222  1  0.09092000  0.92116000  0.06102000  1.0
  O  O223  1  0.59091000  0.42117000  0.43898000  1.0
  O  O224  1  0.70117000  0.10721000  0.01684000  1.0
  O  O225  1  0.20117000  0.60721000  0.48316000  1.0
  O  O226  1  0.29883000  0.89279000  0.98316000  1.0
  O  O227  1  0.79882000  0.39280000  0.51684000  1.0
  O  O228  1  0.96616000  0.34870000  0.35527000  1.0
  O  O229  1  0.46615000  0.84870000  0.14473000  1.0
  O  O230  1  0.03385000  0.65130000  0.64473000  1.0
  O  O231  1  0.53385000  0.15129000  0.85527000  1.0
  O  O232  1  0.95395000  0.25779000  0.26830000  1.0
  O  O233  1  0.45395000  0.75779000  0.23171000  1.0
  O  O234  1  0.04605000  0.74221000  0.73170000  1.0
  O  O235  1  0.54605000  0.24221000  0.76830000  1.0
  O  O236  1  0.22968000  0.05674000  0.92629000  1.0
  O  O237  1  0.72968000  0.55674000  0.57371000  1.0
  O  O238  1  0.77033000  0.94326000  0.07371000  1.0
  O  O239  1  0.27032000  0.44326000  0.42629000  1.0
  O  O240  1  0.42291000  0.26874000  0.99304000  1.0
  O  O241  1  0.92290000  0.76874000  0.50696000  1.0
  O  O242  1  0.57709000  0.73126000  0.00696000  1.0
  O  O243  1  0.07709000  0.23127000  0.49304000  1.0
  O  O244  1  0.21556000  0.23444000  0.94121000  1.0
  O  O245  1  0.71556000  0.73443000  0.55879000  1.0
  O  O246  1  0.78443000  0.76556000  0.05880000  1.0
  O  O247  1  0.28443000  0.26557000  0.44121000  1.0
  O  O248  1  0.21124000  0.36293000  0.96294000  1.0
  O  O249  1  0.71124000  0.86293000  0.53706000  1.0
  O  O250  1  0.78876000  0.63707000  0.03706000  1.0
  O  O251  1  0.28875000  0.13708000  0.46294000  1.0
