# generated using pymatgen
data_CdH24C22(N3O2)2
_symmetry_space_group_name_H-M   'P 1'
_cell_length_a   8.80736000
_cell_length_b   9.79297000
_cell_length_c   13.33140000
_cell_angle_alpha   104.35100000
_cell_angle_beta   90.00000000
_cell_angle_gamma   90.00000000
_symmetry_Int_Tables_number   1
_chemical_formula_structural   CdH24C22(N3O2)2
_chemical_formula_sum   'Cd2 H48 C44 N12 O8'
_cell_volume   1113.95600747
_cell_formula_units_Z   2
loop_
 _symmetry_equiv_pos_site_id
 _symmetry_equiv_pos_as_xyz
  1  'x, y, z'
loop_
 _atom_site_type_symbol
 _atom_site_label
 _atom_site_symmetry_multiplicity
 _atom_site_fract_x
 _atom_site_fract_y
 _atom_site_fract_z
 _atom_site_occupancy
  Cd  Cd0  1  0.00000000  0.00000000  0.00000000  1.0
  Cd  Cd1  1  0.50000000  0.00000000  0.50000000  1.0
  H  H2  1  0.85905000  0.73878000  0.06119000  1.0
  H  H3  1  0.35906000  0.26123000  0.43881000  1.0
  H  H4  1  0.14095000  0.26122000  0.93881000  1.0
  H  H5  1  0.64094000  0.73878000  0.56119000  1.0
  H  H6  1  0.75430000  0.02020000  0.19786000  1.0
  H  H7  1  0.25430000  0.97980000  0.30214000  1.0
  H  H8  1  0.24570000  0.97980000  0.80214000  1.0
  H  H9  1  0.74570000  0.02020000  0.69786000  1.0
  H  H10  1  0.35939000  0.25183000  0.14767000  1.0
  H  H11  1  0.85940000  0.74816000  0.35233000  1.0
  H  H12  1  0.64060000  0.74817000  0.85233000  1.0
  H  H13  1  0.14060000  0.25184000  0.64767000  1.0
  H  H14  1  0.45752000  0.23749000  0.96676000  1.0
  H  H15  1  0.95753000  0.76251000  0.53324000  1.0
  H  H16  1  0.54247000  0.76251000  0.03324000  1.0
  H  H17  1  0.04247000  0.23749000  0.46676000  1.0
  H  H18  1  0.70760000  0.11724000  0.91440000  1.0
  H  H19  1  0.20760000  0.88276000  0.58559000  1.0
  H  H20  1  0.29240000  0.88276000  0.08559000  1.0
  H  H21  1  0.79240000  0.11724000  0.41441000  1.0
  H  H22  1  0.91945000  0.81237000  0.71686000  1.0
  H  H23  1  0.41945000  0.18762000  0.78314000  1.0
  H  H24  1  0.08055000  0.18763000  0.28314000  1.0
  H  H25  1  0.58055000  0.81238000  0.21685000  1.0
  H  H26  1  0.98439000  0.63713000  0.66184000  1.0
  H  H27  1  0.48439000  0.36287000  0.83816000  1.0
  H  H28  1  0.01561000  0.36287000  0.33816000  1.0
  H  H29  1  0.51561000  0.63713000  0.16184000  1.0
  H  H30  1  0.10750000  0.76250000  0.74120000  1.0
  H  H31  1  0.60749000  0.23750000  0.75880000  1.0
  H  H32  1  0.89250000  0.23750000  0.25880000  1.0
  H  H33  1  0.39251000  0.76250000  0.24120000  1.0
  H  H34  1  0.86810000  0.45362000  0.76215000  1.0
  H  H35  1  0.36809000  0.54637000  0.73785000  1.0
  H  H36  1  0.13190000  0.54637000  0.23785000  1.0
  H  H37  1  0.63190000  0.45363000  0.26215000  1.0
  H  H38  1  0.82396000  0.46666000  0.05941000  1.0
  H  H39  1  0.32396000  0.53333000  0.44059000  1.0
  H  H40  1  0.17604000  0.53334000  0.94059000  1.0
  H  H41  1  0.67604000  0.46667000  0.55941000  1.0
  H  H42  1  0.79234000  0.34755000  0.93697000  1.0
  H  H43  1  0.29234000  0.65245000  0.56303000  1.0
  H  H44  1  0.20766000  0.65245000  0.06302000  1.0
  H  H45  1  0.70766000  0.34755000  0.43698000  1.0
  H  H46  1  0.64855000  0.46875000  0.99424000  1.0
  H  H47  1  0.14855000  0.53125000  0.50576000  1.0
  H  H48  1  0.35145000  0.53125000  0.00576000  1.0
  H  H49  1  0.85145000  0.46875000  0.49425000  1.0
  C  C50  1  0.49007000  0.13648000  0.29096000  1.0
  C  C51  1  0.99007000  0.86352000  0.20904000  1.0
  C  C52  1  0.50993000  0.86352000  0.70904000  1.0
  C  C53  1  0.00993000  0.13648000  0.79096000  1.0
  C  C54  1  0.68796000  0.07238000  0.14931000  1.0
  C  C55  1  0.18796000  0.92762000  0.35069000  1.0
  C  C56  1  0.31204000  0.92762000  0.85069000  1.0
  C  C57  1  0.81204000  0.07238000  0.64931000  1.0
  C  C58  1  0.55001000  0.13667000  0.18521000  1.0
  C  C59  1  0.05001000  0.86334000  0.31479000  1.0
  C  C60  1  0.44999000  0.86333000  0.81479000  1.0
  C  C61  1  0.94999000  0.13666000  0.68521000  1.0
  C  C62  1  0.46635000  0.20028000  0.11995000  1.0
  C  C63  1  0.96636000  0.79972000  0.38005000  1.0
  C  C64  1  0.53364000  0.79972000  0.88005000  1.0
  C  C65  1  0.03364000  0.20027000  0.61995000  1.0
  C  C66  1  0.52133000  0.19316000  0.02102000  1.0
  C  C67  1  0.02134000  0.80684000  0.47898000  1.0
  C  C68  1  0.47866000  0.80684000  0.97898000  1.0
  C  C69  1  0.97866000  0.19315000  0.52102000  1.0
  C  C70  1  0.65950000  0.12616000  0.99116000  1.0
  C  C71  1  0.15950000  0.87384000  0.50884000  1.0
  C  C72  1  0.34050000  0.87384000  0.00884000  1.0
  C  C73  1  0.84050000  0.12616000  0.49116000  1.0
  C  C74  1  0.98931000  0.72597000  0.73047000  1.0
  C  C75  1  0.48931000  0.27403000  0.76953000  1.0
  C  C76  1  0.01069000  0.27403000  0.26953000  1.0
  C  C77  1  0.51069000  0.72597000  0.23047000  1.0
  C  C78  1  0.93237000  0.68022000  0.82215000  1.0
  C  C79  1  0.43237000  0.31978000  0.67785000  1.0
  C  C80  1  0.06763000  0.31978000  0.17785000  1.0
  C  C81  1  0.56763000  0.68022000  0.32215000  1.0
  C  C82  1  0.87670000  0.54666000  0.82604000  1.0
  C  C83  1  0.37670000  0.45333000  0.67396000  1.0
  C  C84  1  0.12330000  0.45334000  0.17396000  1.0
  C  C85  1  0.62330000  0.54666000  0.32604000  1.0
  C  C86  1  0.83615000  0.55840000  0.92908000  1.0
  C  C87  1  0.33615000  0.44160000  0.57092000  1.0
  C  C88  1  0.16385000  0.44160000  0.07093000  1.0
  C  C89  1  0.66385000  0.55840000  0.42908000  1.0
  C  C90  1  0.77200000  0.45518000  0.98283000  1.0
  C  C91  1  0.27200000  0.54482000  0.51717000  1.0
  C  C92  1  0.22800000  0.54482000  0.01717000  1.0
  C  C93  1  0.72800000  0.45518000  0.48283000  1.0
  N  N94  1  0.74323000  0.06877000  0.05470000  1.0
  N  N95  1  0.24323000  0.93123000  0.44529000  1.0
  N  N96  1  0.25677000  0.93123000  0.94529000  1.0
  N  N97  1  0.75677000  0.06877000  0.55471000  1.0
  N  N98  1  0.92568000  0.76855000  0.91758000  1.0
  N  N99  1  0.42568000  0.23145000  0.58242000  1.0
  N  N100  1  0.07432000  0.23146000  0.08242000  1.0
  N  N101  1  0.57432000  0.76855000  0.41758000  1.0
  N  N102  1  0.86648000  0.69267000  0.98038000  1.0
  N  N103  1  0.36648000  0.30733000  0.51962000  1.0
  N  N104  1  0.13352000  0.30733000  0.01962000  1.0
  N  N105  1  0.63352000  0.69267000  0.48038000  1.0
  O  O106  1  0.56647000  0.06914000  0.34444000  1.0
  O  O107  1  0.06647000  0.93086000  0.15555000  1.0
  O  O108  1  0.43353000  0.93086000  0.65555000  1.0
  O  O109  1  0.93353000  0.06915000  0.84445000  1.0
  O  O110  1  0.36695000  0.20258000  0.31781000  1.0
  O  O111  1  0.86695000  0.79742000  0.18219000  1.0
  O  O112  1  0.63305000  0.79742000  0.68219000  1.0
  O  O113  1  0.13305000  0.20258000  0.81781000  1.0
