# generated using pymatgen
data_CdH18C24(SN6)2
_symmetry_space_group_name_H-M   'P 1'
_cell_length_a   9.11777000
_cell_length_b   11.23040000
_cell_length_c   13.07100000
_cell_angle_alpha   94.04930000
_cell_angle_beta   89.99990000
_cell_angle_gamma   90.00000000
_symmetry_Int_Tables_number   1
_chemical_formula_structural   CdH18C24(SN6)2
_chemical_formula_sum   'Cd2 H36 C48 S4 N24'
_cell_volume   1335.07963080
_cell_formula_units_Z   2
loop_
 _symmetry_equiv_pos_site_id
 _symmetry_equiv_pos_as_xyz
  1  'x, y, z'
loop_
 _atom_site_type_symbol
 _atom_site_label
 _atom_site_symmetry_multiplicity
 _atom_site_fract_x
 _atom_site_fract_y
 _atom_site_fract_z
 _atom_site_occupancy
  Cd  Cd0  1  0.00000000  0.00000000  0.00000000  1.0
  Cd  Cd1  1  0.50000000  0.50000000  0.50000000  1.0
  H  H2  1  0.82360000  0.79918000  0.12523000  1.0
  H  H3  1  0.32360000  0.70082000  0.37477000  1.0
  H  H4  1  0.17640000  0.20082000  0.87477000  1.0
  H  H5  1  0.67640000  0.29918000  0.62523000  1.0
  H  H6  1  0.74825000  0.56683000  0.05581000  1.0
  H  H7  1  0.24824000  0.93317000  0.44419000  1.0
  H  H8  1  0.25176000  0.43317000  0.94419000  1.0
  H  H9  1  0.75176000  0.06683000  0.55581000  1.0
  H  H10  1  0.02249000  0.72190000  0.83745000  1.0
  H  H11  1  0.52249000  0.77810000  0.66255000  1.0
  H  H12  1  0.97751000  0.27810000  0.16255000  1.0
  H  H13  1  0.47751000  0.22190000  0.33745000  1.0
  H  H14  1  0.74488000  0.40389000  0.96167000  1.0
  H  H15  1  0.24489000  0.09611000  0.53833000  1.0
  H  H16  1  0.25511000  0.59611000  0.03833000  1.0
  H  H17  1  0.75511000  0.90389000  0.46167000  1.0
  H  H18  1  0.92776000  0.21752000  0.69067000  1.0
  H  H19  1  0.42777000  0.28248000  0.80933000  1.0
  H  H20  1  0.07223000  0.78248000  0.30933000  1.0
  H  H21  1  0.57224000  0.71752000  0.19067000  1.0
  H  H22  1  0.77470000  0.21721000  0.84924000  1.0
  H  H23  1  0.27470000  0.28279000  0.65076000  1.0
  H  H24  1  0.22530000  0.78279000  0.15076000  1.0
  H  H25  1  0.72530000  0.71721000  0.34924000  1.0
  H  H26  1  0.95564000  0.28624000  0.52028000  1.0
  H  H27  1  0.45564000  0.21376000  0.97972000  1.0
  H  H28  1  0.04436000  0.71376000  0.47972000  1.0
  H  H29  1  0.54436000  0.78624000  0.02028000  1.0
  H  H30  1  0.19116000  0.34576000  0.39944000  1.0
  H  H31  1  0.69116000  0.15424000  0.10056000  1.0
  H  H32  1  0.80884000  0.65424000  0.60055000  1.0
  H  H33  1  0.30884000  0.84576000  0.89944000  1.0
  H  H34  1  0.22323000  0.54210000  0.68645000  1.0
  H  H35  1  0.72323000  0.95790000  0.81355000  1.0
  H  H36  1  0.77677000  0.45790000  0.31355000  1.0
  H  H37  1  0.27677000  0.04210000  0.18645000  1.0
  C  C38  1  0.85280000  0.74740000  0.05508000  1.0
  C  C39  1  0.35279000  0.75261000  0.44492000  1.0
  C  C40  1  0.14720000  0.25260000  0.94492000  1.0
  C  C41  1  0.64720000  0.24740000  0.55508000  1.0
  C  C42  1  0.81669000  0.63271000  0.02192000  1.0
  C  C43  1  0.31669000  0.86729000  0.47808000  1.0
  C  C44  1  0.18331000  0.36729000  0.97808000  1.0
  C  C45  1  0.68331000  0.13271000  0.52192000  1.0
  C  C46  1  0.96017000  0.71364000  0.90711000  1.0
  C  C47  1  0.46017000  0.78636000  0.59289000  1.0
  C  C48  1  0.03983000  0.28636000  0.09289000  1.0
  C  C49  1  0.53983000  0.21364000  0.40711000  1.0
  C  C50  1  0.88616000  0.50405000  0.86414000  1.0
  C  C51  1  0.38616000  0.99595000  0.63586000  1.0
  C  C52  1  0.11384000  0.49595000  0.13586000  1.0
  C  C53  1  0.61384000  0.00405000  0.36414000  1.0
  C  C54  1  0.81052000  0.40309000  0.89215000  1.0
  C  C55  1  0.31052000  0.09691000  0.60785000  1.0
  C  C56  1  0.18948000  0.59691000  0.10785000  1.0
  C  C57  1  0.68948000  0.90309000  0.39215000  1.0
  C  C58  1  0.90938000  0.29911000  0.73922000  1.0
  C  C59  1  0.40938000  0.20089000  0.76078000  1.0
  C  C60  1  0.09062000  0.70089000  0.26078000  1.0
  C  C61  1  0.59062000  0.79911000  0.23922000  1.0
  C  C62  1  0.97367000  0.40727000  0.71755000  1.0
  C  C63  1  0.47366000  0.09273000  0.78245000  1.0
  C  C64  1  0.02634000  0.59273000  0.28245000  1.0
  C  C65  1  0.52633000  0.90727000  0.21755000  1.0
  C  C66  1  0.82552000  0.29939000  0.82826000  1.0
  C  C67  1  0.32552000  0.20061000  0.67174000  1.0
  C  C68  1  0.17448000  0.70061000  0.17174000  1.0
  C  C69  1  0.67448000  0.79939000  0.32826000  1.0
  C  C70  1  0.04670000  0.34674000  0.53606000  1.0
  C  C71  1  0.54671000  0.15326000  0.96394000  1.0
  C  C72  1  0.95329000  0.65326000  0.46394000  1.0
  C  C73  1  0.45330000  0.84675000  0.03606000  1.0
  C  C74  1  0.98493000  0.03365000  0.25818000  1.0
  C  C75  1  0.48493000  0.46635000  0.24182000  1.0
  C  C76  1  0.01507000  0.96635000  0.74182000  1.0
  C  C77  1  0.51507000  0.53365000  0.75818000  1.0
  C  C78  1  0.16348000  0.37766000  0.47726000  1.0
  C  C79  1  0.66348000  0.12234000  0.02274000  1.0
  C  C80  1  0.83652000  0.62234000  0.52273000  1.0
  C  C81  1  0.33652000  0.87766000  0.97726000  1.0
  C  C82  1  0.18443000  0.48333000  0.62277000  1.0
  C  C83  1  0.68443000  0.01667000  0.87723000  1.0
  C  C84  1  0.81557000  0.51667000  0.37723000  1.0
  C  C85  1  0.31556000  0.98333000  0.12277000  1.0
  S  S86  1  0.04197000  0.07334000  0.37311000  1.0
  S  S87  1  0.54197000  0.42666000  0.12689000  1.0
  S  S88  1  0.95803000  0.92666000  0.62689000  1.0
  S  S89  1  0.45803000  0.57334000  0.87311000  1.0
  N  N90  1  0.94154000  0.79627000  0.98311000  1.0
  N  N91  1  0.44154000  0.70373000  0.51689000  1.0
  N  N92  1  0.05846000  0.20373000  0.01689000  1.0
  N  N93  1  0.55846000  0.29627000  0.48311000  1.0
  N  N94  1  0.88598000  0.61152000  0.92750000  1.0
  N  N95  1  0.38598000  0.88848000  0.57250000  1.0
  N  N96  1  0.11402000  0.38848000  0.07250000  1.0
  N  N97  1  0.61402000  0.11152000  0.42750000  1.0
  N  N98  1  0.96461000  0.50732000  0.77823000  1.0
  N  N99  1  0.46461000  0.99268000  0.72177000  1.0
  N  N100  1  0.03539000  0.49268000  0.22177000  1.0
  N  N101  1  0.53539000  0.00732000  0.27823000  1.0
  N  N102  1  0.06066000  0.41488000  0.62845000  1.0
  N  N103  1  0.56066000  0.08512000  0.87155000  1.0
  N  N104  1  0.93934000  0.58512000  0.37155000  1.0
  N  N105  1  0.43934000  0.91488000  0.12845000  1.0
  N  N106  1  0.94125000  0.00388000  0.17442000  1.0
  N  N107  1  0.44125000  0.49612000  0.32558000  1.0
  N  N108  1  0.05875000  0.99612000  0.82558000  1.0
  N  N109  1  0.55875000  0.50388000  0.67442000  1.0
  N  N110  1  0.24864000  0.46158000  0.53254000  1.0
  N  N111  1  0.74864000  0.03842000  0.96746000  1.0
  N  N112  1  0.75136000  0.53842000  0.46746000  1.0
  N  N113  1  0.25136000  0.96158000  0.03254000  1.0
