# generated using pymatgen
data_CdH24C28(N2O)6
_symmetry_space_group_name_H-M   'P 1'
_cell_length_a   7.71254000
_cell_length_b   8.74353000
_cell_length_c   11.93112126
_cell_angle_alpha   70.46214294
_cell_angle_beta   80.91882620
_cell_angle_gamma   79.93100000
_symmetry_Int_Tables_number   1
_chemical_formula_structural   CdH24C28(N2O)6
_chemical_formula_sum   'Cd1 H24 C28 N12 O6'
_cell_volume   742.27497857
_cell_formula_units_Z   1
loop_
 _symmetry_equiv_pos_site_id
 _symmetry_equiv_pos_as_xyz
  1  'x, y, z'
loop_
 _atom_site_type_symbol
 _atom_site_label
 _atom_site_symmetry_multiplicity
 _atom_site_fract_x
 _atom_site_fract_y
 _atom_site_fract_z
 _atom_site_occupancy
  Cd  Cd0  1  0.00001000  0.99999000  0.50001000  1.0
  H  H1  1  0.34745000  0.10795000  0.44728000  1.0
  H  H2  1  0.65256000  0.89206000  0.55271000  1.0
  H  H3  1  0.31603000  0.00469000  0.36515000  1.0
  H  H4  1  0.68396000  0.99530000  0.63485000  1.0
  H  H5  1  0.40180000  0.68239000  0.28393000  1.0
  H  H6  1  0.59821000  0.31762000  0.71607000  1.0
  H  H7  1  0.67169000  0.80849000  0.86635000  1.0
  H  H8  1  0.32829000  0.19154000  0.13364000  1.0
  H  H9  1  0.68388000  0.99848000  0.98523000  1.0
  H  H10  1  0.31612000  0.00151000  0.01479000  1.0
  H  H11  1  0.21959000  0.00968000  0.82147000  1.0
  H  H12  1  0.78041000  0.99031000  0.17854000  1.0
  H  H13  1  0.93125000  0.64319000  0.74441000  1.0
  H  H14  1  0.06876000  0.35677000  0.25560000  1.0
  H  H15  1  0.02080000  0.34548000  0.78356000  1.0
  H  H16  1  0.97921000  0.65449000  0.21644000  1.0
  H  H17  1  0.21863000  0.24473000  0.62731000  1.0
  H  H18  1  0.78138000  0.75526000  0.37268000  1.0
  H  H19  1  0.23485000  0.75269000  0.41593000  1.0
  H  H20  1  0.76517000  0.24730000  0.58407000  1.0
  H  H21  1  0.81533000  0.34104000  0.08044000  1.0
  H  H22  1  0.18467000  0.65899000  0.91954000  1.0
  H  H23  1  0.46028000  0.79202000  0.05458000  1.0
  H  H24  1  0.53969000  0.20800000  0.94542000  1.0
  C  C25  1  0.88590000  0.02220000  0.77342000  1.0
  C  C26  1  0.11409000  0.97780000  0.22660000  1.0
  C  C27  1  0.94475000  0.00867000  0.89118000  1.0
  C  C28  1  0.05523000  0.99134000  0.10883000  1.0
  C  C29  1  0.82208000  0.00101000  0.99227000  1.0
  C  C30  1  0.17791000  0.99900000  0.00774000  1.0
  C  C31  1  0.12441000  0.00646000  0.89992000  1.0
  C  C32  1  0.87557000  0.99355000  0.10009000  1.0
  C  C33  1  0.02014000  0.59880000  0.67804000  1.0
  C  C34  1  0.97988000  0.40118000  0.32196000  1.0
  C  C35  1  0.07073000  0.43094000  0.69967000  1.0
  C  C36  1  0.92929000  0.56903000  0.30033000  1.0
  C  C37  1  0.18248000  0.37537000  0.61373000  1.0
  C  C38  1  0.81754000  0.62461000  0.38627000  1.0
  C  C39  1  0.24488000  0.49154000  0.50796000  1.0
  C  C40  1  0.75513000  0.50844000  0.49205000  1.0
  C  C41  1  0.18980000  0.65704000  0.49531000  1.0
  C  C42  1  0.81022000  0.34295000  0.50469000  1.0
  C  C43  1  0.35881000  0.44740000  0.41113000  1.0
  C  C44  1  0.64120000  0.55260000  0.58886000  1.0
  C  C45  1  0.51965000  0.46678000  0.23876000  1.0
  C  C46  1  0.48034000  0.53324000  0.76123000  1.0
  C  C47  1  0.60447000  0.53615000  0.12009000  1.0
  C  C48  1  0.39551000  0.46388000  0.87990000  1.0
  C  C49  1  0.74239000  0.46317000  0.05283000  1.0
  C  C50  1  0.25760000  0.53686000  0.94716000  1.0
  C  C51  1  0.56061000  0.69357000  0.04298000  1.0
  C  C52  1  0.43937000  0.30645000  0.95701000  1.0
  N  N53  1  0.07857000  0.70985000  0.57657000  1.0
  N  N54  1  0.92145000  0.29012000  0.42344000  1.0
  N  N55  1  0.42169000  0.55781000  0.30668000  1.0
  N  N56  1  0.57832000  0.44219000  0.69331000  1.0
  N  N57  1  0.41688000  0.29729000  0.40613000  1.0
  N  N58  1  0.58313000  0.70270000  0.59386000  1.0
  N  N59  1  0.51736000  0.30833000  0.29857000  1.0
  N  N60  1  0.48265000  0.69168000  0.70141000  1.0
  N  N61  1  0.66653000  0.70570000  0.94009000  1.0
  N  N62  1  0.33345000  0.29433000  0.05990000  1.0
  N  N63  1  0.77980000  0.56754000  0.94361000  1.0
  N  N64  1  0.22017000  0.43251000  0.05637000  1.0
  O  O65  1  0.71955000  0.02691000  0.76831000  1.0
  O  O66  1  0.28044000  0.97311000  0.23170000  1.0
  O  O67  1  0.00625000  0.03044000  0.68677000  1.0
  O  O68  1  0.99374000  0.96955000  0.31324000  1.0
  O  O69  1  0.29956000  0.00748000  0.44878000  1.0
  O  O70  1  0.70045000  0.99251000  0.55122000  1.0
