# generated using pymatgen
data_AlH12C21(NO3)3
_symmetry_space_group_name_H-M   'P 1'
_cell_length_a   3.98218000
_cell_length_b   27.87685000
_cell_length_c   27.87680000
_cell_angle_alpha   60.00017800
_cell_angle_beta   89.99960000
_cell_angle_gamma   89.99890000
_symmetry_Int_Tables_number   1
_chemical_formula_structural   AlH12C21(NO3)3
_chemical_formula_sum   'Al2 H24 C42 N6 O18'
_cell_volume   2680.02542982
_cell_formula_units_Z   2
loop_
 _symmetry_equiv_pos_site_id
 _symmetry_equiv_pos_as_xyz
  1  'x, y, z'
loop_
 _atom_site_type_symbol
 _atom_site_label
 _atom_site_symmetry_multiplicity
 _atom_site_fract_x
 _atom_site_fract_y
 _atom_site_fract_z
 _atom_site_occupancy
  Al  Al0  1  0.02709000  0.50000000  0.00000000  1.0
  Al  Al1  1  0.02708000  0.16667000  0.66666000  1.0
  H  H2  1  0.82368000  0.30227000  0.50937000  1.0
  H  H3  1  0.80890000  0.35061000  0.40534000  1.0
  H  H4  1  0.24748000  0.21332000  0.41543000  1.0
  H  H5  1  0.24752000  0.45334000  0.25125000  1.0
  H  H6  1  0.80891000  0.31604000  0.26134000  1.0
  H  H7  1  0.82367000  0.36438000  0.15731000  1.0
  H  H8  1  0.82369000  0.18836000  0.80228000  1.0
  H  H9  1  0.80891000  0.24404000  0.85063000  1.0
  H  H10  1  0.24748000  0.37125000  0.71333000  1.0
  H  H11  1  0.24751000  0.29542000  0.95334000  1.0
  H  H12  1  0.80890000  0.42262000  0.81605000  1.0
  H  H13  1  0.82370000  0.47831000  0.86439000  1.0
  H  H14  1  0.82368000  0.00936000  0.68836000  1.0
  H  H15  1  0.80887000  0.90533000  0.74405000  1.0
  H  H16  1  0.24748000  0.91542000  0.87125000  1.0
  H  H17  1  0.24750000  0.75124000  0.79541000  1.0
  H  H18  1  0.80889000  0.76133000  0.92262000  1.0
  H  H19  1  0.82369000  0.65730000  0.97831000  1.0
  H  H20  1  0.17690000  0.15111000  0.56093000  1.0
  H  H21  1  0.17690000  0.51555000  0.10574000  1.0
  H  H22  1  0.17691000  0.28796000  0.65111000  1.0
  H  H23  1  0.17692000  0.37871000  0.01556000  1.0
  H  H24  1  0.17691000  0.06093000  0.78796000  1.0
  H  H25  1  0.17691000  0.60574000  0.87870000  1.0
  C  C26  1  0.53159000  0.58585000  0.95365000  1.0
  C  C27  1  0.53160000  0.46050000  0.08585000  1.0
  C  C28  1  0.53162000  0.45365000  0.96051000  1.0
  C  C29  1  0.53160000  0.20616000  0.58082000  1.0
  C  C30  1  0.53159000  0.21302000  0.70616000  1.0
  C  C31  1  0.53159000  0.08082000  0.71302000  1.0
  C  C32  1  0.52165000  0.23348000  0.52035000  1.0
  C  C33  1  0.69041000  0.28431000  0.48793000  1.0
  C  C34  1  0.68453000  0.31097000  0.43077000  1.0
  C  C35  1  0.52369000  0.28453000  0.40506000  1.0
  C  C36  1  0.36924000  0.23310000  0.43606000  1.0
  C  C37  1  0.35207000  0.20828000  0.49372000  1.0
  C  C38  1  0.36926000  0.43356000  0.23061000  1.0
  C  C39  1  0.52371000  0.38213000  0.26161000  1.0
  C  C40  1  0.68454000  0.35569000  0.23590000  1.0
  C  C41  1  0.69040000  0.38234000  0.17875000  1.0
  C  C42  1  0.52165000  0.43318000  0.14632000  1.0
  C  C43  1  0.35208000  0.45839000  0.17294000  1.0
  C  C44  1  0.52167000  0.24617000  0.73348000  1.0
  C  C45  1  0.69042000  0.22776000  0.78432000  1.0
  C  C46  1  0.68453000  0.25826000  0.81098000  1.0
  C  C47  1  0.52368000  0.31041000  0.78454000  1.0
  C  C48  1  0.36923000  0.33084000  0.73311000  1.0
  C  C49  1  0.35207000  0.29800000  0.70828000  1.0
  C  C50  1  0.36927000  0.33583000  0.93357000  1.0
  C  C51  1  0.52371000  0.35626000  0.88213000  1.0
  C  C52  1  0.68454000  0.40840000  0.85570000  1.0
  C  C53  1  0.69042000  0.43891000  0.88235000  1.0
  C  C54  1  0.52166000  0.42050000  0.93318000  1.0
  C  C55  1  0.35209000  0.36867000  0.95839000  1.0
  C  C56  1  0.52165000  0.02035000  0.74617000  1.0
  C  C57  1  0.69039000  0.98792000  0.72776000  1.0
  C  C58  1  0.68450000  0.93076000  0.75826000  1.0
  C  C59  1  0.52368000  0.90505000  0.81041000  1.0
  C  C60  1  0.36923000  0.93606000  0.83084000  1.0
  C  C61  1  0.35206000  0.99372000  0.79800000  1.0
  C  C62  1  0.36924000  0.73061000  0.83582000  1.0
  C  C63  1  0.52369000  0.76161000  0.85626000  1.0
  C  C64  1  0.68453000  0.73590000  0.90840000  1.0
  C  C65  1  0.69041000  0.67874000  0.93891000  1.0
  C  C66  1  0.52167000  0.64632000  0.92049000  1.0
  C  C67  1  0.35207000  0.67294000  0.86867000  1.0
  N  N68  1  0.51371000  0.30715000  0.34700000  1.0
  N  N69  1  0.51374000  0.35951000  0.31967000  1.0
  N  N70  1  0.51372000  0.34584000  0.80716000  1.0
  N  N71  1  0.51373000  0.32082000  0.85952000  1.0
  N  N72  1  0.51370000  0.84700000  0.84585000  1.0
  N  N73  1  0.51372000  0.81966000  0.82082000  1.0
  O  O74  1  0.30006000  0.44458000  0.99702000  1.0
  O  O75  1  0.30003000  0.55841000  0.94457000  1.0
  O  O76  1  0.30003000  0.49702000  0.05841000  1.0
  O  O77  1  0.76548000  0.48923000  0.94865000  1.0
  O  O78  1  0.76547000  0.44865000  0.06213000  1.0
  O  O79  1  0.76544000  0.56212000  0.98923000  1.0
  O  O80  1  0.30003000  0.10826000  0.72209000  1.0
  O  O81  1  0.30004000  0.16965000  0.60826000  1.0
  O  O82  1  0.30003000  0.22209000  0.66966000  1.0
  O  O83  1  0.76547000  0.10454000  0.67745000  1.0
  O  O84  1  0.76546000  0.17744000  0.71802000  1.0
  O  O85  1  0.76546000  0.21801000  0.60455000  1.0
  O  O86  1  0.18148000  0.16024000  0.52161000  1.0
  O  O87  1  0.18149000  0.50642000  0.14507000  1.0
  O  O88  1  0.18148000  0.31816000  0.66024000  1.0
  O  O89  1  0.18151000  0.34851000  0.00643000  1.0
  O  O90  1  0.18149000  0.02160000  0.81816000  1.0
  O  O91  1  0.18150000  0.64506000  0.84851000  1.0
