# generated using pymatgen
data_ZnSiH30C44N6(O2F)6
_symmetry_space_group_name_H-M   'P 1'
_cell_length_a   7.65012000
_cell_length_b   12.21090000
_cell_length_c   16.51820000
_cell_angle_alpha   80.48620000
_cell_angle_beta   89.99780000
_cell_angle_gamma   71.75600000
_symmetry_Int_Tables_number   1
_chemical_formula_structural   ZnSiH30C44N6(O2F)6
_chemical_formula_sum   'Zn1 Si1 H30 C44 N6 O12 F6'
_cell_volume   1443.11893063
_cell_formula_units_Z   1
loop_
 _symmetry_equiv_pos_site_id
 _symmetry_equiv_pos_as_xyz
  1  'x, y, z'
loop_
 _atom_site_type_symbol
 _atom_site_label
 _atom_site_symmetry_multiplicity
 _atom_site_fract_x
 _atom_site_fract_y
 _atom_site_fract_z
 _atom_site_occupancy
  Zn  Zn0  1  0.78338000  0.99996000  0.49992000  1.0
  Si  Si1  1  0.28783000  0.99995000  0.49988000  1.0
  H  H2  1  0.87900000  0.22757000  0.47968000  1.0
  H  H3  1  0.10666000  0.77215000  0.52012000  1.0
  H  H4  1  0.77704000  0.42643000  0.38960000  1.0
  H  H5  1  0.20369000  0.57352000  0.61050000  1.0
  H  H6  1  0.43797000  0.29835000  0.24500000  1.0
  H  H7  1  0.73586000  0.70171000  0.75469000  1.0
  H  H8  1  0.52883000  0.11257000  0.34846000  1.0
  H  H9  1  0.64103000  0.88725000  0.65102000  1.0
  H  H10  1  0.47021000  0.65984000  0.14591000  1.0
  H  H11  1  0.12955000  0.34071000  0.85436000  1.0
  H  H12  1  0.14424000  0.57395000  0.11608000  1.0
  H  H13  1  0.71772000  0.42630000  0.88421000  1.0
  H  H14  1  0.12753000  0.87018000  0.24645000  1.0
  H  H15  1  0.99811000  0.13023000  0.75338000  1.0
  H  H16  1  0.04250000  0.97605000  0.36456000  1.0
  H  H17  1  0.01892000  0.02408000  0.63544000  1.0
  H  H18  1  0.61321000  0.83972000  0.41830000  1.0
  H  H19  1  0.45350000  0.16010000  0.58168000  1.0
  H  H20  1  0.68250000  0.72678000  0.30070000  1.0
  H  H21  1  0.40968000  0.27322000  0.69917000  1.0
  H  H22  1  0.27381000  0.87961000  0.89917000  1.0
  H  H23  1  0.15361000  0.11994000  0.10102000  1.0
  H  H24  1  0.29235000  0.93036000  0.74635000  1.0
  H  H25  1  0.22298000  0.06936000  0.25384000  1.0
  H  H26  1  0.37017000  0.77577000  0.66183000  1.0
  H  H27  1  0.14674000  0.22403000  0.33827000  1.0
  H  H28  1  0.43376000  0.56533000  0.72879000  1.0
  H  H29  1  0.99985000  0.43444000  0.27127000  1.0
  H  H30  1  0.40797000  0.51555000  0.87913000  1.0
  H  H31  1  0.92364000  0.48403000  0.12096000  1.0
  C  C32  1  0.77550000  0.24914000  0.42917000  1.0
  C  C33  1  0.02470000  0.75067000  0.57065000  1.0
  C  C34  1  0.72252000  0.35777000  0.37808000  1.0
  C  C35  1  0.08034000  0.64215000  0.62189000  1.0
  C  C36  1  0.60156000  0.37650000  0.30998000  1.0
  C  C37  1  0.97796000  0.62353000  0.68996000  1.0
  C  C38  1  0.53298000  0.28699000  0.29697000  1.0
  C  C39  1  0.81969000  0.71302000  0.70278000  1.0
  C  C40  1  0.58551000  0.18291000  0.35350000  1.0
  C  C41  1  0.76819000  0.81697000  0.64610000  1.0
  C  C42  1  0.54711000  0.49269000  0.25505000  1.0
  C  C43  1  0.03970000  0.50756000  0.74517000  1.0
  C  C44  1  0.41406000  0.59619000  0.12418000  1.0
  C  C45  1  0.00973000  0.40438000  0.87607000  1.0
  C  C46  1  0.20556000  0.64486000  0.11314000  1.0
  C  C47  1  0.85002000  0.35556000  0.88701000  1.0
  C  C48  1  0.17232000  0.71356000  0.02526000  1.0
  C  C49  1  0.88579000  0.28642000  0.97478000  1.0
  C  C50  1  0.47374000  0.58469000  0.03669000  1.0
  C  C51  1  0.05792000  0.41558000  0.96360000  1.0
  C  C52  1  0.96059000  0.71915000  0.19831000  1.0
  C  C53  1  0.67987000  0.28113000  0.80163000  1.0
  C  C54  1  0.91097000  0.79010000  0.26506000  1.0
  C  C55  1  0.70143000  0.21019000  0.73486000  1.0
  C  C56  1  0.01215000  0.86173000  0.28250000  1.0
  C  C57  1  0.87423000  0.13861000  0.71738000  1.0
  C  C58  1  0.96453000  0.92130000  0.34801000  1.0
  C  C59  1  0.88620000  0.07886000  0.65195000  1.0
  C  C60  1  0.72579000  0.84354000  0.37844000  1.0
  C  C61  1  0.56984000  0.15643000  0.62150000  1.0
  C  C62  1  0.76340000  0.78201000  0.31319000  1.0
  C  C63  1  0.54587000  0.21807000  0.68671000  1.0
  C  C64  1  0.34344000  0.69473000  0.89721000  1.0
  C  C65  1  0.03839000  0.30486000  0.10293000  1.0
  C  C66  1  0.30888000  0.81181000  0.86107000  1.0
  C  C67  1  0.12096000  0.18782000  0.13907000  1.0
  C  C68  1  0.31852000  0.83980000  0.77615000  1.0
  C  C69  1  0.15864000  0.15991000  0.22400000  1.0
  C  C70  1  0.36345000  0.75177000  0.72810000  1.0
  C  C71  1  0.11578000  0.24798000  0.27201000  1.0
  C  C72  1  0.39864000  0.63500000  0.76547000  1.0
  C  C73  1  0.03418000  0.36474000  0.23461000  1.0
  C  C74  1  0.38701000  0.60576000  0.85014000  1.0
  C  C75  1  0.99310000  0.39388000  0.14998000  1.0
  N  N76  1  0.70631000  0.16393000  0.41743000  1.0
  N  N77  1  0.87017000  0.83586000  0.58224000  1.0
  N  N78  1  0.33175000  0.66576000  0.98398000  1.0
  N  N79  1  0.99748000  0.33405000  0.01617000  1.0
  N  N80  1  0.82573000  0.91114000  0.39566000  1.0
  N  N81  1  0.73733000  0.08883000  0.60431000  1.0
  O  O82  1  0.56009000  0.58179000  0.27500000  1.0
  O  O83  1  0.14204000  0.41837000  0.72548000  1.0
  O  O84  1  0.47912000  0.48726000  0.17967000  1.0
  O  O85  1  0.96606000  0.51327000  0.82054000  1.0
  O  O86  1  0.13091000  0.71726000  0.17223000  1.0
  O  O87  1  0.84808000  0.28336000  0.82772000  1.0
  O  O88  1  0.86752000  0.66635000  0.17235000  1.0
  O  O89  1  0.53387000  0.33363000  0.82758000  1.0
  O  O90  1  0.03568000  0.79305000  0.99654000  1.0
  O  O91  1  0.82882000  0.20675000  0.00330000  1.0
  O  O92  1  0.61894000  0.52208000  0.01642000  1.0
  O  O93  1  0.14037000  0.47814000  0.98407000  1.0
  F  F94  1  0.51481000  0.00027000  0.49981000  1.0
  F  F95  1  0.28355000  0.01266000  0.39544000  1.0
  F  F96  1  0.29653000  0.98724000  0.60431000  1.0
  F  F97  1  0.21259000  0.14862000  0.49080000  1.0
  F  F98  1  0.36190000  0.85127000  0.50893000  1.0
  F  F99  1  0.05938000  0.99969000  0.49999000  1.0
