# generated using pymatgen
data_CoH32C49(N3O2)2
_symmetry_space_group_name_H-M   'P 1'
_cell_length_a   17.48080000
_cell_length_b   18.92910000
_cell_length_c   18.92910000
_cell_angle_alpha   60.19800000
_cell_angle_beta   78.81250000
_cell_angle_gamma   78.81220000
_symmetry_Int_Tables_number   1
_chemical_formula_structural   CoH32C49(N3O2)2
_chemical_formula_sum   'Co4 H128 C196 N24 O16'
_cell_volume   5296.75134074
_cell_formula_units_Z   4
loop_
 _symmetry_equiv_pos_site_id
 _symmetry_equiv_pos_as_xyz
  1  'x, y, z'
loop_
 _atom_site_type_symbol
 _atom_site_label
 _atom_site_symmetry_multiplicity
 _atom_site_fract_x
 _atom_site_fract_y
 _atom_site_fract_z
 _atom_site_occupancy
  Co  Co0  1  0.95779000  0.45324000  0.74438000  1.0
  Co  Co1  1  0.54221000  0.25562000  0.54676000  1.0
  Co  Co2  1  0.04221000  0.54676000  0.25562000  1.0
  Co  Co3  1  0.45779000  0.74438000  0.45324000  1.0
  H  H4  1  0.15835000  0.47041000  0.74471000  1.0
  H  H5  1  0.26826000  0.50685000  0.78009000  1.0
  H  H6  1  0.40711000  0.46243000  0.74143000  1.0
  H  H7  1  0.06452000  0.33233000  0.61815000  1.0
  H  H8  1  0.89593000  0.59288000  0.82863000  1.0
  H  H9  1  0.76626000  0.64305000  0.87481000  1.0
  H  H10  1  0.73698000  0.62448000  0.01826000  1.0
  H  H11  1  0.16185000  0.44490000  0.88706000  1.0
  H  H12  1  0.77943000  0.53478000  0.76430000  1.0
  H  H13  1  0.73980000  0.70362000  0.69137000  1.0
  H  H14  1  0.98584000  0.64821000  0.64624000  1.0
  H  H15  1  0.76960000  0.81949000  0.67820000  1.0
  H  H16  1  0.77437000  0.96862000  0.59112000  1.0
  H  H17  1  0.97691000  0.92406000  0.44251000  1.0
  H  H18  1  0.97125000  0.77499000  0.52726000  1.0
  H  H19  1  0.86264000  0.06877000  0.56164000  1.0
  H  H20  1  0.88996000  0.27987000  0.32226000  1.0
  H  H21  1  0.89026000  0.04174000  0.34632000  1.0
  H  H22  1  0.82033000  0.10687000  0.24728000  1.0
  H  H23  1  0.80490000  0.16976000  0.10127000  1.0
  H  H24  1  0.90852000  0.38016000  0.05518000  1.0
  H  H25  1  0.92851000  0.31658000  0.19891000  1.0
  H  H26  1  0.74493000  0.27273000  0.97978000  1.0
  H  H27  1  0.78517000  0.36474000  0.81162000  1.0
  H  H28  1  0.95288000  0.38111000  0.93320000  1.0
  H  H29  1  0.85365000  0.34933000  0.37460000  1.0
  H  H30  1  0.85752000  0.43533000  0.43335000  1.0
  H  H31  1  0.89423000  0.22170000  0.66759000  1.0
  H  H32  1  0.89619000  0.13413000  0.60637000  1.0
  H  H33  1  0.82202000  0.50202000  0.49515000  1.0
  H  H34  1  0.85204000  0.56165000  0.59184000  1.0
  H  H35  1  0.93547000  0.31037000  0.69705000  1.0
  H  H36  1  0.34165000  0.25529000  0.52959000  1.0
  H  H37  1  0.23175000  0.21991000  0.49315000  1.0
  H  H38  1  0.09290000  0.25857000  0.53758000  1.0
  H  H39  1  0.43549000  0.38185000  0.66767000  1.0
  H  H40  1  0.60407000  0.17137000  0.40712000  1.0
  H  H41  1  0.73374000  0.12519000  0.35695000  1.0
  H  H42  1  0.76302000  0.98174000  0.37552000  1.0
  H  H43  1  0.33815000  0.11294000  0.55510000  1.0
  H  H44  1  0.72057000  0.23570000  0.46522000  1.0
  H  H45  1  0.76020000  0.30864000  0.29638000  1.0
  H  H46  1  0.51416000  0.35376000  0.35179000  1.0
  H  H47  1  0.73040000  0.32180000  0.18051000  1.0
  H  H48  1  0.72564000  0.40888000  0.03138000  1.0
  H  H49  1  0.52309000  0.55749000  0.07594000  1.0
  H  H50  1  0.52875000  0.47274000  0.22501000  1.0
  H  H51  1  0.63736000  0.43836000  0.93123000  1.0
  H  H52  1  0.61004000  0.67775000  0.72013000  1.0
  H  H53  1  0.60974000  0.65368000  0.95826000  1.0
  H  H54  1  0.67967000  0.75272000  0.89313000  1.0
  H  H55  1  0.69510000  0.89873000  0.83024000  1.0
  H  H56  1  0.59149000  0.94482000  0.61984000  1.0
  H  H57  1  0.57149000  0.80109000  0.68341000  1.0
  H  H58  1  0.75507000  0.02022000  0.72728000  1.0
  H  H59  1  0.71484000  0.18838000  0.63526000  1.0
  H  H60  1  0.54712000  0.06680000  0.61889000  1.0
  H  H61  1  0.64635000  0.62540000  0.65067000  1.0
  H  H62  1  0.64248000  0.56664000  0.56467000  1.0
  H  H63  1  0.60577000  0.33241000  0.77830000  1.0
  H  H64  1  0.60381000  0.39364000  0.86587000  1.0
  H  H65  1  0.67798000  0.50485000  0.49798000  1.0
  H  H66  1  0.64797000  0.40816000  0.43835000  1.0
  H  H67  1  0.56453000  0.30295000  0.68962000  1.0
  H  H68  1  0.84165000  0.52959000  0.25529000  1.0
  H  H69  1  0.73174000  0.49315000  0.21991000  1.0
  H  H70  1  0.59290000  0.53757000  0.25857000  1.0
  H  H71  1  0.93548000  0.66767000  0.38185000  1.0
  H  H72  1  0.10407000  0.40712000  0.17137000  1.0
  H  H73  1  0.23374000  0.35695000  0.12519000  1.0
  H  H74  1  0.26302000  0.37552000  0.98174000  1.0
  H  H75  1  0.83815000  0.55510000  0.11294000  1.0
  H  H76  1  0.22057000  0.46522000  0.23570000  1.0
  H  H77  1  0.26020000  0.29638000  0.30864000  1.0
  H  H78  1  0.01416000  0.35179000  0.35375000  1.0
  H  H79  1  0.23040000  0.18050000  0.32180000  1.0
  H  H80  1  0.22563000  0.03138000  0.40888000  1.0
  H  H81  1  0.02309000  0.07594000  0.55749000  1.0
  H  H82  1  0.02875000  0.22501000  0.47274000  1.0
  H  H83  1  0.13736000  0.93123000  0.43836000  1.0
  H  H84  1  0.11004000  0.72013000  0.67775000  1.0
  H  H85  1  0.10974000  0.95826000  0.65368000  1.0
  H  H86  1  0.17967000  0.89313000  0.75273000  1.0
  H  H87  1  0.19510000  0.83024000  0.89873000  1.0
  H  H88  1  0.09149000  0.61984000  0.94482000  1.0
  H  H89  1  0.07149000  0.68341000  0.80109000  1.0
  H  H90  1  0.25507000  0.72727000  0.02022000  1.0
  H  H91  1  0.21483000  0.63526000  0.18838000  1.0
  H  H92  1  0.04712000  0.61889000  0.06680000  1.0
  H  H93  1  0.14635000  0.65067000  0.62540000  1.0
  H  H94  1  0.14247000  0.56466000  0.56665000  1.0
  H  H95  1  0.10577000  0.77830000  0.33241000  1.0
  H  H96  1  0.10381000  0.86587000  0.39364000  1.0
  H  H97  1  0.17798000  0.49798000  0.50485000  1.0
  H  H98  1  0.14797000  0.43835000  0.40816000  1.0
  H  H99  1  0.06453000  0.68963000  0.30295000  1.0
  H  H100  1  0.65835000  0.74471000  0.47040000  1.0
  H  H101  1  0.76826000  0.78009000  0.50685000  1.0
  H  H102  1  0.90710000  0.74143000  0.46243000  1.0
  H  H103  1  0.56452000  0.61815000  0.33233000  1.0
  H  H104  1  0.39593000  0.82863000  0.59288000  1.0
  H  H105  1  0.26626000  0.87482000  0.64305000  1.0
  H  H106  1  0.23698000  0.01826000  0.62448000  1.0
  H  H107  1  0.66185000  0.88706000  0.44490000  1.0
  H  H108  1  0.27943000  0.76430000  0.53477000  1.0
  H  H109  1  0.23980000  0.69136000  0.70362000  1.0
  H  H110  1  0.48584000  0.64624000  0.64821000  1.0
  H  H111  1  0.26960000  0.67820000  0.81949000  1.0
  H  H112  1  0.27437000  0.59112000  0.96862000  1.0
  H  H113  1  0.47691000  0.44251000  0.92406000  1.0
  H  H114  1  0.47125000  0.52726000  0.77499000  1.0
  H  H115  1  0.36264000  0.56164000  0.06877000  1.0
  H  H116  1  0.38996000  0.32226000  0.27987000  1.0
  H  H117  1  0.39026000  0.34632000  0.04174000  1.0
  H  H118  1  0.32033000  0.24727000  0.10687000  1.0
  H  H119  1  0.30490000  0.10127000  0.16976000  1.0
  H  H120  1  0.40851000  0.05518000  0.38016000  1.0
  H  H121  1  0.42851000  0.19891000  0.31658000  1.0
  H  H122  1  0.24493000  0.97978000  0.27272000  1.0
  H  H123  1  0.28517000  0.81162000  0.36474000  1.0
  H  H124  1  0.45288000  0.93320000  0.38111000  1.0
  H  H125  1  0.35365000  0.37460000  0.34933000  1.0
  H  H126  1  0.35752000  0.43335000  0.43534000  1.0
  H  H127  1  0.39422000  0.66759000  0.22170000  1.0
  H  H128  1  0.39619000  0.60636000  0.13413000  1.0
  H  H129  1  0.32201000  0.49515000  0.50202000  1.0
  H  H130  1  0.35203000  0.59184000  0.56165000  1.0
  H  H131  1  0.43547000  0.69705000  0.31038000  1.0
  C  C132  1  0.08798000  0.40443000  0.69268000  1.0
  C  C133  1  0.17108000  0.37998000  0.66685000  1.0
  C  C134  1  0.23300000  0.40291000  0.68648000  1.0
  C  C135  1  0.21881000  0.45023000  0.72860000  1.0
  C  C136  1  0.28013000  0.47092000  0.74774000  1.0
  C  C137  1  0.35901000  0.44569000  0.72584000  1.0
  C  C138  1  0.12498000  0.31488000  0.59949000  1.0
  C  C139  1  0.18672000  0.33593000  0.62257000  1.0
  C  C140  1  0.03390000  0.52452000  0.83058000  1.0
  C  C141  1  0.01699000  0.51200000  0.91785000  1.0
  C  C142  1  0.94317000  0.54252000  0.94409000  1.0
  C  C143  1  0.88337000  0.58443000  0.89074000  1.0
  C  C144  1  0.81108000  0.61269000  0.91669000  1.0
  C  C145  1  0.79454000  0.60190000  0.99779000  1.0
  C  C146  1  0.14942000  0.43744000  0.94894000  1.0
  C  C147  1  0.07397000  0.46922000  0.97297000  1.0
  C  C148  1  0.81617000  0.58377000  0.72832000  1.0
  C  C149  1  0.79578000  0.66666667  0.69376000  1.0
  C  C150  1  0.92431000  0.63986000  0.66637000  1.0
  C  C151  1  0.86997000  0.78763000  0.60784000  1.0
  C  C152  1  0.81505000  0.84215000  0.62652000  1.0
  C  C153  1  0.81846000  0.92604000  0.57808000  1.0
  C  C154  1  0.87621000  0.95697000  0.51094000  1.0
  C  C155  1  0.93094000  0.90122000  0.49371000  1.0
  C  C156  1  0.92823000  0.81727000  0.54165000  1.0
  C  C157  1  0.87898000  0.04606000  0.45926000  1.0
  C  C158  1  0.87176000  0.09662000  0.49504000  1.0
  C  C159  1  0.87749000  0.18094000  0.44687000  1.0
  C  C160  1  0.88537000  0.21456000  0.36116000  1.0
  C  C161  1  0.88573000  0.16622000  0.32386000  1.0
  C  C162  1  0.88672000  0.08120000  0.37381000  1.0
  C  C163  1  0.87851000  0.20447000  0.23518000  1.0
  C  C164  1  0.84216000  0.16582000  0.20539000  1.0
  C  C165  1  0.83178000  0.20179000  0.12291000  1.0
  C  C166  1  0.85691000  0.27856000  0.06824000  1.0
  C  C167  1  0.89126000  0.31906000  0.09684000  1.0
  C  C168  1  0.90241000  0.28223000  0.17908000  1.0
  C  C169  1  0.79364000  0.30814000  0.94510000  1.0
  C  C170  1  0.81423000  0.35413000  0.86228000  1.0
  C  C171  1  0.90124000  0.36534000  0.92294000  1.0
  C  C172  1  0.87452000  0.23340000  0.48515000  1.0
  C  C173  1  0.86214000  0.31931000  0.43918000  1.0
  C  C174  1  0.86214000  0.36942000  0.47327000  1.0
  C  C175  1  0.87399000  0.33524000  0.55545000  1.0
  C  C176  1  0.88526000  0.24988000  0.60326000  1.0
  C  C177  1  0.88568000  0.20029000  0.56807000  1.0
  C  C178  1  0.84843000  0.47112000  0.55172000  1.0
  C  C179  1  0.86409000  0.49983000  0.60031000  1.0
  C  C180  1  0.90698000  0.36996000  0.65706000  1.0
  C  C181  1  0.41203000  0.30732000  0.59557000  1.0
  C  C182  1  0.32892000  0.33315000  0.62002000  1.0
  C  C183  1  0.26700000  0.31353000  0.59709000  1.0
  C  C184  1  0.28120000  0.27140000  0.54977000  1.0
  C  C185  1  0.21988000  0.25226000  0.52908000  1.0
  C  C186  1  0.14099000  0.27415000  0.55431000  1.0
  C  C187  1  0.37502000  0.40051000  0.68512000  1.0
  C  C188  1  0.31328000  0.37743000  0.66407000  1.0
  C  C189  1  0.46610000  0.16942000  0.47548000  1.0
  C  C190  1  0.48301000  0.08215000  0.48800000  1.0
  C  C191  1  0.55683000  0.05591000  0.45748000  1.0
  C  C192  1  0.61663000  0.10926000  0.41557000  1.0
  C  C193  1  0.68892000  0.08331000  0.38731000  1.0
  C  C194  1  0.70546000  0.00221000  0.39810000  1.0
  C  C195  1  0.35058000  0.05106000  0.56256000  1.0
  C  C196  1  0.42603000  0.02703000  0.53078000  1.0
  C  C197  1  0.68383000  0.27168000  0.41623000  1.0
  C  C198  1  0.70422000  0.30625000  0.33328000  1.0
  C  C199  1  0.57569000  0.33363000  0.36014000  1.0
  C  C200  1  0.63004000  0.39216000  0.21237000  1.0
  C  C201  1  0.68495000  0.37348000  0.15785000  1.0
  C  C202  1  0.68154000  0.42192000  0.07396000  1.0
  C  C203  1  0.62379000  0.48906000  0.04303000  1.0
  C  C204  1  0.56906000  0.50629000  0.09878000  1.0
  C  C205  1  0.57178000  0.45835000  0.18273000  1.0
  C  C206  1  0.62102000  0.54075000  0.95394000  1.0
  C  C207  1  0.62824000  0.50496000  0.90338000  1.0
  C  C208  1  0.62250000  0.55313000  0.81906000  1.0
  C  C209  1  0.61462000  0.63885000  0.78544000  1.0
  C  C210  1  0.61427000  0.67614000  0.83378000  1.0
  C  C211  1  0.61328000  0.62620000  0.91880000  1.0
  C  C212  1  0.62149000  0.76482000  0.79553000  1.0
  C  C213  1  0.65784000  0.79461000  0.83418000  1.0
  C  C214  1  0.66822000  0.87709000  0.79821000  1.0
  C  C215  1  0.64309000  0.93176000  0.72144000  1.0
  C  C216  1  0.60874000  0.90316000  0.68094000  1.0
  C  C217  1  0.59759000  0.82092000  0.71777000  1.0
  C  C218  1  0.70636000  0.05490000  0.69187000  1.0
  C  C219  1  0.68577000  0.13772000  0.64587000  1.0
  C  C220  1  0.59876000  0.07707000  0.63466000  1.0
  C  C221  1  0.62547000  0.51486000  0.76660000  1.0
  C  C222  1  0.63786000  0.56082000  0.68069000  1.0
  C  C223  1  0.63786000  0.52673000  0.63059000  1.0
  C  C224  1  0.62601000  0.44455000  0.66476000  1.0
  C  C225  1  0.61474000  0.39674000  0.75012000  1.0
  C  C226  1  0.61432000  0.43194000  0.79971000  1.0
  C  C227  1  0.65157000  0.44828000  0.52888000  1.0
  C  C228  1  0.63592000  0.39969000  0.50017000  1.0
  C  C229  1  0.59302000  0.34294000  0.63004000  1.0
  C  C230  1  0.91203000  0.59556000  0.30732000  1.0
  C  C231  1  0.82892000  0.62002000  0.33315000  1.0
  C  C232  1  0.76700000  0.59709000  0.31353000  1.0
  C  C233  1  0.78119000  0.54977000  0.27140000  1.0
  C  C234  1  0.71987000  0.52908000  0.25226000  1.0
  C  C235  1  0.64099000  0.55431000  0.27416000  1.0
  C  C236  1  0.87502000  0.68512000  0.40051000  1.0
  C  C237  1  0.81328000  0.66407000  0.37743000  1.0
  C  C238  1  0.96610000  0.47548000  0.16942000  1.0
  C  C239  1  0.98302000  0.48800000  0.08215000  1.0
  C  C240  1  0.05683000  0.45748000  0.05591000  1.0
  C  C241  1  0.11663000  0.41557000  0.10926000  1.0
  C  C242  1  0.18891000  0.38731000  0.08331000  1.0
  C  C243  1  0.20546000  0.39810000  0.00221000  1.0
  C  C244  1  0.85058000  0.56256000  0.05106000  1.0
  C  C245  1  0.92603000  0.53078000  0.02703000  1.0
  C  C246  1  0.18383000  0.41623000  0.27168000  1.0
  C  C247  1  0.20422000  0.33328000  0.30625000  1.0
  C  C248  1  0.07569000  0.36014000  0.33363000  1.0
  C  C249  1  0.13003000  0.21237000  0.39216000  1.0
  C  C250  1  0.18494000  0.15785000  0.37348000  1.0
  C  C251  1  0.18154000  0.07396000  0.42192000  1.0
  C  C252  1  0.12379000  0.04303000  0.48906000  1.0
  C  C253  1  0.06906000  0.09878000  0.50629000  1.0
  C  C254  1  0.07177000  0.18273000  0.45835000  1.0
  C  C255  1  0.12102000  0.95394000  0.54074000  1.0
  C  C256  1  0.12824000  0.90338000  0.50496000  1.0
  C  C257  1  0.12250000  0.81906000  0.55313000  1.0
  C  C258  1  0.11462000  0.78544000  0.63885000  1.0
  C  C259  1  0.11427000  0.83378000  0.67614000  1.0
  C  C260  1  0.11328000  0.91880000  0.62619000  1.0
  C  C261  1  0.12149000  0.79553000  0.76482000  1.0
  C  C262  1  0.15783000  0.83418000  0.79461000  1.0
  C  C263  1  0.16822000  0.79821000  0.87709000  1.0
  C  C264  1  0.14308000  0.72144000  0.93176000  1.0
  C  C265  1  0.10874000  0.68094000  0.90316000  1.0
  C  C266  1  0.09759000  0.71777000  0.82092000  1.0
  C  C267  1  0.20636000  0.69187000  0.05490000  1.0
  C  C268  1  0.18577000  0.64587000  0.13772000  1.0
  C  C269  1  0.09876000  0.63467000  0.07707000  1.0
  C  C270  1  0.12547000  0.76660000  0.51486000  1.0
  C  C271  1  0.13785000  0.68069000  0.56082000  1.0
  C  C272  1  0.13785000  0.63058000  0.52673000  1.0
  C  C273  1  0.12600000  0.66476000  0.44455000  1.0
  C  C274  1  0.11474000  0.75012000  0.39674000  1.0
  C  C275  1  0.11432000  0.79971000  0.43194000  1.0
  C  C276  1  0.15157000  0.52888000  0.44828000  1.0
  C  C277  1  0.13592000  0.50017000  0.39969000  1.0
  C  C278  1  0.09302000  0.63004000  0.34294000  1.0
  C  C279  1  0.58797000  0.69268000  0.40443000  1.0
  C  C280  1  0.67108000  0.66685000  0.37998000  1.0
  C  C281  1  0.73300000  0.68648000  0.40291000  1.0
  C  C282  1  0.71881000  0.72860000  0.45023000  1.0
  C  C283  1  0.78012000  0.74774000  0.47092000  1.0
  C  C284  1  0.85901000  0.72584000  0.44569000  1.0
  C  C285  1  0.62498000  0.59949000  0.31488000  1.0
  C  C286  1  0.68672000  0.62257000  0.33593000  1.0
  C  C287  1  0.53390000  0.83058000  0.52452000  1.0
  C  C288  1  0.51699000  0.91785000  0.51200000  1.0
  C  C289  1  0.44317000  0.94409000  0.54252000  1.0
  C  C290  1  0.38337000  0.89075000  0.58443000  1.0
  C  C291  1  0.31109000  0.91669000  0.61269000  1.0
  C  C292  1  0.29454000  0.99779000  0.60190000  1.0
  C  C293  1  0.64942000  0.94894000  0.43744000  1.0
  C  C294  1  0.57397000  0.97297000  0.46922000  1.0
  C  C295  1  0.31617000  0.72832000  0.58377000  1.0
  C  C296  1  0.29578000  0.69375000  0.66666667  1.0
  C  C297  1  0.42431000  0.66637000  0.63986000  1.0
  C  C298  1  0.36997000  0.60784000  0.78763000  1.0
  C  C299  1  0.31506000  0.62652000  0.84215000  1.0
  C  C300  1  0.31846000  0.57808000  0.92604000  1.0
  C  C301  1  0.37622000  0.51094000  0.95697000  1.0
  C  C302  1  0.43095000  0.49371000  0.90122000  1.0
  C  C303  1  0.42823000  0.54165000  0.81727000  1.0
  C  C304  1  0.37898000  0.45926000  0.04606000  1.0
  C  C305  1  0.37176000  0.49504000  0.09662000  1.0
  C  C306  1  0.37750000  0.44687000  0.18094000  1.0
  C  C307  1  0.38538000  0.36115000  0.21456000  1.0
  C  C308  1  0.38573000  0.32386000  0.16621000  1.0
  C  C309  1  0.38672000  0.37381000  0.08120000  1.0
  C  C310  1  0.37851000  0.23518000  0.20447000  1.0
  C  C311  1  0.34217000  0.20539000  0.16582000  1.0
  C  C312  1  0.33178000  0.12291000  0.20179000  1.0
  C  C313  1  0.35692000  0.06824000  0.27856000  1.0
  C  C314  1  0.39126000  0.09684000  0.31906000  1.0
  C  C315  1  0.40241000  0.17908000  0.28223000  1.0
  C  C316  1  0.29364000  0.94510000  0.30813000  1.0
  C  C317  1  0.31423000  0.86228000  0.35413000  1.0
  C  C318  1  0.40124000  0.92293000  0.36534000  1.0
  C  C319  1  0.37453000  0.48514000  0.23340000  1.0
  C  C320  1  0.36214000  0.43918000  0.31931000  1.0
  C  C321  1  0.36214000  0.47327000  0.36942000  1.0
  C  C322  1  0.37399000  0.55545000  0.33524000  1.0
  C  C323  1  0.38526000  0.60326000  0.24988000  1.0
  C  C324  1  0.38568000  0.56807000  0.20029000  1.0
  C  C325  1  0.34843000  0.55172000  0.47112000  1.0
  C  C326  1  0.36408000  0.60031000  0.49983000  1.0
  C  C327  1  0.40697000  0.65706000  0.36996000  1.0
  N  N328  1  0.89619000  0.56780000  0.71098000  1.0
  N  N329  1  0.86480000  0.70208000  0.65443000  1.0
  N  N330  1  0.84963000  0.31580000  0.98322000  1.0
  N  N331  1  0.88145000  0.38932000  0.84941000  1.0
  N  N332  1  0.87552000  0.38812000  0.58809000  1.0
  N  N333  1  0.90080000  0.43644000  0.66570000  1.0
  N  N334  1  0.60381000  0.28902000  0.43220000  1.0
  N  N335  1  0.63520000  0.34557000  0.29792000  1.0
  N  N336  1  0.65037000  0.01678000  0.68420000  1.0
  N  N337  1  0.61855000  0.15060000  0.61068000  1.0
  N  N338  1  0.62448000  0.41191000  0.61188000  1.0
  N  N339  1  0.59920000  0.33430000  0.56356000  1.0
  N  N340  1  0.10381000  0.43220000  0.28902000  1.0
  N  N341  1  0.13520000  0.29792000  0.34557000  1.0
  N  N342  1  0.15037000  0.68420000  0.01678000  1.0
  N  N343  1  0.11855000  0.61068000  0.15059000  1.0
  N  N344  1  0.12448000  0.61188000  0.41191000  1.0
  N  N345  1  0.09920000  0.56356000  0.33430000  1.0
  N  N346  1  0.39619000  0.71098000  0.56780000  1.0
  N  N347  1  0.36480000  0.65443000  0.70208000  1.0
  N  N348  1  0.34963000  0.98322000  0.31580000  1.0
  N  N349  1  0.38145000  0.84941000  0.38932000  1.0
  N  N350  1  0.37552000  0.58809000  0.38812000  1.0
  N  N351  1  0.40080000  0.66570000  0.43644000  1.0
  O  O352  1  0.06119000  0.48037000  0.65765000  1.0
  O  O353  1  0.04602000  0.35106000  0.74960000  1.0
  O  O354  1  0.01840000  0.46551000  0.82251000  1.0
  O  O355  1  0.06060000  0.58901000  0.77442000  1.0
  O  O356  1  0.43881000  0.34235000  0.51963000  1.0
  O  O357  1  0.45398000  0.25040000  0.64894000  1.0
  O  O358  1  0.48160000  0.17749000  0.53448000  1.0
  O  O359  1  0.43940000  0.22558000  0.41099000  1.0
  O  O360  1  0.93881000  0.51963000  0.34235000  1.0
  O  O361  1  0.95398000  0.64894000  0.25040000  1.0
  O  O362  1  0.98160000  0.53449000  0.17749000  1.0
  O  O363  1  0.93940000  0.41099000  0.22557000  1.0
  O  O364  1  0.56119000  0.65765000  0.48037000  1.0
  O  O365  1  0.54602000  0.74960000  0.35106000  1.0
  O  O366  1  0.51840000  0.82251000  0.46551000  1.0
  O  O367  1  0.56061000  0.77443000  0.58901000  1.0
