# generated using pymatgen
data_Zn4H8C28S2Cl2O13F4
_symmetry_space_group_name_H-M   'P 1'
_cell_length_a   18.56460000
_cell_length_b   19.74600000
_cell_length_c   32.85310000
_cell_angle_alpha   86.01080000
_cell_angle_beta   73.58700000
_cell_angle_gamma   61.95550000
_symmetry_Int_Tables_number   1
_chemical_formula_structural   Zn4H8C28S2Cl2O13F4
_chemical_formula_sum   'Zn16 H32 C112 S8 Cl8 O52 F16'
_cell_volume   10167.44317327
_cell_formula_units_Z   4
loop_
 _symmetry_equiv_pos_site_id
 _symmetry_equiv_pos_as_xyz
  1  'x, y, z'
loop_
 _atom_site_type_symbol
 _atom_site_label
 _atom_site_symmetry_multiplicity
 _atom_site_fract_x
 _atom_site_fract_y
 _atom_site_fract_z
 _atom_site_occupancy
  Zn  Zn0  1  0.87430000  0.55607000  0.51882000  1.0
  Zn  Zn1  1  0.03834000  0.48494000  0.43853000  1.0
  Zn  Zn2  1  0.04191000  0.39798000  0.52355000  1.0
  Zn  Zn3  1  0.04678000  0.56019000  0.51850000  1.0
  Zn  Zn4  1  0.62423000  0.19183000  0.73251000  1.0
  Zn  Zn5  1  0.46461000  0.35000000  0.72575000  1.0
  Zn  Zn6  1  0.45788000  0.26582000  0.81278000  1.0
  Zn  Zn7  1  0.45295000  0.19223000  0.72918000  1.0
  Zn  Zn8  1  0.46286000  0.76212000  0.31275000  1.0
  Zn  Zn9  1  0.45366000  0.69272000  0.23076000  1.0
  Zn  Zn10  1  0.62564000  0.69250000  0.22903000  1.0
  Zn  Zn11  1  0.45833000  0.85213000  0.22654000  1.0
  Zn  Zn12  1  0.03516000  0.90003000  0.02437000  1.0
  Zn  Zn13  1  0.05100000  0.05606000  0.01855000  1.0
  Zn  Zn14  1  0.87591000  0.05967000  0.01984000  1.0
  Zn  Zn15  1  0.03672000  0.98420000  0.93723000  1.0
  H  H16  1  0.54274000  0.48273000  0.62161000  1.0
  H  H17  1  0.54804000  0.52276000  0.66696000  1.0
  H  H18  1  0.64403000  0.57093000  0.61893000  1.0
  H  H19  1  0.63874000  0.53083000  0.57357000  1.0
  H  H20  1  0.35299000  0.67383000  0.43083000  1.0
  H  H21  1  0.26230000  0.76205000  0.42822000  1.0
  H  H22  1  0.16610000  0.71404000  0.47621000  1.0
  H  H23  1  0.25674000  0.62590000  0.47884000  1.0
  H  H24  1  0.54744000  0.76217000  0.42808000  1.0
  H  H25  1  0.54233000  0.67398000  0.43065000  1.0
  H  H26  1  0.63838000  0.62589000  0.47865000  1.0
  H  H27  1  0.64362000  0.71401000  0.47613000  1.0
  H  H28  1  0.33377000  0.17927000  0.63110000  1.0
  H  H29  1  0.24314000  0.21919000  0.67648000  1.0
  H  H30  1  0.14696000  0.26727000  0.62846000  1.0
  H  H31  1  0.23768000  0.22727000  0.58311000  1.0
  H  H32  1  0.95720000  0.07634000  0.81933000  1.0
  H  H33  1  0.95194000  0.98829000  0.82196000  1.0
  H  H34  1  0.85589000  0.03622000  0.77394000  1.0
  H  H35  1  0.86108000  0.12432000  0.77128000  1.0
  H  H36  1  0.16616000  0.21375000  0.97601000  1.0
  H  H37  1  0.25693000  0.12567000  0.97862000  1.0
  H  H38  1  0.35293000  0.17372000  0.93060000  1.0
  H  H39  1  0.26223000  0.26175000  0.92798000  1.0
  H  H40  1  0.25692000  0.03110000  0.07348000  1.0
  H  H41  1  0.16603000  0.07129000  0.11880000  1.0
  H  H42  1  0.26201000  0.02316000  0.16690000  1.0
  H  H43  1  0.35279000  0.98307000  0.12159000  1.0
  H  H44  1  0.95195000  0.72703000  0.08311000  1.0
  H  H45  1  0.95727000  0.76711000  0.12844000  1.0
  H  H46  1  0.86126000  0.71907000  0.17650000  1.0
  H  H47  1  0.85595000  0.67896000  0.13118000  1.0
  C  C48  1  0.86250000  0.56822000  0.43111000  1.0
  C  C49  1  0.12335000  0.31557000  0.43861000  1.0
  C  C50  1  0.86337000  0.43051000  0.56855000  1.0
  C  C51  1  0.13801000  0.43201000  0.56846000  1.0
  C  C52  1  0.87652000  0.68399000  0.56095000  1.0
  C  C53  1  0.13746000  0.56892000  0.43096000  1.0
  C  C54  1  0.63866000  0.31797000  0.68140000  1.0
  C  C55  1  0.37734000  0.43428000  0.81110000  1.0
  C  C56  1  0.63631000  0.18152000  0.81935000  1.0
  C  C57  1  0.36196000  0.18121000  0.81826000  1.0
  C  C58  1  0.62313000  0.06597000  0.68861000  1.0
  C  C59  1  0.36330000  0.31925000  0.68082000  1.0
  C  C60  1  0.36303000  0.68073000  0.31872000  1.0
  C  C61  1  0.62291000  0.56591000  0.18833000  1.0
  C  C62  1  0.63792000  0.68083000  0.31838000  1.0
  C  C63  1  0.63647000  0.81940000  0.18097000  1.0
  C  C64  1  0.37703000  0.93313000  0.31173000  1.0
  C  C65  1  0.36202000  0.81855000  0.18123000  1.0
  C  C66  1  0.13734000  0.93080000  0.06868000  1.0
  C  C67  1  0.87906000  0.18390000  0.06128000  1.0
  C  C68  1  0.86152000  0.93192000  0.06890000  1.0
  C  C69  1  0.86183000  0.06909000  0.93147000  1.0
  C  C70  1  0.12157000  0.81581000  0.93892000  1.0
  C  C71  1  0.13751000  0.06817000  0.93093000  1.0
  C  C72  1  0.73745000  0.80290000  0.60100000  1.0
  C  C73  1  0.76233000  0.94674000  0.64902000  1.0
  C  C74  1  0.82554000  0.75847000  0.58613000  1.0
  C  C75  1  0.67418000  0.99118000  0.66376000  1.0
  C  C76  1  0.78538000  0.87804000  0.62607000  1.0
  C  C77  1  0.71441000  0.87159000  0.62390000  1.0
  C  C78  1  0.20207000  0.22672000  0.36899000  1.0
  C  C79  1  0.29826000  0.02237000  0.38128000  1.0
  C  C80  1  0.17266000  0.24159000  0.41310000  1.0
  C  C81  1  0.32774000  0.00726000  0.33723000  1.0
  C  C82  1  0.25243000  0.10239000  0.39285000  1.0
  C  C83  1  0.24794000  0.14661000  0.35742000  1.0
  C  C84  1  0.69671000  0.34489000  0.65286000  1.0
  C  C85  1  0.80805000  0.40079000  0.59708000  1.0
  C  C86  1  0.66623000  0.41721000  0.63640000  1.0
  C  C87  1  0.83964000  0.32768000  0.61346000  1.0
  C  C88  1  0.71925000  0.44381000  0.60986000  1.0
  C  C89  1  0.78621000  0.30084000  0.64021000  1.0
  C  C90  1  0.58557000  0.49014000  0.63595000  1.0
  C  C91  1  0.64571000  0.52032000  0.60586000  1.0
  C  C92  1  0.30582000  0.65209000  0.34629000  1.0
  C  C93  1  0.19423000  0.59646000  0.40191000  1.0
  C  C94  1  0.28020000  0.66359000  0.39065000  1.0
  C  C95  1  0.21956000  0.58436000  0.35715000  1.0
  C  C96  1  0.22707000  0.63714000  0.41714000  1.0
  C  C97  1  0.27312000  0.61115000  0.33041000  1.0
  C  C98  1  0.28836000  0.69923000  0.42738000  1.0
  C  C99  1  0.22809000  0.66914000  0.45745000  1.0
  C  C100  1  0.69608000  0.65216000  0.34609000  1.0
  C  C101  1  0.80738000  0.59633000  0.40195000  1.0
  C  C102  1  0.66565000  0.66368000  0.39047000  1.0
  C  C103  1  0.83908000  0.58434000  0.35719000  1.0
  C  C104  1  0.71863000  0.63714000  0.41703000  1.0
  C  C105  1  0.78558000  0.61120000  0.33039000  1.0
  C  C106  1  0.58503000  0.69935000  0.42721000  1.0
  C  C107  1  0.64524000  0.66919000  0.45732000  1.0
  C  C108  1  0.30588000  0.34933000  0.65278000  1.0
  C  C109  1  0.19432000  0.40515000  0.59708000  1.0
  C  C110  1  0.27273000  0.30634000  0.64014000  1.0
  C  C111  1  0.22706000  0.44926000  0.60971000  1.0
  C  C112  1  0.21961000  0.33290000  0.61361000  1.0
  C  C113  1  0.28060000  0.42249000  0.63644000  1.0
  C  C114  1  0.27175000  0.22983000  0.64419000  1.0
  C  C115  1  0.21152000  0.25993000  0.61411000  1.0
  C  C116  1  0.29814000  0.58319000  0.82087000  1.0
  C  C117  1  0.20197000  0.66689000  0.92919000  1.0
  C  C118  1  0.32758000  0.50956000  0.83538000  1.0
  C  C119  1  0.17229000  0.74049000  0.91465000  1.0
  C  C120  1  0.24787000  0.60952000  0.89493000  1.0
  C  C121  1  0.25230000  0.64057000  0.85511000  1.0
  C  C122  1  0.80355000  0.09819000  0.90388000  1.0
  C  C123  1  0.69184000  0.15389000  0.84831000  1.0
  C  C124  1  0.83380000  0.08675000  0.85950000  1.0
  C  C125  1  0.66045000  0.16587000  0.89305000  1.0
  C  C126  1  0.78066000  0.11328000  0.83300000  1.0
  C  C127  1  0.71406000  0.13918000  0.91976000  1.0
  C  C128  1  0.91438000  0.05110000  0.82278000  1.0
  C  C129  1  0.85415000  0.08117000  0.79270000  1.0
  C  C130  1  0.19407000  0.09607000  0.90182000  1.0
  C  C131  1  0.30550000  0.15186000  0.84600000  1.0
  C  C132  1  0.22711000  0.13668000  0.91696000  1.0
  C  C133  1  0.27271000  0.11086000  0.83029000  1.0
  C  C134  1  0.28015000  0.16325000  0.89040000  1.0
  C  C135  1  0.21919000  0.08414000  0.85707000  1.0
  C  C136  1  0.22816000  0.16885000  0.95723000  1.0
  C  C137  1  0.28836000  0.19894000  0.92712000  1.0
  C  C138  1  0.64238000  0.44670000  0.14896000  1.0
  C  C139  1  0.85918000  0.30299000  0.10099000  1.0
  C  C140  1  0.67149000  0.49108000  0.16368000  1.0
  C  C141  1  0.83038000  0.25856000  0.08616000  1.0
  C  C142  1  0.79062000  0.37160000  0.12389000  1.0
  C  C143  1  0.71104000  0.37800000  0.12606000  1.0
  C  C144  1  0.19405000  0.90107000  0.09706000  1.0
  C  C145  1  0.30544000  0.84538000  0.15280000  1.0
  C  C146  1  0.22698000  0.94417000  0.10979000  1.0
  C  C147  1  0.27279000  0.80114000  0.14018000  1.0
  C  C148  1  0.27996000  0.91766000  0.13635000  1.0
  C  C149  1  0.21923000  0.82794000  0.11344000  1.0
  C  C150  1  0.22803000  0.02066000  0.10576000  1.0
  C  C151  1  0.28818000  0.99053000  0.13589000  1.0
  C  C152  1  0.80339000  0.90491000  0.09715000  1.0
  C  C153  1  0.69191000  0.84926000  0.15281000  1.0
  C  C154  1  0.83381000  0.83260000  0.11360000  1.0
  C  C155  1  0.66040000  0.92240000  0.13648000  1.0
  C  C156  1  0.78073000  0.80608000  0.14014000  1.0
  C  C157  1  0.71391000  0.94917000  0.10975000  1.0
  C  C158  1  0.91441000  0.75969000  0.11411000  1.0
  C  C159  1  0.85423000  0.72959000  0.14423000  1.0
  S  S160  1  0.87996000  0.80067000  0.60024000  1.0
  S  S161  1  0.61980000  0.94898000  0.64963000  1.0
  S  S162  1  0.20096000  0.15800000  0.44021000  1.0
  S  S163  1  0.29949000  0.09084000  0.31009000  1.0
  S  S164  1  0.29927000  0.51067000  0.89075000  1.0
  S  S165  1  0.20068000  0.73944000  0.85930000  1.0
  S  S166  1  0.78218000  0.44890000  0.14963000  1.0
  S  S167  1  0.71965000  0.30065000  0.10024000  1.0
  Cl  Cl168  1  0.66258000  0.78149000  0.59383000  1.0
  Cl  Cl169  1  0.83703000  0.96832000  0.65612000  1.0
  Cl  Cl170  1  0.18768000  0.29280000  0.33175000  1.0
  Cl  Cl171  1  0.31255000  0.95632000  0.41868000  1.0
  Cl  Cl172  1  0.31234000  0.60615000  0.76916000  1.0
  Cl  Cl173  1  0.18766000  0.64394000  0.98088000  1.0
  Cl  Cl174  1  0.53908000  0.46827000  0.15613000  1.0
  Cl  Cl175  1  0.96264000  0.28155000  0.09382000  1.0
  O  O176  1  0.99937000  0.50021000  0.50091000  1.0
  O  O177  1  0.82373000  0.58408000  0.47091000  1.0
  O  O178  1  0.10248000  0.37618000  0.41846000  1.0
  O  O179  1  0.94339000  0.38725000  0.55863000  1.0
  O  O180  1  0.94243000  0.53117000  0.41435000  1.0
  O  O181  1  0.82414000  0.49796000  0.55653000  1.0
  O  O182  1  0.10594000  0.31207000  0.47913000  1.0
  O  O183  1  0.11552000  0.38405000  0.55957000  1.0
  O  O184  1  0.95742000  0.65724000  0.55134000  1.0
  O  O185  1  0.11742000  0.49897000  0.55541000  1.0
  O  O186  1  0.83646000  0.65317000  0.55100000  1.0
  O  O187  1  0.11226000  0.53097000  0.41422000  1.0
  O  O188  1  0.11902000  0.58622000  0.47070000  1.0
  O  O189  1  0.49934000  0.24969000  0.75026000  1.0
  O  O190  1  0.67189000  0.25124000  0.69472000  1.0
  O  O191  1  0.39931000  0.43408000  0.77069000  1.0
  O  O192  1  0.55624000  0.21861000  0.83588000  1.0
  O  O193  1  0.55924000  0.36563000  0.69000000  1.0
  O  O194  1  0.67552000  0.16488000  0.77964000  1.0
  O  O195  1  0.39408000  0.37545000  0.83320000  1.0
  O  O196  1  0.38448000  0.21853000  0.83777000  1.0
  O  O197  1  0.54219000  0.09423000  0.69698000  1.0
  O  O198  1  0.38270000  0.16716000  0.77825000  1.0
  O  O199  1  0.66329000  0.09570000  0.69949000  1.0
  O  O200  1  0.38984000  0.36273000  0.69084000  1.0
  O  O201  1  0.38092000  0.25128000  0.69226000  1.0
  O  O202  1  0.50073000  0.75086000  0.25026000  1.0
  O  O203  1  0.38696000  0.71699000  0.33812000  1.0
  O  O204  1  0.54213000  0.59594000  0.19868000  1.0
  O  O205  1  0.67127000  0.66754000  0.27839000  1.0
  O  O206  1  0.38328000  0.66688000  0.27877000  1.0
  O  O207  1  0.55843000  0.71664000  0.33799000  1.0
  O  O208  1  0.66686000  0.59420000  0.19712000  1.0
  O  O209  1  0.67554000  0.75136000  0.19230000  1.0
  O  O210  1  0.39411000  0.93721000  0.27129000  1.0
  O  O211  1  0.55642000  0.86297000  0.19123000  1.0
  O  O212  1  0.39794000  0.87236000  0.33178000  1.0
  O  O213  1  0.38326000  0.75124000  0.19379000  1.0
  O  O214  1  0.38430000  0.86643000  0.19050000  1.0
  O  O215  1  0.00072000  0.00019000  0.99965000  1.0
  O  O216  1  0.11012000  0.88761000  0.05904000  1.0
  O  O217  1  0.95994000  0.15307000  0.05101000  1.0
  O  O218  1  0.82841000  0.99921000  0.05626000  1.0
  O  O219  1  0.12114000  0.99813000  0.05648000  1.0
  O  O220  1  0.94092000  0.88394000  0.05989000  1.0
  O  O221  1  0.83437000  0.15676000  0.05225000  1.0
  O  O222  1  0.82854000  0.08402000  0.97141000  1.0
  O  O223  1  0.10276000  0.87459000  0.91674000  1.0
  O  O224  1  0.94120000  0.03123000  0.91201000  1.0
  O  O225  1  0.10082000  0.81602000  0.97930000  1.0
  O  O226  1  0.12126000  0.08390000  0.97066000  1.0
  O  O227  1  0.11064000  0.03169000  0.91425000  1.0
  F  F228  1  0.92387000  0.27887000  0.60433000  1.0
  F  F229  1  0.82601000  0.22972000  0.65329000  1.0
  F  F230  1  0.19357000  0.54612000  0.33729000  1.0
  F  F231  1  0.29154000  0.59519000  0.28836000  1.0
  F  F232  1  0.92320000  0.54605000  0.33738000  1.0
  F  F233  1  0.82536000  0.59521000  0.28832000  1.0
  F  F234  1  0.20890000  0.52034000  0.59655000  1.0
  F  F235  1  0.30689000  0.47136000  0.64553000  1.0
  F  F236  1  0.57625000  0.20393000  0.91292000  1.0
  F  F237  1  0.67446000  0.15505000  0.96183000  1.0
  F  F238  1  0.29094000  0.09495000  0.78818000  1.0
  F  F239  1  0.19294000  0.04602000  0.83721000  1.0
  F  F240  1  0.29104000  0.73010000  0.15325000  1.0
  F  F241  1  0.19307000  0.77907000  0.10428000  1.0
  F  F242  1  0.57617000  0.97129000  0.14563000  1.0
  F  F243  1  0.67432000  0.02021000  0.09663000  1.0
