# generated using pymatgen
data_ZnH9C5NO3
_symmetry_space_group_name_H-M   'P 1'
_cell_length_a   6.57384000
_cell_length_b   7.57217000
_cell_length_c   12.98130000
_cell_angle_alpha   89.99980000
_cell_angle_beta   89.99990000
_cell_angle_gamma   73.01100000
_symmetry_Int_Tables_number   1
_chemical_formula_structural   ZnH9C5NO3
_chemical_formula_sum   'Zn4 H36 C20 N4 O12'
_cell_volume   617.98718611
_cell_formula_units_Z   4
loop_
 _symmetry_equiv_pos_site_id
 _symmetry_equiv_pos_as_xyz
  1  'x, y, z'
loop_
 _atom_site_type_symbol
 _atom_site_label
 _atom_site_symmetry_multiplicity
 _atom_site_fract_x
 _atom_site_fract_y
 _atom_site_fract_z
 _atom_site_occupancy
  Zn  Zn0  1  0.88904000  0.55967000  0.21534000  1.0
  Zn  Zn1  1  0.61096000  0.44032000  0.71534000  1.0
  Zn  Zn2  1  0.11096000  0.44034000  0.78466000  1.0
  Zn  Zn3  1  0.38905000  0.55967000  0.28466000  1.0
  H  H4  1  0.56297000  0.82779000  0.09326000  1.0
  H  H5  1  0.93704000  0.17221000  0.59326000  1.0
  H  H6  1  0.43703000  0.17222000  0.90675000  1.0
  H  H7  1  0.06297000  0.82778000  0.40674000  1.0
  H  H8  1  0.69103000  0.89479000  0.98506000  1.0
  H  H9  1  0.80897000  0.10520000  0.48506000  1.0
  H  H10  1  0.30897000  0.10521000  0.01494000  1.0
  H  H11  1  0.19103000  0.89478000  0.51494000  1.0
  H  H12  1  0.73134000  0.59948000  0.92265000  1.0
  H  H13  1  0.76867000  0.40052000  0.42265000  1.0
  H  H14  1  0.26866000  0.40053000  0.07735000  1.0
  H  H15  1  0.23134000  0.59947000  0.57735000  1.0
  H  H16  1  0.63270000  0.52361000  0.03805000  1.0
  H  H17  1  0.86730000  0.47639000  0.53805000  1.0
  H  H18  1  0.36730000  0.47640000  0.96195000  1.0
  H  H19  1  0.13270000  0.52360000  0.46195000  1.0
  H  H20  1  0.14851000  0.73909000  0.06206000  1.0
  H  H21  1  0.35149000  0.26091000  0.56206000  1.0
  H  H22  1  0.85149000  0.26092000  0.93794000  1.0
  H  H23  1  0.64851000  0.73908000  0.43794000  1.0
  H  H24  1  0.03563000  0.72591000  0.93774000  1.0
  H  H25  1  0.46438000  0.27409000  0.43774000  1.0
  H  H26  1  0.96437000  0.27410000  0.06226000  1.0
  H  H27  1  0.53563000  0.72590000  0.56226000  1.0
  H  H28  1  0.67189000  0.12096000  0.11342000  1.0
  H  H29  1  0.82812000  0.87904000  0.61343000  1.0
  H  H30  1  0.32811000  0.87905000  0.88657000  1.0
  H  H31  1  0.17189000  0.12095000  0.38657000  1.0
  H  H32  1  0.94023000  0.99031000  0.11133000  1.0
  H  H33  1  0.55978000  0.00968000  0.61133000  1.0
  H  H34  1  0.05977000  0.00970000  0.88867000  1.0
  H  H35  1  0.44023000  0.99030000  0.38866000  1.0
  H  H36  1  0.21527000  0.30772000  0.24722000  1.0
  H  H37  1  0.28473000  0.69228000  0.74722000  1.0
  H  H38  1  0.78470000  0.69228000  0.75278000  1.0
  H  H39  1  0.71528000  0.30771000  0.25278000  1.0
  C  C40  1  0.77668000  0.96121000  0.24784000  1.0
  C  C41  1  0.72331000  0.03880000  0.74784000  1.0
  C  C42  1  0.22333000  0.03880000  0.75216000  1.0
  C  C43  1  0.27667000  0.96120000  0.25216000  1.0
  C  C44  1  0.71443000  0.84333000  0.06497000  1.0
  C  C45  1  0.78557000  0.15667000  0.56497000  1.0
  C  C46  1  0.28556000  0.15668000  0.93503000  1.0
  C  C47  1  0.21444000  0.84332000  0.43503000  1.0
  C  C48  1  0.77605000  0.53451000  0.99869000  1.0
  C  C49  1  0.72395000  0.46549000  0.49869000  1.0
  C  C50  1  0.22395000  0.46550000  0.00131000  1.0
  C  C51  1  0.27606000  0.53450000  0.50131000  1.0
  C  C52  1  0.07214000  0.65802000  0.01360000  1.0
  C  C53  1  0.42786000  0.34198000  0.51360000  1.0
  C  C54  1  0.92786000  0.34198000  0.98640000  1.0
  C  C55  1  0.57214000  0.65801000  0.48640000  1.0
  C  C56  1  0.77985000  0.98366000  0.13126000  1.0
  C  C57  1  0.72016000  0.01634000  0.63126000  1.0
  C  C58  1  0.22015000  0.01634000  0.86874000  1.0
  C  C59  1  0.27985000  0.98365000  0.36874000  1.0
  N  N60  1  0.86917000  0.65432000  0.06234000  1.0
  N  N61  1  0.63084000  0.34568000  0.56234000  1.0
  N  N62  1  0.13083000  0.34569000  0.93766000  1.0
  N  N63  1  0.36917000  0.65431000  0.43766000  1.0
  O  O64  1  0.78908000  0.80207000  0.28743000  1.0
  O  O65  1  0.71093000  0.19793000  0.78743000  1.0
  O  O66  1  0.21093000  0.19793000  0.71257000  1.0
  O  O67  1  0.28908000  0.80206000  0.21257000  1.0
  O  O68  1  0.16654000  0.43900000  0.27185000  1.0
  O  O69  1  0.33347000  0.56101000  0.77185000  1.0
  O  O70  1  0.83346000  0.56101000  0.72815000  1.0
  O  O71  1  0.66654000  0.43899000  0.22815000  1.0
  O  O72  1  0.76412000  0.09997000  0.30373000  1.0
  O  O73  1  0.73583000  0.90004000  0.80373000  1.0
  O  O74  1  0.23589000  0.90004000  0.69627000  1.0
  O  O75  1  0.26410000  0.09997000  0.19627000  1.0
