# generated using pymatgen
data_Cu2PH9C2SO9
_symmetry_space_group_name_H-M   'P 1'
_cell_length_a   7.13528000
_cell_length_b   10.30580000
_cell_length_c   15.20130000
_cell_angle_alpha   77.83600000
_cell_angle_beta   89.90460000
_cell_angle_gamma   89.84870000
_symmetry_Int_Tables_number   1
_chemical_formula_structural   Cu2PH9C2SO9
_chemical_formula_sum   'Cu8 P4 H36 C8 S4 O36'
_cell_volume   1092.72271672
_cell_formula_units_Z   4
loop_
 _symmetry_equiv_pos_site_id
 _symmetry_equiv_pos_as_xyz
  1  'x, y, z'
loop_
 _atom_site_type_symbol
 _atom_site_label
 _atom_site_symmetry_multiplicity
 _atom_site_fract_x
 _atom_site_fract_y
 _atom_site_fract_z
 _atom_site_occupancy
  Cu  Cu0  1  0.68135000  0.84086000  0.40385000  1.0
  Cu  Cu1  1  0.18088000  0.65981000  0.09651000  1.0
  Cu  Cu2  1  0.32092000  0.15890000  0.59604000  1.0
  Cu  Cu3  1  0.81914000  0.34026000  0.90351000  1.0
  Cu  Cu4  1  0.43029000  0.75074000  0.25197000  1.0
  Cu  Cu5  1  0.93058000  0.75038000  0.24848000  1.0
  Cu  Cu6  1  0.56917000  0.24891000  0.74751000  1.0
  Cu  Cu7  1  0.06912000  0.24985000  0.75214000  1.0
  P  P8  1  0.68624000  0.56244000  0.37864000  1.0
  P  P9  1  0.18581000  0.93849000  0.12143000  1.0
  P  P10  1  0.31330000  0.43741000  0.62121000  1.0
  P  P11  1  0.81389000  0.06159000  0.87856000  1.0
  H  H12  1  0.54270000  0.37288000  0.46899000  1.0
  H  H13  1  0.04194000  0.12813000  0.03109000  1.0
  H  H14  1  0.45737000  0.62710000  0.53116000  1.0
  H  H15  1  0.95861000  0.87189000  0.96860000  1.0
  H  H16  1  0.69606000  0.33264000  0.38566000  1.0
  H  H17  1  0.19493000  0.16835000  0.11417000  1.0
  H  H18  1  0.30387000  0.66715000  0.61445000  1.0
  H  H19  1  0.80494000  0.83178000  0.88569000  1.0
  H  H20  1  0.81119000  0.40338000  0.56601000  1.0
  H  H21  1  0.31050000  0.09712000  0.93376000  1.0
  H  H22  1  0.18934000  0.59708000  0.43382000  1.0
  H  H23  1  0.69092000  0.90282000  0.06634000  1.0
  H  H24  1  0.97709000  0.37791000  0.48349000  1.0
  H  H25  1  0.47635000  0.12226000  0.01604000  1.0
  H  H26  1  0.02308000  0.62231000  0.51625000  1.0
  H  H27  1  0.52430000  0.87817000  0.98421000  1.0
  H  H28  1  0.67869000  0.91983000  0.23961000  1.0
  H  H29  1  0.17969000  0.58134000  0.26076000  1.0
  H  H30  1  0.32105000  0.08025000  0.76045000  1.0
  H  H31  1  0.81982000  0.41852000  0.73915000  1.0
  H  H32  1  0.79875000  0.94424000  0.52718000  1.0
  H  H33  1  0.29886000  0.55531000  0.97358000  1.0
  H  H34  1  0.20019000  0.05624000  0.47290000  1.0
  H  H35  1  0.70019000  0.44386000  0.02680000  1.0
  H  H36  1  0.71592000  0.08341000  0.40238000  1.0
  H  H37  1  0.21516000  0.41691000  0.09793000  1.0
  H  H38  1  0.28392000  0.91673000  0.59759000  1.0
  H  H39  1  0.78458000  0.58293000  0.90221000  1.0
  H  H40  1  0.78409000  0.79037000  0.56633000  1.0
  H  H41  1  0.28751000  0.70946000  0.93477000  1.0
  H  H42  1  0.21561000  0.21016000  0.43413000  1.0
  H  H43  1  0.71342000  0.28972000  0.06541000  1.0
  H  H44  1  0.50650000  0.05077000  0.37866000  1.0
  H  H45  1  0.00665000  0.45090000  0.12313000  1.0
  H  H46  1  0.49415000  0.94787000  0.62069000  1.0
  H  H47  1  0.99338000  0.54941000  0.87719000  1.0
  C  C48  1  0.68214000  0.39113000  0.43807000  1.0
  C  C49  1  0.18141000  0.10974000  0.06185000  1.0
  C  C50  1  0.31782000  0.60880000  0.56195000  1.0
  C  C51  1  0.81895000  0.89034000  0.93804000  1.0
  C  C52  1  0.83423000  0.35518000  0.50899000  1.0
  C  C53  1  0.33341000  0.14532000  0.99074000  1.0
  C  C54  1  0.16604000  0.64505000  0.49091000  1.0
  C  C55  1  0.66727000  0.85484000  0.00933000  1.0
  S  S56  1  0.83319000  0.18086000  0.55615000  1.0
  S  S57  1  0.33215000  0.31958000  0.94354000  1.0
  S  S58  1  0.16705000  0.81944000  0.44400000  1.0
  S  S59  1  0.66811000  0.68050000  0.05630000  1.0
  O  O60  1  0.49546000  0.58406000  0.32915000  1.0
  O  O61  1  0.99572000  0.91767000  0.17148000  1.0
  O  O62  1  0.50373000  0.41604000  0.67092000  1.0
  O  O63  1  0.00442000  0.08277000  0.82873000  1.0
  O  O64  1  0.85954000  0.57747000  0.31595000  1.0
  O  O65  1  0.35974000  0.92292000  0.18385000  1.0
  O  O66  1  0.13960000  0.42207000  0.68382000  1.0
  O  O67  1  0.64036000  0.07685000  0.81604000  1.0
  O  O68  1  0.70445000  0.65127000  0.44965000  1.0
  O  O69  1  0.20447000  0.84951000  0.05056000  1.0
  O  O70  1  0.29528000  0.34863000  0.55021000  1.0
  O  O71  1  0.79502000  0.15055000  0.94944000  1.0
  O  O72  1  0.98837000  0.15051000  0.62030000  1.0
  O  O73  1  0.48734000  0.34950000  0.87924000  1.0
  O  O74  1  0.01206000  0.84969000  0.37963000  1.0
  O  O75  1  0.51294000  0.65073000  0.12066000  1.0
  O  O76  1  0.64966000  0.14731000  0.59852000  1.0
  O  O77  1  0.14857000  0.35360000  0.90136000  1.0
  O  O78  1  0.35068000  0.85342000  0.40189000  1.0
  O  O79  1  0.85164000  0.64607000  0.09839000  1.0
  O  O80  1  0.86363000  0.11459000  0.47851000  1.0
  O  O81  1  0.36251000  0.38571000  0.02119000  1.0
  O  O82  1  0.13559000  0.88538000  0.52171000  1.0
  O  O83  1  0.63712000  0.61464000  0.97858000  1.0
  O  O84  1  0.67936000  0.82724000  0.27289000  1.0
  O  O85  1  0.18184000  0.67384000  0.22730000  1.0
  O  O86  1  0.31856000  0.17273000  0.72694000  1.0
  O  O87  1  0.81790000  0.32607000  0.77272000  1.0
  O  O88  1  0.71127000  0.86709000  0.53609000  1.0
  O  O89  1  0.21296000  0.63366000  0.96468000  1.0
  O  O90  1  0.28817000  0.13304000  0.46393000  1.0
  O  O91  1  0.78690000  0.36606000  0.03544000  1.0
  O  O92  1  0.63791000  0.03787000  0.36308000  1.0
  O  O93  1  0.13860000  0.46269000  0.13784000  1.0
  O  O94  1  0.36328000  0.96180000  0.63666000  1.0
  O  O95  1  0.86159000  0.53731000  0.86234000  1.0
