# generated using pymatgen
data_Al4H15C37NO20
_symmetry_space_group_name_H-M   'P 1'
_cell_length_a   6.69110000
_cell_length_b   18.19470000
_cell_length_c   20.81790000
_cell_angle_alpha   72.07300000
_cell_angle_beta   89.70200000
_cell_angle_gamma   89.87460000
_symmetry_Int_Tables_number   1
_chemical_formula_structural   Al4H15C37NO20
_chemical_formula_sum   'Al4 H15 C37 N1 O20'
_cell_volume   2411.34363283
_cell_formula_units_Z   1
loop_
 _symmetry_equiv_pos_site_id
 _symmetry_equiv_pos_as_xyz
  1  'x, y, z'
loop_
 _atom_site_type_symbol
 _atom_site_label
 _atom_site_symmetry_multiplicity
 _atom_site_fract_x
 _atom_site_fract_y
 _atom_site_fract_z
 _atom_site_occupancy
  Al  Al0  1  0.86653000  0.50013000  0.49728000  1.0
  Al  Al1  1  0.36588000  0.49908000  0.49790000  1.0
  Al  Al2  1  0.36142000  0.00005000  0.99824000  1.0
  Al  Al3  1  0.86137000  0.00002000  0.99803000  1.0
  H  H4  1  0.80382000  0.24260000  0.17795000  1.0
  H  H5  1  0.40284000  0.17147000  0.24483000  1.0
  H  H6  1  0.38441000  0.25261000  0.32192000  1.0
  H  H7  1  0.29008000  0.70758000  0.71172000  1.0
  H  H8  1  0.28989000  0.78764000  0.79005000  1.0
  H  H9  1  0.93344000  0.79143000  0.78593000  1.0
  H  H10  1  0.93371000  0.71140000  0.70759000  1.0
  H  H11  1  0.63432000  0.32060000  0.22222000  1.0
  H  H12  1  0.52655000  0.39529000  0.28287000  1.0
  H  H13  1  0.77498000  0.42775000  0.28808000  1.0
  H  H14  1  0.68546000  0.34295000  0.34949000  1.0
  H  H15  1  0.61805000  0.39897000  0.53060000  1.0
  H  H16  1  0.11701000  0.59275000  0.50445000  1.0
  H  H17  1  0.61117000  0.09360000  0.00361000  1.0
  H  H18  1  0.11164000  0.89856000  0.01919000  1.0
  C  C19  1  0.61429000  0.60457000  0.39341000  1.0
  C  C20  1  0.61579000  0.57845000  0.57316000  1.0
  C  C21  1  0.11586000  0.39316000  0.60274000  1.0
  C  C22  1  0.11680000  0.42211000  0.42252000  1.0
  C  C23  1  0.93121000  0.24557000  0.20957000  1.0
  C  C24  1  0.10306000  0.20343000  0.20569000  1.0
  C  C25  1  0.27038000  0.20568000  0.24663000  1.0
  C  C26  1  0.25912000  0.25061000  0.28920000  1.0
  C  C27  1  0.08733000  0.29491000  0.29335000  1.0
  C  C28  1  0.91644000  0.29201000  0.25284000  1.0
  C  C29  1  0.10791000  0.15866000  0.16080000  1.0
  C  C30  1  0.09580000  0.33978000  0.33767000  1.0
  C  C31  1  0.11576000  0.37759000  0.37658000  1.0
  C  C32  1  0.10936000  0.12084000  0.12163000  1.0
  C  C33  1  0.11270000  0.16730000  0.83092000  1.0
  C  C34  1  0.11251000  0.22045000  0.77793000  1.0
  C  C35  1  0.11276000  0.27899000  0.71934000  1.0
  C  C36  1  0.11311000  0.33194000  0.66621000  1.0
  C  C37  1  0.61402000  0.66657000  0.33040000  1.0
  C  C38  1  0.61267000  0.71995000  0.27756000  1.0
  C  C39  1  0.61160000  0.77869000  0.21908000  1.0
  C  C40  1  0.61078000  0.83171000  0.16600000  1.0
  C  C41  1  0.42992000  0.77062000  0.77174000  1.0
  C  C42  1  0.61168000  0.79467000  0.79301000  1.0
  C  C43  1  0.79356000  0.77271000  0.76944000  1.0
  C  C44  1  0.79368000  0.72833000  0.72597000  1.0
  C  C45  1  0.61193000  0.70442000  0.70454000  1.0
  C  C46  1  0.43006000  0.72621000  0.72827000  1.0
  C  C47  1  0.61178000  0.83987000  0.83745000  1.0
  C  C48  1  0.61234000  0.65983000  0.65957000  1.0
  C  C49  1  0.61363000  0.62198000  0.62040000  1.0
  C  C50  1  0.61242000  0.87854000  0.87592000  1.0
  C  C51  1  0.61179000  0.92312000  0.92230000  1.0
  C  C52  1  0.61131000  0.89306000  0.10255000  1.0
  C  C53  1  0.11087000  0.07755000  0.07433000  1.0
  C  C54  1  0.11161000  0.10555000  0.89411000  1.0
  C  C55  1  0.68089000  0.37644000  0.29565000  1.0
  N  N56  1  0.74183000  0.33094000  0.25240000  1.0
  O  O57  1  0.44620000  0.56305000  0.55272000  1.0
  O  O58  1  0.78429000  0.58271000  0.41941000  1.0
  O  O59  1  0.94608000  0.44301000  0.43843000  1.0
  O  O60  1  0.78730000  0.56035000  0.55563000  1.0
  O  O61  1  0.94648000  0.41553000  0.57609000  1.0
  O  O62  1  0.44419000  0.57855000  0.41708000  1.0
  O  O63  1  0.61697000  0.45377000  0.50634000  1.0
  O  O64  1  0.28770000  0.41801000  0.57947000  1.0
  O  O65  1  0.28589000  0.43644000  0.44408000  1.0
  O  O66  1  0.11645000  0.54544000  0.49224000  1.0
  O  O67  1  0.78242000  0.91730000  0.07816000  1.0
  O  O68  1  0.44129000  0.94130000  0.94027000  1.0
  O  O69  1  0.28140000  0.08272000  0.91982000  1.0
  O  O70  1  0.44098000  0.91593000  0.07710000  1.0
  O  O71  1  0.28192000  0.05958000  0.05633000  1.0
  O  O72  1  0.78146000  0.93939000  0.94179000  1.0
  O  O73  1  0.61134000  0.04556000  0.99259000  1.0
  O  O74  1  0.94126000  0.06202000  0.05398000  1.0
  O  O75  1  0.94068000  0.08096000  0.91810000  1.0
  O  O76  1  0.11151000  0.95447000  0.00557000  1.0
