# generated using pymatgen
data_AgH10C13SN2O4F3
_symmetry_space_group_name_H-M   'P 1'
_cell_length_a   9.13772000
_cell_length_b   10.23590000
_cell_length_c   16.47550000
_cell_angle_alpha   90.00000000
_cell_angle_beta   101.20100000
_cell_angle_gamma   90.00000000
_symmetry_Int_Tables_number   1
_chemical_formula_structural   AgH10C13SN2O4F3
_chemical_formula_sum   'Ag4 H40 C52 S4 N8 O16 F12'
_cell_volume   1511.64613172
_cell_formula_units_Z   4
loop_
 _symmetry_equiv_pos_site_id
 _symmetry_equiv_pos_as_xyz
  1  'x, y, z'
loop_
 _atom_site_type_symbol
 _atom_site_label
 _atom_site_symmetry_multiplicity
 _atom_site_fract_x
 _atom_site_fract_y
 _atom_site_fract_z
 _atom_site_occupancy
  Ag  Ag0  1  0.53746000  0.59074000  0.11182000  1.0
  Ag  Ag1  1  0.46254000  0.09073000  0.38818000  1.0
  Ag  Ag2  1  0.46254000  0.40927000  0.88818000  1.0
  Ag  Ag3  1  0.53746000  0.90926000  0.61182000  1.0
  H  H4  1  0.86325000  0.61613000  0.16242000  1.0
  H  H5  1  0.13675000  0.11614000  0.33758000  1.0
  H  H6  1  0.13675000  0.38387000  0.83758000  1.0
  H  H7  1  0.86325000  0.88387000  0.66242000  1.0
  H  H8  1  0.08815000  0.50661000  0.24473000  1.0
  H  H9  1  0.91185000  0.00662000  0.25526000  1.0
  H  H10  1  0.91185000  0.49339000  0.75526000  1.0
  H  H11  1  0.08815000  0.99339000  0.74474000  1.0
  H  H12  1  0.05105000  0.31184000  0.33034000  1.0
  H  H13  1  0.94894000  0.81184000  0.16966000  1.0
  H  H14  1  0.94895000  0.68816000  0.66966000  1.0
  H  H15  1  0.05105000  0.18816000  0.83034000  1.0
  H  H16  1  0.79057000  0.22984000  0.32704000  1.0
  H  H17  1  0.20942000  0.72985000  0.17297000  1.0
  H  H18  1  0.20943000  0.77016000  0.67296000  1.0
  H  H19  1  0.79057000  0.27016000  0.82704000  1.0
  H  H20  1  0.53016000  0.23172000  0.25259000  1.0
  H  H21  1  0.46983000  0.73172000  0.24741000  1.0
  H  H22  1  0.46984000  0.76828000  0.74740000  1.0
  H  H23  1  0.53016000  0.26828000  0.75260000  1.0
  H  H24  1  0.46121000  0.36031000  0.18128000  1.0
  H  H25  1  0.53878000  0.86031000  0.31872000  1.0
  H  H26  1  0.53879000  0.63970000  0.81872000  1.0
  H  H27  1  0.46121000  0.13970000  0.68128000  1.0
  H  H28  1  0.64337000  0.58929000  0.41823000  1.0
  H  H29  1  0.35663000  0.08929000  0.08177000  1.0
  H  H30  1  0.35663000  0.41071000  0.58177000  1.0
  H  H31  1  0.64336000  0.91071000  0.91823000  1.0
  H  H32  1  0.82205000  0.55475000  0.55331000  1.0
  H  H33  1  0.17795000  0.05475000  0.94669000  1.0
  H  H34  1  0.17795000  0.44525000  0.44669000  1.0
  H  H35  1  0.82205000  0.94525000  0.05331000  1.0
  H  H36  1  0.83772000  0.33068000  0.61771000  1.0
  H  H37  1  0.16228000  0.83068000  0.88229000  1.0
  H  H38  1  0.16228000  0.66932000  0.38229000  1.0
  H  H39  1  0.83772000  0.16932000  0.11771000  1.0
  H  H40  1  0.67817000  0.15167000  0.54397000  1.0
  H  H41  1  0.32184000  0.65166000  0.95603000  1.0
  H  H42  1  0.32184000  0.84834000  0.45603000  1.0
  H  H43  1  0.67817000  0.34833000  0.04397000  1.0
  C  C44  1  0.85225000  0.53201000  0.20104000  1.0
  C  C45  1  0.14775000  0.03201000  0.29896000  1.0
  C  C46  1  0.14776000  0.46799000  0.79896000  1.0
  C  C47  1  0.85224000  0.96799000  0.70104000  1.0
  C  C48  1  0.97686000  0.47151000  0.24777000  1.0
  C  C49  1  0.02314000  0.97151000  0.25223000  1.0
  C  C50  1  0.02314000  0.52850000  0.75223000  1.0
  C  C51  1  0.97686000  0.02850000  0.74777000  1.0
  C  C52  1  0.95527000  0.36214000  0.29432000  1.0
  C  C53  1  0.04473000  0.86214000  0.20568000  1.0
  C  C54  1  0.04473000  0.63786000  0.70568000  1.0
  C  C55  1  0.95526000  0.13786000  0.79432000  1.0
  C  C56  1  0.81077000  0.31703000  0.29265000  1.0
  C  C57  1  0.18922000  0.81703000  0.20735000  1.0
  C  C58  1  0.18923000  0.68297000  0.70734000  1.0
  C  C59  1  0.81077000  0.18297000  0.79265000  1.0
  C  C60  1  0.69081000  0.38309000  0.24412000  1.0
  C  C61  1  0.30919000  0.88310000  0.25588000  1.0
  C  C62  1  0.30920000  0.61691000  0.75588000  1.0
  C  C63  1  0.69080000  0.11690000  0.74412000  1.0
  C  C64  1  0.53448000  0.33708000  0.24080000  1.0
  C  C65  1  0.46552000  0.83708000  0.25920000  1.0
  C  C66  1  0.46553000  0.66292000  0.75920000  1.0
  C  C67  1  0.53447000  0.16292000  0.74080000  1.0
  C  C68  1  0.57139000  0.38866000  0.41321000  1.0
  C  C69  1  0.42861000  0.88866000  0.08679000  1.0
  C  C70  1  0.42861000  0.61134000  0.58679000  1.0
  C  C71  1  0.57139000  0.11134000  0.91321000  1.0
  C  C72  1  0.65564000  0.49457000  0.44857000  1.0
  C  C73  1  0.34436000  0.99457000  0.05143000  1.0
  C  C74  1  0.34436000  0.50543000  0.55143000  1.0
  C  C75  1  0.65564000  0.00543000  0.94857000  1.0
  C  C76  1  0.75435000  0.47433000  0.52348000  1.0
  C  C77  1  0.24565000  0.97433000  0.97652000  1.0
  C  C78  1  0.24565000  0.52567000  0.47652000  1.0
  C  C79  1  0.75435000  0.02567000  0.02348000  1.0
  C  C80  1  0.76279000  0.35060000  0.55916000  1.0
  C  C81  1  0.23721000  0.85059000  0.94084000  1.0
  C  C82  1  0.23721000  0.64941000  0.44083000  1.0
  C  C83  1  0.76279000  0.14940000  0.05916000  1.0
  C  C84  1  0.67401000  0.25032000  0.51876000  1.0
  C  C85  1  0.32599000  0.75032000  0.98124000  1.0
  C  C86  1  0.32600000  0.74968000  0.48124000  1.0
  C  C87  1  0.67400000  0.24968000  0.01876000  1.0
  C  C88  1  0.24712000  0.44230000  0.07085000  1.0
  C  C89  1  0.75288000  0.94230000  0.42915000  1.0
  C  C90  1  0.75288000  0.55769000  0.92915000  1.0
  C  C91  1  0.24712000  0.05769000  0.57085000  1.0
  C  C92  1  0.11852000  0.33987000  0.05091000  1.0
  C  C93  1  0.88148000  0.83987000  0.44909000  1.0
  C  C94  1  0.88148000  0.66013000  0.94909000  1.0
  C  C95  1  0.11852000  0.16013000  0.55091000  1.0
  S  S96  1  0.44270000  0.41329000  0.31633000  1.0
  S  S97  1  0.55730000  0.91329000  0.18367000  1.0
  S  S98  1  0.55730000  0.58671000  0.68367000  1.0
  S  S99  1  0.44270000  0.08671000  0.81633000  1.0
  N  N100  1  0.71187000  0.48937000  0.19865000  1.0
  N  N101  1  0.28813000  0.98938000  0.30135000  1.0
  N  N102  1  0.28813000  0.51063000  0.80135000  1.0
  N  N103  1  0.71186000  0.01062000  0.69865000  1.0
  N  N104  1  0.57939000  0.26861000  0.44623000  1.0
  N  N105  1  0.42062000  0.76861000  0.05377000  1.0
  N  N106  1  0.42061000  0.73139000  0.55377000  1.0
  N  N107  1  0.57939000  0.23139000  0.94623000  1.0
  O  O108  1  0.30682000  0.34064000  0.31758000  1.0
  O  O109  1  0.69318000  0.84064000  0.18242000  1.0
  O  O110  1  0.69318000  0.65936000  0.68242000  1.0
  O  O111  1  0.30682000  0.15936000  0.81758000  1.0
  O  O112  1  0.43493000  0.55345000  0.30371000  1.0
  O  O113  1  0.56507000  0.05345000  0.19630000  1.0
  O  O114  1  0.56507000  0.44655000  0.69629000  1.0
  O  O115  1  0.43493000  0.94655000  0.80370000  1.0
  O  O116  1  0.35868000  0.41860000  0.03772000  1.0
  O  O117  1  0.64132000  0.91860000  0.46228000  1.0
  O  O118  1  0.64132000  0.58140000  0.96228000  1.0
  O  O119  1  0.35869000  0.08140000  0.53772000  1.0
  O  O120  1  0.22960000  0.53026000  0.12060000  1.0
  O  O121  1  0.77040000  0.03027000  0.37940000  1.0
  O  O122  1  0.77040000  0.46973000  0.87940000  1.0
  O  O123  1  0.22960000  0.96973000  0.62060000  1.0
  F  F124  1  0.98325000  0.38832000  0.05818000  1.0
  F  F125  1  0.01676000  0.88832000  0.44183000  1.0
  F  F126  1  0.01675000  0.61168000  0.94182000  1.0
  F  F127  1  0.98325000  0.11168000  0.55818000  1.0
  F  F128  1  0.14795000  0.23688000  0.10564000  1.0
  F  F129  1  0.85205000  0.73688000  0.39436000  1.0
  F  F130  1  0.85205000  0.76312000  0.89436000  1.0
  F  F131  1  0.14795000  0.26312000  0.60564000  1.0
  F  F132  1  0.10243000  0.28723000  0.97332000  1.0
  F  F133  1  0.89757000  0.78723000  0.52668000  1.0
  F  F134  1  0.89757000  0.71277000  0.02668000  1.0
  F  F135  1  0.10243000  0.21277000  0.47333000  1.0
