# generated using pymatgen
data_ZnH18C14(NO)6
_symmetry_space_group_name_H-M   'P 1'
_cell_length_a   9.37502000
_cell_length_b   9.37502000
_cell_length_c   12.26460000
_cell_angle_alpha   73.00090000
_cell_angle_beta   73.00110000
_cell_angle_gamma   82.38500000
_symmetry_Int_Tables_number   1
_chemical_formula_structural   ZnH18C14(NO)6
_chemical_formula_sum   'Zn2 H36 C28 N12 O12'
_cell_volume   984.50898651
_cell_formula_units_Z   2
loop_
 _symmetry_equiv_pos_site_id
 _symmetry_equiv_pos_as_xyz
  1  'x, y, z'
loop_
 _atom_site_type_symbol
 _atom_site_label
 _atom_site_symmetry_multiplicity
 _atom_site_fract_x
 _atom_site_fract_y
 _atom_site_fract_z
 _atom_site_occupancy
  Zn  Zn0  1  0.22139000  0.77861000  0.75000000  1.0
  Zn  Zn1  1  0.77861000  0.22139000  0.25000000  1.0
  H  H2  1  0.90457000  0.91872000  0.87207000  1.0
  H  H3  1  0.08128000  0.09543000  0.62793000  1.0
  H  H4  1  0.09543000  0.08128000  0.12793000  1.0
  H  H5  1  0.91872000  0.90457000  0.37207000  1.0
  H  H6  1  0.83184000  0.99737000  0.74736000  1.0
  H  H7  1  0.00263000  0.16816000  0.75265000  1.0
  H  H8  1  0.16817000  0.00264000  0.25264000  1.0
  H  H9  1  0.99737000  0.83184000  0.24735000  1.0
  H  H10  1  0.90156000  0.64802000  0.88638000  1.0
  H  H11  1  0.35197000  0.09844000  0.61362000  1.0
  H  H12  1  0.09843000  0.35198000  0.11362000  1.0
  H  H13  1  0.64803000  0.90156000  0.38637000  1.0
  H  H14  1  0.95655000  0.59266000  0.75449000  1.0
  H  H15  1  0.40734000  0.04345000  0.74551000  1.0
  H  H16  1  0.04345000  0.40734000  0.24551000  1.0
  H  H17  1  0.59266000  0.95655000  0.25449000  1.0
  H  H18  1  0.80195000  0.80232000  0.59063000  1.0
  H  H19  1  0.19767000  0.19805000  0.90937000  1.0
  H  H20  1  0.19805000  0.19767000  0.40937000  1.0
  H  H21  1  0.80233000  0.80195000  0.09062000  1.0
  H  H22  1  0.64180000  0.62705000  0.96921000  1.0
  H  H23  1  0.37295000  0.35820000  0.53080000  1.0
  H  H24  1  0.35820000  0.37295000  0.03079000  1.0
  H  H25  1  0.62706000  0.64180000  0.46920000  1.0
  H  H26  1  0.53551000  0.83857000  0.58348000  1.0
  H  H27  1  0.16142000  0.46449000  0.91652000  1.0
  H  H28  1  0.46449000  0.16143000  0.41652000  1.0
  H  H29  1  0.83857000  0.53551000  0.08348000  1.0
  H  H30  1  0.38417000  0.66306000  0.94588000  1.0
  H  H31  1  0.33695000  0.61583000  0.55412000  1.0
  H  H32  1  0.61583000  0.33695000  0.05412000  1.0
  H  H33  1  0.66306000  0.38417000  0.44588000  1.0
  H  H34  1  0.01652000  0.83972000  0.64384000  1.0
  H  H35  1  0.16028000  0.98348000  0.85616000  1.0
  H  H36  1  0.98348000  0.16028000  0.35616000  1.0
  H  H37  1  0.83972000  0.01653000  0.14384000  1.0
  C  C38  1  0.93353000  0.94969000  0.77487000  1.0
  C  C39  1  0.05031000  0.06647000  0.72513000  1.0
  C  C40  1  0.06647000  0.05031000  0.22513000  1.0
  C  C41  1  0.94969000  0.93354000  0.27487000  1.0
  C  C42  1  0.90283000  0.68512000  0.79253000  1.0
  C  C43  1  0.31488000  0.09717000  0.70748000  1.0
  C  C44  1  0.09717000  0.31488000  0.20747000  1.0
  C  C45  1  0.68512000  0.90283000  0.29252000  1.0
  C  C46  1  0.74477000  0.71039000  0.78154000  1.0
  C  C47  1  0.28960000  0.25523000  0.71846000  1.0
  C  C48  1  0.25523000  0.28961000  0.21846000  1.0
  C  C49  1  0.71040000  0.74477000  0.28154000  1.0
  C  C50  1  0.71265000  0.76993000  0.67202000  1.0
  C  C51  1  0.23006000  0.28735000  0.82798000  1.0
  C  C52  1  0.28734000  0.23007000  0.32798000  1.0
  C  C53  1  0.76994000  0.71266000  0.17202000  1.0
  C  C54  1  0.62382000  0.67293000  0.88146000  1.0
  C  C55  1  0.32707000  0.37618000  0.61854000  1.0
  C  C56  1  0.37617000  0.32707000  0.11854000  1.0
  C  C57  1  0.67294000  0.62382000  0.38146000  1.0
  C  C58  1  0.56508000  0.79007000  0.66679000  1.0
  C  C59  1  0.20992000  0.43493000  0.83322000  1.0
  C  C60  1  0.43492000  0.20993000  0.33321000  1.0
  C  C61  1  0.79008000  0.56508000  0.16678000  1.0
  C  C62  1  0.47930000  0.69415000  0.86918000  1.0
  C  C63  1  0.30586000  0.52070000  0.63082000  1.0
  C  C64  1  0.52070000  0.30586000  0.13082000  1.0
  C  C65  1  0.69415000  0.47930000  0.36918000  1.0
  N  N66  1  0.99561000  0.81470000  0.73488000  1.0
  N  N67  1  0.18530000  0.00439000  0.76513000  1.0
  N  N68  1  0.00439000  0.18530000  0.26513000  1.0
  N  N69  1  0.81470000  0.99561000  0.23487000  1.0
  N  N70  1  0.25420000  0.86238000  0.46546000  1.0
  N  N71  1  0.13762000  0.74579000  0.03454000  1.0
  N  N72  1  0.74580000  0.13762000  0.53454000  1.0
  N  N73  1  0.86238000  0.25420000  0.96546000  1.0
  N  N74  1  0.44899000  0.75264000  0.76371000  1.0
  N  N75  1  0.24736000  0.55101000  0.73629000  1.0
  N  N76  1  0.55101000  0.24736000  0.23629000  1.0
  N  N77  1  0.75264000  0.44899000  0.26371000  1.0
  O  O78  1  0.31015000  0.87353000  0.54770000  1.0
  O  O79  1  0.12647000  0.68985000  0.95230000  1.0
  O  O80  1  0.68985000  0.12648000  0.45230000  1.0
  O  O81  1  0.87353000  0.31015000  0.04770000  1.0
  O  O82  1  0.34020000  0.85692000  0.36739000  1.0
  O  O83  1  0.14306000  0.65979000  0.13261000  1.0
  O  O84  1  0.65980000  0.14308000  0.63261000  1.0
  O  O85  1  0.85692000  0.34020000  0.86739000  1.0
  O  O86  1  0.11426000  0.85752000  0.48639000  1.0
  O  O87  1  0.14248000  0.88574000  0.01361000  1.0
  O  O88  1  0.88574000  0.14247000  0.51361000  1.0
  O  O89  1  0.85752000  0.11426000  0.98639000  1.0
