# generated using pymatgen
data_ZnH12C15N5O6
_symmetry_space_group_name_H-M   'P 1'
_cell_length_a   10.82730000
_cell_length_b   11.35680000
_cell_length_c   11.63500000
_cell_angle_alpha   113.58600000
_cell_angle_beta   102.52700000
_cell_angle_gamma   97.09000000
_symmetry_Int_Tables_number   1
_chemical_formula_structural   ZnH12C15N5O6
_chemical_formula_sum   'Zn2 H24 C30 N10 O12'
_cell_volume   1244.11266143
_cell_formula_units_Z   2
loop_
 _symmetry_equiv_pos_site_id
 _symmetry_equiv_pos_as_xyz
  1  'x, y, z'
loop_
 _atom_site_type_symbol
 _atom_site_label
 _atom_site_symmetry_multiplicity
 _atom_site_fract_x
 _atom_site_fract_y
 _atom_site_fract_z
 _atom_site_occupancy
  Zn  Zn0  1  0.24801000  0.21783000  0.38889000  1.0
  Zn  Zn1  1  0.75199000  0.78217000  0.61111000  1.0
  H  H2  1  0.51719000  0.27456000  0.35841000  1.0
  H  H3  1  0.48281000  0.72544000  0.64160000  1.0
  H  H4  1  0.63876000  0.17445000  0.20217000  1.0
  H  H5  1  0.36125000  0.82556000  0.79784000  1.0
  H  H6  1  0.26959000  0.91343000  0.92862000  1.0
  H  H7  1  0.73042000  0.08658000  0.07138000  1.0
  H  H8  1  0.16548000  0.02491000  0.09638000  1.0
  H  H9  1  0.83452000  0.97509000  0.90361000  1.0
  H  H10  1  0.07900000  0.03354000  0.45613000  1.0
  H  H11  1  0.92100000  0.96645000  0.54387000  1.0
  H  H12  1  0.06298000  0.81345000  0.46033000  1.0
  H  H13  1  0.93702000  0.18654000  0.53967000  1.0
  H  H14  1  0.40821000  0.78776000  0.32994000  1.0
  H  H15  1  0.59179000  0.21223000  0.67006000  1.0
  H  H16  1  0.41361000  0.01137000  0.34015000  1.0
  H  H17  1  0.58639000  0.98863000  0.65985000  1.0
  H  H18  1  0.17566000  0.46616000  0.55142000  1.0
  H  H19  1  0.82435000  0.53384000  0.44859000  1.0
  H  H20  1  0.16482000  0.68797000  0.56075000  1.0
  H  H21  1  0.83519000  0.31203000  0.43926000  1.0
  H  H22  1  0.29078000  0.56771000  0.21008000  1.0
  H  H23  1  0.70921000  0.43228000  0.78991000  1.0
  H  H24  1  0.29163000  0.35140000  0.21393000  1.0
  H  H25  1  0.70836000  0.64859000  0.78607000  1.0
  C  C26  1  0.46639000  0.19439000  0.26143000  1.0
  C  C27  1  0.53361000  0.80561000  0.73858000  1.0
  C  C28  1  0.53387000  0.13723000  0.17269000  1.0
  C  C29  1  0.46614000  0.86278000  0.82731000  1.0
  C  C30  1  0.46615000  0.03253000  0.04893000  1.0
  C  C31  1  0.53386000  0.96748000  0.95107000  1.0
  C  C32  1  0.33095000  0.99230000  0.02212000  1.0
  C  C33  1  0.66905000  0.00770000  0.97788000  1.0
  C  C34  1  0.27043000  0.05456000  0.11600000  1.0
  C  C35  1  0.72957000  0.94544000  0.88400000  1.0
  C  C36  1  0.15014000  0.97552000  0.43024000  1.0
  C  C37  1  0.84986000  0.02448000  0.56976000  1.0
  C  C38  1  0.14141000  0.85260000  0.43094000  1.0
  C  C39  1  0.85858000  0.14740000  0.56906000  1.0
  C  C40  1  0.23300000  0.78008000  0.39144000  1.0
  C  C41  1  0.76699000  0.21991000  0.60856000  1.0
  C  C42  1  0.33272000  0.83850000  0.35794000  1.0
  C  C43  1  0.66728000  0.16149000  0.64206000  1.0
  C  C44  1  0.33577000  0.96307000  0.36331000  1.0
  C  C45  1  0.66423000  0.03692000  0.63669000  1.0
  C  C46  1  0.19895000  0.49313000  0.47727000  1.0
  C  C47  1  0.80105000  0.50687000  0.52274000  1.0
  C  C48  1  0.19281000  0.61615000  0.48123000  1.0
  C  C49  1  0.80720000  0.38385000  0.51878000  1.0
  C  C50  1  0.22798000  0.64739000  0.38586000  1.0
  C  C51  1  0.77202000  0.35261000  0.61414000  1.0
  C  C52  1  0.26273000  0.54983000  0.28704000  1.0
  C  C53  1  0.73726000  0.45016000  0.71296000  1.0
  C  C54  1  0.26465000  0.42885000  0.28928000  1.0
  C  C55  1  0.73535000  0.57115000  0.71072000  1.0
  N  N56  1  0.38779000  0.33106000  0.64204000  1.0
  N  N57  1  0.61221000  0.66894000  0.35796000  1.0
  N  N58  1  0.97235000  0.17344000  0.26532000  1.0
  N  N59  1  0.02765000  0.82657000  0.73468000  1.0
  N  N60  1  0.33649000  0.15392000  0.23463000  1.0
  N  N61  1  0.66351000  0.84608000  0.76537000  1.0
  N  N62  1  0.24482000  0.03036000  0.39609000  1.0
  N  N63  1  0.75518000  0.96964000  0.60390000  1.0
  N  N64  1  0.23571000  0.40088000  0.38373000  1.0
  N  N65  1  0.76430000  0.59912000  0.61628000  1.0
  O  O66  1  0.43516000  0.30092000  0.54283000  1.0
  O  O67  1  0.56484000  0.69908000  0.45717000  1.0
  O  O68  1  0.26423000  0.31095000  0.61550000  1.0
  O  O69  1  0.73577000  0.68905000  0.38450000  1.0
  O  O70  1  0.46087000  0.37573000  0.75537000  1.0
  O  O71  1  0.53913000  0.62427000  0.24463000  1.0
  O  O72  1  0.04663000  0.19145000  0.37781000  1.0
  O  O73  1  0.95337000  0.80856000  0.62219000  1.0
  O  O74  1  0.01547000  0.14117000  0.16823000  1.0
  O  O75  1  0.98453000  0.85882000  0.83176000  1.0
  O  O76  1  0.85909000  0.19041000  0.25940000  1.0
  O  O77  1  0.14091000  0.80961000  0.74060000  1.0
