# generated using pymatgen
data_Zn4H32C34N8O5
_symmetry_space_group_name_H-M   'P 1'
_cell_length_a   11.55060000
_cell_length_b   11.55060000
_cell_length_c   34.78110000
_cell_angle_alpha   90.00000000
_cell_angle_beta   90.00000000
_cell_angle_gamma   90.00000000
_symmetry_Int_Tables_number   1
_chemical_formula_structural   Zn4H32C34N8O5
_chemical_formula_sum   'Zn8 H64 C68 N16 O10'
_cell_volume   4640.36777132
_cell_formula_units_Z   2
loop_
 _symmetry_equiv_pos_site_id
 _symmetry_equiv_pos_as_xyz
  1  'x, y, z'
loop_
 _atom_site_type_symbol
 _atom_site_label
 _atom_site_symmetry_multiplicity
 _atom_site_fract_x
 _atom_site_fract_y
 _atom_site_fract_z
 _atom_site_occupancy
  Zn  Zn0  1  0.90131000  0.09869000  0.21820000  1.0
  Zn  Zn1  1  0.09869000  0.90131000  0.21820000  1.0
  Zn  Zn2  1  0.90131000  0.90131000  0.71820000  1.0
  Zn  Zn3  1  0.09869000  0.09869000  0.71820000  1.0
  Zn  Zn4  1  0.09869000  0.09869000  0.28180000  1.0
  Zn  Zn5  1  0.90131000  0.90131000  0.28180000  1.0
  Zn  Zn6  1  0.09869000  0.90131000  0.78180000  1.0
  Zn  Zn7  1  0.90131000  0.09869000  0.78180000  1.0
  H  H8  1  0.85142000  0.31467000  0.17305000  1.0
  H  H9  1  0.14858000  0.68533000  0.17305000  1.0
  H  H10  1  0.68533000  0.85142000  0.67305000  1.0
  H  H11  1  0.31467000  0.14858000  0.67305000  1.0
  H  H12  1  0.14858000  0.31467000  0.32695000  1.0
  H  H13  1  0.85142000  0.68533000  0.32695000  1.0
  H  H14  1  0.31467000  0.85142000  0.82695000  1.0
  H  H15  1  0.68533000  0.14858000  0.82695000  1.0
  H  H16  1  0.14858000  0.68533000  0.82695000  1.0
  H  H17  1  0.85142000  0.31467000  0.82695000  1.0
  H  H18  1  0.31467000  0.14858000  0.32695000  1.0
  H  H19  1  0.68533000  0.85142000  0.32695000  1.0
  H  H20  1  0.85142000  0.68533000  0.67305000  1.0
  H  H21  1  0.14858000  0.31467000  0.67305000  1.0
  H  H22  1  0.68533000  0.14858000  0.17305000  1.0
  H  H23  1  0.31467000  0.85142000  0.17305000  1.0
  H  H24  1  0.90059000  0.46060000  0.17382000  1.0
  H  H25  1  0.09941000  0.53941000  0.17382000  1.0
  H  H26  1  0.53940000  0.90059000  0.67382000  1.0
  H  H27  1  0.46059000  0.09941000  0.67382000  1.0
  H  H28  1  0.09941000  0.46060000  0.32618000  1.0
  H  H29  1  0.90059000  0.53940000  0.32618000  1.0
  H  H30  1  0.46060000  0.90059000  0.82618000  1.0
  H  H31  1  0.53941000  0.09941000  0.82618000  1.0
  H  H32  1  0.09941000  0.53941000  0.82618000  1.0
  H  H33  1  0.90059000  0.46059000  0.82618000  1.0
  H  H34  1  0.46060000  0.09941000  0.32618000  1.0
  H  H35  1  0.53941000  0.90059000  0.32618000  1.0
  H  H36  1  0.90059000  0.53941000  0.67382000  1.0
  H  H37  1  0.09941000  0.46060000  0.67382000  1.0
  H  H38  1  0.53940000  0.09941000  0.17382000  1.0
  H  H39  1  0.46059000  0.90059000  0.17382000  1.0
  H  H40  1  0.77839000  0.42049000  0.20136000  1.0
  H  H41  1  0.22161000  0.57951000  0.20136000  1.0
  H  H42  1  0.57951000  0.77839000  0.70136000  1.0
  H  H43  1  0.42049000  0.22162000  0.70136000  1.0
  H  H44  1  0.22161000  0.42049000  0.29864000  1.0
  H  H45  1  0.77839000  0.57951000  0.29864000  1.0
  H  H46  1  0.42049000  0.77838000  0.79864000  1.0
  H  H47  1  0.57951000  0.22161000  0.79864000  1.0
  H  H48  1  0.22161000  0.57951000  0.79864000  1.0
  H  H49  1  0.77838000  0.42049000  0.79864000  1.0
  H  H50  1  0.42049000  0.22161000  0.29864000  1.0
  H  H51  1  0.57951000  0.77838000  0.29864000  1.0
  H  H52  1  0.77839000  0.57951000  0.70136000  1.0
  H  H53  1  0.22161000  0.42049000  0.70136000  1.0
  H  H54  1  0.57951000  0.22161000  0.20136000  1.0
  H  H55  1  0.42049000  0.77839000  0.20136000  1.0
  H  H56  1  0.86878000  0.13122000  0.09834000  1.0
  H  H57  1  0.13122000  0.86878000  0.09834000  1.0
  H  H58  1  0.86878000  0.86878000  0.59834000  1.0
  H  H59  1  0.13122000  0.13122000  0.59834000  1.0
  H  H60  1  0.13122000  0.13122000  0.40166000  1.0
  H  H61  1  0.86878000  0.86878000  0.40166000  1.0
  H  H62  1  0.13122000  0.86878000  0.90166000  1.0
  H  H63  1  0.86878000  0.13122000  0.90166000  1.0
  H  H64  1  0.86767000  0.13233000  0.02772000  1.0
  H  H65  1  0.13233000  0.86767000  0.02772000  1.0
  H  H66  1  0.86767000  0.86767000  0.52772000  1.0
  H  H67  1  0.13233000  0.13233000  0.52772000  1.0
  H  H68  1  0.13233000  0.13233000  0.47228000  1.0
  H  H69  1  0.86767000  0.86767000  0.47228000  1.0
  H  H70  1  0.13233000  0.86767000  0.97228000  1.0
  H  H71  1  0.86767000  0.13233000  0.97228000  1.0
  C  C72  1  0.94151000  0.36224000  0.22448000  1.0
  C  C73  1  0.05849000  0.63776000  0.22448000  1.0
  C  C74  1  0.63776000  0.94151000  0.72448000  1.0
  C  C75  1  0.36224000  0.05849000  0.72448000  1.0
  C  C76  1  0.05849000  0.36224000  0.27552000  1.0
  C  C77  1  0.94151000  0.63776000  0.27552000  1.0
  C  C78  1  0.36224000  0.94151000  0.77552000  1.0
  C  C79  1  0.63776000  0.05849000  0.77552000  1.0
  C  C80  1  0.05849000  0.63776000  0.77552000  1.0
  C  C81  1  0.94151000  0.36224000  0.77552000  1.0
  C  C82  1  0.36224000  0.05849000  0.27552000  1.0
  C  C83  1  0.63776000  0.94151000  0.27552000  1.0
  C  C84  1  0.94151000  0.63776000  0.72448000  1.0
  C  C85  1  0.05849000  0.36224000  0.72448000  1.0
  C  C86  1  0.63776000  0.05849000  0.22448000  1.0
  C  C87  1  0.36224000  0.94151000  0.22448000  1.0
  C  C88  1  0.00000000  0.43666000  0.25000000  1.0
  C  C89  1  0.00000000  0.56334000  0.25000000  1.0
  C  C90  1  0.56334000  0.00000000  0.75000000  1.0
  C  C91  1  0.43666000  0.00000000  0.75000000  1.0
  C  C92  1  0.00000000  0.56334000  0.75000000  1.0
  C  C93  1  0.00000000  0.43666000  0.75000000  1.0
  C  C94  1  0.43666000  0.00000000  0.25000000  1.0
  C  C95  1  0.56334000  0.00000000  0.25000000  1.0
  C  C96  1  0.86394000  0.39082000  0.19151000  1.0
  C  C97  1  0.13606000  0.60919000  0.19151000  1.0
  C  C98  1  0.60919000  0.86394000  0.69151000  1.0
  C  C99  1  0.39082000  0.13606000  0.69151000  1.0
  C  C100  1  0.13606000  0.39082000  0.30849000  1.0
  C  C101  1  0.86394000  0.60919000  0.30849000  1.0
  C  C102  1  0.39081000  0.86394000  0.80849000  1.0
  C  C103  1  0.60919000  0.13606000  0.80849000  1.0
  C  C104  1  0.13606000  0.60919000  0.80849000  1.0
  C  C105  1  0.86394000  0.39082000  0.80849000  1.0
  C  C106  1  0.39082000  0.13606000  0.30849000  1.0
  C  C107  1  0.60919000  0.86394000  0.30849000  1.0
  C  C108  1  0.86394000  0.60919000  0.69151000  1.0
  C  C109  1  0.13606000  0.39082000  0.69151000  1.0
  C  C110  1  0.60918000  0.13606000  0.19151000  1.0
  C  C111  1  0.39081000  0.86394000  0.19151000  1.0
  C  C112  1  0.00000000  0.00000000  0.14598000  1.0
  C  C113  1  0.00000000  0.00000000  0.64598000  1.0
  C  C114  1  0.00000000  0.00000000  0.35402000  1.0
  C  C115  1  0.00000000  0.00000000  0.85402000  1.0
  C  C116  1  0.00000000  0.00000000  0.10302000  1.0
  C  C117  1  0.00000000  0.00000000  0.60302000  1.0
  C  C118  1  0.00000000  0.00000000  0.39698000  1.0
  C  C119  1  0.00000000  0.00000000  0.89698000  1.0
  C  C120  1  0.92627000  0.07373000  0.08245000  1.0
  C  C121  1  0.07373000  0.92627000  0.08245000  1.0
  C  C122  1  0.92627000  0.92628000  0.58245000  1.0
  C  C123  1  0.07373000  0.07373000  0.58245000  1.0
  C  C124  1  0.07372000  0.07373000  0.41755000  1.0
  C  C125  1  0.92627000  0.92627000  0.41754000  1.0
  C  C126  1  0.07373000  0.92627000  0.91755000  1.0
  C  C127  1  0.92627000  0.07372000  0.91755000  1.0
  C  C128  1  0.92642000  0.07358000  0.04250000  1.0
  C  C129  1  0.07358000  0.92642000  0.04250000  1.0
  C  C130  1  0.92642000  0.92642000  0.54250000  1.0
  C  C131  1  0.07358000  0.07358000  0.54250000  1.0
  C  C132  1  0.07358000  0.07358000  0.45750000  1.0
  C  C133  1  0.92642000  0.92642000  0.45750000  1.0
  C  C134  1  0.07358000  0.92642000  0.95750000  1.0
  C  C135  1  0.92642000  0.07358000  0.95750000  1.0
  C  C136  1  0.00000000  0.00000000  0.02131000  1.0
  C  C137  1  0.00000000  0.00000000  0.52131000  1.0
  C  C138  1  0.00000000  0.00000000  0.47869000  1.0
  C  C139  1  0.00000000  0.00000000  0.97869000  1.0
  N  N140  1  0.96405000  0.25153000  0.23431000  1.0
  N  N141  1  0.03595000  0.74847000  0.23431000  1.0
  N  N142  1  0.74847000  0.96404000  0.73431000  1.0
  N  N143  1  0.25153000  0.03596000  0.73431000  1.0
  N  N144  1  0.03596000  0.25153000  0.26569000  1.0
  N  N145  1  0.96404000  0.74847000  0.26569000  1.0
  N  N146  1  0.25153000  0.96404000  0.76569000  1.0
  N  N147  1  0.74847000  0.03595000  0.76569000  1.0
  N  N148  1  0.03595000  0.74847000  0.76569000  1.0
  N  N149  1  0.96404000  0.25153000  0.76569000  1.0
  N  N150  1  0.25153000  0.03596000  0.26569000  1.0
  N  N151  1  0.74847000  0.96404000  0.26569000  1.0
  N  N152  1  0.96404000  0.74847000  0.73431000  1.0
  N  N153  1  0.03596000  0.25153000  0.73431000  1.0
  N  N154  1  0.74847000  0.03595000  0.23431000  1.0
  N  N155  1  0.25153000  0.96405000  0.23431000  1.0
  O  O156  1  0.00000000  0.00000000  0.25000000  1.0
  O  O157  1  0.00000000  0.00000000  0.75000000  1.0
  O  O158  1  0.93015000  0.06985000  0.16246000  1.0
  O  O159  1  0.06985000  0.93015000  0.16246000  1.0
  O  O160  1  0.93015000  0.93015000  0.66246000  1.0
  O  O161  1  0.06986000  0.06985000  0.66246000  1.0
  O  O162  1  0.06985000  0.06985000  0.33754000  1.0
  O  O163  1  0.93015000  0.93015000  0.33754000  1.0
  O  O164  1  0.06985000  0.93015000  0.83754000  1.0
  O  O165  1  0.93015000  0.06985000  0.83754000  1.0
