# generated using pymatgen
data_ZnH7C4N3O7
_symmetry_space_group_name_H-M   'P 1'
_cell_length_a   6.61981000
_cell_length_b   10.58830000
_cell_length_c   12.43870000
_cell_angle_alpha   107.08900000
_cell_angle_beta   89.99990000
_cell_angle_gamma   89.99990000
_symmetry_Int_Tables_number   1
_chemical_formula_structural   ZnH7C4N3O7
_chemical_formula_sum   'Zn4 H28 C16 N12 O28'
_cell_volume   833.36690569
_cell_formula_units_Z   4
loop_
 _symmetry_equiv_pos_site_id
 _symmetry_equiv_pos_as_xyz
  1  'x, y, z'
loop_
 _atom_site_type_symbol
 _atom_site_label
 _atom_site_symmetry_multiplicity
 _atom_site_fract_x
 _atom_site_fract_y
 _atom_site_fract_z
 _atom_site_occupancy
  Zn  Zn0  1  0.69348000  0.33164000  0.54551000  1.0
  Zn  Zn1  1  0.19348000  0.16836000  0.95449000  1.0
  Zn  Zn2  1  0.30652000  0.66836000  0.45449000  1.0
  Zn  Zn3  1  0.80652000  0.83164000  0.04551000  1.0
  H  H4  1  0.85784000  0.84011000  0.28929000  1.0
  H  H5  1  0.35784000  0.65989000  0.21071000  1.0
  H  H6  1  0.14216000  0.15989000  0.71071000  1.0
  H  H7  1  0.64216000  0.34011000  0.78929000  1.0
  H  H8  1  0.02475000  0.41158000  0.69031000  1.0
  H  H9  1  0.52474000  0.08843000  0.80969000  1.0
  H  H10  1  0.97525000  0.58843000  0.30969000  1.0
  H  H11  1  0.47526000  0.91157000  0.19031000  1.0
  H  H12  1  0.05705000  0.44208000  0.57649000  1.0
  H  H13  1  0.55705000  0.05792000  0.92351000  1.0
  H  H14  1  0.94295000  0.55791000  0.42351000  1.0
  H  H15  1  0.44296000  0.94209000  0.07649000  1.0
  H  H16  1  0.32497000  0.22139000  0.49515000  1.0
  H  H17  1  0.82497000  0.27861000  0.00485000  1.0
  H  H18  1  0.67503000  0.77861000  0.50485000  1.0
  H  H19  1  0.17503000  0.72139000  0.99515000  1.0
  H  H20  1  0.39145000  0.27649000  0.39353000  1.0
  H  H21  1  0.89144000  0.22351000  0.10647000  1.0
  H  H22  1  0.60856000  0.72351000  0.60648000  1.0
  H  H23  1  0.10856000  0.77649000  0.89352000  1.0
  H  H24  1  0.81570000  0.34243000  0.35507000  1.0
  H  H25  1  0.31570000  0.15757000  0.14493000  1.0
  H  H26  1  0.18430000  0.65757000  0.64493000  1.0
  H  H27  1  0.68430000  0.84243000  0.85507000  1.0
  H  H28  1  0.64977000  0.45738000  0.39514000  1.0
  H  H29  1  0.14977000  0.04262000  0.10486000  1.0
  H  H30  1  0.35023000  0.54262000  0.60486000  1.0
  H  H31  1  0.85023000  0.95738000  0.89514000  1.0
  C  C32  1  0.66383000  0.09970000  0.63175000  1.0
  C  C33  1  0.16382000  0.40031000  0.86824000  1.0
  C  C34  1  0.33617000  0.90029000  0.36825000  1.0
  C  C35  1  0.83617000  0.59970000  0.13175000  1.0
  C  C36  1  0.73945000  0.04930000  0.51363000  1.0
  C  C37  1  0.23944000  0.45070000  0.98637000  1.0
  C  C38  1  0.26055000  0.95070000  0.48636000  1.0
  C  C39  1  0.76055000  0.54930000  0.01363000  1.0
  C  C40  1  0.83275000  0.05340000  0.35077000  1.0
  C  C41  1  0.33275000  0.44660000  0.14924000  1.0
  C  C42  1  0.16725000  0.94660000  0.64923000  1.0
  C  C43  1  0.66726000  0.55340000  0.85076000  1.0
  C  C44  1  0.88955000  0.09158000  0.24813000  1.0
  C  C45  1  0.38955000  0.40842000  0.25187000  1.0
  C  C46  1  0.11046000  0.90841000  0.75187000  1.0
  C  C47  1  0.61046000  0.59160000  0.74813000  1.0
  N  N48  1  0.77107000  0.92235000  0.45721000  1.0
  N  N49  1  0.27107000  0.57764000  0.04279000  1.0
  N  N50  1  0.22892000  0.07765000  0.54279000  1.0
  N  N51  1  0.72892000  0.42235000  0.95721000  1.0
  N  N52  1  0.83121000  0.92710000  0.35538000  1.0
  N  N53  1  0.33120000  0.57290000  0.14462000  1.0
  N  N54  1  0.16880000  0.07290000  0.64462000  1.0
  N  N55  1  0.66880000  0.42710000  0.85538000  1.0
  N  N56  1  0.77625000  0.13257000  0.45112000  1.0
  N  N57  1  0.27625000  0.36743000  0.04888000  1.0
  N  N58  1  0.22375000  0.86743000  0.54888000  1.0
  N  N59  1  0.72375000  0.63257000  0.95112000  1.0
  O  O60  1  0.63751000  0.22561000  0.66605000  1.0
  O  O61  1  0.13751000  0.27438000  0.83395000  1.0
  O  O62  1  0.36248000  0.77438000  0.33395000  1.0
  O  O63  1  0.86249000  0.72561000  0.16605000  1.0
  O  O64  1  0.62851000  0.01942000  0.68581000  1.0
  O  O65  1  0.12851000  0.48058000  0.81420000  1.0
  O  O66  1  0.37149000  0.98058000  0.31419000  1.0
  O  O67  1  0.87149000  0.51942000  0.18580000  1.0
  O  O68  1  0.88356000  0.21145000  0.25117000  1.0
  O  O69  1  0.38356000  0.28855000  0.24883000  1.0
  O  O70  1  0.11644000  0.78856000  0.74883000  1.0
  O  O71  1  0.61644000  0.71143000  0.75117000  1.0
  O  O72  1  0.94643000  0.99696000  0.16351000  1.0
  O  O73  1  0.44643000  0.50305000  0.33649000  1.0
  O  O74  1  0.05357000  0.00306000  0.83650000  1.0
  O  O75  1  0.55357000  0.49694000  0.66350000  1.0
  O  O76  1  0.98131000  0.38178000  0.60920000  1.0
  O  O77  1  0.48131000  0.11822000  0.89079000  1.0
  O  O78  1  0.01869000  0.61822000  0.39079000  1.0
  O  O79  1  0.51869000  0.88178000  0.10921000  1.0
  O  O80  1  0.39699000  0.29420000  0.47630000  1.0
  O  O81  1  0.89699000  0.20580000  0.02369000  1.0
  O  O82  1  0.60301000  0.70580000  0.52369000  1.0
  O  O83  1  0.10301000  0.79420000  0.97631000  1.0
  O  O84  1  0.77311000  0.41907000  0.42061000  1.0
  O  O85  1  0.27311000  0.08093000  0.07939000  1.0
  O  O86  1  0.22690000  0.58092000  0.57939000  1.0
  O  O87  1  0.72690000  0.91908000  0.92062000  1.0
