# generated using pymatgen
data_ZnH7C11BrO4
_symmetry_space_group_name_H-M   'P 1'
_cell_length_a   18.70655427
_cell_length_b   18.71700000
_cell_length_c   18.73970000
_cell_angle_alpha   70.35800000
_cell_angle_beta   70.23448091
_cell_angle_gamma   109.15965883
_symmetry_Int_Tables_number   1
_chemical_formula_structural   ZnH7C11BrO4
_chemical_formula_sum   'Zn6 H42 C66 Br6 O24'
_cell_volume   5041.21341684
_cell_formula_units_Z   6
loop_
 _symmetry_equiv_pos_site_id
 _symmetry_equiv_pos_as_xyz
  1  'x, y, z'
loop_
 _atom_site_type_symbol
 _atom_site_label
 _atom_site_symmetry_multiplicity
 _atom_site_fract_x
 _atom_site_fract_y
 _atom_site_fract_z
 _atom_site_occupancy
  Zn  Zn0  1  0.05792000  0.56245000  0.99285000  1.0
  Zn  Zn1  1  0.92992000  0.43244000  0.00088000  1.0
  Zn  Zn2  1  0.50431000  0.56721000  0.42903000  1.0
  Zn  Zn3  1  0.50914000  0.44428000  0.55074000  1.0
  Zn  Zn4  1  0.93936000  0.00476000  0.56334000  1.0
  Zn  Zn5  1  0.06203000  0.00247000  0.43734000  1.0
  H  H6  1  0.62959000  0.42024000  0.26967000  1.0
  H  H7  1  0.15965000  0.22474000  0.18551000  1.0
  H  H8  1  0.18059000  0.40818000  0.09665000  1.0
  H  H9  1  0.15540000  0.32893000  0.06296000  1.0
  H  H10  1  0.26125000  0.66545000  0.71172000  1.0
  H  H11  1  0.36363000  0.66664000  0.58542000  1.0
  H  H12  1  0.17739000  0.34297000  0.92291000  1.0
  H  H13  1  0.94507000  0.59942000  0.73836000  1.0
  H  H14  1  0.77153000  0.40869000  0.28751000  1.0
  H  H15  1  0.94905000  0.72594000  0.63315000  1.0
  H  H16  1  0.99066000  0.89126000  0.81118000  1.0
  H  H17  1  0.89811000  0.71088000  0.97179000  1.0
  H  H18  1  0.28646000  0.18958000  0.63634000  1.0
  H  H19  1  0.32590000  0.29183000  0.28803000  1.0
  H  H20  1  0.23575000  0.30959000  0.33012000  1.0
  H  H21  1  0.78599000  0.53043000  0.34665000  1.0
  H  H22  1  0.92172000  0.80015000  0.38293000  1.0
  H  H23  1  0.70066000  0.77342000  0.67461000  1.0
  H  H24  1  0.69054000  0.84860000  0.59433000  1.0
  H  H25  1  0.76862000  0.68080000  0.14893000  1.0
  H  H26  1  0.75220000  0.55516000  0.09294000  1.0
  H  H27  1  0.82917000  0.23138000  0.28940000  1.0
  H  H28  1  0.83710000  0.13718000  0.41262000  1.0
  H  H29  1  0.18721000  0.30435000  0.21812000  1.0
  H  H30  1  0.32914000  0.37248000  0.83248000  1.0
  H  H31  1  0.26196000  0.26290000  0.86004000  1.0
  H  H32  1  0.34954000  0.34245000  0.75022000  1.0
  H  H33  1  0.84818000  0.84426000  0.93755000  1.0
  H  H34  1  0.83899000  0.86503000  0.84178000  1.0
  H  H35  1  0.79285000  0.75554000  0.92499000  1.0
  H  H36  1  0.09519000  0.01888000  0.67040000  1.0
  H  H37  1  0.18770000  0.00445000  0.64076000  1.0
  H  H38  1  0.16616000  0.04661000  0.71239000  1.0
  H  H39  1  0.25187000  0.41543000  0.39045000  1.0
  H  H40  1  0.35796000  0.49046000  0.36286000  1.0
  H  H41  1  0.33523000  0.48868000  0.27777000  1.0
  H  H42  1  0.78302000  0.67762000  0.34094000  1.0
  H  H43  1  0.87695000  0.68723000  0.34992000  1.0
  H  H44  1  0.77299000  0.59077000  0.42737000  1.0
  H  H45  1  0.91679000  0.73097000  0.19277000  1.0
  H  H46  1  0.97385000  0.67195000  0.18086000  1.0
  H  H47  1  0.96729000  0.73506000  0.09099000  1.0
  C  C48  1  0.96730000  0.36060000  0.12154000  1.0
  C  C49  1  0.76936000  0.62017000  0.18008000  1.0
  C  C50  1  0.75948000  0.55090000  0.14954000  1.0
  C  C51  1  0.83776000  0.54567000  0.16053000  1.0
  C  C52  1  0.04440000  0.29658000  0.18491000  1.0
  C  C53  1  0.96698000  0.29607000  0.19495000  1.0
  C  C54  1  0.89173000  0.23532000  0.27857000  1.0
  C  C55  1  0.89605000  0.18168000  0.34817000  1.0
  C  C56  1  0.97476000  0.18221000  0.33693000  1.0
  C  C57  1  0.04771000  0.23976000  0.25281000  1.0
  C  C58  1  0.14446000  0.27322000  0.19675000  1.0
  C  C59  1  0.90513000  0.53598000  0.10154000  1.0
  C  C60  1  0.14100000  0.33848000  0.11991000  1.0
  C  C61  1  0.20185000  0.45180000  0.80568000  1.0
  C  C62  1  0.19961000  0.52713000  0.80046000  1.0
  C  C63  1  0.26058000  0.60481000  0.71932000  1.0
  C  C64  1  0.31921000  0.60576000  0.64815000  1.0
  C  C65  1  0.32448000  0.53055000  0.65575000  1.0
  C  C66  1  0.26432000  0.45410000  0.73690000  1.0
  C  C67  1  0.23555000  0.35805000  0.78870000  1.0
  C  C68  1  0.16508000  0.35634000  0.86786000  1.0
  C  C69  1  0.94723000  0.71627000  0.84167000  1.0
  C  C70  1  0.95975000  0.58070000  0.88432000  1.0
  C  C71  1  0.94902000  0.64853000  0.82669000  1.0
  C  C72  1  0.94481000  0.65143000  0.75227000  1.0
  C  C73  1  0.94513000  0.72178000  0.69392000  1.0
  C  C74  1  0.94155000  0.78886000  0.71077000  1.0
  C  C75  1  0.93878000  0.78179000  0.78808000  1.0
  C  C76  1  0.93470000  0.82519000  0.84394000  1.0
  C  C77  1  0.94829000  0.75291000  0.90209000  1.0
  C  C78  1  0.39438000  0.36265000  0.51360000  1.0
  C  C79  1  0.62861000  0.53885000  0.34641000  1.0
  C  C80  1  0.62528000  0.59685000  0.51447000  1.0
  C  C81  1  0.13340000  0.52407000  0.87524000  1.0
  C  C82  1  0.39145000  0.53146000  0.58392000  1.0
  C  C83  1  0.91015000  0.89182000  0.47021000  1.0
  C  C84  1  0.98088000  0.12334000  0.40797000  1.0
  C  C85  1  0.14016000  0.09695000  0.49566000  1.0
  C  C86  1  0.95258000  0.86807000  0.64323000  1.0
  C  C87  1  0.32358000  0.30983000  0.43472000  1.0
  C  C88  1  0.33290000  0.29293000  0.50849000  1.0
  C  C89  1  0.28030000  0.20551000  0.57789000  1.0
  C  C90  1  0.21856000  0.13905000  0.57665000  1.0
  C  C91  1  0.21036000  0.15875000  0.50080000  1.0
  C  C92  1  0.76948000  0.46883000  0.25838000  1.0
  C  C93  1  0.26643000  0.24373000  0.43032000  1.0
  C  C94  1  0.28930000  0.30340000  0.33837000  1.0
  C  C95  1  0.34884000  0.37974000  0.34604000  1.0
  C  C96  1  0.68536000  0.70754000  0.55777000  1.0
  C  C97  1  0.69888000  0.66720000  0.50840000  1.0
  C  C98  1  0.78676000  0.70179000  0.44448000  1.0
  C  C99  1  0.85443000  0.77392000  0.43296000  1.0
  C  C100  1  0.83954000  0.81513000  0.48244000  1.0
  C  C101  1  0.75290000  0.77897000  0.54610000  1.0
  C  C102  1  0.69321000  0.78784000  0.61658000  1.0
  C  C103  1  0.69277000  0.47504000  0.24651000  1.0
  C  C104  1  0.61663000  0.70820000  0.62798000  1.0
  C  C105  1  0.70297000  0.54527000  0.27746000  1.0
  C  C106  1  0.77972000  0.53731000  0.28916000  1.0
  C  C107  1  0.84737000  0.61474000  0.19198000  1.0
  C  C108  1  0.29800000  0.33210000  0.80899000  1.0
  C  C109  1  0.84852000  0.82230000  0.89000000  1.0
  C  C110  1  0.16383000  0.04754000  0.65439000  1.0
  C  C111  1  0.32249000  0.44846000  0.34361000  1.0
  C  C112  1  0.80643000  0.66239000  0.38764000  1.0
  C  C113  1  0.93082000  0.69228000  0.16267000  1.0
  Br  Br114  1  0.18731000  0.29120000  0.73802000  1.0
  Br  Br115  1  0.04071000  0.27456000  0.92228000  1.0
  Br  Br116  1  0.06037000  0.80305000  0.89982000  1.0
  Br  Br117  1  0.47558000  0.43897000  0.25690000  1.0
  Br  Br118  1  0.54821000  0.60214000  0.74410000  1.0
  Br  Br119  1  0.53690000  0.73842000  0.59507000  1.0
  O  O120  1  0.02668000  0.43970000  0.08454000  1.0
  O  O121  1  0.42135000  0.33925000  0.56771000  1.0
  O  O122  1  0.59806000  0.58980000  0.32371000  1.0
  O  O123  1  0.59971000  0.48222000  0.42508000  1.0
  O  O124  1  0.59717000  0.62345000  0.46442000  1.0
  O  O125  1  0.59776000  0.51653000  0.56739000  1.0
  O  O126  1  0.41858000  0.58525000  0.50368000  1.0
  O  O127  1  0.41760000  0.47793000  0.60760000  1.0
  O  O128  1  0.88614000  0.92449000  0.51691000  1.0
  O  O129  1  0.99061000  0.92011000  0.41507000  1.0
  O  O130  1  0.92607000  0.09469000  0.48856000  1.0
  O  O131  1  0.90969000  0.33292000  0.10017000  1.0
  O  O132  1  0.04132000  0.10462000  0.38407000  1.0
  O  O133  1  0.06199000  0.07522000  0.54595000  1.0
  O  O134  1  0.16406000  0.07430000  0.43790000  1.0
  O  O135  1  0.90757000  0.90313000  0.66875000  1.0
  O  O136  1  0.00817000  0.89714000  0.56447000  1.0
  O  O137  1  0.98634000  0.58395000  0.07624000  1.0
  O  O138  1  0.87714000  0.47842000  0.08127000  1.0
  O  O139  1  0.01620000  0.60902000  0.90529000  1.0
  O  O140  1  0.91158000  0.49977000  0.90995000  1.0
  O  O141  1  0.16041000  0.58110000  0.89757000  1.0
  O  O142  1  0.05486000  0.46457000  0.91129000  1.0
  O  O143  1  0.41730000  0.44124000  0.46314000  1.0
