# generated using pymatgen
data_CoH12C14(N3O2)2
_symmetry_space_group_name_H-M   'P 1'
_cell_length_a   5.39932000
_cell_length_b   8.76910000
_cell_length_c   9.48436000
_cell_angle_alpha   74.83540000
_cell_angle_beta   79.81880000
_cell_angle_gamma   83.44600000
_symmetry_Int_Tables_number   1
_chemical_formula_structural   CoH12C14(N3O2)2
_chemical_formula_sum   'Co1 H12 C14 N6 O4'
_cell_volume   425.50486268
_cell_formula_units_Z   1
loop_
 _symmetry_equiv_pos_site_id
 _symmetry_equiv_pos_as_xyz
  1  'x, y, z'
loop_
 _atom_site_type_symbol
 _atom_site_label
 _atom_site_symmetry_multiplicity
 _atom_site_fract_x
 _atom_site_fract_y
 _atom_site_fract_z
 _atom_site_occupancy
  Co  Co0  1  0.00001000  0.50000000  0.00000000  1.0
  H  H1  1  0.36721000  0.58231000  0.67923000  1.0
  H  H2  1  0.63278000  0.41770000  0.32077000  1.0
  H  H3  1  0.83253000  0.24200000  0.86185000  1.0
  H  H4  1  0.16749000  0.75799000  0.13816000  1.0
  H  H5  1  0.95489000  0.24845000  0.47628000  1.0
  H  H6  1  0.04511000  0.75155000  0.52371000  1.0
  H  H7  1  0.88950000  0.10980000  0.64970000  1.0
  H  H8  1  0.11049000  0.89021000  0.35029000  1.0
  H  H9  1  0.29113000  0.94827000  0.76191000  1.0
  H  H10  1  0.70885000  0.05174000  0.23809000  1.0
  H  H11  1  0.31012000  0.20020000  0.30260000  1.0
  H  H12  1  0.68985000  0.79980000  0.69740000  1.0
  C  C13  1  0.24890000  0.48586000  0.69342000  1.0
  C  C14  1  0.75111000  0.51415000  0.30658000  1.0
  C  C15  1  0.97588000  0.31412000  0.78852000  1.0
  C  C16  1  0.02413000  0.68588000  0.21149000  1.0
  C  C17  1  0.03420000  0.18361000  0.57582000  1.0
  C  C18  1  0.96580000  0.81639000  0.42418000  1.0
  C  C19  1  0.27322000  0.08645000  0.53682000  1.0
  C  C20  1  0.72677000  0.91356000  0.46318000  1.0
  C  C21  1  0.38209000  0.97327000  0.64677000  1.0
  C  C22  1  0.61789000  0.02673000  0.35322000  1.0
  C  C23  1  0.39241000  0.11247000  0.38985000  1.0
  C  C24  1  0.60758000  0.88753000  0.61014000  1.0
  C  C25  1  0.49209000  0.41214000  0.04241000  1.0
  C  C26  1  0.50795000  0.58785000  0.95760000  1.0
  N  N27  1  0.07818000  0.43267000  0.81773000  1.0
  N  N28  1  0.92184000  0.56732000  0.18227000  1.0
  N  N29  1  0.08106000  0.29899000  0.65315000  1.0
  N  N30  1  0.91893000  0.70101000  0.34685000  1.0
  N  N31  1  0.25541000  0.40677000  0.59071000  1.0
  N  N32  1  0.74457000  0.59324000  0.40928000  1.0
  O  O33  1  0.27376000  0.35738000  0.07398000  1.0
  O  O34  1  0.72626000  0.64262000  0.92603000  1.0
  O  O35  1  0.69255000  0.33292000  0.07614000  1.0
  O  O36  1  0.30748000  0.66707000  0.92387000  1.0
