# generated using pymatgen
data_ZnH9C16NO4F
_symmetry_space_group_name_H-M   'P 1'
_cell_length_a   9.69814000
_cell_length_b   10.49220000
_cell_length_c   14.61750000
_cell_angle_alpha   98.46220000
_cell_angle_beta   94.93040000
_cell_angle_gamma   102.04800000
_symmetry_Int_Tables_number   1
_chemical_formula_structural   ZnH9C16NO4F
_chemical_formula_sum   'Zn4 H36 C64 N4 O16 F4'
_cell_volume   1428.29991169
_cell_formula_units_Z   4
loop_
 _symmetry_equiv_pos_site_id
 _symmetry_equiv_pos_as_xyz
  1  'x, y, z'
loop_
 _atom_site_type_symbol
 _atom_site_label
 _atom_site_symmetry_multiplicity
 _atom_site_fract_x
 _atom_site_fract_y
 _atom_site_fract_z
 _atom_site_occupancy
  Zn  Zn0  1  0.54901000  0.73454000  0.60794000  1.0
  Zn  Zn1  1  0.45098000  0.26546000  0.39206000  1.0
  Zn  Zn2  1  0.54023000  0.77556000  0.84152000  1.0
  Zn  Zn3  1  0.45976000  0.22444000  0.15848000  1.0
  H  H4  1  0.23868000  0.63714000  0.75606000  1.0
  H  H5  1  0.76131000  0.36286000  0.24394000  1.0
  H  H6  1  0.04749000  0.62592000  0.86148000  1.0
  H  H7  1  0.95251000  0.37408000  0.13852000  1.0
  H  H8  1  0.84676000  0.86722000  0.70528000  1.0
  H  H9  1  0.15323000  0.13278000  0.29472000  1.0
  H  H10  1  0.03243000  0.87100000  0.59600000  1.0
  H  H11  1  0.96756000  0.12901000  0.40400000  1.0
  H  H12  1  0.66170000  0.36969000  0.59910000  1.0
  H  H13  1  0.33830000  0.63031000  0.40090000  1.0
  H  H14  1  0.66586000  0.13469000  0.60010000  1.0
  H  H15  1  0.33414000  0.86531000  0.39990000  1.0
  H  H16  1  0.47048000  0.14798000  0.85403000  1.0
  H  H17  1  0.52952000  0.85202000  0.14597000  1.0
  H  H18  1  0.46499000  0.38486000  0.85187000  1.0
  H  H19  1  0.53501000  0.61514000  0.14813000  1.0
  H  H20  1  0.67823000  0.54142000  0.49411000  1.0
  H  H21  1  0.32176000  0.45858000  0.50589000  1.0
  H  H22  1  0.81143000  0.53722000  0.35889000  1.0
  H  H23  1  0.18856000  0.46277000  0.64111000  1.0
  H  H24  1  0.78813000  0.94655000  0.35851000  1.0
  H  H25  1  0.21187000  0.05345000  0.64149000  1.0
  H  H26  1  0.65230000  0.93157000  0.49084000  1.0
  H  H27  1  0.34770000  0.06843000  0.50916000  1.0
  H  H28  1  0.01181000  0.59972000  0.31044000  1.0
  H  H29  1  0.98818000  0.40028000  0.68956000  1.0
  H  H30  1  0.16253000  0.59991000  0.18519000  1.0
  H  H31  1  0.83747000  0.40009000  0.81481000  1.0
  H  H32  1  0.20322000  0.54833000  0.04451000  1.0
  H  H33  1  0.79679000  0.45167000  0.95549000  1.0
  H  H34  1  0.39157000  0.57187000  0.93993000  1.0
  H  H35  1  0.60843000  0.42813000  0.06007000  1.0
  H  H36  1  0.38584000  0.96395000  0.93325000  1.0
  H  H37  1  0.61415000  0.03605000  0.06675000  1.0
  H  H38  1  0.20326000  0.96246000  0.04229000  1.0
  H  H39  1  0.79673000  0.03754000  0.95771000  1.0
  C  C40  1  0.14768000  0.75517000  0.66959000  1.0
  C  C41  1  0.85232000  0.24483000  0.33041000  1.0
  C  C42  1  0.15133000  0.68575000  0.74451000  1.0
  C  C43  1  0.84867000  0.31425000  0.25549000  1.0
  C  C44  1  0.04623000  0.68086000  0.80386000  1.0
  C  C45  1  0.95377000  0.31914000  0.19613000  1.0
  C  C46  1  0.93666000  0.74696000  0.79065000  1.0
  C  C47  1  0.06334000  0.25305000  0.20935000  1.0
  C  C48  1  0.93257000  0.81641000  0.71571000  1.0
  C  C49  1  0.06743000  0.18359000  0.28429000  1.0
  C  C50  1  0.03613000  0.81902000  0.65520000  1.0
  C  C51  1  0.96387000  0.18099000  0.34479000  1.0
  C  C52  1  0.26640000  0.76822000  0.60927000  1.0
  C  C53  1  0.73360000  0.23179000  0.39073000  1.0
  C  C54  1  0.82023000  0.73554000  0.85285000  1.0
  C  C55  1  0.17977000  0.26446000  0.14715000  1.0
  C  C56  1  0.56193000  0.39121000  0.72520000  1.0
  C  C57  1  0.43807000  0.60879000  0.27480000  1.0
  C  C58  1  0.62030000  0.32092000  0.65507000  1.0
  C  C59  1  0.37971000  0.67908000  0.34494000  1.0
  C  C60  1  0.62314000  0.18914000  0.65600000  1.0
  C  C61  1  0.37687000  0.81086000  0.34400000  1.0
  C  C62  1  0.56789000  0.12667000  0.72765000  1.0
  C  C63  1  0.43212000  0.87334000  0.27235000  1.0
  C  C64  1  0.51248000  0.19774000  0.79881000  1.0
  C  C65  1  0.48753000  0.80226000  0.20119000  1.0
  C  C66  1  0.50907000  0.32892000  0.79751000  1.0
  C  C67  1  0.49093000  0.67108000  0.20249000  1.0
  C  C68  1  0.55348000  0.53095000  0.72306000  1.0
  C  C69  1  0.44652000  0.46906000  0.27694000  1.0
  C  C70  1  0.56218000  0.98357000  0.72700000  1.0
  C  C71  1  0.43782000  0.01643000  0.27299000  1.0
  C  C72  1  0.70528000  0.62902000  0.46185000  1.0
  C  C73  1  0.29472000  0.37098000  0.53815000  1.0
  C  C74  1  0.78243000  0.62876000  0.38648000  1.0
  C  C75  1  0.21757000  0.37124000  0.61352000  1.0
  C  C76  1  0.81625000  0.74316000  0.34586000  1.0
  C  C77  1  0.18375000  0.25684000  0.65415000  1.0
  C  C78  1  0.76744000  0.85368000  0.38472000  1.0
  C  C79  1  0.23257000  0.14633000  0.61528000  1.0
  C  C80  1  0.69020000  0.84641000  0.46005000  1.0
  C  C81  1  0.30980000  0.15359000  0.53995000  1.0
  C  C82  1  0.90265000  0.74451000  0.26764000  1.0
  C  C83  1  0.09735000  0.25549000  0.73236000  1.0
  C  C84  1  0.00044000  0.66258000  0.25861000  1.0
  C  C85  1  0.99956000  0.33742000  0.74139000  1.0
  C  C86  1  0.08653000  0.66309000  0.18783000  1.0
  C  C87  1  0.91347000  0.33690000  0.81217000  1.0
  C  C88  1  0.08254000  0.74740000  0.12165000  1.0
  C  C89  1  0.91746000  0.25260000  0.87835000  1.0
  C  C90  1  0.98298000  0.82681000  0.12877000  1.0
  C  C91  1  0.01702000  0.17318000  0.87124000  1.0
  C  C92  1  0.89567000  0.82541000  0.19976000  1.0
  C  C93  1  0.10433000  0.17459000  0.80024000  1.0
  C  C94  1  0.18512000  0.75434000  0.05303000  1.0
  C  C95  1  0.81488000  0.24565000  0.94697000  1.0
  C  C96  1  0.23994000  0.64341000  0.02247000  1.0
  C  C97  1  0.76007000  0.35659000  0.97753000  1.0
  C  C98  1  0.34605000  0.65531000  0.96456000  1.0
  C  C99  1  0.65395000  0.34469000  0.03544000  1.0
  C  C100  1  0.34375000  0.87529000  0.96146000  1.0
  C  C101  1  0.65624000  0.12471000  0.03854000  1.0
  C  C102  1  0.23895000  0.87223000  0.02042000  1.0
  C  C103  1  0.76105000  0.12777000  0.97959000  1.0
  N  N104  1  0.65932000  0.73608000  0.49841000  1.0
  N  N105  1  0.34068000  0.26392000  0.50159000  1.0
  N  N106  1  0.39865000  0.76955000  0.93469000  1.0
  N  N107  1  0.60135000  0.23045000  0.06531000  1.0
  O  O108  1  0.28458000  0.85594000  0.55979000  1.0
  O  O109  1  0.71542000  0.14406000  0.44021000  1.0
  O  O110  1  0.34739000  0.68366000  0.61627000  1.0
  O  O111  1  0.65260000  0.31634000  0.38373000  1.0
  O  O112  1  0.74450000  0.82515000  0.85030000  1.0
  O  O113  1  0.25550000  0.17485000  0.14970000  1.0
  O  O114  1  0.79894000  0.64413000  0.89920000  1.0
  O  O115  1  0.20105000  0.35587000  0.10080000  1.0
  O  O116  1  0.61128000  0.58693000  0.65971000  1.0
  O  O117  1  0.38872000  0.41307000  0.34029000  1.0
  O  O118  1  0.48815000  0.58525000  0.78451000  1.0
  O  O119  1  0.51185000  0.41474000  0.21549000  1.0
  O  O120  1  0.62023000  0.92361000  0.66400000  1.0
  O  O121  1  0.37977000  0.07639000  0.33599000  1.0
  O  O122  1  0.49720000  0.92951000  0.78873000  1.0
  O  O123  1  0.50280000  0.07049000  0.21127000  1.0
  F  F124  1  0.80147000  0.90443000  0.19888000  1.0
  F  F125  1  0.19853000  0.09558000  0.80112000  1.0
  F  F126  1  0.96565000  0.90651000  0.06590000  1.0
  F  F127  1  0.03434000  0.09349000  0.93409000  1.0
