# generated using pymatgen
data_ScH18(C5O2)3
_symmetry_space_group_name_H-M   'P 1'
_cell_length_a   8.99537000
_cell_length_b   11.37061776
_cell_length_c   17.82303215
_cell_angle_alpha   84.27595855
_cell_angle_beta   75.38237105
_cell_angle_gamma   66.71118245
_symmetry_Int_Tables_number   1
_chemical_formula_structural   ScH18(C5O2)3
_chemical_formula_sum   'Sc4 H72 C60 O24'
_cell_volume   1620.26112328
_cell_formula_units_Z   4
loop_
 _symmetry_equiv_pos_site_id
 _symmetry_equiv_pos_as_xyz
  1  'x, y, z'
loop_
 _atom_site_type_symbol
 _atom_site_label
 _atom_site_symmetry_multiplicity
 _atom_site_fract_x
 _atom_site_fract_y
 _atom_site_fract_z
 _atom_site_occupancy
  Sc  Sc0  1  0.36349000  0.25003000  0.77301000  1.0
  Sc  Sc1  1  0.88656000  0.25003000  0.72701000  1.0
  Sc  Sc2  1  0.63651000  0.74997000  0.22700000  1.0
  Sc  Sc3  1  0.11345000  0.74997000  0.27299000  1.0
  H  H4  1  0.70394000  0.55434000  0.39472000  1.0
  H  H5  1  0.40125000  0.94572000  0.39472000  1.0
  H  H6  1  0.24172000  0.55413000  0.10533000  1.0
  H  H7  1  0.15301000  0.94576000  0.10530000  1.0
  H  H8  1  0.29607000  0.44566000  0.60528000  1.0
  H  H9  1  0.59875000  0.05429000  0.60528000  1.0
  H  H10  1  0.75828000  0.44588000  0.89467000  1.0
  H  H11  1  0.84699000  0.05424000  0.89470000  1.0
  H  H12  1  0.79301000  0.42834000  0.51068000  1.0
  H  H13  1  0.19626000  0.07173000  0.51075000  1.0
  H  H14  1  0.27884000  0.42816000  0.98923000  1.0
  H  H15  1  0.23205000  0.07171000  0.98924000  1.0
  H  H16  1  0.20699000  0.57166000  0.48932000  1.0
  H  H17  1  0.80374000  0.92827000  0.48925000  1.0
  H  H18  1  0.72116000  0.57185000  0.01077000  1.0
  H  H19  1  0.76795000  0.92829000  0.01076000  1.0
  H  H20  1  0.05408000  0.87040000  0.74913000  1.0
  H  H21  1  0.69682000  0.62978000  0.74927000  1.0
  H  H22  1  0.57566000  0.87015000  0.75088000  1.0
  H  H23  1  0.17361000  0.63002000  0.75081000  1.0
  H  H24  1  0.94591000  0.12960000  0.25087000  1.0
  H  H25  1  0.30317000  0.37022000  0.25073000  1.0
  H  H26  1  0.42433000  0.12985000  0.24912000  1.0
  H  H27  1  0.82638000  0.36998000  0.24920000  1.0
  H  H28  1  0.37971000  0.71055000  0.60362000  1.0
  H  H29  1  0.51661000  0.78926000  0.60363000  1.0
  H  H30  1  0.40946000  0.71069000  0.89649000  1.0
  H  H31  1  0.19384000  0.78933000  0.89646000  1.0
  H  H32  1  0.62030000  0.28945000  0.39637000  1.0
  H  H33  1  0.48338000  0.21074000  0.39637000  1.0
  H  H34  1  0.59055000  0.28931000  0.10350000  1.0
  H  H35  1  0.80616000  0.21067000  0.10353000  1.0
  H  H36  1  0.49546000  0.67385000  0.67686000  1.0
  H  H37  1  0.32770000  0.82592000  0.67690000  1.0
  H  H38  1  0.33053000  0.67394000  0.82323000  1.0
  H  H39  1  0.34611000  0.82603000  0.82323000  1.0
  H  H40  1  0.50456000  0.32614000  0.32313000  1.0
  H  H41  1  0.67229000  0.17408000  0.32310000  1.0
  H  H42  1  0.66946000  0.32606000  0.17677000  1.0
  H  H43  1  0.65389000  0.17397000  0.17676000  1.0
  H  H44  1  0.09564000  0.36076000  0.50542000  1.0
  H  H45  1  0.89877000  0.13931000  0.50550000  1.0
  H  H46  1  0.04348000  0.36072000  0.99453000  1.0
  H  H47  1  0.46185000  0.13927000  0.99461000  1.0
  H  H48  1  0.90436000  0.63924000  0.49458000  1.0
  H  H49  1  0.10122000  0.86070000  0.49450000  1.0
  H  H50  1  0.95651000  0.63929000  0.00547000  1.0
  H  H51  1  0.53817000  0.86072000  0.00538000  1.0
  H  H52  1  0.01361000  0.41664000  0.42083000  1.0
  H  H53  1  0.06540000  0.08337000  0.42091000  1.0
  H  H54  1  0.06959000  0.41680000  0.07907000  1.0
  H  H55  1  0.35115000  0.08322000  0.07914000  1.0
  H  H56  1  0.98639000  0.58336000  0.57917000  1.0
  H  H57  1  0.93461000  0.91663000  0.57908000  1.0
  H  H58  1  0.93041000  0.58320000  0.92093000  1.0
  H  H59  1  0.64884000  0.91678000  0.92086000  1.0
  H  H60  1  0.21590000  0.40728000  0.42021000  1.0
  H  H61  1  0.86370000  0.09281000  0.42028000  1.0
  H  H62  1  0.87675000  0.40722000  0.07975000  1.0
  H  H63  1  0.54333000  0.09273000  0.07984000  1.0
  H  H64  1  0.78410000  0.59272000  0.57979000  1.0
  H  H65  1  0.13630000  0.90719000  0.57971000  1.0
  H  H66  1  0.12324000  0.59278000  0.92025000  1.0
  H  H67  1  0.45666000  0.90727000  0.92016000  1.0
  H  H68  1  0.17912000  0.26422000  0.41988000  1.0
  H  H69  1  0.90089000  0.23582000  0.41996000  1.0
  H  H70  1  0.05666000  0.26431000  0.08012000  1.0
  H  H71  1  0.36310000  0.23568000  0.08022000  1.0
  H  H72  1  0.82087000  0.73578000  0.58012000  1.0
  H  H73  1  0.09910000  0.76418000  0.58004000  1.0
  H  H74  1  0.94333000  0.73570000  0.91988000  1.0
  H  H75  1  0.63690000  0.76432000  0.91978000  1.0
  C  C76  1  0.60230000  0.35904000  0.63474000  1.0
  C  C77  1  0.26301000  0.14099000  0.63472000  1.0
  C  C78  1  0.53873000  0.35899000  0.86532000  1.0
  C  C79  1  0.09601000  0.14108000  0.86535000  1.0
  C  C80  1  0.39771000  0.64096000  0.36526000  1.0
  C  C81  1  0.73698000  0.85901000  0.36528000  1.0
  C  C82  1  0.46125000  0.64102000  0.13469000  1.0
  C  C83  1  0.90399000  0.85892000  0.13466000  1.0
  C  C84  1  0.54998000  0.43005000  0.56457000  1.0
  C  C85  1  0.38556000  0.06994000  0.56456000  1.0
  C  C86  1  0.52000000  0.43022000  0.93538000  1.0
  C  C87  1  0.04459000  0.06988000  0.93543000  1.0
  C  C88  1  0.45003000  0.56995000  0.43543000  1.0
  C  C89  1  0.61444000  0.93006000  0.43544000  1.0
  C  C90  1  0.48000000  0.56979000  0.06462000  1.0
  C  C91  1  0.95539000  0.93012000  0.06458000  1.0
  C  C92  1  0.80814000  0.88370000  0.75011000  1.0
  C  C93  1  0.94180000  0.61646000  0.75017000  1.0
  C  C94  1  0.19185000  0.11630000  0.24989000  1.0
  C  C95  1  0.05818000  0.38354000  0.24984000  1.0
  C  C96  1  0.73691000  0.02661000  0.74981000  1.0
  C  C97  1  0.01331000  0.47354000  0.74987000  1.0
  C  C98  1  0.26308000  0.97339000  0.25019000  1.0
  C  C99  1  0.98669000  0.52646000  0.25014000  1.0
  C  C100  1  0.61558000  0.53026000  0.44121000  1.0
  C  C101  1  0.44312000  0.96975000  0.44123000  1.0
  C  C102  1  0.35417000  0.53008000  0.05886000  1.0
  C  C103  1  0.08704000  0.96980000  0.05883000  1.0
  C  C104  1  0.38443000  0.46974000  0.55879000  1.0
  C  C105  1  0.55688000  0.03025000  0.55878000  1.0
  C  C106  1  0.64582000  0.46993000  0.94115000  1.0
  C  C107  1  0.91297000  0.03020000  0.94117000  1.0
  C  C108  1  0.66513000  0.46040000  0.50535000  1.0
  C  C109  1  0.32948000  0.03962000  0.50538000  1.0
  C  C110  1  0.37453000  0.46032000  0.99463000  1.0
  C  C111  1  0.13089000  0.03960000  0.99463000  1.0
  C  C112  1  0.33487000  0.53960000  0.49465000  1.0
  C  C113  1  0.67051000  0.96038000  0.49463000  1.0
  C  C114  1  0.62546000  0.53969000  0.00538000  1.0
  C  C115  1  0.86910000  0.96040000  0.00538000  1.0
  C  C116  1  0.97684000  0.81666000  0.74983000  1.0
  C  C117  1  0.77341000  0.68351000  0.74990000  1.0
  C  C118  1  0.70647000  0.81654000  0.75056000  1.0
  C  C119  1  0.04309000  0.68362000  0.75052000  1.0
  C  C120  1  0.02316000  0.18334000  0.25017000  1.0
  C  C121  1  0.22660000  0.31648000  0.25010000  1.0
  C  C122  1  0.29352000  0.18346000  0.24944000  1.0
  C  C123  1  0.95690000  0.31638000  0.24948000  1.0
  C  C124  1  0.42986000  0.74989000  0.64025000  1.0
  C  C125  1  0.31997000  0.74999000  0.85987000  1.0
  C  C126  1  0.57015000  0.25011000  0.35974000  1.0
  C  C127  1  0.68002000  0.25001000  0.14013000  1.0
  C  C128  1  0.12606000  0.36220000  0.44190000  1.0
  C  C129  1  0.93188000  0.13785000  0.44197000  1.0
  C  C130  1  0.01163000  0.36223000  0.05806000  1.0
  C  C131  1  0.43015000  0.13776000  0.05814000  1.0
  C  C132  1  0.87394000  0.63780000  0.55810000  1.0
  C  C133  1  0.06812000  0.86215000  0.55803000  1.0
  C  C134  1  0.98837000  0.63777000  0.94194000  1.0
  C  C135  1  0.56984000  0.86224000  0.94186000  1.0
  O  O136  1  0.75171000  0.33020000  0.63972000  1.0
  O  O137  1  0.10863000  0.16986000  0.63965000  1.0
  O  O138  1  0.41814000  0.33013000  0.86040000  1.0
  O  O139  1  0.22148000  0.16999000  0.86047000  1.0
  O  O140  1  0.24829000  0.66980000  0.36029000  1.0
  O  O141  1  0.89139000  0.83013000  0.36035000  1.0
  O  O142  1  0.58189000  0.66986000  0.13960000  1.0
  O  O143  1  0.77852000  0.83001000  0.13953000  1.0
  O  O144  1  0.57928000  0.08327000  0.76922000  1.0
  O  O145  1  0.15155000  0.41686000  0.76926000  1.0
  O  O146  1  0.83819000  0.08301000  0.73002000  1.0
  O  O147  1  0.93180000  0.41714000  0.73009000  1.0
  O  O148  1  0.42072000  0.91673000  0.23077000  1.0
  O  O149  1  0.84846000  0.58314000  0.23074000  1.0
  O  O150  1  0.16181000  0.91699000  0.26998000  1.0
  O  O151  1  0.06820000  0.58285000  0.26991000  1.0
  O  O152  1  0.49397000  0.33255000  0.68648000  1.0
  O  O153  1  0.31954000  0.16750000  0.68648000  1.0
  O  O154  1  0.67372000  0.33214000  0.81364000  1.0
  O  O155  1  0.01284000  0.16778000  0.81362000  1.0
  O  O156  1  0.50604000  0.66745000  0.31352000  1.0
  O  O157  1  0.68046000  0.83251000  0.31352000  1.0
  O  O158  1  0.32631000  0.66786000  0.18636000  1.0
  O  O159  1  0.98716000  0.83222000  0.18638000  1.0
