# generated using pymatgen
data_SrH3C3O7
_symmetry_space_group_name_H-M   'P 1'
_cell_length_a   5.73131000
_cell_length_b   6.40839000
_cell_length_c   17.01690000
_cell_angle_alpha   89.99990000
_cell_angle_beta   90.00000000
_cell_angle_gamma   97.87320000
_symmetry_Int_Tables_number   1
_chemical_formula_structural   SrH3C3O7
_chemical_formula_sum   'Sr4 H12 C12 O28'
_cell_volume   619.11317932
_cell_formula_units_Z   4
loop_
 _symmetry_equiv_pos_site_id
 _symmetry_equiv_pos_as_xyz
  1  'x, y, z'
loop_
 _atom_site_type_symbol
 _atom_site_label
 _atom_site_symmetry_multiplicity
 _atom_site_fract_x
 _atom_site_fract_y
 _atom_site_fract_z
 _atom_site_occupancy
  Sr  Sr0  1  0.73278000  0.87852000  0.41954000  1.0
  Sr  Sr1  1  0.76722000  0.62148000  0.91954000  1.0
  Sr  Sr2  1  0.26722000  0.12148000  0.58046000  1.0
  Sr  Sr3  1  0.23278000  0.37852000  0.08046000  1.0
  H  H4  1  0.46726000  0.71710000  0.57018000  1.0
  H  H5  1  0.03274000  0.78290000  0.07018000  1.0
  H  H6  1  0.53274000  0.28290000  0.42982000  1.0
  H  H7  1  0.96726000  0.21710000  0.92982000  1.0
  H  H8  1  0.69498000  0.86966000  0.60527000  1.0
  H  H9  1  0.80502000  0.63034000  0.10527000  1.0
  H  H10  1  0.30502000  0.13034000  0.39473000  1.0
  H  H11  1  0.19498000  0.36966000  0.89473000  1.0
  H  H12  1  0.99200000  0.64230000  0.25498000  1.0
  H  H13  1  0.50800000  0.85770000  0.75498000  1.0
  H  H14  1  0.00800000  0.35770000  0.74502000  1.0
  H  H15  1  0.49200000  0.14230000  0.24502000  1.0
  C  C16  1  0.57536000  0.63275000  0.23839000  1.0
  C  C17  1  0.92464000  0.86724000  0.73839000  1.0
  C  C18  1  0.42464000  0.36724000  0.76161000  1.0
  C  C19  1  0.07536000  0.13276000  0.26161000  1.0
  C  C20  1  0.09381000  0.58511000  0.51847000  1.0
  C  C21  1  0.40619000  0.91490000  0.01847000  1.0
  C  C22  1  0.90619000  0.41490000  0.48153000  1.0
  C  C23  1  0.59381000  0.08511000  0.98153000  1.0
  C  C24  1  0.33658000  0.65296000  0.27922000  1.0
  C  C25  1  0.16342000  0.84704000  0.77922000  1.0
  C  C26  1  0.66342000  0.34704000  0.72078000  1.0
  C  C27  1  0.83658000  0.15296000  0.22078000  1.0
  O  O28  1  0.15624000  0.61878000  0.23066000  1.0
  O  O29  1  0.34377000  0.88122000  0.73065000  1.0
  O  O30  1  0.84376000  0.38122000  0.76934000  1.0
  O  O31  1  0.65624000  0.11877000  0.26934000  1.0
  O  O32  1  0.75618000  0.67580000  0.28199000  1.0
  O  O33  1  0.74382000  0.82420000  0.78199000  1.0
  O  O34  1  0.24382000  0.32419000  0.71801000  1.0
  O  O35  1  0.25618000  0.17581000  0.21801000  1.0
  O  O36  1  0.56987000  0.85712000  0.56440000  1.0
  O  O37  1  0.93013000  0.64289000  0.06440000  1.0
  O  O38  1  0.43013000  0.14289000  0.43560000  1.0
  O  O39  1  0.06987000  0.35712000  0.93560000  1.0
  O  O40  1  0.06836000  0.77645000  0.50824000  1.0
  O  O41  1  0.43164000  0.72355000  0.00824000  1.0
  O  O42  1  0.93164000  0.22355000  0.49176000  1.0
  O  O43  1  0.56836000  0.27645000  0.99176000  1.0
  O  O44  1  0.57115000  0.57920000  0.16740000  1.0
  O  O45  1  0.92886000  0.92080000  0.66740000  1.0
  O  O46  1  0.42885000  0.42080000  0.83260000  1.0
  O  O47  1  0.07114000  0.07920000  0.33260000  1.0
  O  O48  1  0.25960000  0.51826000  0.55620000  1.0
  O  O49  1  0.24040000  0.98175000  0.05620000  1.0
  O  O50  1  0.74040000  0.48174000  0.44380000  1.0
  O  O51  1  0.75960000  0.01826000  0.94379000  1.0
  O  O52  1  0.32766000  0.69877000  0.34935000  1.0
  O  O53  1  0.17234000  0.80123000  0.84935000  1.0
  O  O54  1  0.67234000  0.30123000  0.65065000  1.0
  O  O55  1  0.82766000  0.19877000  0.15065000  1.0
