# generated using pymatgen
data_Mg2H15C28NO9
_symmetry_space_group_name_H-M   'P 1'
_cell_length_a   6.85429000
_cell_length_b   41.49800000
_cell_length_c   41.50890000
_cell_angle_alpha   119.69800000
_cell_angle_beta   93.15460000
_cell_angle_gamma   93.15540000
_symmetry_Int_Tables_number   1
_chemical_formula_structural   Mg2H15C28NO9
_chemical_formula_sum   'Mg6 H45 C84 N3 O27'
_cell_volume   10194.17551422
_cell_formula_units_Z   3
loop_
 _symmetry_equiv_pos_site_id
 _symmetry_equiv_pos_as_xyz
  1  'x, y, z'
loop_
 _atom_site_type_symbol
 _atom_site_label
 _atom_site_symmetry_multiplicity
 _atom_site_fract_x
 _atom_site_fract_y
 _atom_site_fract_z
 _atom_site_occupancy
  Mg  Mg0  1  0.14593000  0.66940000  0.30938000  1.0
  Mg  Mg1  1  0.83642000  0.69055000  0.35991000  1.0
  Mg  Mg2  1  0.47648000  0.64002000  0.33052000  1.0
  Mg  Mg3  1  0.68797000  0.33107000  0.69075000  1.0
  Mg  Mg4  1  0.99723000  0.30929000  0.64033000  1.0
  Mg  Mg5  1  0.35701000  0.35974000  0.66896000  1.0
  H  H6  1  0.07354000  0.10457000  0.54676000  1.0
  H  H7  1  0.52691000  0.45333000  0.55791000  1.0
  H  H8  1  0.96942000  0.44213000  0.89529000  1.0
  H  H9  1  0.85056000  0.04725000  0.51476000  1.0
  H  H10  1  0.33621000  0.48531000  0.53252000  1.0
  H  H11  1  0.80312000  0.46735000  0.95250000  1.0
  H  H12  1  0.76137000  0.98956000  0.51081000  1.0
  H  H13  1  0.25115000  0.48923000  0.47884000  1.0
  H  H14  1  0.77047000  0.52095000  0.01027000  1.0
  H  H15  1  0.57089000  0.92829000  0.48015000  1.0
  H  H16  1  0.09103000  0.51987000  0.44825000  1.0
  H  H17  1  0.64235000  0.55169000  0.07163000  1.0
  H  H18  1  0.90433000  0.89175000  0.38513000  1.0
  H  H19  1  0.51927000  0.61495000  0.50671000  1.0
  H  H20  1  0.01366000  0.49334000  0.10814000  1.0
  H  H21  1  0.09397000  0.95407000  0.41553000  1.0
  H  H22  1  0.67868000  0.58458000  0.53862000  1.0
  H  H23  1  0.13988000  0.46132000  0.04576000  1.0
  H  H24  1  0.37961000  0.88148000  0.43570000  1.0
  H  H25  1  0.94406000  0.56442000  0.44583000  1.0
  H  H26  1  0.49896000  0.55418000  0.11854000  1.0
  H  H27  1  0.60905000  0.79495000  0.40421000  1.0
  H  H28  1  0.20537000  0.59591000  0.39079000  1.0
  H  H29  1  0.81504000  0.60918000  0.20512000  1.0
  H  H30  1  0.89188000  0.78058000  0.37021000  1.0
  H  H31  1  0.52187000  0.62982000  0.41037000  1.0
  H  H32  1  0.11167000  0.58961000  0.21925000  1.0
  H  H33  1  0.06798000  0.84282000  0.40174000  1.0
  H  H34  1  0.66696000  0.59843000  0.44118000  1.0
  H  H35  1  0.22624000  0.55893000  0.15709000  1.0
  H  H36  1  0.33291000  0.98477000  0.46063000  1.0
  H  H37  1  0.87287000  0.53956000  0.52439000  1.0
  H  H38  1  0.34717000  0.47557000  0.01511000  1.0
  H  H39  1  0.55468000  0.04312000  0.49206000  1.0
  H  H40  1  0.06292000  0.50813000  0.55135000  1.0
  H  H41  1  0.51127000  0.44878000  0.95688000  1.0
  H  H42  1  0.24062000  0.20330000  0.58725000  1.0
  H  H43  1  0.65364000  0.41286000  0.61620000  1.0
  H  H44  1  0.03769000  0.38391000  0.79670000  1.0
  H  H45  1  0.94611000  0.22139000  0.63150000  1.0
  H  H46  1  0.31447000  0.36848000  0.58977000  1.0
  H  H47  1  0.72518000  0.41007000  0.77861000  1.0
  H  H48  1  0.78267000  0.15737000  0.59195000  1.0
  H  H49  1  0.19008000  0.40799000  0.56529000  1.0
  H  H50  1  0.62579000  0.43448000  0.84261000  1.0
  C  C51  1  0.47593000  0.11072000  0.54049000  1.0
  C  C52  1  0.93544000  0.45966000  0.57044000  1.0
  C  C53  1  0.36570000  0.42974000  0.88926000  1.0
  C  C54  1  0.33074000  0.07750000  0.52197000  1.0
  C  C55  1  0.80895000  0.47818000  0.55572000  1.0
  C  C56  1  0.25334000  0.44435000  0.92243000  1.0
  C  C57  1  0.13129000  0.07834000  0.52818000  1.0
  C  C58  1  0.60332000  0.47193000  0.55029000  1.0
  C  C59  1  0.05306000  0.44971000  0.92152000  1.0
  C  C60  1  0.00542000  0.04567000  0.51002000  1.0
  C  C61  1  0.49576000  0.49007000  0.53574000  1.0
  C  C62  1  0.95945000  0.46418000  0.95415000  1.0
  C  C63  1  0.07420000  0.01142000  0.48523000  1.0
  C  C64  1  0.58944000  0.51489000  0.52632000  1.0
  C  C65  1  0.06210000  0.47357000  0.98840000  1.0
  C  C66  1  0.94517000  0.97623000  0.46587000  1.0
  C  C67  1  0.47975000  0.53420000  0.51045000  1.0
  C  C68  1  0.96823000  0.48940000  0.02358000  1.0
  C  C69  1  0.79107000  0.96861000  0.48284000  1.0
  C  C70  1  0.30871000  0.51720000  0.48585000  1.0
  C  C71  1  0.82160000  0.51398000  0.03123000  1.0
  C  C72  1  0.68256000  0.93380000  0.46528000  1.0
  C  C73  1  0.21762000  0.53476000  0.46861000  1.0
  C  C74  1  0.74852000  0.53130000  0.06608000  1.0
  C  C75  1  0.72503000  0.90567000  0.43018000  1.0
  C  C76  1  0.29500000  0.56987000  0.47556000  1.0
  C  C77  1  0.81984000  0.52443000  0.09424000  1.0
  C  C78  1  0.87374000  0.91367000  0.41255000  1.0
  C  C79  1  0.46136000  0.58751000  0.50120000  1.0
  C  C80  1  0.96062000  0.49880000  0.08621000  1.0
  C  C81  1  0.98071000  0.94831000  0.42994000  1.0
  C  C82  1  0.55108000  0.57015000  0.51846000  1.0
  C  C83  1  0.03229000  0.48147000  0.05153000  1.0
  C  C84  1  0.63535000  0.86615000  0.41084000  1.0
  C  C85  1  0.22478000  0.58925000  0.45542000  1.0
  C  C86  1  0.77021000  0.54465000  0.13379000  1.0
  C  C87  1  0.35406000  0.82346000  0.40472000  1.0
  C  C88  1  0.94986000  0.59540000  0.41880000  1.0
  C  C89  1  0.53159000  0.58120000  0.17652000  1.0
  C  C90  1  0.45234000  0.79229000  0.39668000  1.0
  C  C91  1  0.05616000  0.60342000  0.39566000  1.0
  C  C92  1  0.66085000  0.60431000  0.20771000  1.0
  C  C93  1  0.35334000  0.75631000  0.37783000  1.0
  C  C94  1  0.97574000  0.62220000  0.37847000  1.0
  C  C95  1  0.59736000  0.62150000  0.24365000  1.0
  C  C96  1  0.14680000  0.75138000  0.36713000  1.0
  C  C97  1  0.77979000  0.63285000  0.38419000  1.0
  C  C98  1  0.39565000  0.61576000  0.24854000  1.0
  C  C99  1  0.04926000  0.78374000  0.37771000  1.0
  C  C100  1  0.67179000  0.62232000  0.40601000  1.0
  C  C101  1  0.26600000  0.59399000  0.21616000  1.0
  C  C102  1  0.15019000  0.81895000  0.39571000  1.0
  C  C103  1  0.75495000  0.60440000  0.42329000  1.0
  C  C104  1  0.33210000  0.57675000  0.18099000  1.0
  C  C105  1  0.47229000  0.72495000  0.36936000  1.0
  C  C106  1  0.10302000  0.63061000  0.35552000  1.0
  C  C107  1  0.74744000  0.64445000  0.27502000  1.0
  C  C108  1  0.27447000  0.01103000  0.47910000  1.0
  C  C109  1  0.79584000  0.52107000  0.53214000  1.0
  C  C110  1  0.26278000  0.46782000  0.98884000  1.0
  C  C111  1  0.40023000  0.04350000  0.49702000  1.0
  C  C112  1  0.90352000  0.50315000  0.54672000  1.0
  C  C113  1  0.35645000  0.45334000  0.95643000  1.0
  C  C114  1  0.50086000  0.17644000  0.58665000  1.0
  C  C115  1  0.91411000  0.41341000  0.58985000  1.0
  C  C116  1  0.32489000  0.41013000  0.82354000  1.0
  C  C117  1  0.39575000  0.20711000  0.59691000  1.0
  C  C118  1  0.79902000  0.40318000  0.61030000  1.0
  C  C119  1  0.18902000  0.38976000  0.79289000  1.0
  C  C120  1  0.48566000  0.24360000  0.61994000  1.0
  C  C121  1  0.86601000  0.38015000  0.62373000  1.0
  C  C122  1  0.24241000  0.37633000  0.75641000  1.0
  C  C123  1  0.69005000  0.24905000  0.63242000  1.0
  C  C124  1  0.05789000  0.36764000  0.61664000  1.0
  C  C125  1  0.44131000  0.38336000  0.75096000  1.0
  C  C126  1  0.79107000  0.21708000  0.62162000  1.0
  C  C127  1  0.16942000  0.37839000  0.59540000  1.0
  C  C128  1  0.57446000  0.40450000  0.78291000  1.0
  C  C129  1  0.70007000  0.18128000  0.59944000  1.0
  C  C130  1  0.10033000  0.40056000  0.58180000  1.0
  C  C131  1  0.51928000  0.41807000  0.81870000  1.0
  C  C132  1  0.36216000  0.27470000  0.63017000  1.0
  C  C133  1  0.73230000  0.36991000  0.64459000  1.0
  C  C134  1  0.08772000  0.35547000  0.72532000  1.0
  N  N135  1  0.45706000  0.85938000  0.42099000  1.0
  N  N136  1  0.03642000  0.57911000  0.43846000  1.0
  N  N137  1  0.59866000  0.56156000  0.14061000  1.0
  O  O138  1  0.65085000  0.73052000  0.38253000  1.0
  O  O139  1  0.26838000  0.61743000  0.34792000  1.0
  O  O140  1  0.92041000  0.65206000  0.26946000  1.0
  O  O141  1  0.39069000  0.69148000  0.34747000  1.0
  O  O142  1  0.04319000  0.65245000  0.34389000  1.0
  O  O143  1  0.69915000  0.65607000  0.30848000  1.0
  O  O144  1  0.04342000  0.71791000  0.34744000  1.0
  O  O145  1  0.69592000  0.65247000  0.37035000  1.0
  O  O146  1  0.32553000  0.62955000  0.28199000  1.0
  O  O147  1  0.18244000  0.26893000  0.61757000  1.0
  O  O148  1  0.56533000  0.38256000  0.65147000  1.0
  O  O149  1  0.91381000  0.34859000  0.73108000  1.0
  O  O150  1  0.44119000  0.30819000  0.65292000  1.0
  O  O151  1  0.78837000  0.34709000  0.65525000  1.0
  O  O152  1  0.13315000  0.34479000  0.69184000  1.0
  O  O153  1  0.79059000  0.28262000  0.65387000  1.0
  O  O154  1  0.13706000  0.34620000  0.62878000  1.0
  O  O155  1  0.50822000  0.37126000  0.71740000  1.0
  O  O156  1  0.39200000  0.14177000  0.56546000  1.0
  O  O157  1  0.82639000  0.43464000  0.57643000  1.0
  O  O158  1  0.25068000  0.42355000  0.85818000  1.0
  O  O159  1  0.64879000  0.11050000  0.53453000  1.0
  O  O160  1  0.11421000  0.46565000  0.57626000  1.0
  O  O161  1  0.53900000  0.42416000  0.88955000  1.0
  O  O162  1  0.72390000  0.84107000  0.38726000  1.0
  O  O163  1  0.33696000  0.61285000  0.45397000  1.0
  O  O164  1  0.88417000  0.54617000  0.15882000  1.0
