# generated using pymatgen
data_BaH16C14S2O13
_symmetry_space_group_name_H-M   'P 1'
_cell_length_a   7.15884000
_cell_length_b   11.22670000
_cell_length_c   12.43840000
_cell_angle_alpha   102.85500000
_cell_angle_beta   92.27200000
_cell_angle_gamma   106.71000000
_symmetry_Int_Tables_number   1
_chemical_formula_structural   BaH16C14S2O13
_chemical_formula_sum   'Ba2 H32 C28 S4 O26'
_cell_volume   927.69984818
_cell_formula_units_Z   2
loop_
 _symmetry_equiv_pos_site_id
 _symmetry_equiv_pos_as_xyz
  1  'x, y, z'
loop_
 _atom_site_type_symbol
 _atom_site_label
 _atom_site_symmetry_multiplicity
 _atom_site_fract_x
 _atom_site_fract_y
 _atom_site_fract_z
 _atom_site_occupancy
  Ba  Ba0  1  0.13525000  0.30347000  0.06007000  1.0
  Ba  Ba1  1  0.86475000  0.69653000  0.93993000  1.0
  H  H2  1  0.20852000  0.29340000  0.46395000  1.0
  H  H3  1  0.79148000  0.70660000  0.53605000  1.0
  H  H4  1  0.21469000  0.30505000  0.66841000  1.0
  H  H5  1  0.78531000  0.69495000  0.33159000  1.0
  H  H6  1  0.32667000  0.71402000  0.73530000  1.0
  H  H7  1  0.67333000  0.28598000  0.26470000  1.0
  H  H8  1  0.30760000  0.70041000  0.53273000  1.0
  H  H9  1  0.69240000  0.29959000  0.46727000  1.0
  H  H10  1  0.92001000  0.19316000  0.53408000  1.0
  H  H11  1  0.07999000  0.80684000  0.46592000  1.0
  H  H12  1  0.93383000  0.19450000  0.33283000  1.0
  H  H13  1  0.06617000  0.80550000  0.66717000  1.0
  H  H14  1  0.56232000  0.80152000  0.24350000  1.0
  H  H15  1  0.43768000  0.19848000  0.75650000  1.0
  H  H16  1  0.55463000  0.80047000  0.44198000  1.0
  H  H17  1  0.44537000  0.19953000  0.55802000  1.0
  H  H18  1  0.29080000  0.58806000  0.25451000  1.0
  H  H19  1  0.70920000  0.41194000  0.74549000  1.0
  H  H20  1  0.67237000  0.89721000  0.72788000  1.0
  H  H21  1  0.32763000  0.10279000  0.27212000  1.0
  H  H22  1  0.81542000  0.17618000  0.82442000  1.0
  H  H23  1  0.18458000  0.82382000  0.17558000  1.0
  H  H24  1  0.67361000  0.17227000  0.91781000  1.0
  H  H25  1  0.32639000  0.82774000  0.08219000  1.0
  H  H26  1  0.45823000  0.59758000  0.12230000  1.0
  H  H27  1  0.54177000  0.40242000  0.87770000  1.0
  H  H28  1  0.26618000  0.64568000  0.11340000  1.0
  H  H29  1  0.73383000  0.35432000  0.88660000  1.0
  H  H30  1  0.15085000  0.03348000  0.12355000  1.0
  H  H31  1  0.84915000  0.96652000  0.87645000  1.0
  H  H32  1  0.36714000  0.08833000  0.09312000  1.0
  H  H33  1  0.63286000  0.91167000  0.90688000  1.0
  C  C34  1  0.25213000  0.49524000  0.48595000  1.0
  C  C35  1  0.74787000  0.50476000  0.51405000  1.0
  C  C36  1  0.22873000  0.38418000  0.52406000  1.0
  C  C37  1  0.77127000  0.61582000  0.47594000  1.0
  C  C38  1  0.23598000  0.39086000  0.63746000  1.0
  C  C39  1  0.76402000  0.60914000  0.36254000  1.0
  C  C40  1  0.27194000  0.50982000  0.71226000  1.0
  C  C41  1  0.72806000  0.49018000  0.28774000  1.0
  C  C42  1  0.29832000  0.62199000  0.67554000  1.0
  C  C43  1  0.70168000  0.37802000  0.32446000  1.0
  C  C44  1  0.28730000  0.61399000  0.56230000  1.0
  C  C45  1  0.71270000  0.38601000  0.43770000  1.0
  C  C46  1  0.24150000  0.48616000  0.36458000  1.0
  C  C47  1  0.75851000  0.51384000  0.63542000  1.0
  C  C48  1  0.74134000  0.99705000  0.50044000  1.0
  C  C49  1  0.25865000  0.00295000  0.49956000  1.0
  C  C50  1  0.84506000  0.10782000  0.46911000  1.0
  C  C51  1  0.15494000  0.89218000  0.53089000  1.0
  C  C52  1  0.85123000  0.10882000  0.35761000  1.0
  C  C53  1  0.14877000  0.89118000  0.64240000  1.0
  C  C54  1  0.74915000  0.99781000  0.27710000  1.0
  C  C55  1  0.25085000  0.00220000  0.72290000  1.0
  C  C56  1  0.64217000  0.88702000  0.30702000  1.0
  C  C57  1  0.35783000  0.11298000  0.69298000  1.0
  C  C58  1  0.63872000  0.88661000  0.41885000  1.0
  C  C59  1  0.36128000  0.11339000  0.58115000  1.0
  C  C60  1  0.74645000  0.00208000  0.62129000  1.0
  C  C61  1  0.25355000  0.99792000  0.37871000  1.0
  S  S62  1  0.28358000  0.52328000  0.85757000  1.0
  S  S63  1  0.71642000  0.47672000  0.14243000  1.0
  S  S64  1  0.76374000  0.99719000  0.13456000  1.0
  S  S65  1  0.23626000  0.00281000  0.86544000  1.0
  O  O66  1  0.28438000  0.59905000  0.33964000  1.0
  O  O67  1  0.71562000  0.40095000  0.66036000  1.0
  O  O68  1  0.19686000  0.38198000  0.29408000  1.0
  O  O69  1  0.80314000  0.61802000  0.70592000  1.0
  O  O70  1  0.29504000  0.39874000  0.87507000  1.0
  O  O71  1  0.70497000  0.60126000  0.12493000  1.0
  O  O72  1  0.10196000  0.54746000  0.89150000  1.0
  O  O73  1  0.89804000  0.45254000  0.10850000  1.0
  O  O74  1  0.46071000  0.62991000  0.90663000  1.0
  O  O75  1  0.53930000  0.37009000  0.09337000  1.0
  O  O76  1  0.65204000  0.89172000  0.64449000  1.0
  O  O77  1  0.34796000  0.10828000  0.35551000  1.0
  O  O78  1  0.83481000  0.10170000  0.69184000  1.0
  O  O79  1  0.16519000  0.89829000  0.30816000  1.0
  O  O80  1  0.82679000  0.13192000  0.12957000  1.0
  O  O81  1  0.17321000  0.86808000  0.87043000  1.0
  O  O82  1  0.91243000  0.93174000  0.09911000  1.0
  O  O83  1  0.08757000  0.06826000  0.90089000  1.0
  O  O84  1  0.57006000  0.92379000  0.07371000  1.0
  O  O85  1  0.42995000  0.07621000  0.92629000  1.0
  O  O86  1  0.79790000  0.22506000  0.89870000  1.0
  O  O87  1  0.20210000  0.77494000  0.10130000  1.0
  O  O88  1  0.31730000  0.57820000  0.13426000  1.0
  O  O89  1  0.68270000  0.42180000  0.86574000  1.0
  O  O90  1  0.27586000  0.10534000  0.14717000  1.0
  O  O91  1  0.72414000  0.89465000  0.85283000  1.0
