# generated using pymatgen
data_BaZn2H14C24(NO3)4
_symmetry_space_group_name_H-M   'P 1'
_cell_length_a   7.41768000
_cell_length_b   11.36300000
_cell_length_c   15.35260000
_cell_angle_alpha   95.45110000
_cell_angle_beta   97.55870000
_cell_angle_gamma   105.09300000
_symmetry_Int_Tables_number   1
_chemical_formula_structural   BaZn2H14C24(NO3)4
_chemical_formula_sum   'Ba2 Zn4 H28 C48 N8 O24'
_cell_volume   1227.18693237
_cell_formula_units_Z   2
loop_
 _symmetry_equiv_pos_site_id
 _symmetry_equiv_pos_as_xyz
  1  'x, y, z'
loop_
 _atom_site_type_symbol
 _atom_site_label
 _atom_site_symmetry_multiplicity
 _atom_site_fract_x
 _atom_site_fract_y
 _atom_site_fract_z
 _atom_site_occupancy
  Ba  Ba0  1  0.74359000  0.47235000  0.44043000  1.0
  Ba  Ba1  1  0.25641000  0.52765000  0.55957000  1.0
  Zn  Zn2  1  0.99020000  0.96527000  0.11956000  1.0
  Zn  Zn3  1  0.00980000  0.03473000  0.88044000  1.0
  Zn  Zn4  1  0.02716000  0.30360000  0.73766000  1.0
  Zn  Zn5  1  0.97285000  0.69640000  0.26233000  1.0
  H  H6  1  0.65216000  0.20290000  0.26240000  1.0
  H  H7  1  0.34784000  0.79710000  0.73760000  1.0
  H  H8  1  0.42545000  0.25705000  0.86523000  1.0
  H  H9  1  0.57455000  0.74295000  0.13477000  1.0
  H  H10  1  0.55124000  0.65372000  0.93453000  1.0
  H  H11  1  0.44876000  0.34628000  0.06547000  1.0
  H  H12  1  0.60097000  0.47509000  0.68100000  1.0
  H  H13  1  0.39903000  0.52491000  0.31900000  1.0
  H  H14  1  0.07068000  0.75647000  0.82893000  1.0
  H  H15  1  0.92932000  0.24353000  0.17107000  1.0
  H  H16  1  0.30619000  0.12366000  0.28468000  1.0
  H  H17  1  0.69381000  0.87634000  0.71532000  1.0
  H  H18  1  0.70761000  0.10751000  0.11559000  1.0
  H  H19  1  0.29239000  0.89249000  0.88441000  1.0
  H  H20  1  0.35645000  0.95335000  0.03535000  1.0
  H  H21  1  0.64355000  0.04665000  0.96465000  1.0
  H  H22  1  0.68100000  0.98655000  0.59548000  1.0
  H  H23  1  0.31900000  0.01345000  0.40452000  1.0
  H  H24  1  0.68218000  0.75550000  0.35781000  1.0
  H  H25  1  0.31781000  0.24449000  0.64219000  1.0
  H  H26  1  0.91994000  0.14914000  0.38021000  1.0
  H  H27  1  0.08006000  0.85086000  0.61979000  1.0
  H  H28  1  0.58360000  0.20590000  0.73418000  1.0
  H  H29  1  0.41640000  0.79410000  0.26582000  1.0
  H  H30  1  0.67023000  0.39197000  0.99638000  1.0
  H  H31  1  0.32977000  0.60803000  0.00362000  1.0
  H  H32  1  0.01599000  0.42164000  0.93607000  1.0
  H  H33  1  0.98402000  0.57836000  0.06393000  1.0
  C  C34  1  0.81942000  0.71685000  0.89028000  1.0
  C  C35  1  0.18058000  0.28315000  0.10972000  1.0
  C  C36  1  0.63379000  0.64338000  0.88232000  1.0
  C  C37  1  0.36621000  0.35662000  0.11768000  1.0
  C  C38  1  0.55213000  0.55808000  0.80624000  1.0
  C  C39  1  0.44787000  0.44192000  0.19376000  1.0
  C  C40  1  0.65991000  0.54387000  0.73944000  1.0
  C  C41  1  0.34009000  0.45613000  0.26056000  1.0
  C  C42  1  0.84845000  0.61488000  0.74872000  1.0
  C  C43  1  0.15155000  0.38512000  0.25128000  1.0
  C  C44  1  0.92573000  0.70110000  0.82358000  1.0
  C  C45  1  0.07426000  0.29890000  0.17642000  1.0
  C  C46  1  0.90676000  0.81579000  0.96556000  1.0
  C  C47  1  0.09324000  0.18421000  0.03444000  1.0
  C  C48  1  0.35262000  0.48086000  0.80117000  1.0
  C  C49  1  0.64738000  0.51914000  0.19883000  1.0
  C  C50  1  0.97146000  0.60086000  0.68006000  1.0
  C  C51  1  0.02855000  0.39914000  0.31994000  1.0
  C  C52  1  0.36376000  0.09516000  0.22755000  1.0
  C  C53  1  0.63625000  0.90484000  0.77245000  1.0
  C  C54  1  0.57191000  0.08701000  0.13796000  1.0
  C  C55  1  0.42808000  0.91299000  0.86204000  1.0
  C  C56  1  0.39909000  0.01083000  0.09878000  1.0
  C  C57  1  0.60090000  0.98916000  0.90122000  1.0
  C  C58  1  0.80765000  0.08079000  0.49378000  1.0
  C  C59  1  0.19235000  0.91921000  0.50622000  1.0
  C  C60  1  0.71465000  0.97638000  0.52880000  1.0
  C  C61  1  0.28535000  0.02362000  0.47120000  1.0
  C  C62  1  0.66815000  0.85938000  0.47979000  1.0
  C  C63  1  0.33185000  0.14062000  0.52021000  1.0
  C  C64  1  0.71436000  0.84711000  0.39485000  1.0
  C  C65  1  0.28564000  0.15289000  0.60515000  1.0
  C  C66  1  0.80300000  0.95097000  0.35841000  1.0
  C  C67  1  0.19700000  0.04903000  0.64159000  1.0
  C  C68  1  0.84875000  0.06814000  0.40778000  1.0
  C  C69  1  0.15125000  0.93186000  0.59222000  1.0
  C  C70  1  0.87988000  0.20403000  0.55092000  1.0
  C  C71  1  0.12012000  0.79597000  0.44908000  1.0
  C  C72  1  0.57517000  0.74635000  0.51810000  1.0
  C  C73  1  0.42483000  0.25365000  0.48190000  1.0
  C  C74  1  0.85571000  0.93611000  0.26923000  1.0
  C  C75  1  0.14429000  0.06388000  0.73077000  1.0
  C  C76  1  0.65496000  0.25969000  0.79717000  1.0
  C  C77  1  0.34505000  0.74031000  0.20283000  1.0
  C  C78  1  0.70382000  0.35593000  0.93439000  1.0
  C  C79  1  0.29618000  0.64407000  0.06561000  1.0
  C  C80  1  0.87386000  0.37195000  0.90436000  1.0
  C  C81  1  0.12614000  0.62805000  0.09564000  1.0
  N  N82  1  0.26964000  0.01676000  0.15515000  1.0
  N  N83  1  0.73036000  0.98324000  0.84485000  1.0
  N  N84  1  0.54689000  0.13813000  0.21895000  1.0
  N  N85  1  0.45311000  0.86187000  0.78105000  1.0
  N  N86  1  0.84140000  0.31170000  0.81872000  1.0
  N  N87  1  0.15861000  0.68830000  0.18128000  1.0
  N  N88  1  0.56839000  0.28473000  0.86591000  1.0
  N  N89  1  0.43162000  0.71527000  0.13409000  1.0
  O  O90  1  0.83312000  0.81780000  0.03637000  1.0
  O  O91  1  0.16688000  0.18220000  0.96363000  1.0
  O  O92  1  0.05551000  0.89899000  0.95702000  1.0
  O  O93  1  0.94449000  0.10101000  0.04298000  1.0
  O  O94  1  0.26303000  0.42562000  0.72237000  1.0
  O  O95  1  0.73698000  0.57438000  0.27763000  1.0
  O  O96  1  0.28063000  0.46854000  0.86986000  1.0
  O  O97  1  0.71937000  0.53146000  0.13014000  1.0
  O  O98  1  0.89788000  0.52113000  0.61192000  1.0
  O  O99  1  0.10212000  0.47887000  0.38808000  1.0
  O  O100  1  0.14287000  0.66595000  0.69384000  1.0
  O  O101  1  0.85713000  0.33405000  0.30616000  1.0
  O  O102  1  0.85866000  0.20160000  0.63310000  1.0
  O  O103  1  0.14134000  0.79840000  0.36690000  1.0
  O  O104  1  0.95977000  0.29741000  0.51835000  1.0
  O  O105  1  0.04023000  0.70259000  0.48165000  1.0
  O  O106  1  0.52018000  0.75874000  0.59229000  1.0
  O  O107  1  0.47982000  0.24126000  0.40771000  1.0
  O  O108  1  0.55268000  0.64131000  0.47235000  1.0
  O  O109  1  0.44732000  0.35869000  0.52765000  1.0
  O  O110  1  0.83798000  0.82863000  0.22768000  1.0
  O  O111  1  0.16202000  0.17137000  0.77232000  1.0
  O  O112  1  0.91757000  0.03185000  0.23287000  1.0
  O  O113  1  0.08243000  0.96815000  0.76713000  1.0
