# generated using pymatgen
data_U3H36C28(NO10)2
_symmetry_space_group_name_H-M   'P 1'
_cell_length_a   8.91404000
_cell_length_b   9.48112000
_cell_length_c   11.99320000
_cell_angle_alpha   84.34800000
_cell_angle_beta   73.92880000
_cell_angle_gamma   68.02980000
_symmetry_Int_Tables_number   1
_chemical_formula_structural   U3H36C28(NO10)2
_chemical_formula_sum   'U3 H36 C28 N2 O20'
_cell_volume   903.24550085
_cell_formula_units_Z   1
loop_
 _symmetry_equiv_pos_site_id
 _symmetry_equiv_pos_as_xyz
  1  'x, y, z'
loop_
 _atom_site_type_symbol
 _atom_site_label
 _atom_site_symmetry_multiplicity
 _atom_site_fract_x
 _atom_site_fract_y
 _atom_site_fract_z
 _atom_site_occupancy
  U  U0  1  0.50000000  0.00000000  0.50000000  1.0
  U  U1  1  0.41561000  0.29200000  0.17915000  1.0
  U  U2  1  0.58439000  0.70800000  0.82085000  1.0
  H  H3  1  0.24794000  0.05181000  0.17376000  1.0
  H  H4  1  0.75206000  0.94819000  0.82624000  1.0
  H  H5  1  0.01700000  0.93657000  0.37010000  1.0
  H  H6  1  0.98299000  0.06343000  0.62990000  1.0
  H  H7  1  0.98626000  0.12934000  0.33964000  1.0
  H  H8  1  0.01374000  0.87066000  0.66036000  1.0
  H  H9  1  0.98432000  0.08794000  0.13479000  1.0
  H  H10  1  0.01568000  0.91206000  0.86521000  1.0
  H  H11  1  0.99726000  0.77058000  0.22368000  1.0
  H  H12  1  0.00274000  0.22942000  0.77632000  1.0
  H  H13  1  0.96138000  0.84852000  0.08820000  1.0
  H  H14  1  0.03862000  0.15148000  0.91180000  1.0
  H  H15  1  0.23660000  0.87944000  0.03039000  1.0
  H  H16  1  0.76340000  0.12056000  0.96961000  1.0
  H  H17  1  0.43829000  0.78330000  0.14929000  1.0
  H  H18  1  0.56171000  0.21670000  0.85071000  1.0
  H  H19  1  0.29326000  0.72720000  0.26109000  1.0
  H  H20  1  0.70674000  0.27280000  0.73891000  1.0
  H  H21  1  0.92716000  0.37121000  0.13421000  1.0
  H  H22  1  0.07284000  0.62879000  0.86578000  1.0
  H  H23  1  0.97720000  0.53586000  0.12844000  1.0
  H  H24  1  0.02280000  0.46414000  0.87156000  1.0
  H  H25  1  0.70185000  0.68179000  0.24383000  1.0
  H  H26  1  0.29815000  0.31821000  0.75617000  1.0
  H  H27  1  0.64041000  0.54634000  0.19352000  1.0
  H  H28  1  0.35959000  0.45366000  0.80648000  1.0
  H  H29  1  0.61114000  0.58817000  0.42987000  1.0
  H  H30  1  0.38887000  0.41182000  0.57013000  1.0
  H  H31  1  0.63468000  0.41066000  0.37406000  1.0
  H  H32  1  0.36532000  0.58934000  0.62594000  1.0
  H  H33  1  0.01620000  0.32080000  0.49180000  1.0
  H  H34  1  0.98380000  0.67920000  0.50820000  1.0
  H  H35  1  0.81955000  0.29260000  0.52901000  1.0
  H  H36  1  0.18045000  0.70740000  0.47099000  1.0
  H  H37  1  0.82478000  0.47091000  0.55973000  1.0
  H  H38  1  0.17522000  0.52909000  0.44027000  1.0
  C  C39  1  0.22870000  0.97195000  0.24434000  1.0
  C  C40  1  0.77130000  0.02805000  0.75566000  1.0
  C  C41  1  0.03988000  0.01583000  0.30000000  1.0
  C  C42  1  0.96012000  0.98417000  0.70000000  1.0
  C  C43  1  0.95515000  0.01172000  0.20634000  1.0
  C  C44  1  0.04485000  0.98828000  0.79366000  1.0
  C  C45  1  0.02418000  0.85031000  0.15491000  1.0
  C  C46  1  0.97582000  0.14969000  0.84509000  1.0
  C  C47  1  0.21376000  0.80234000  0.10218000  1.0
  C  C48  1  0.78624000  0.19766000  0.89782000  1.0
  C  C49  1  0.30456000  0.81095000  0.19209000  1.0
  C  C50  1  0.69544000  0.18905000  0.80791000  1.0
  C  C51  1  0.32022000  0.98279000  0.32960000  1.0
  C  C52  1  0.67978000  0.01721000  0.67040000  1.0
  C  C53  1  0.76556000  0.06776000  0.24714000  1.0
  C  C54  1  0.23444000  0.93224000  0.75286000  1.0
  C  C55  1  0.29146000  0.64221000  0.05265000  1.0
  C  C56  1  0.70853000  0.35779000  0.94735000  1.0
  C  C57  1  0.98067000  0.41035000  0.28770000  1.0
  C  C58  1  0.01933000  0.58965000  0.71230000  1.0
  C  C59  1  0.90844000  0.46995000  0.18521000  1.0
  C  C60  1  0.09156000  0.53005000  0.81479000  1.0
  C  C61  1  0.72270000  0.56035000  0.24086000  1.0
  C  C62  1  0.27730000  0.43965000  0.75914000  1.0
  C  C63  1  0.69011000  0.49841000  0.36517000  1.0
  C  C64  1  0.30989000  0.50158000  0.63483000  1.0
  C  C65  1  0.88178000  0.37515000  0.49829000  1.0
  C  C66  1  0.11822000  0.62485000  0.50171000  1.0
  N  N67  1  0.85810000  0.42955000  0.38474000  1.0
  N  N68  1  0.14190000  0.57045000  0.61526000  1.0
  O  O69  1  0.34595000  0.18700000  0.54361000  1.0
  O  O70  1  0.65405000  0.81300000  0.45639000  1.0
  O  O71  1  0.44026000  0.38310000  0.29490000  1.0
  O  O72  1  0.55974000  0.61691000  0.70510000  1.0
  O  O73  1  0.39342000  0.20037000  0.06234000  1.0
  O  O74  1  0.60659000  0.79963000  0.93766000  1.0
  O  O75  1  0.40244000  0.07401000  0.31087000  1.0
  O  O76  1  0.59756000  0.92599000  0.68913000  1.0
  O  O77  1  0.32145000  0.90280000  0.42042000  1.0
  O  O78  1  0.67856000  0.09719000  0.57958000  1.0
  O  O79  1  0.69496000  0.07554000  0.35489000  1.0
  O  O80  1  0.30503000  0.92446000  0.64511000  1.0
  O  O81  1  0.68666000  0.10489000  0.16831000  1.0
  O  O82  1  0.31335000  0.89511000  0.83169000  1.0
  O  O83  1  0.38716000  0.61746000  0.95004000  1.0
  O  O84  1  0.61284000  0.38254000  0.04996000  1.0
  O  O85  1  0.25966000  0.53659000  0.11728000  1.0
  O  O86  1  0.74034000  0.46340000  0.88272000  1.0
  O  O87  1  0.13469000  0.34583000  0.28447000  1.0
  O  O88  1  0.86531000  0.65418000  0.71553000  1.0
