# generated using pymatgen
data_H4PbC7SN2O3
_symmetry_space_group_name_H-M   'P 1'
_cell_length_a   7.65127000
_cell_length_b   9.28631000
_cell_length_c   13.42030000
_cell_angle_alpha   104.24000000
_cell_angle_beta   89.99950000
_cell_angle_gamma   89.99920000
_symmetry_Int_Tables_number   1
_chemical_formula_structural   H4PbC7SN2O3
_chemical_formula_sum   'H16 Pb4 C28 S4 N8 O12'
_cell_volume   924.24142179
_cell_formula_units_Z   4
loop_
 _symmetry_equiv_pos_site_id
 _symmetry_equiv_pos_as_xyz
  1  'x, y, z'
loop_
 _atom_site_type_symbol
 _atom_site_label
 _atom_site_symmetry_multiplicity
 _atom_site_fract_x
 _atom_site_fract_y
 _atom_site_fract_z
 _atom_site_occupancy
  H  H0  1  0.33254000  0.55077000  0.48692000  1.0
  H  H1  1  0.83253000  0.44923000  0.01308000  1.0
  H  H2  1  0.66746000  0.44922000  0.51307000  1.0
  H  H3  1  0.16747000  0.55077000  0.98692000  1.0
  H  H4  1  0.12194000  0.88689000  0.37175000  1.0
  H  H5  1  0.62197000  0.11311000  0.12825000  1.0
  H  H6  1  0.87802000  0.11310000  0.62825000  1.0
  H  H7  1  0.37804000  0.88688000  0.87174000  1.0
  H  H8  1  0.23792000  0.08518000  0.52088000  1.0
  H  H9  1  0.73793000  0.91482000  0.97911000  1.0
  H  H10  1  0.76207000  0.91481000  0.47911000  1.0
  H  H11  1  0.26208000  0.08518000  0.02088000  1.0
  H  H12  1  0.40987000  0.00524000  0.66060000  1.0
  H  H13  1  0.90989000  0.99477000  0.83939000  1.0
  H  H14  1  0.59011000  0.99476000  0.33939000  1.0
  H  H15  1  0.09012000  0.00523000  0.16060000  1.0
  Pb  Pb16  1  0.67275000  0.57348000  0.80835000  1.0
  Pb  Pb17  1  0.17275000  0.42653000  0.69166000  1.0
  Pb  Pb18  1  0.32726000  0.42653000  0.19165000  1.0
  Pb  Pb19  1  0.82726000  0.57348000  0.30836000  1.0
  C  C20  1  0.31740000  0.67021000  0.50025000  1.0
  C  C21  1  0.81740000  0.32979000  0.99975000  1.0
  C  C22  1  0.68260000  0.32979000  0.49976000  1.0
  C  C23  1  0.18260000  0.67021000  0.00024000  1.0
  C  C24  1  0.19777000  0.86326000  0.43458000  1.0
  C  C25  1  0.69778000  0.13674000  0.06542000  1.0
  C  C26  1  0.80221000  0.13673000  0.56543000  1.0
  C  C27  1  0.30222000  0.86326000  0.93457000  1.0
  C  C28  1  0.26281000  0.96866000  0.51792000  1.0
  C  C29  1  0.76283000  0.03134000  0.98208000  1.0
  C  C30  1  0.73716000  0.03134000  0.48208000  1.0
  C  C31  1  0.23718000  0.96865000  0.01792000  1.0
  C  C32  1  0.35812000  0.92471000  0.59395000  1.0
  C  C33  1  0.85813000  0.07529000  0.90604000  1.0
  C  C34  1  0.64186000  0.07529000  0.40605000  1.0
  C  C35  1  0.14187000  0.92470000  0.09395000  1.0
  C  C36  1  0.38599000  0.77319000  0.58416000  1.0
  C  C37  1  0.88599000  0.22681000  0.91584000  1.0
  C  C38  1  0.61400000  0.22680000  0.41584000  1.0
  C  C39  1  0.11401000  0.77319000  0.08416000  1.0
  C  C40  1  0.48599000  0.71720000  0.66327000  1.0
  C  C41  1  0.98601000  0.28280000  0.83673000  1.0
  C  C42  1  0.51400000  0.28280000  0.33673000  1.0
  C  C43  1  0.01401000  0.71720000  0.16327000  1.0
  C  C44  1  0.41357000  0.29229000  0.89299000  1.0
  C  C45  1  0.91358000  0.70772000  0.60702000  1.0
  C  C46  1  0.58643000  0.70772000  0.10701000  1.0
  C  C47  1  0.08643000  0.29231000  0.39300000  1.0
  S  S48  1  0.50256000  0.27095000  0.77892000  1.0
  S  S49  1  0.00256000  0.72905000  0.72109000  1.0
  S  S50  1  0.49745000  0.72906000  0.22109000  1.0
  S  S51  1  0.99744000  0.27097000  0.27892000  1.0
  N  N52  1  0.22567000  0.71613000  0.42749000  1.0
  N  N53  1  0.72567000  0.28387000  0.07251000  1.0
  N  N54  1  0.77432000  0.28386000  0.57251000  1.0
  N  N55  1  0.27434000  0.71613000  0.92749000  1.0
  N  N56  1  0.34933000  0.30525000  0.97494000  1.0
  N  N57  1  0.84933000  0.69476000  0.52506000  1.0
  N  N58  1  0.65067000  0.69476000  0.02505000  1.0
  N  N59  1  0.15066000  0.30526000  0.47495000  1.0
  O  O60  1  0.16020000  0.61490000  0.34854000  1.0
  O  O61  1  0.66021000  0.38510000  0.15146000  1.0
  O  O62  1  0.83979000  0.38509000  0.65146000  1.0
  O  O63  1  0.33980000  0.61489000  0.84854000  1.0
  O  O64  1  0.49259000  0.57497000  0.65062000  1.0
  O  O65  1  0.99261000  0.42504000  0.84939000  1.0
  O  O66  1  0.50741000  0.42504000  0.34939000  1.0
  O  O67  1  0.00742000  0.57496000  0.15062000  1.0
  O  O68  1  0.55681000  0.80905000  0.73719000  1.0
  O  O69  1  0.05681000  0.19096000  0.76280000  1.0
  O  O70  1  0.44318000  0.19096000  0.26281000  1.0
  O  O71  1  0.94320000  0.80904000  0.23720000  1.0
