# generated using pymatgen
data_Zn3H22(C19O8)2
_symmetry_space_group_name_H-M   'P 1'
_cell_length_a   18.32110000
_cell_length_b   18.55210000
_cell_length_c   18.77625453
_cell_angle_alpha   109.33968646
_cell_angle_beta   109.39971839
_cell_angle_gamma   108.54200000
_symmetry_Int_Tables_number   1
_chemical_formula_structural   Zn3H22(C19O8)2
_chemical_formula_sum   'Zn6 H44 C76 O32'
_cell_volume   4980.03473946
_cell_formula_units_Z   2
loop_
 _symmetry_equiv_pos_site_id
 _symmetry_equiv_pos_as_xyz
  1  'x, y, z'
loop_
 _atom_site_type_symbol
 _atom_site_label
 _atom_site_symmetry_multiplicity
 _atom_site_fract_x
 _atom_site_fract_y
 _atom_site_fract_z
 _atom_site_occupancy
  Zn  Zn0  1  0.56619000  0.06423000  0.99894000  1.0
  Zn  Zn1  1  0.44748000  0.94053000  0.00738000  1.0
  Zn  Zn2  1  0.54974000  0.49132000  0.56302000  1.0
  Zn  Zn3  1  0.43242000  0.49154000  0.43069000  1.0
  Zn  Zn4  1  0.00105000  0.93725000  0.44790000  1.0
  Zn  Zn5  1  0.98902000  0.06213000  0.55979000  1.0
  H  H6  1  0.43968000  0.70493000  0.85437000  1.0
  H  H7  1  0.67699000  0.71210000  0.65544000  1.0
  H  H8  1  0.08593000  0.14430000  0.18057000  1.0
  H  H9  1  0.78269000  0.83804000  0.79792000  1.0
  H  H10  1  0.01662000  0.06233000  0.34841000  1.0
  H  H11  1  0.90546000  0.97108000  0.68638000  1.0
  H  H12  1  0.23767000  0.29726000  0.63649000  1.0
  H  H13  1  0.74079000  0.76586000  0.38114000  1.0
  H  H14  1  0.47168000  0.92659000  0.77029000  1.0
  H  H15  1  0.67901000  0.19996000  0.22791000  1.0
  H  H16  1  0.50992000  0.95404000  0.66452000  1.0
  H  H17  1  0.37805000  0.10268000  0.16973000  1.0
  H  H18  1  0.82137000  0.33199000  0.33935000  1.0
  H  H19  1  0.54758000  0.85366000  0.57506000  1.0
  H  H20  1  0.82733000  0.45030000  0.45826000  1.0
  H  H21  1  0.53579000  0.72256000  0.58463000  1.0
  H  H22  1  0.69221000  0.43504000  0.46595000  1.0
  H  H23  1  0.39977000  0.02940000  0.75501000  1.0
  H  H24  1  0.78585000  0.13530000  0.25087000  1.0
  H  H25  1  0.14951000  0.99997000  0.95214000  1.0
  H  H26  1  0.62517000  0.71745000  0.95601000  1.0
  H  H27  1  0.22012000  0.96889000  0.56061000  1.0
  H  H28  1  0.01476000  0.92576000  0.80608000  1.0
  H  H29  1  0.89563000  0.18420000  0.37771000  1.0
  H  H30  1  0.99666000  0.99555000  0.09083000  1.0
  H  H31  1  0.93217000  0.05126000  0.09301000  1.0
  H  H32  1  0.88395000  0.93845000  0.06490000  1.0
  H  H33  1  0.93036000  0.93237000  0.90977000  1.0
  H  H34  1  0.85885000  0.98016000  0.90957000  1.0
  H  H35  1  0.97546000  0.04844000  0.95841000  1.0
  H  H36  1  0.43684000  0.57721000  0.79386000  1.0
  H  H37  1  0.37556000  0.27962000  0.31003000  1.0
  H  H38  1  0.31466000  0.19216000  0.01179000  1.0
  H  H39  1  0.69796000  0.68932000  0.07564000  1.0
  H  H40  1  0.39307000  0.17592000  0.98015000  1.0
  H  H41  1  0.40785000  0.19221000  0.08455000  1.0
  H  H42  1  0.74997000  0.94822000  0.98600000  1.0
  H  H43  1  0.64777000  0.90344000  0.89000000  1.0
  H  H44  1  0.69507000  0.83479000  0.90575000  1.0
  H  H45  1  0.03170000  0.92815000  0.68225000  1.0
  H  H46  1  0.79543000  0.80946000  0.22518000  1.0
  H  H47  1  0.34692000  0.39695000  0.61490000  1.0
  H  H48  1  0.61388000  0.64403000  0.36305000  1.0
  H  H49  1  0.21667000  0.27606000  0.30572000  1.0
  C  C50  1  0.40607000  0.03268000  0.89789000  1.0
  C  C51  1  0.67351000  0.85135000  0.04327000  1.0
  C  C52  1  0.15547000  0.99283000  0.89460000  1.0
  C  C53  1  0.66420000  0.76925000  0.02334000  1.0
  C  C54  1  0.08049000  0.95336000  0.81324000  1.0
  C  C55  1  0.70654000  0.75453000  0.09073000  1.0
  C  C56  1  0.08982000  0.95402000  0.74355000  1.0
  C  C57  1  0.76052000  0.82165000  0.17506000  1.0
  C  C58  1  0.17453000  0.98590000  0.75024000  1.0
  C  C59  1  0.77284000  0.90735000  0.19737000  1.0
  C  C60  1  0.25029000  0.01452000  0.82941000  1.0
  C  C61  1  0.65492000  0.01226000  0.09339000  1.0
  C  C62  1  0.72358000  0.92064000  0.13021000  1.0
  C  C63  1  0.33159000  0.02850000  0.82859000  1.0
  C  C64  1  0.72610000  0.00303000  0.15197000  1.0
  C  C65  1  0.46633000  0.85939000  0.87605000  1.0
  C  C66  1  0.50599000  0.09571000  0.13864000  1.0
  C  C67  1  0.33844000  0.02110000  0.75569000  1.0
  C  C68  1  0.78412000  0.07221000  0.23428000  1.0
  C  C69  1  0.26540000  0.99916000  0.67940000  1.0
  C  C70  1  0.83789000  0.06178000  0.29996000  1.0
  C  C71  1  0.18515000  0.98492000  0.67765000  1.0
  C  C72  1  0.45400000  0.71568000  0.80563000  1.0
  C  C73  1  0.83047000  0.97976000  0.28365000  1.0
  C  C74  1  0.34381000  0.38238000  0.47081000  1.0
  C  C75  1  0.59137000  0.61524000  0.48451000  1.0
  C  C76  1  0.50306000  0.60589000  0.63110000  1.0
  C  C77  1  0.52298000  0.37192000  0.41462000  1.0
  C  C78  1  0.87252000  0.90620000  0.52258000  1.0
  C  C79  1  0.10027000  0.14145000  0.51808000  1.0
  C  C80  1  0.11508000  0.97916000  0.60447000  1.0
  C  C81  1  0.88568000  0.97135000  0.35581000  1.0
  C  C82  1  0.17352000  0.22969000  0.31603000  1.0
  C  C83  1  0.44186000  0.15914000  0.21991000  1.0
  C  C84  1  0.72577000  0.76838000  0.66065000  1.0
  C  C85  1  0.09930000  0.15562000  0.24541000  1.0
  C  C86  1  0.78622000  0.83948000  0.74161000  1.0
  C  C87  1  0.04219000  0.09542000  0.25823000  1.0
  C  C88  1  0.85115000  0.91316000  0.75024000  1.0
  C  C89  1  0.48628000  0.88201000  0.73043000  1.0
  C  C90  1  0.68181000  0.25059000  0.28053000  1.0
  C  C91  1  0.06065000  0.11101000  0.34124000  1.0
  C  C92  1  0.85503000  0.91355000  0.67793000  1.0
  C  C93  1  0.13531000  0.18687000  0.41455000  1.0
  C  C94  1  0.46772000  0.65530000  0.75009000  1.0
  C  C95  1  0.79389000  0.84137000  0.59435000  1.0
  C  C96  1  0.19411000  0.24830000  0.40205000  1.0
  C  C97  1  0.72631000  0.76649000  0.58466000  1.0
  C  C98  1  0.27200000  0.32270000  0.47666000  1.0
  C  C99  1  0.66173000  0.69553000  0.49931000  1.0
  C  C100  1  0.28678000  0.33975000  0.55933000  1.0
  C  C101  1  0.66480000  0.69796000  0.42736000  1.0
  C  C102  1  0.22602000  0.28324000  0.57140000  1.0
  C  C103  1  0.73524000  0.76712000  0.43750000  1.0
  C  C104  1  0.15394000  0.20640000  0.50133000  1.0
  C  C105  1  0.44429000  0.22917000  0.28268000  1.0
  C  C106  1  0.79855000  0.83769000  0.51857000  1.0
  C  C107  1  0.50820000  0.89756000  0.67152000  1.0
  C  C108  1  0.76126000  0.32454000  0.34274000  1.0
  C  C109  1  0.52842000  0.84050000  0.62043000  1.0
  C  C110  1  0.76463000  0.39144000  0.40970000  1.0
  C  C111  1  0.52274000  0.76712000  0.62650000  1.0
  C  C112  1  0.68881000  0.38323000  0.41380000  1.0
  C  C113  1  0.49857000  0.74789000  0.68523000  1.0
  C  C114  1  0.60569000  0.30824000  0.35049000  1.0
  C  C115  1  0.48286000  0.80863000  0.74068000  1.0
  C  C116  1  0.49168000  0.67148000  0.69183000  1.0
  C  C117  1  0.60211000  0.24037000  0.28171000  1.0
  C  C118  1  0.46357000  0.79158000  0.80327000  1.0
  C  C119  1  0.51784000  0.16530000  0.21729000  1.0
  C  C120  1  0.94472000  0.00124000  0.10574000  1.0
  C  C121  1  0.91877000  0.98587000  0.90517000  1.0
  C  C122  1  0.35896000  0.16325000  0.01661000  1.0
  C  C123  1  0.68542000  0.88981000  0.93794000  1.0
  C  C124  1  0.52533000  0.30159000  0.34975000  1.0
  C  C125  1  0.23904000  0.02619000  0.90367000  1.0
  O  O126  1  0.48579000  0.08593000  0.92109000  1.0
  O  O127  1  0.67618000  0.06815000  0.06751000  1.0
  O  O128  1  0.51717000  0.93829000  0.90160000  1.0
  O  O129  1  0.45102000  0.01623000  0.11067000  1.0
  O  O130  1  0.42095000  0.83454000  0.91127000  1.0
  O  O131  1  0.54860000  0.12061000  0.10244000  1.0
  O  O132  1  0.42210000  0.40551000  0.52427000  1.0
  O  O133  1  0.51224000  0.58276000  0.42269000  1.0
  O  O134  1  0.32376000  0.40715000  0.41359000  1.0
  O  O135  1  0.61288000  0.58244000  0.53229000  1.0
  O  O136  1  0.55861000  0.58128000  0.66226000  1.0
  O  O137  1  0.57852000  0.96858000  0.08057000  1.0
  O  O138  1  0.46333000  0.39217000  0.38388000  1.0
  O  O139  1  0.45665000  0.57867000  0.55110000  1.0
  O  O140  1  0.57581000  0.40668000  0.49577000  1.0
  O  O141  1  0.90513000  0.87922000  0.47606000  1.0
  O  O142  1  0.07297000  0.16714000  0.57204000  1.0
  O  O143  1  0.27841000  0.99411000  0.61125000  1.0
  O  O144  1  0.89709000  0.13278000  0.37958000  1.0
  O  O145  1  0.96737000  0.02003000  0.19249000  1.0
  O  O146  1  0.91304000  0.98693000  0.82791000  1.0
  O  O147  1  0.45718000  0.57971000  0.75253000  1.0
  O  O148  1  0.89782000  0.98686000  0.57157000  1.0
  O  O149  1  0.36481000  0.22102000  0.27306000  1.0
  O  O150  1  0.31001000  0.07153000  0.98632000  1.0
  O  O151  1  0.63414000  0.86839000  0.97860000  1.0
  O  O152  1  0.08557000  0.06381000  0.47888000  1.0
  O  O153  1  0.09952000  0.93249000  0.52629000  1.0
  O  O154  1  0.89927000  0.01649000  0.43098000  1.0
  O  O155  1  0.07632000  0.02274000  0.62093000  1.0
  O  O156  1  0.91932000  0.92023000  0.33870000  1.0
  O  O157  1  0.38556000  0.97899000  0.92450000  1.0
