# generated using pymatgen
data_MgH14(C3O)4
_symmetry_space_group_name_H-M   'P 1'
_cell_length_a   6.91979000
_cell_length_b   11.26360000
_cell_length_c   15.31960000
_cell_angle_alpha   70.55050000
_cell_angle_beta   83.14740000
_cell_angle_gamma   89.14290000
_symmetry_Int_Tables_number   1
_chemical_formula_structural   MgH14(C3O)4
_chemical_formula_sum   'Mg4 H56 C48 O16'
_cell_volume   1117.46476621
_cell_formula_units_Z   4
loop_
 _symmetry_equiv_pos_site_id
 _symmetry_equiv_pos_as_xyz
  1  'x, y, z'
loop_
 _atom_site_type_symbol
 _atom_site_label
 _atom_site_symmetry_multiplicity
 _atom_site_fract_x
 _atom_site_fract_y
 _atom_site_fract_z
 _atom_site_occupancy
  Mg  Mg0  1  0.75054000  0.98047000  0.75657000  1.0
  Mg  Mg1  1  0.24946000  0.01953000  0.24343000  1.0
  Mg  Mg2  1  0.24785000  0.90487000  0.77443000  1.0
  Mg  Mg3  1  0.75216000  0.09513000  0.22557000  1.0
  H  H4  1  0.89155000  0.17354000  0.44718000  1.0
  H  H5  1  0.10845000  0.82646000  0.55282000  1.0
  H  H6  1  0.85881000  0.28496000  0.50581000  1.0
  H  H7  1  0.14119000  0.71504000  0.49419000  1.0
  H  H8  1  0.13470000  0.34024000  0.58286000  1.0
  H  H9  1  0.86530000  0.65976000  0.41714000  1.0
  H  H10  1  0.36408000  0.27011000  0.57410000  1.0
  H  H11  1  0.63591000  0.72988000  0.42590000  1.0
  H  H12  1  0.22577000  0.06892000  0.43870000  1.0
  H  H13  1  0.77423000  0.93108000  0.56130000  1.0
  H  H14  1  0.41557000  0.11083000  0.49208000  1.0
  H  H15  1  0.58443000  0.88917000  0.50792000  1.0
  H  H16  1  0.37145000  0.49038000  0.46084000  1.0
  H  H17  1  0.62855000  0.50962000  0.53916000  1.0
  H  H18  1  0.02225000  0.50227000  0.43206000  1.0
  H  H19  1  0.97775000  0.49773000  0.56794000  1.0
  H  H20  1  0.17777000  0.53971000  0.32568000  1.0
  H  H21  1  0.82223000  0.46029000  0.67432000  1.0
  H  H22  1  0.90636000  0.38808000  0.33296000  1.0
  H  H23  1  0.09364000  0.61192000  0.66704000  1.0
  H  H24  1  0.22543000  0.37657000  0.24223000  1.0
  H  H25  1  0.77457000  0.62343000  0.75777000  1.0
  H  H26  1  0.11052000  0.22622000  0.29465000  1.0
  H  H27  1  0.88948000  0.77378000  0.70535000  1.0
  H  H28  1  0.57875000  0.32526000  0.42292000  1.0
  H  H29  1  0.42125000  0.67474000  0.57708000  1.0
  H  H30  1  0.50915000  0.43716000  0.32098000  1.0
  H  H31  1  0.49085000  0.56284000  0.67902000  1.0
  H  H32  1  0.59865000  0.76670000  0.90707000  1.0
  H  H33  1  0.40136000  0.23330000  0.09293000  1.0
  H  H34  1  0.70599000  0.61733000  0.93108000  1.0
  H  H35  1  0.29401000  0.38267000  0.06892000  1.0
  H  H36  1  0.72134000  0.92730000  0.97432000  1.0
  H  H37  1  0.27866000  0.07270000  0.02568000  1.0
  H  H38  1  0.90679000  0.88666000  0.04884000  1.0
  H  H39  1  0.09322000  0.11334000  0.95116000  1.0
  H  H40  1  0.97753000  0.56007000  0.03902000  1.0
  H  H41  1  0.02247000  0.43993000  0.96098000  1.0
  H  H42  1  0.05680000  0.67241000  0.08556000  1.0
  H  H43  1  0.94320000  0.32759000  0.91444000  1.0
  H  H44  1  0.83645000  0.50748000  0.20512000  1.0
  H  H45  1  0.16355000  0.49252000  0.79488000  1.0
  H  H46  1  0.60550000  0.65511000  0.25225000  1.0
  H  H47  1  0.39451000  0.34489000  0.74775000  1.0
  H  H48  1  0.83991000  0.72769000  0.21073000  1.0
  H  H49  1  0.16009000  0.27231000  0.78927000  1.0
  H  H50  1  0.64214000  0.45500000  0.09627000  1.0
  H  H51  1  0.35786000  0.54500000  0.90373000  1.0
  H  H52  1  0.48661000  0.49412000  0.18234000  1.0
  H  H53  1  0.51339000  0.50588000  0.81766000  1.0
  H  H54  1  0.38218000  0.60509000  0.02563000  1.0
  H  H55  1  0.61782000  0.39491000  0.97437000  1.0
  H  H56  1  0.38054000  0.82062000  0.03273000  1.0
  H  H57  1  0.61946000  0.17938000  0.96727000  1.0
  H  H58  1  0.33735000  0.70954000  0.14654000  1.0
  H  H59  1  0.66265000  0.29046000  0.85346000  1.0
  C  C60  1  0.07996000  0.09553000  0.60846000  1.0
  C  C61  1  0.92004000  0.90447000  0.39154000  1.0
  C  C62  1  0.14027000  0.19806000  0.51492000  1.0
  C  C63  1  0.85973000  0.80194000  0.48508000  1.0
  C  C64  1  0.96546000  0.24944000  0.46186000  1.0
  C  C65  1  0.03454000  0.75056000  0.53814000  1.0
  C  C66  1  0.23809000  0.30661000  0.53645000  1.0
  C  C67  1  0.76191000  0.69339000  0.46355000  1.0
  C  C68  1  0.29063000  0.14740000  0.45393000  1.0
  C  C69  1  0.70937000  0.85260000  0.54607000  1.0
  C  C70  1  0.30346000  0.41324000  0.44496000  1.0
  C  C71  1  0.69653000  0.58676000  0.55504000  1.0
  C  C72  1  0.12918000  0.46277000  0.39100000  1.0
  C  C73  1  0.87082000  0.53723000  0.60899000  1.0
  C  C74  1  0.03347000  0.35491000  0.37023000  1.0
  C  C75  1  0.96653000  0.64509000  0.62977000  1.0
  C  C76  1  0.18005000  0.30317000  0.30974000  1.0
  C  C77  1  0.81995000  0.69683000  0.69026000  1.0
  C  C78  1  0.45303000  0.36183000  0.38542000  1.0
  C  C79  1  0.54696000  0.63817000  0.61458000  1.0
  C  C80  1  0.35918000  0.25499000  0.36161000  1.0
  C  C81  1  0.64082000  0.74501000  0.63839000  1.0
  C  C82  1  0.50649000  0.20292000  0.30350000  1.0
  C  C83  1  0.49351000  0.79708000  0.69650000  1.0
  C  C84  1  0.99390000  0.79530000  0.90564000  1.0
  C  C85  1  0.00610000  0.20470000  0.09436000  1.0
  C  C86  1  0.84282000  0.74199000  0.98947000  1.0
  C  C87  1  0.15718000  0.25801000  0.01053000  1.0
  C  C88  1  0.66246000  0.69135000  0.96113000  1.0
  C  C89  1  0.33754000  0.30865000  0.03887000  1.0
  C  C90  1  0.78013000  0.84915000  0.02846000  1.0
  C  C91  1  0.21987000  0.15084000  0.97154000  1.0
  C  C92  1  0.92815000  0.63571000  0.06619000  1.0
  C  C93  1  0.07185000  0.36429000  0.93381000  1.0
  C  C94  1  0.77423000  0.58409000  0.15119000  1.0
  C  C95  1  0.22577000  0.41591000  0.84881000  1.0
  C  C96  1  0.71351000  0.69023000  0.18987000  1.0
  C  C97  1  0.28649000  0.30977000  0.81013000  1.0
  C  C98  1  0.59754000  0.53288000  0.12184000  1.0
  C  C99  1  0.40246000  0.46712000  0.87816000  1.0
  C  C100  1  0.62458000  0.79806000  0.11403000  1.0
  C  C101  1  0.37542000  0.20194000  0.88597000  1.0
  C  C102  1  0.51061000  0.63945000  0.04683000  1.0
  C  C103  1  0.48939000  0.36055000  0.95317000  1.0
  C  C104  1  0.44793000  0.74533000  0.08549000  1.0
  C  C105  1  0.55207000  0.25467000  0.91451000  1.0
  C  C106  1  0.56993000  0.90167000  0.15547000  1.0
  C  C107  1  0.43007000  0.09833000  0.84453000  1.0
  O  O108  1  0.89905000  0.08234000  0.64058000  1.0
  O  O109  1  0.10095000  0.91766000  0.35942000  1.0
  O  O110  1  0.21334000  0.03143000  0.65048000  1.0
  O  O111  1  0.78666000  0.96857000  0.34952000  1.0
  O  O112  1  0.68458000  0.23244000  0.29084000  1.0
  O  O113  1  0.31542000  0.76756000  0.70916000  1.0
  O  O114  1  0.45008000  0.12204000  0.26638000  1.0
  O  O115  1  0.54992000  0.87796000  0.73362000  1.0
  O  O116  1  0.94391000  0.87837000  0.82954000  1.0
  O  O117  1  0.05609000  0.12163000  0.17046000  1.0
  O  O118  1  0.16938000  0.76482000  0.90649000  1.0
  O  O119  1  0.83063000  0.23518000  0.09351000  1.0
  O  O120  1  0.38949000  0.91453000  0.18030000  1.0
  O  O121  1  0.61051000  0.08547000  0.81970000  1.0
  O  O122  1  0.70703000  0.96762000  0.16509000  1.0
  O  O123  1  0.29297000  0.03238000  0.83491000  1.0
