# generated using pymatgen
data_AgH12C15(NO)2
_symmetry_space_group_name_H-M   'P 1'
_cell_length_a   10.27850000
_cell_length_b   15.60400000
_cell_length_c   18.45200000
_cell_angle_alpha   90.00020000
_cell_angle_beta   90.00010000
_cell_angle_gamma   76.49000000
_symmetry_Int_Tables_number   1
_chemical_formula_structural   AgH12C15(NO)2
_chemical_formula_sum   'Ag8 H96 C120 N16 O16'
_cell_volume   2877.54708659
_cell_formula_units_Z   8
loop_
 _symmetry_equiv_pos_site_id
 _symmetry_equiv_pos_as_xyz
  1  'x, y, z'
loop_
 _atom_site_type_symbol
 _atom_site_label
 _atom_site_symmetry_multiplicity
 _atom_site_fract_x
 _atom_site_fract_y
 _atom_site_fract_z
 _atom_site_occupancy
  Ag  Ag0  1  0.40260000  0.28567000  0.27074000  1.0
  Ag  Ag1  1  0.59740000  0.21433000  0.77074000  1.0
  Ag  Ag2  1  0.59740000  0.71433000  0.72926000  1.0
  Ag  Ag3  1  0.40260000  0.78567000  0.22926000  1.0
  Ag  Ag4  1  0.43016000  0.08630000  0.74419000  1.0
  Ag  Ag5  1  0.56983000  0.41370000  0.24419000  1.0
  Ag  Ag6  1  0.56984000  0.91370000  0.25581000  1.0
  Ag  Ag7  1  0.43016000  0.58630000  0.75581000  1.0
  H  H8  1  0.56774000  0.04403000  0.48545000  1.0
  H  H9  1  0.43226000  0.45598000  0.98546000  1.0
  H  H10  1  0.43226000  0.95597000  0.51455000  1.0
  H  H11  1  0.56773000  0.54403000  0.01454000  1.0
  H  H12  1  0.46139000  0.14998000  0.47293000  1.0
  H  H13  1  0.53861000  0.35003000  0.97294000  1.0
  H  H14  1  0.53861000  0.85002000  0.52707000  1.0
  H  H15  1  0.46138000  0.64998000  0.02707000  1.0
  H  H16  1  0.79783000  0.02221000  0.50283000  1.0
  H  H17  1  0.20217000  0.47780000  0.00283000  1.0
  H  H18  1  0.20217000  0.97779000  0.49717000  1.0
  H  H19  1  0.79782000  0.52221000  0.99717000  1.0
  H  H20  1  0.00557000  0.07992000  0.50286000  1.0
  H  H21  1  0.99443000  0.42008000  0.00286000  1.0
  H  H22  1  0.99443000  0.92008000  0.49713000  1.0
  H  H23  1  0.00556000  0.57992000  0.99714000  1.0
  H  H24  1  0.98577000  0.24241000  0.50333000  1.0
  H  H25  1  0.01423000  0.25759000  0.00332000  1.0
  H  H26  1  0.01423000  0.75759000  0.49667000  1.0
  H  H27  1  0.98576000  0.74241000  0.99668000  1.0
  H  H28  1  0.75932000  0.34479000  0.50523000  1.0
  H  H29  1  0.24068000  0.15521000  0.00522000  1.0
  H  H30  1  0.24068000  0.65520000  0.49477000  1.0
  H  H31  1  0.75931000  0.84479000  0.99477000  1.0
  H  H32  1  0.52661000  0.36985000  0.52754000  1.0
  H  H33  1  0.47339000  0.13016000  0.02753000  1.0
  H  H34  1  0.47339000  0.63015000  0.47246000  1.0
  H  H35  1  0.52660000  0.86985000  0.97247000  1.0
  H  H36  1  0.44583000  0.28092000  0.53864000  1.0
  H  H37  1  0.55417000  0.21908000  0.03865000  1.0
  H  H38  1  0.55418000  0.71908000  0.46136000  1.0
  H  H39  1  0.44582000  0.78092000  0.96136000  1.0
  H  H40  1  0.60467000  0.21000000  0.15040000  1.0
  H  H41  1  0.39533000  0.29000000  0.65040000  1.0
  H  H42  1  0.39534000  0.79000000  0.84960000  1.0
  H  H43  1  0.60467000  0.71000000  0.34960000  1.0
  H  H44  1  0.82267000  0.09946000  0.13715000  1.0
  H  H45  1  0.17733000  0.40054000  0.63715000  1.0
  H  H46  1  0.17733000  0.90054000  0.86285000  1.0
  H  H47  1  0.82268000  0.59945000  0.36285000  1.0
  H  H48  1  0.77946000  0.02627000  0.36083000  1.0
  H  H49  1  0.22054000  0.47372000  0.86084000  1.0
  H  H50  1  0.22055000  0.97373000  0.63916000  1.0
  H  H51  1  0.77946000  0.52628000  0.13916000  1.0
  H  H52  1  0.56931000  0.14169000  0.36470000  1.0
  H  H53  1  0.43069000  0.35831000  0.86471000  1.0
  H  H54  1  0.43070000  0.85831000  0.63529000  1.0
  H  H55  1  0.56932000  0.64170000  0.13530000  1.0
  H  H56  1  0.93939000  0.95388000  0.13239000  1.0
  H  H57  1  0.06061000  0.54611000  0.63239000  1.0
  H  H58  1  0.06062000  0.04612000  0.86761000  1.0
  H  H59  1  0.93939000  0.45388000  0.36761000  1.0
  H  H60  1  0.16924000  0.85282000  0.13145000  1.0
  H  H61  1  0.83076000  0.64718000  0.63145000  1.0
  H  H62  1  0.83077000  0.14718000  0.86855000  1.0
  H  H63  1  0.16924000  0.35282000  0.36855000  1.0
  H  H64  1  0.23129000  0.90274000  0.34692000  1.0
  H  H65  1  0.76870000  0.59727000  0.84692000  1.0
  H  H66  1  0.76871000  0.09726000  0.65308000  1.0
  H  H67  1  0.23130000  0.40273000  0.15308000  1.0
  H  H68  1  0.00725000  0.00861000  0.35713000  1.0
  H  H69  1  0.99274000  0.49139000  0.85714000  1.0
  H  H70  1  0.99275000  0.99138000  0.64287000  1.0
  H  H71  1  0.00726000  0.50860000  0.14287000  1.0
  H  H72  1  0.58551000  0.94665000  0.64088000  1.0
  H  H73  1  0.41450000  0.55336000  0.14088000  1.0
  H  H74  1  0.41449000  0.05335000  0.35912000  1.0
  H  H75  1  0.58550000  0.44665000  0.85912000  1.0
  H  H76  1  0.79756000  0.83166000  0.63633000  1.0
  H  H77  1  0.20244000  0.66834000  0.13633000  1.0
  H  H78  1  0.20244000  0.16834000  0.36367000  1.0
  H  H79  1  0.79755000  0.33166000  0.86367000  1.0
  H  H80  1  0.84750000  0.87996000  0.86458000  1.0
  H  H81  1  0.15249000  0.62005000  0.36458000  1.0
  H  H82  1  0.15250000  0.12004000  0.13542000  1.0
  H  H83  1  0.84750000  0.37995000  0.63542000  1.0
  H  H84  1  0.62757000  0.99069000  0.85972000  1.0
  H  H85  1  0.37243000  0.50932000  0.35973000  1.0
  H  H86  1  0.37243000  0.00931000  0.14028000  1.0
  H  H87  1  0.62757000  0.49068000  0.64027000  1.0
  H  H88  1  0.02611000  0.81059000  0.63824000  1.0
  H  H89  1  0.97389000  0.68941000  0.13824000  1.0
  H  H90  1  0.97389000  0.18941000  0.36177000  1.0
  H  H91  1  0.02611000  0.31060000  0.86176000  1.0
  H  H92  1  0.24863000  0.70456000  0.64250000  1.0
  H  H93  1  0.75137000  0.79544000  0.14250000  1.0
  H  H94  1  0.75137000  0.29545000  0.35750000  1.0
  H  H95  1  0.24863000  0.20456000  0.85750000  1.0
  H  H96  1  0.19816000  0.64195000  0.85679000  1.0
  H  H97  1  0.80184000  0.85806000  0.35678000  1.0
  H  H98  1  0.80184000  0.35805000  0.14322000  1.0
  H  H99  1  0.19816000  0.14194000  0.64322000  1.0
  H  H100  1  0.96732000  0.74045000  0.86095000  1.0
  H  H101  1  0.03267000  0.75955000  0.36095000  1.0
  H  H102  1  0.03268000  0.25955000  0.13905000  1.0
  H  H103  1  0.96732000  0.24044000  0.63905000  1.0
  C  C104  1  0.48106000  0.10821000  0.58314000  1.0
  C  C105  1  0.51894000  0.39180000  0.08315000  1.0
  C  C106  1  0.51894000  0.89180000  0.41685000  1.0
  C  C107  1  0.48105000  0.60821000  0.91685000  1.0
  C  C108  1  0.54212000  0.11168000  0.50717000  1.0
  C  C109  1  0.45789000  0.38832000  0.00717000  1.0
  C  C110  1  0.45789000  0.88831000  0.49283000  1.0
  C  C111  1  0.54211000  0.61168000  0.99283000  1.0
  C  C112  1  0.66329000  0.14991000  0.50549000  1.0
  C  C113  1  0.33671000  0.35009000  0.00549000  1.0
  C  C114  1  0.33671000  0.85008000  0.49451000  1.0
  C  C115  1  0.66328000  0.64991000  0.99451000  1.0
  C  C116  1  0.79113000  0.09316000  0.50398000  1.0
  C  C117  1  0.20887000  0.40684000  0.00398000  1.0
  C  C118  1  0.20887000  0.90684000  0.49601000  1.0
  C  C119  1  0.79113000  0.59316000  0.99602000  1.0
  C  C120  1  0.90711000  0.12527000  0.50354000  1.0
  C  C121  1  0.09289000  0.37474000  0.00354000  1.0
  C  C122  1  0.09289000  0.87473000  0.49645000  1.0
  C  C123  1  0.90710000  0.62527000  0.99646000  1.0
  C  C124  1  0.89604000  0.21628000  0.50421000  1.0
  C  C125  1  0.10396000  0.28373000  0.00420000  1.0
  C  C126  1  0.10396000  0.78372000  0.49579000  1.0
  C  C127  1  0.89603000  0.71628000  0.99579000  1.0
  C  C128  1  0.76929000  0.27355000  0.50553000  1.0
  C  C129  1  0.23072000  0.22646000  0.00553000  1.0
  C  C130  1  0.23072000  0.72645000  0.49447000  1.0
  C  C131  1  0.76928000  0.77355000  0.99447000  1.0
  C  C132  1  0.65237000  0.24190000  0.50662000  1.0
  C  C133  1  0.34763000  0.25811000  0.00662000  1.0
  C  C134  1  0.34763000  0.75810000  0.49338000  1.0
  C  C135  1  0.65236000  0.74190000  0.99338000  1.0
  C  C136  1  0.51766000  0.30594000  0.50578000  1.0
  C  C137  1  0.48234000  0.19406000  0.00578000  1.0
  C  C138  1  0.48234000  0.69405000  0.49422000  1.0
  C  C139  1  0.51765000  0.80594000  0.99423000  1.0
  C  C140  1  0.46429000  0.31979000  0.42705000  1.0
  C  C141  1  0.53572000  0.18022000  0.92705000  1.0
  C  C142  1  0.53571000  0.68021000  0.57295000  1.0
  C  C143  1  0.46428000  0.81978000  0.07295000  1.0
  C  C144  1  0.64784000  0.16684000  0.19498000  1.0
  C  C145  1  0.35216000  0.33316000  0.69498000  1.0
  C  C146  1  0.35217000  0.83316000  0.80502000  1.0
  C  C147  1  0.64785000  0.66683000  0.30502000  1.0
  C  C148  1  0.76871000  0.10499000  0.18842000  1.0
  C  C149  1  0.23130000  0.39500000  0.68842000  1.0
  C  C150  1  0.23130000  0.89500000  0.81158000  1.0
  C  C151  1  0.76871000  0.60499000  0.31159000  1.0
  C  C152  1  0.82224000  0.05349000  0.24847000  1.0
  C  C153  1  0.17775000  0.44650000  0.74848000  1.0
  C  C154  1  0.17776000  0.94650000  0.75153000  1.0
  C  C155  1  0.82225000  0.55349000  0.25152000  1.0
  C  C156  1  0.74733000  0.06580000  0.31272000  1.0
  C  C157  1  0.25266000  0.43420000  0.81272000  1.0
  C  C158  1  0.25267000  0.93420000  0.68728000  1.0
  C  C159  1  0.74734000  0.56580000  0.18728000  1.0
  C  C160  1  0.62802000  0.12945000  0.31514000  1.0
  C  C161  1  0.37198000  0.37054000  0.81514000  1.0
  C  C162  1  0.37199000  0.87054000  0.68486000  1.0
  C  C163  1  0.62802000  0.62946000  0.18486000  1.0
  C  C164  1  0.95384000  0.99089000  0.24511000  1.0
  C  C165  1  0.04616000  0.50910000  0.74511000  1.0
  C  C166  1  0.04617000  0.00910000  0.75489000  1.0
  C  C167  1  0.95384000  0.49089000  0.25489000  1.0
  C  C168  1  0.00128000  0.94593000  0.18100000  1.0
  C  C169  1  0.99872000  0.55405000  0.68101000  1.0
  C  C170  1  0.99872000  0.05406000  0.81900000  1.0
  C  C171  1  0.00128000  0.44594000  0.31900000  1.0
  C  C172  1  0.12693000  0.88872000  0.18006000  1.0
  C  C173  1  0.87306000  0.61128000  0.68006000  1.0
  C  C174  1  0.87307000  0.11128000  0.81993000  1.0
  C  C175  1  0.12693000  0.38872000  0.31994000  1.0
  C  C176  1  0.16244000  0.91659000  0.30107000  1.0
  C  C177  1  0.83757000  0.58340000  0.80107000  1.0
  C  C178  1  0.83756000  0.08340000  0.69893000  1.0
  C  C179  1  0.16243000  0.41659000  0.19893000  1.0
  C  C180  1  0.03784000  0.97494000  0.30599000  1.0
  C  C181  1  0.96215000  0.52507000  0.80600000  1.0
  C  C182  1  0.96216000  0.02506000  0.69401000  1.0
  C  C183  1  0.03785000  0.47493000  0.19400000  1.0
  C  C184  1  0.64658000  0.92925000  0.68934000  1.0
  C  C185  1  0.35343000  0.57076000  0.18935000  1.0
  C  C186  1  0.35343000  0.07075000  0.31066000  1.0
  C  C187  1  0.64657000  0.42924000  0.81065000  1.0
  C  C188  1  0.76658000  0.86611000  0.68707000  1.0
  C  C189  1  0.23342000  0.63390000  0.18707000  1.0
  C  C190  1  0.23342000  0.13389000  0.31294000  1.0
  C  C191  1  0.76658000  0.36611000  0.81293000  1.0
  C  C192  1  0.84409000  0.84721000  0.75024000  1.0
  C  C193  1  0.15590000  0.65279000  0.25024000  1.0
  C  C194  1  0.15591000  0.15279000  0.24977000  1.0
  C  C195  1  0.84409000  0.34721000  0.74976000  1.0
  C  C196  1  0.79198000  0.89158000  0.81386000  1.0
  C  C197  1  0.20802000  0.60843000  0.31386000  1.0
  C  C198  1  0.20802000  0.10843000  0.18614000  1.0
  C  C199  1  0.79198000  0.39157000  0.68614000  1.0
  C  C200  1  0.67006000  0.95299000  0.81198000  1.0
  C  C201  1  0.32993000  0.54702000  0.31198000  1.0
  C  C202  1  0.32993000  0.04701000  0.18802000  1.0
  C  C203  1  0.67006000  0.45299000  0.68802000  1.0
  C  C204  1  0.97611000  0.78507000  0.74973000  1.0
  C  C205  1  0.02389000  0.71492000  0.24972000  1.0
  C  C206  1  0.02389000  0.21493000  0.25028000  1.0
  C  C207  1  0.97611000  0.28507000  0.75028000  1.0
  C  C208  1  0.05764000  0.77355000  0.68776000  1.0
  C  C209  1  0.94236000  0.72645000  0.18777000  1.0
  C  C210  1  0.94236000  0.22646000  0.31224000  1.0
  C  C211  1  0.05764000  0.27355000  0.81223000  1.0
  C  C212  1  0.18247000  0.71520000  0.68955000  1.0
  C  C213  1  0.81753000  0.78480000  0.18955000  1.0
  C  C214  1  0.81753000  0.28480000  0.31045000  1.0
  C  C215  1  0.18247000  0.21521000  0.81045000  1.0
  C  C216  1  0.15299000  0.67990000  0.80958000  1.0
  C  C217  1  0.84701000  0.82010000  0.30958000  1.0
  C  C218  1  0.84701000  0.32010000  0.19042000  1.0
  C  C219  1  0.15299000  0.17990000  0.69042000  1.0
  C  C220  1  0.02677000  0.73637000  0.81161000  1.0
  C  C221  1  0.97322000  0.76363000  0.31161000  1.0
  C  C222  1  0.97323000  0.26363000  0.18840000  1.0
  C  C223  1  0.02678000  0.23636000  0.68839000  1.0
  N  N224  1  0.57848000  0.17957000  0.25756000  1.0
  N  N225  1  0.42152000  0.32043000  0.75757000  1.0
  N  N226  1  0.42153000  0.82043000  0.74243000  1.0
  N  N227  1  0.57848000  0.67957000  0.24244000  1.0
  N  N228  1  0.20646000  0.87411000  0.23902000  1.0
  N  N229  1  0.79354000  0.62589000  0.73902000  1.0
  N  N230  1  0.79355000  0.12589000  0.76098000  1.0
  N  N231  1  0.20646000  0.37411000  0.26098000  1.0
  N  N232  1  0.59849000  0.97238000  0.75051000  1.0
  N  N233  1  0.40152000  0.52762000  0.25051000  1.0
  N  N234  1  0.40151000  0.02762000  0.24949000  1.0
  N  N235  1  0.59848000  0.47238000  0.74949000  1.0
  N  N236  1  0.22975000  0.66886000  0.74945000  1.0
  N  N237  1  0.77025000  0.83114000  0.24945000  1.0
  N  N238  1  0.77024000  0.33114000  0.25055000  1.0
  N  N239  1  0.22975000  0.16886000  0.75055000  1.0
  O  O240  1  0.53522000  0.14039000  0.63565000  1.0
  O  O241  1  0.46478000  0.35961000  0.13566000  1.0
  O  O242  1  0.46479000  0.85961000  0.36435000  1.0
  O  O243  1  0.53521000  0.64039000  0.86434000  1.0
  O  O244  1  0.38237000  0.07278000  0.58806000  1.0
  O  O245  1  0.61763000  0.42722000  0.08807000  1.0
  O  O246  1  0.61763000  0.92722000  0.41194000  1.0
  O  O247  1  0.38236000  0.57279000  0.91194000  1.0
  O  O248  1  0.37458000  0.27976000  0.40879000  1.0
  O  O249  1  0.62543000  0.22025000  0.90880000  1.0
  O  O250  1  0.62542000  0.72024000  0.59121000  1.0
  O  O251  1  0.37458000  0.77975000  0.09120000  1.0
  O  O252  1  0.51762000  0.36764000  0.38649000  1.0
  O  O253  1  0.48239000  0.13237000  0.88649000  1.0
  O  O254  1  0.48238000  0.63235000  0.61351000  1.0
  O  O255  1  0.51761000  0.86764000  0.11351000  1.0
