# generated using pymatgen
data_Zn4H16C30O13
_symmetry_space_group_name_H-M   'P 1'
_cell_length_a   17.37270000
_cell_length_b   18.13390000
_cell_length_c   18.59010000
_cell_angle_alpha   89.69830000
_cell_angle_beta   90.01250000
_cell_angle_gamma   89.98950000
_symmetry_Int_Tables_number   1
_chemical_formula_structural   Zn4H16C30O13
_chemical_formula_sum   'Zn16 H64 C120 O52'
_cell_volume   5856.44708848
_cell_formula_units_Z   4
loop_
 _symmetry_equiv_pos_site_id
 _symmetry_equiv_pos_as_xyz
  1  'x, y, z'
loop_
 _atom_site_type_symbol
 _atom_site_label
 _atom_site_symmetry_multiplicity
 _atom_site_fract_x
 _atom_site_fract_y
 _atom_site_fract_z
 _atom_site_occupancy
  Zn  Zn0  1  0.82766000  0.94092000  0.68109000  1.0
  Zn  Zn1  1  0.69936000  0.61616000  0.18295000  1.0
  Zn  Zn2  1  0.82746000  0.11608000  0.68270000  1.0
  Zn  Zn3  1  0.69901000  0.44099000  0.18094000  1.0
  Zn  Zn4  1  0.69393000  0.02676000  0.59751000  1.0
  Zn  Zn5  1  0.69407000  0.02970000  0.76711000  1.0
  Zn  Zn6  1  0.83282000  0.52690000  0.09752000  1.0
  Zn  Zn7  1  0.83268000  0.52944000  0.26713000  1.0
  Zn  Zn8  1  0.17245000  0.88451000  0.31713000  1.0
  Zn  Zn9  1  0.30091000  0.55967000  0.81899000  1.0
  Zn  Zn10  1  0.17220000  0.05970000  0.31889000  1.0
  Zn  Zn11  1  0.30055000  0.38445000  0.81699000  1.0
  Zn  Zn12  1  0.30595000  0.97378000  0.40247000  1.0
  Zn  Zn13  1  0.30582000  0.97115000  0.23290000  1.0
  Zn  Zn14  1  0.16728000  0.47396000  0.90257000  1.0
  Zn  Zn15  1  0.16719000  0.47115000  0.73293000  1.0
  H  H16  1  0.31306000  0.97110000  0.58092000  1.0
  H  H17  1  0.86926000  0.78338000  0.52193000  1.0
  H  H18  1  0.65352000  0.86605000  0.44184000  1.0
  H  H19  1  0.65561000  0.77204000  0.34384000  1.0
  H  H20  1  0.87087000  0.68841000  0.42431000  1.0
  H  H21  1  0.06577000  0.14051000  0.71880000  1.0
  H  H22  1  0.20887000  0.13903000  0.72185000  1.0
  H  H23  1  0.20779000  0.91603000  0.64236000  1.0
  H  H24  1  0.07005000  0.46610000  0.08357000  1.0
  H  H25  1  0.67533000  0.78832000  0.03677000  1.0
  H  H26  1  0.85549000  0.67331000  0.92533000  1.0
  H  H27  1  0.85321000  0.76920000  0.82786000  1.0
  H  H28  1  0.67320000  0.88444000  0.93911000  1.0
  H  H29  1  0.46206000  0.41384000  0.15391000  1.0
  H  H30  1  0.07062000  0.58973000  0.28056000  1.0
  H  H31  1  0.21388000  0.59229000  0.27881000  1.0
  H  H32  1  0.45602000  0.97430000  0.57930000  1.0
  H  H33  1  0.85285000  0.28629000  0.53515000  1.0
  H  H34  1  0.67224000  0.17192000  0.42368000  1.0
  H  H35  1  0.67472000  0.26799000  0.32633000  1.0
  H  H36  1  0.85494000  0.38272000  0.43778000  1.0
  H  H37  1  0.06468000  0.91685000  0.64304000  1.0
  H  H38  1  0.45652000  0.08185000  0.78505000  1.0
  H  H39  1  0.31323000  0.08339000  0.78480000  1.0
  H  H40  1  0.21268000  0.46292000  0.08474000  1.0
  H  H41  1  0.65859000  0.28208000  0.02300000  1.0
  H  H42  1  0.87051000  0.36943000  0.93889000  1.0
  H  H43  1  0.86826000  0.27566000  0.84069000  1.0
  H  H44  1  0.65680000  0.18747000  0.92506000  1.0
  H  H45  1  0.46071000  0.64464000  0.20562000  1.0
  H  H46  1  0.31735000  0.64383000  0.20711000  1.0
  H  H47  1  0.31877000  0.41289000  0.15322000  1.0
  H  H48  1  0.68731000  0.02886000  0.41856000  1.0
  H  H49  1  0.14816000  0.71299000  0.46374000  1.0
  H  H50  1  0.32609000  0.82948000  0.57684000  1.0
  H  H51  1  0.32371000  0.73353000  0.67429000  1.0
  H  H52  1  0.14622000  0.61663000  0.56117000  1.0
  H  H53  1  0.93513000  0.08408000  0.35433000  1.0
  H  H54  1  0.92992000  0.53552000  0.91641000  1.0
  H  H55  1  0.34256000  0.71778000  0.97771000  1.0
  H  H56  1  0.12930000  0.63205000  0.06040000  1.0
  H  H57  1  0.13155000  0.72587000  0.15859000  1.0
  H  H58  1  0.34434000  0.81250000  0.07560000  1.0
  H  H59  1  0.53935000  0.35719000  0.78961000  1.0
  H  H60  1  0.92941000  0.41045000  0.72029000  1.0
  H  H61  1  0.78626000  0.40804000  0.72193000  1.0
  H  H62  1  0.54435000  0.02558000  0.42080000  1.0
  H  H63  1  0.12930000  0.21575000  0.47936000  1.0
  H  H64  1  0.34663000  0.13511000  0.55765000  1.0
  H  H65  1  0.34464000  0.22925000  0.65553000  1.0
  H  H66  1  0.12775000  0.31083000  0.57687000  1.0
  H  H67  1  0.93416000  0.85949000  0.28120000  1.0
  H  H68  1  0.79103000  0.86080000  0.27832000  1.0
  H  H69  1  0.79197000  0.08472000  0.35529000  1.0
  H  H70  1  0.54290000  0.91866000  0.21473000  1.0
  H  H71  1  0.68623000  0.91700000  0.21447000  1.0
  H  H72  1  0.78739000  0.53851000  0.91534000  1.0
  H  H73  1  0.32344000  0.21179000  0.96259000  1.0
  H  H74  1  0.14744000  0.32975000  0.07682000  1.0
  H  H75  1  0.14992000  0.23396000  0.17438000  1.0
  H  H76  1  0.32566000  0.11568000  0.06025000  1.0
  H  H77  1  0.53775000  0.58548000  0.85083000  1.0
  H  H78  1  0.68092000  0.58651000  0.85176000  1.0
  H  H79  1  0.68260000  0.35805000  0.78865000  1.0
  C  C80  1  0.76484000  0.66858000  0.32016000  1.0
  C  C81  1  0.34434000  0.99489000  0.62601000  1.0
  C  C82  1  0.76346000  0.72487000  0.37845000  1.0
  C  C83  1  0.76133000  0.83016000  0.48738000  1.0
  C  C84  1  0.76074000  0.88718000  0.54498000  1.0
  C  C85  1  0.82274000  0.78018000  0.48277000  1.0
  C  C86  1  0.70080000  0.82699000  0.43761000  1.0
  C  C87  1  0.70198000  0.77472000  0.38320000  1.0
  C  C88  1  0.82371000  0.72766000  0.42863000  1.0
  C  C89  1  0.09740000  0.09132000  0.70297000  1.0
  C  C90  1  0.17737000  0.09013000  0.70485000  1.0
  C  C91  1  0.17679000  0.96538000  0.65914000  1.0
  C  C92  1  0.76159000  0.88947000  0.81963000  1.0
  C  C93  1  0.10194000  0.49209000  0.12714000  1.0
  C  C94  1  0.76296000  0.83222000  0.87787000  1.0
  C  C95  1  0.76540000  0.72521000  0.98662000  1.0
  C  C96  1  0.76634000  0.66788000  0.04469000  1.0
  C  C97  1  0.71398000  0.78473000  0.99078000  1.0
  C  C98  1  0.81568000  0.71959000  0.92786000  1.0
  C  C99  1  0.81447000  0.77281000  0.87377000  1.0
  C  C100  1  0.71276000  0.83795000  0.93669000  1.0
  C  C101  1  0.42984000  0.46405000  0.16497000  1.0
  C  C102  1  0.10240000  0.56286000  0.23747000  1.0
  C  C103  1  0.18240000  0.56391000  0.23639000  1.0
  C  C104  1  0.76602000  0.38848000  0.31869000  1.0
  C  C105  1  0.42433000  0.99689000  0.62475000  1.0
  C  C106  1  0.76506000  0.33077000  0.37647000  1.0
  C  C107  1  0.76267000  0.22344000  0.48493000  1.0
  C  C108  1  0.76125000  0.16633000  0.54320000  1.0
  C  C109  1  0.81422000  0.28283000  0.48914000  1.0
  C  C110  1  0.71233000  0.21802000  0.42615000  1.0
  C  C111  1  0.71356000  0.27138000  0.37218000  1.0
  C  C112  1  0.81540000  0.33621000  0.43523000  1.0
  C  C113  1  0.09680000  0.96554000  0.65942000  1.0
  C  C114  1  0.42448000  0.05853000  0.74020000  1.0
  C  C115  1  0.34447000  0.05910000  0.73986000  1.0
  C  C116  1  0.76115000  0.16964000  0.81913000  1.0
  C  C117  1  0.18194000  0.49046000  0.12806000  1.0
  C  C118  1  0.76230000  0.22620000  0.87720000  1.0
  C  C119  1  0.76464000  0.33114000  0.98652000  1.0
  C  C120  1  0.76539000  0.38782000  0.04447000  1.0
  C  C121  1  0.70423000  0.27998000  0.98289000  1.0
  C  C122  1  0.82400000  0.32944000  0.93545000  1.0
  C  C123  1  0.82270000  0.27734000  0.88088000  1.0
  C  C124  1  0.70315000  0.22767000  0.92857000  1.0
  C  C125  1  0.42906000  0.59400000  0.19491000  1.0
  C  C126  1  0.34904000  0.59319000  0.19606000  1.0
  C  C127  1  0.34983000  0.46384000  0.16451000  1.0
  C  C128  1  0.46505000  0.02815000  0.68222000  1.0
  C  C129  1  0.97072000  0.02900000  0.68098000  1.0
  C  C130  1  0.55071000  0.02885000  0.68192000  1.0
  C  C131  1  0.30317000  0.02681000  0.68308000  1.0
  C  C132  1  0.05642000  0.02872000  0.68093000  1.0
  C  C133  1  0.21833000  0.02737000  0.68253000  1.0
  C  C134  1  0.06156000  0.52777000  0.18224000  1.0
  C  C135  1  0.55591000  0.52935000  0.18071000  1.0
  C  C136  1  0.97590000  0.52865000  0.18205000  1.0
  C  C137  1  0.22334000  0.52726000  0.18197000  1.0
  C  C138  1  0.47016000  0.52922000  0.18006000  1.0
  C  C139  1  0.30819000  0.52814000  0.18087000  1.0
  C  C140  1  0.23375000  0.61202000  0.68118000  1.0
  C  C141  1  0.65580000  0.00515000  0.37356000  1.0
  C  C142  1  0.23475000  0.66964000  0.62330000  1.0
  C  C143  1  0.23701000  0.77691000  0.51478000  1.0
  C  C144  1  0.23825000  0.83411000  0.45659000  1.0
  C  C145  1  0.18627000  0.71692000  0.51009000  1.0
  C  C146  1  0.28664000  0.78292000  0.57401000  1.0
  C  C147  1  0.28547000  0.72960000  0.62804000  1.0
  C  C148  1  0.18516000  0.66357000  0.56405000  1.0
  C  C149  1  0.90303000  0.03514000  0.33863000  1.0
  C  C150  1  0.23914000  0.83113000  0.18077000  1.0
  C  C151  1  0.89803000  0.50914000  0.87306000  1.0
  C  C152  1  0.23816000  0.77451000  0.12276000  1.0
  C  C153  1  0.23585000  0.66957000  0.01350000  1.0
  C  C154  1  0.23496000  0.61300000  0.95547000  1.0
  C  C155  1  0.29666000  0.72027000  0.01753000  1.0
  C  C156  1  0.17612000  0.67169000  0.06417000  1.0
  C  C157  1  0.17741000  0.72379000  0.11873000  1.0
  C  C158  1  0.29772000  0.77261000  0.07183000  1.0
  C  C159  1  0.57091000  0.40732000  0.80251000  1.0
  C  C160  1  0.89764000  0.43763000  0.76320000  1.0
  C  C161  1  0.81765000  0.43663000  0.76425000  1.0
  C  C162  1  0.23470000  0.33182000  0.68002000  1.0
  C  C163  1  0.57582000  0.00312000  0.37515000  1.0
  C  C164  1  0.23597000  0.27541000  0.62182000  1.0
  C  C165  1  0.23802000  0.16997000  0.51301000  1.0
  C  C166  1  0.23872000  0.11302000  0.45534000  1.0
  C  C167  1  0.17617000  0.21941000  0.51813000  1.0
  C  C168  1  0.29899000  0.17373000  0.56228000  1.0
  C  C169  1  0.29786000  0.22607000  0.61662000  1.0
  C  C170  1  0.17524000  0.27200000  0.57220000  1.0
  C  C171  1  0.90250000  0.90883000  0.29651000  1.0
  C  C172  1  0.82253000  0.90992000  0.29475000  1.0
  C  C173  1  0.82303000  0.03521000  0.33908000  1.0
  C  C174  1  0.57516000  0.94179000  0.25954000  1.0
  C  C175  1  0.65517000  0.94117000  0.25957000  1.0
  C  C176  1  0.23914000  0.11190000  0.18093000  1.0
  C  C177  1  0.81804000  0.51068000  0.87216000  1.0
  C  C178  1  0.23802000  0.16939000  0.12291000  1.0
  C  C179  1  0.23542000  0.27633000  0.01412000  1.0
  C  C180  1  0.23416000  0.33344000  0.95585000  1.0
  C  C181  1  0.28577000  0.21604000  0.00922000  1.0
  C  C182  1  0.18639000  0.28285000  0.07371000  1.0
  C  C183  1  0.18771000  0.22966000  0.12785000  1.0
  C  C184  1  0.28704000  0.16285000  0.06332000  1.0
  C  C185  1  0.56999000  0.53583000  0.83769000  1.0
  C  C186  1  0.64999000  0.53605000  0.83835000  1.0
  C  C187  1  0.65093000  0.40819000  0.80164000  1.0
  C  C188  1  0.53485000  0.97204000  0.31775000  1.0
  C  C189  1  0.02915000  0.97147000  0.31796000  1.0
  C  C190  1  0.44918000  0.97148000  0.31823000  1.0
  C  C191  1  0.69670000  0.97335000  0.31626000  1.0
  C  C192  1  0.94343000  0.97172000  0.31784000  1.0
  C  C193  1  0.78155000  0.97287000  0.31652000  1.0
  C  C194  1  0.93846000  0.47306000  0.81822000  1.0
  C  C195  1  0.44399000  0.47125000  0.81904000  1.0
  C  C196  1  0.02411000  0.47219000  0.81842000  1.0
  C  C197  1  0.77662000  0.47352000  0.81846000  1.0
  C  C198  1  0.52974000  0.47138000  0.81985000  1.0
  C  C199  1  0.69177000  0.47255000  0.81950000  1.0
  O  O200  1  0.71143000  0.93902000  0.53843000  1.0
  O  O201  1  0.81344000  0.61624000  0.32704000  1.0
  O  O202  1  0.80950000  0.87969000  0.59587000  1.0
  O  O203  1  0.71746000  0.67745000  0.26825000  1.0
  O  O204  1  0.93718000  0.96644000  0.67680000  1.0
  O  O205  1  0.81316000  0.61412000  0.03670000  1.0
  O  O206  1  0.71274000  0.94159000  0.82645000  1.0
  O  O207  1  0.72026000  0.67722000  0.09728000  1.0
  O  O208  1  0.80929000  0.88136000  0.76807000  1.0
  O  O209  1  0.58938000  0.59211000  0.18354000  1.0
  O  O210  1  0.71381000  0.11305000  0.53553000  1.0
  O  O211  1  0.81470000  0.44071000  0.32576000  1.0
  O  O212  1  0.80743000  0.17555000  0.59574000  1.0
  O  O213  1  0.71810000  0.38065000  0.26725000  1.0
  O  O214  1  0.93733000  0.09171000  0.68540000  1.0
  O  O215  1  0.81492000  0.43946000  0.03830000  1.0
  O  O216  1  0.71282000  0.11712000  0.82633000  1.0
  O  O217  1  0.71647000  0.38031000  0.09523000  1.0
  O  O218  1  0.80845000  0.17834000  0.76716000  1.0
  O  O219  1  0.58942000  0.46664000  0.17856000  1.0
  O  O220  1  0.76103000  0.02852000  0.68214000  1.0
  O  O221  1  0.58394000  0.02318000  0.62082000  1.0
  O  O222  1  0.58429000  0.03506000  0.74277000  1.0
  O  O223  1  0.76565000  0.52854000  0.18216000  1.0
  O  O224  1  0.94270000  0.52212000  0.12103000  1.0
  O  O225  1  0.94242000  0.53598000  0.24279000  1.0
  O  O226  1  0.28540000  0.88760000  0.46444000  1.0
  O  O227  1  0.18518000  0.55969000  0.67406000  1.0
  O  O228  1  0.19219000  0.82479000  0.40397000  1.0
  O  O229  1  0.28151000  0.62000000  0.73272000  1.0
  O  O230  1  0.06256000  0.90874000  0.31396000  1.0
  O  O231  1  0.18520000  0.56156000  0.96152000  1.0
  O  O232  1  0.28735000  0.88376000  0.17356000  1.0
  O  O233  1  0.28394000  0.62042000  0.90475000  1.0
  O  O234  1  0.19180000  0.82236000  0.23268000  1.0
  O  O235  1  0.41048000  0.53393000  0.82176000  1.0
  O  O236  1  0.28851000  0.06157000  0.46152000  1.0
  O  O237  1  0.18610000  0.38416000  0.67314000  1.0
  O  O238  1  0.18958000  0.12023000  0.40473000  1.0
  O  O239  1  0.28218000  0.32301000  0.73186000  1.0
  O  O240  1  0.06267000  0.03406000  0.32190000  1.0
  O  O241  1  0.18744000  0.38727000  0.96391000  1.0
  O  O242  1  0.28743000  0.05936000  0.17365000  1.0
  O  O243  1  0.27985000  0.32383000  0.90301000  1.0
  O  O244  1  0.19177000  0.12018000  0.23272000  1.0
  O  O245  1  0.41053000  0.40851000  0.81555000  1.0
  O  O246  1  0.23883000  0.97210000  0.31783000  1.0
  O  O247  1  0.41603000  0.97704000  0.37939000  1.0
  O  O248  1  0.41553000  0.96553000  0.25740000  1.0
  O  O249  1  0.23430000  0.47210000  0.81783000  1.0
  O  O250  1  0.05733000  0.47886000  0.87942000  1.0
  O  O251  1  0.05756000  0.46471000  0.75769000  1.0
