# generated using pymatgen
data_ZnH14C15BrNO4
_symmetry_space_group_name_H-M   'P 1'
_cell_length_a   9.59480000
_cell_length_b   10.86790000
_cell_length_c   16.12160000
_cell_angle_alpha   89.62710000
_cell_angle_beta   90.73960000
_cell_angle_gamma   89.77270000
_symmetry_Int_Tables_number   1
_chemical_formula_structural   ZnH14C15BrNO4
_chemical_formula_sum   'Zn2 H28 C30 Br2 N2 O8'
_cell_volume   1680.89565716
_cell_formula_units_Z   2
loop_
 _symmetry_equiv_pos_site_id
 _symmetry_equiv_pos_as_xyz
  1  'x, y, z'
loop_
 _atom_site_type_symbol
 _atom_site_label
 _atom_site_symmetry_multiplicity
 _atom_site_fract_x
 _atom_site_fract_y
 _atom_site_fract_z
 _atom_site_occupancy
  Zn  Zn0  1  0.35170000  0.50017000  0.49848000  1.0
  Zn  Zn1  1  0.64453000  0.49756000  0.50025000  1.0
  H  H2  1  0.60529000  0.31066000  0.05561000  1.0
  H  H3  1  0.29776000  0.88959000  0.44875000  1.0
  H  H4  1  0.52238000  0.89039000  0.36855000  1.0
  H  H5  1  0.69042000  0.10787000  0.57249000  1.0
  H  H6  1  0.53647000  0.11033000  0.63124000  1.0
  H  H7  1  0.53421000  0.89546000  0.63561000  1.0
  H  H8  1  0.69056000  0.89208000  0.57910000  1.0
  H  H9  1  0.68025000  0.10714000  0.42085000  1.0
  H  H10  1  0.68434000  0.89219000  0.42208000  1.0
  H  H11  1  0.87268000  0.30416000  0.49982000  1.0
  H  H12  1  0.37094000  0.32262000  0.94635000  1.0
  H  H13  1  0.89378000  0.37273000  0.59860000  1.0
  H  H14  1  0.13902000  0.35744000  0.57963000  1.0
  H  H15  1  0.11658000  0.31428000  0.47490000  1.0
  H  H16  1  0.87334000  0.43579000  0.37728000  1.0
  H  H17  1  0.11861000  0.46090000  0.36903000  1.0
  H  H18  1  0.87642000  0.68602000  0.52437000  1.0
  H  H19  1  0.87172000  0.59096000  0.61396000  1.0
  H  H20  1  0.11983000  0.57043000  0.61608000  1.0
  H  H21  1  0.12258000  0.68680000  0.53853000  1.0
  H  H22  1  0.85685000  0.59671000  0.38816000  1.0
  H  H23  1  0.74261000  0.48768000  0.95550000  1.0
  H  H24  1  0.62809000  0.67791000  0.05391000  1.0
  H  H25  1  0.39328000  0.68998000  0.94518000  1.0
  H  H26  1  0.25620000  0.51271000  0.04515000  1.0
  H  H27  1  0.28980000  0.10426000  0.45019000  1.0
  H  H28  1  0.30226000  0.10400000  0.55933000  1.0
  H  H29  1  0.30106000  0.88843000  0.55781000  1.0
  C  C30  1  0.50246000  0.25974000  0.49916000  1.0
  C  C31  1  0.49459000  0.50059000  0.08538000  1.0
  C  C32  1  0.44017000  0.60573000  0.97058000  1.0
  C  C33  1  0.50390000  0.50006000  0.91505000  1.0
  C  C34  1  0.57111000  0.59899000  0.02918000  1.0
  C  C35  1  0.63460000  0.49329000  0.97601000  1.0
  C  C36  1  0.49178000  0.49910000  0.17304000  1.0
  C  C37  1  0.50323000  0.49908000  0.82731000  1.0
  C  C38  1  0.35086000  0.06815000  0.50308000  1.0
  C  C39  1  0.35354000  0.92608000  0.50305000  1.0
  C  C40  1  0.57526000  0.06825000  0.42284000  1.0
  C  C41  1  0.48887000  0.49616000  0.33802000  1.0
  C  C42  1  0.58388000  0.07140000  0.57543000  1.0
  C  C43  1  0.49946000  0.11894000  0.49865000  1.0
  C  C44  1  0.50437000  0.87826000  0.50263000  1.0
  C  C45  1  0.57645000  0.92652000  0.42360000  1.0
  C  C46  1  0.58385000  0.92900000  0.57870000  1.0
  C  C47  1  0.92293000  0.37999000  0.53315000  1.0
  C  C48  1  0.08269000  0.38016000  0.52190000  1.0
  C  C49  1  0.90920000  0.51489000  0.41368000  1.0
  C  C50  1  0.91696000  0.60062000  0.55206000  1.0
  C  C51  1  0.06926000  0.52635000  0.41089000  1.0
  C  C52  1  0.50947000  0.73769000  0.50213000  1.0
  C  C53  1  0.07775000  0.59747000  0.55506000  1.0
  C  C54  1  0.49332000  0.49705000  0.66210000  1.0
  C  C55  1  0.42762000  0.40149000  0.97138000  1.0
  C  C56  1  0.55850000  0.39477000  0.02993000  1.0
  C  C57  1  0.48967000  0.49687000  0.24861000  1.0
  C  C58  1  0.49829000  0.49774000  0.75168000  1.0
  C  C59  1  0.36405000  0.50717000  0.02440000  1.0
  Br  Br60  1  0.49014000  0.13387000  0.31774000  1.0
  Br  Br61  1  0.12021000  0.68771000  0.36450000  1.0
  N  N62  1  0.86323000  0.49726000  0.50045000  1.0
  N  N63  1  0.13088000  0.50525000  0.49493000  1.0
  O  O64  1  0.38946000  0.31535000  0.51527000  1.0
  O  O65  1  0.61940000  0.31063000  0.48552000  1.0
  O  O66  1  0.37353000  0.47207000  0.37281000  1.0
  O  O67  1  0.60398000  0.52072000  0.37461000  1.0
  O  O68  1  0.39492000  0.68182000  0.49015000  1.0
  O  O69  1  0.62785000  0.68639000  0.51270000  1.0
  O  O70  1  0.37479000  0.51592000  0.62761000  1.0
  O  O71  1  0.60873000  0.47769000  0.62572000  1.0
