# generated using pymatgen
data_Cu2H7(C5N)4
_symmetry_space_group_name_H-M   'P 1'
_cell_length_a   33.80480000
_cell_length_b   33.96210000
_cell_length_c   34.92280000
_cell_angle_alpha   89.99590000
_cell_angle_beta   89.87940000
_cell_angle_gamma   89.92140000
_symmetry_Int_Tables_number   1
_chemical_formula_structural   Cu2H7(C5N)4
_chemical_formula_sum   'Cu12 H42 C120 N24'
_cell_volume   40094.11136311
_cell_formula_units_Z   6
loop_
 _symmetry_equiv_pos_site_id
 _symmetry_equiv_pos_as_xyz
  1  'x, y, z'
loop_
 _atom_site_type_symbol
 _atom_site_label
 _atom_site_symmetry_multiplicity
 _atom_site_fract_x
 _atom_site_fract_y
 _atom_site_fract_z
 _atom_site_occupancy
  Cu  Cu0  1  0.21734000  0.21792000  0.15535000  1.0
  Cu  Cu1  1  0.21741000  0.15147000  0.21933000  1.0
  Cu  Cu2  1  0.15019000  0.21755000  0.21897000  1.0
  Cu  Cu3  1  0.78288000  0.21789000  0.84517000  1.0
  Cu  Cu4  1  0.78289000  0.15131000  0.78121000  1.0
  Cu  Cu5  1  0.84963000  0.21766000  0.78126000  1.0
  Cu  Cu6  1  0.21693000  0.78259000  0.84511000  1.0
  Cu  Cu7  1  0.21731000  0.84897000  0.78084000  1.0
  Cu  Cu8  1  0.15034000  0.78280000  0.78140000  1.0
  Cu  Cu9  1  0.78289000  0.78250000  0.15510000  1.0
  Cu  Cu10  1  0.78297000  0.84914000  0.21903000  1.0
  Cu  Cu11  1  0.84950000  0.78239000  0.21890000  1.0
  H  H12  1  0.28695000  0.18770000  0.10185000  1.0
  H  H13  1  0.28694000  0.09647000  0.18872000  1.0
  H  H14  1  0.09485000  0.28667000  0.18838000  1.0
  H  H15  1  0.18751000  0.28776000  0.10235000  1.0
  H  H16  1  0.18770000  0.09800000  0.28807000  1.0
  H  H17  1  0.09599000  0.18740000  0.28717000  1.0
  H  H18  1  0.71397000  0.18734000  0.89916000  1.0
  H  H19  1  0.71368000  0.09626000  0.81214000  1.0
  H  H20  1  0.90466000  0.28706000  0.81134000  1.0
  H  H21  1  0.81243000  0.28806000  0.89782000  1.0
  H  H22  1  0.81269000  0.09797000  0.71225000  1.0
  H  H23  1  0.90399000  0.18753000  0.71319000  1.0
  H  H24  1  0.28504000  0.81380000  0.89939000  1.0
  H  H25  1  0.28618000  0.90428000  0.81178000  1.0
  H  H26  1  0.09542000  0.71317000  0.81145000  1.0
  H  H27  1  0.18786000  0.71167000  0.89733000  1.0
  H  H28  1  0.18821000  0.90168000  0.71126000  1.0
  H  H29  1  0.09582000  0.81326000  0.71379000  1.0
  H  H30  1  0.71389000  0.81323000  0.10146000  1.0
  H  H31  1  0.71372000  0.90436000  0.18842000  1.0
  H  H32  1  0.90432000  0.71257000  0.18886000  1.0
  H  H33  1  0.81253000  0.71224000  0.10231000  1.0
  H  H34  1  0.81294000  0.90258000  0.28763000  1.0
  H  H35  1  0.90392000  0.81242000  0.28673000  1.0
  H  H36  1  0.95572000  0.95395000  0.47403000  1.0
  H  H37  1  0.04428000  0.04518000  0.47419000  1.0
  H  H38  1  0.04424000  0.95388000  0.52573000  1.0
  H  H39  1  0.95575000  0.04541000  0.52570000  1.0
  H  H40  1  0.00044000  0.99959000  0.36700000  1.0
  H  H41  1  0.00022000  0.00013000  0.63283000  1.0
  H  H42  1  0.47308000  0.95658000  0.95464000  1.0
  H  H43  1  0.47339000  0.04292000  0.04509000  1.0
  H  H44  1  0.52670000  0.04301000  0.95475000  1.0
  H  H45  1  0.52650000  0.95652000  0.04507000  1.0
  H  H46  1  0.36256000  0.00022000  0.00018000  1.0
  H  H47  1  0.63728000  0.00046000  0.00069000  1.0
  H  H48  1  0.95741000  0.47335000  0.95396000  1.0
  H  H49  1  0.04262000  0.47321000  0.04560000  1.0
  H  H50  1  0.95749000  0.52646000  0.04580000  1.0
  H  H51  1  0.04262000  0.52636000  0.95378000  1.0
  H  H52  1  0.99998000  0.36311000  0.99976000  1.0
  H  H53  1  0.00022000  0.63658000  0.99993000  1.0
  C  C54  1  0.28194000  0.16910000  0.12663000  1.0
  C  C55  1  0.29998000  0.13294000  0.13620000  1.0
  C  C56  1  0.28192000  0.12232000  0.17115000  1.0
  C  C57  1  0.12105000  0.28192000  0.17100000  1.0
  C  C58  1  0.13209000  0.30028000  0.13636000  1.0
  C  C59  1  0.16855000  0.28248000  0.12691000  1.0
  C  C60  1  0.16890000  0.12334000  0.28290000  1.0
  C  C61  1  0.13289000  0.13377000  0.30070000  1.0
  C  C62  1  0.12188000  0.16915000  0.28240000  1.0
  C  C63  1  0.71886000  0.16876000  0.87434000  1.0
  C  C64  1  0.70081000  0.13265000  0.86479000  1.0
  C  C65  1  0.71872000  0.12208000  0.82974000  1.0
  C  C66  1  0.87856000  0.28229000  0.82885000  1.0
  C  C67  1  0.86760000  0.30067000  0.86352000  1.0
  C  C68  1  0.83129000  0.28279000  0.87318000  1.0
  C  C69  1  0.83137000  0.12334000  0.71744000  1.0
  C  C70  1  0.86734000  0.13383000  0.69962000  1.0
  C  C71  1  0.87819000  0.16921000  0.71794000  1.0
  C  C72  1  0.28036000  0.83222000  0.87443000  1.0
  C  C73  1  0.29853000  0.86824000  0.86472000  1.0
  C  C74  1  0.28096000  0.87858000  0.82952000  1.0
  C  C75  1  0.12154000  0.71786000  0.82884000  1.0
  C  C76  1  0.13262000  0.69922000  0.86330000  1.0
  C  C77  1  0.16893000  0.71709000  0.87285000  1.0
  C  C78  1  0.16921000  0.87662000  0.71687000  1.0
  C  C79  1  0.13306000  0.86636000  0.69944000  1.0
  C  C80  1  0.12188000  0.83128000  0.71817000  1.0
  C  C81  1  0.71881000  0.83181000  0.12625000  1.0
  C  C82  1  0.70078000  0.86797000  0.13587000  1.0
  C  C83  1  0.71874000  0.87852000  0.17081000  1.0
  C  C84  1  0.87833000  0.71752000  0.17133000  1.0
  C  C85  1  0.86748000  0.69925000  0.13663000  1.0
  C  C86  1  0.83128000  0.71736000  0.12697000  1.0
  C  C87  1  0.83156000  0.87708000  0.28247000  1.0
  C  C88  1  0.86747000  0.86642000  0.30019000  1.0
  C  C89  1  0.87819000  0.83089000  0.28198000  1.0
  C  C90  1  0.97520000  0.97392000  0.45848000  1.0
  C  C91  1  0.00002000  0.99953000  0.47856000  1.0
  C  C92  1  0.02493000  0.02520000  0.45857000  1.0
  C  C93  1  0.02537000  0.02543000  0.41815000  1.0
  C  C94  1  0.00032000  0.99957000  0.39818000  1.0
  C  C95  1  0.97508000  0.97374000  0.41806000  1.0
  C  C96  1  0.99996000  0.99959000  0.52126000  1.0
  C  C97  1  0.02486000  0.97397000  0.54131000  1.0
  C  C98  1  0.02524000  0.97395000  0.58173000  1.0
  C  C99  1  0.00015000  0.99997000  0.60165000  1.0
  C  C100  1  0.97497000  0.02580000  0.58171000  1.0
  C  C101  1  0.97516000  0.02542000  0.54128000  1.0
  C  C102  1  0.45709000  0.97561000  0.97448000  1.0
  C  C103  1  0.47788000  0.99975000  0.99985000  1.0
  C  C104  1  0.45724000  0.02405000  0.02534000  1.0
  C  C105  1  0.41548000  0.02451000  0.02564000  1.0
  C  C106  1  0.39477000  0.00007000  0.00009000  1.0
  C  C107  1  0.41532000  0.97549000  0.97441000  1.0
  C  C108  1  0.52197000  0.99974000  0.99988000  1.0
  C  C109  1  0.54273000  0.02411000  0.97461000  1.0
  C  C110  1  0.58450000  0.02465000  0.97471000  1.0
  C  C111  1  0.60506000  0.00025000  0.00045000  1.0
  C  C112  1  0.58438000  0.97554000  0.02586000  1.0
  C  C113  1  0.54262000  0.97558000  0.02539000  1.0
  C  C114  1  0.97615000  0.45734000  0.97400000  1.0
  C  C115  1  0.00003000  0.47791000  0.99977000  1.0
  C  C116  1  0.02389000  0.45725000  0.02555000  1.0
  C  C117  1  0.02424000  0.41568000  0.02566000  1.0
  C  C118  1  0.00000000  0.39518000  0.99976000  1.0
  C  C119  1  0.97576000  0.41577000  0.97386000  1.0
  C  C120  1  0.00004000  0.52178000  0.99978000  1.0
  C  C121  1  0.97621000  0.54244000  0.02568000  1.0
  C  C122  1  0.97591000  0.58401000  0.02587000  1.0
  C  C123  1  0.00018000  0.60451000  0.99988000  1.0
  C  C124  1  0.02438000  0.58394000  0.97384000  1.0
  C  C125  1  0.02393000  0.54237000  0.97393000  1.0
  C  C126  1  0.32763000  0.11147000  0.11473000  1.0
  C  C127  1  0.35033000  0.09191000  0.09487000  1.0
  C  C128  1  0.37372000  0.06966000  0.07219000  1.0
  C  C129  1  0.39411000  0.04907000  0.05105000  1.0
  C  C130  1  0.67314000  0.11127000  0.88625000  1.0
  C  C131  1  0.65023000  0.09186000  0.90597000  1.0
  C  C132  1  0.62665000  0.06972000  0.92852000  1.0
  C  C133  1  0.60603000  0.04924000  0.94951000  1.0
  C  C134  1  0.32621000  0.88958000  0.88611000  1.0
  C  C135  1  0.34915000  0.90887000  0.90580000  1.0
  C  C136  1  0.37292000  0.93079000  0.92826000  1.0
  C  C137  1  0.39370000  0.95112000  0.94916000  1.0
  C  C138  1  0.67304000  0.88935000  0.11453000  1.0
  C  C139  1  0.65012000  0.90869000  0.09480000  1.0
  C  C140  1  0.62648000  0.93074000  0.07226000  1.0
  C  C141  1  0.60585000  0.95113000  0.05123000  1.0
  C  C142  1  0.11072000  0.32798000  0.11502000  1.0
  C  C143  1  0.09120000  0.35064000  0.09519000  1.0
  C  C144  1  0.06908000  0.37399000  0.07244000  1.0
  C  C145  1  0.04857000  0.39429000  0.05120000  1.0
  C  C146  1  0.88892000  0.67148000  0.11532000  1.0
  C  C147  1  0.90859000  0.64887000  0.09552000  1.0
  C  C148  1  0.93091000  0.62559000  0.07279000  1.0
  C  C149  1  0.95154000  0.60537000  0.05150000  1.0
  C  C150  1  0.88898000  0.32836000  0.88479000  1.0
  C  C151  1  0.90856000  0.35096000  0.90455000  1.0
  C  C152  1  0.93078000  0.37422000  0.92722000  1.0
  C  C153  1  0.95136000  0.39448000  0.94837000  1.0
  C  C154  1  0.11128000  0.67136000  0.88450000  1.0
  C  C155  1  0.09169000  0.64867000  0.90425000  1.0
  C  C156  1  0.06941000  0.62540000  0.92695000  1.0
  C  C157  1  0.04882000  0.60520000  0.94824000  1.0
  C  C158  1  0.11194000  0.11281000  0.32868000  1.0
  C  C159  1  0.09279000  0.09361000  0.35201000  1.0
  C  C160  1  0.07076000  0.07159000  0.37609000  1.0
  C  C161  1  0.05031000  0.05091000  0.39706000  1.0
  C  C162  1  0.11212000  0.88720000  0.67139000  1.0
  C  C163  1  0.09285000  0.90621000  0.64804000  1.0
  C  C164  1  0.07075000  0.92808000  0.62393000  1.0
  C  C165  1  0.05022000  0.94858000  0.60288000  1.0
  C  C166  1  0.88852000  0.88723000  0.32814000  1.0
  C  C167  1  0.90775000  0.90619000  0.35151000  1.0
  C  C168  1  0.92977000  0.92797000  0.37571000  1.0
  C  C169  1  0.95018000  0.94841000  0.39686000  1.0
  C  C170  1  0.88835000  0.11297000  0.67156000  1.0
  C  C171  1  0.90758000  0.09391000  0.64814000  1.0
  C  C172  1  0.92964000  0.07196000  0.62396000  1.0
  C  C173  1  0.95007000  0.05134000  0.60286000  1.0
  N  N174  1  0.25522000  0.14986000  0.18119000  1.0
  N  N175  1  0.25524000  0.17882000  0.15361000  1.0
  N  N176  1  0.17805000  0.25563000  0.15366000  1.0
  N  N177  1  0.14864000  0.25528000  0.18097000  1.0
  N  N178  1  0.14911000  0.17865000  0.25585000  1.0
  N  N179  1  0.17822000  0.15027000  0.25615000  1.0
  N  N180  1  0.74532000  0.14961000  0.81960000  1.0
  N  N181  1  0.74539000  0.17852000  0.84723000  1.0
  N  N182  1  0.82179000  0.25589000  0.84651000  1.0
  N  N183  1  0.85106000  0.25558000  0.81906000  1.0
  N  N184  1  0.85094000  0.17865000  0.74451000  1.0
  N  N185  1  0.82195000  0.15023000  0.74422000  1.0
  N  N186  1  0.25447000  0.85097000  0.81942000  1.0
  N  N187  1  0.25412000  0.82225000  0.84724000  1.0
  N  N188  1  0.17830000  0.74426000  0.84635000  1.0
  N  N189  1  0.14895000  0.74473000  0.81908000  1.0
  N  N190  1  0.14915000  0.82177000  0.74459000  1.0
  N  N191  1  0.17846000  0.84985000  0.74380000  1.0
  N  N192  1  0.74536000  0.85094000  0.18081000  1.0
  N  N193  1  0.74540000  0.82201000  0.15321000  1.0
  N  N194  1  0.82174000  0.74430000  0.15366000  1.0
  N  N195  1  0.85088000  0.74440000  0.18114000  1.0
  N  N196  1  0.85091000  0.82150000  0.25556000  1.0
  N  N197  1  0.82204000  0.85012000  0.25584000  1.0
