# generated using pymatgen
data_MgH4C7O5
_symmetry_space_group_name_H-M   'P 1'
_cell_length_a   8.99862000
_cell_length_b   8.99863000
_cell_length_c   10.49680000
_cell_angle_alpha   89.99260000
_cell_angle_beta   89.99300000
_cell_angle_gamma   60.02500000
_symmetry_Int_Tables_number   1
_chemical_formula_structural   MgH4C7O5
_chemical_formula_sum   'Mg3 H12 C21 O15'
_cell_volume   736.29051880
_cell_formula_units_Z   3
loop_
 _symmetry_equiv_pos_site_id
 _symmetry_equiv_pos_as_xyz
  1  'x, y, z'
loop_
 _atom_site_type_symbol
 _atom_site_label
 _atom_site_symmetry_multiplicity
 _atom_site_fract_x
 _atom_site_fract_y
 _atom_site_fract_z
 _atom_site_occupancy
  Mg  Mg0  1  0.01472000  0.00036000  0.16662000  1.0
  Mg  Mg1  1  0.99964000  0.98528000  0.83338000  1.0
  Mg  Mg2  1  0.98507000  0.01493000  0.50000000  1.0
  H  H3  1  0.35513000  0.75273000  0.28947000  1.0
  H  H4  1  0.10858000  0.24709000  0.04377000  1.0
  H  H5  1  0.75292000  0.89141000  0.95623000  1.0
  H  H6  1  0.89214000  0.35566000  0.62267000  1.0
  H  H7  1  0.24725000  0.64489000  0.71053000  1.0
  H  H8  1  0.64434000  0.10786000  0.37734000  1.0
  H  H9  1  0.59697000  0.48315000  0.19678000  1.0
  H  H10  1  0.08061000  0.51709000  0.13622000  1.0
  H  H11  1  0.48292000  0.91938000  0.86378000  1.0
  H  H12  1  0.92014000  0.59753000  0.52983000  1.0
  H  H13  1  0.51684000  0.40304000  0.80321000  1.0
  H  H14  1  0.40248000  0.07985000  0.47018000  1.0
  C  C15  1  0.26015000  0.73985000  0.00000000  1.0
  C  C16  1  0.00054000  0.26040000  0.33324000  1.0
  C  C17  1  0.73962000  0.99944000  0.66677000  1.0
  C  C18  1  0.51683000  0.52816000  0.11165000  1.0
  C  C19  1  0.04554000  0.47206000  0.22141000  1.0
  C  C20  1  0.52794000  0.95444000  0.77859000  1.0
  C  C21  1  0.95535000  0.51724000  0.44476000  1.0
  C  C22  1  0.47183000  0.48318000  0.88834000  1.0
  C  C23  1  0.48278000  0.04464000  0.55524000  1.0
  C  C24  1  0.73658000  0.26342000  0.99999000  1.0
  C  C25  1  0.99997000  0.73714000  0.33293000  1.0
  C  C26  1  0.26287000  0.00005000  0.66709000  1.0
  C  C27  1  0.36454000  0.68395000  0.10938000  1.0
  C  C28  1  0.04923000  0.31611000  0.22382000  1.0
  C  C29  1  0.68390000  0.95076000  0.77619000  1.0
  C  C30  1  0.95195000  0.36485000  0.44260000  1.0
  C  C31  1  0.31604000  0.63546000  0.89061000  1.0
  C  C32  1  0.63517000  0.04803000  0.55741000  1.0
  C  C33  1  0.57131000  0.42869000  0.99999000  1.0
  C  C34  1  0.00031000  0.57167000  0.33300000  1.0
  C  C35  1  0.42835000  0.99968000  0.66699000  1.0
  O  O36  1  0.29871000  0.80157000  0.20865000  1.0
  O  O37  1  0.10121000  0.19825000  0.12466000  1.0
  O  O38  1  0.80176000  0.89877000  0.87534000  1.0
  O  O39  1  0.89999000  0.29906000  0.54188000  1.0
  O  O40  1  0.19841000  0.70132000  0.79135000  1.0
  O  O41  1  0.70094000  0.10001000  0.45813000  1.0
  O  O42  1  0.78231000  0.17724000  0.10348000  1.0
  O  O43  1  0.95838000  0.82386000  0.22967000  1.0
  O  O44  1  0.17615000  0.04162000  0.77033000  1.0
  O  O45  1  0.04119000  0.78250000  0.43623000  1.0
  O  O46  1  0.82276000  0.21769000  0.89651000  1.0
  O  O47  1  0.21750000  0.95881000  0.56377000  1.0
  O  O48  1  0.11242000  0.88758000  0.00001000  1.0
  O  O49  1  0.00040000  0.11266000  0.33333333  1.0
  O  O50  1  0.88735000  0.99959000  0.66666667  1.0
