# generated using pymatgen
data_NdH16C16N10ClO6
_symmetry_space_group_name_H-M   'P 1'
_cell_length_a   8.73573000
_cell_length_b   11.12020000
_cell_length_c   13.04640000
_cell_angle_alpha   64.79600000
_cell_angle_beta   74.43800000
_cell_angle_gamma   89.99220000
_symmetry_Int_Tables_number   1
_chemical_formula_structural   NdH16C16N10ClO6
_chemical_formula_sum   'Nd2 H32 C32 N20 Cl2 O12'
_cell_volume   1095.16565273
_cell_formula_units_Z   2
loop_
 _symmetry_equiv_pos_site_id
 _symmetry_equiv_pos_as_xyz
  1  'x, y, z'
loop_
 _atom_site_type_symbol
 _atom_site_label
 _atom_site_symmetry_multiplicity
 _atom_site_fract_x
 _atom_site_fract_y
 _atom_site_fract_z
 _atom_site_occupancy
  Nd  Nd0  1  0.24996000  0.55348000  0.00007000  1.0
  Nd  Nd1  1  0.75005000  0.44652000  0.99993000  1.0
  H  H2  1  0.51853000  0.72413000  0.99831000  1.0
  H  H3  1  0.98133000  0.72248000  0.00171000  1.0
  H  H4  1  0.48147000  0.27587000  0.00169000  1.0
  H  H5  1  0.01867000  0.27751000  0.99829000  1.0
  H  H6  1  0.35434000  0.76549000  0.06317000  1.0
  H  H7  1  0.14552000  0.82856000  0.93697000  1.0
  H  H8  1  0.64566000  0.23451000  0.93683000  1.0
  H  H9  1  0.85449000  0.17144000  0.06303000  1.0
  H  H10  1  0.46868000  0.29404000  0.34655000  1.0
  H  H11  1  0.03140000  0.64084000  0.65329000  1.0
  H  H12  1  0.53131000  0.70596000  0.65345000  1.0
  H  H13  1  0.96860000  0.35916000  0.34671000  1.0
  H  H14  1  0.52691000  0.46453000  0.30751000  1.0
  H  H15  1  0.97306000  0.77215000  0.69257000  1.0
  H  H16  1  0.47309000  0.53546000  0.69249000  1.0
  H  H17  1  0.02694000  0.22786000  0.30743000  1.0
  H  H18  1  0.99531000  0.06389000  0.61793000  1.0
  H  H19  1  0.50465000  0.68202000  0.38210000  1.0
  H  H20  1  0.00469000  0.93611000  0.38207000  1.0
  H  H21  1  0.49535000  0.31798000  0.61791000  1.0
  H  H22  1  0.75806000  0.91284000  0.78789000  1.0
  H  H23  1  0.74186000  0.70071000  0.21213000  1.0
  H  H24  1  0.24193000  0.08716000  0.21211000  1.0
  H  H25  1  0.25814000  0.29929000  0.78787000  1.0
  H  H26  1  0.60146000  0.99870000  0.92637000  1.0
  H  H27  1  0.89842000  0.92490000  0.07358000  1.0
  H  H28  1  0.39854000  0.00131000  0.07363000  1.0
  H  H29  1  0.10158000  0.07510000  0.92642000  1.0
  H  H30  1  0.88354000  0.36873000  0.73864000  1.0
  H  H31  1  0.61663000  0.10745000  0.26137000  1.0
  H  H32  1  0.11646000  0.63127000  0.26136000  1.0
  H  H33  1  0.38337000  0.89255000  0.73863000  1.0
  C  C34  1  0.37260000  0.43552000  0.21358000  1.0
  C  C35  1  0.12742000  0.64914000  0.78637000  1.0
  C  C36  1  0.62740000  0.56448000  0.78642000  1.0
  C  C37  1  0.87258000  0.35086000  0.21363000  1.0
  C  C38  1  0.42676000  0.39235000  0.32455000  1.0
  C  C39  1  0.07327000  0.71708000  0.67541000  1.0
  C  C40  1  0.57324000  0.60764000  0.67545000  1.0
  C  C41  1  0.92672000  0.28292000  0.32459000  1.0
  C  C42  1  0.09509000  0.31635000  0.56985000  1.0
  C  C43  1  0.40496000  0.88648000  0.43020000  1.0
  C  C44  1  0.90491000  0.68365000  0.43015000  1.0
  C  C45  1  0.59504000  0.11352000  0.56980000  1.0
  C  C46  1  0.95636000  0.22825000  0.66495000  1.0
  C  C47  1  0.54367000  0.89336000  0.33508000  1.0
  C  C48  1  0.04364000  0.77175000  0.33505000  1.0
  C  C49  1  0.45633000  0.10663000  0.66492000  1.0
  C  C50  1  0.92015000  0.09808000  0.67919000  1.0
  C  C51  1  0.57987000  0.77739000  0.32086000  1.0
  C  C52  1  0.07985000  0.90192000  0.32081000  1.0
  C  C53  1  0.42013000  0.22261000  0.67914000  1.0
  C  C54  1  0.79041000  0.01471000  0.77292000  1.0
  C  C55  1  0.70959000  0.78763000  0.22710000  1.0
  C  C56  1  0.20959000  0.98530000  0.22708000  1.0
  C  C57  1  0.29041000  0.21237000  0.77290000  1.0
  C  C58  1  0.70223000  0.06254000  0.85059000  1.0
  C  C59  1  0.79773000  0.91305000  0.14939000  1.0
  C  C60  1  0.29777000  0.93746000  0.14941000  1.0
  C  C61  1  0.20227000  0.08695000  0.85061000  1.0
  C  C62  1  0.86022000  0.26854000  0.74632000  1.0
  C  C63  1  0.63988000  0.01491000  0.25371000  1.0
  C  C64  1  0.13978000  0.73146000  0.25368000  1.0
  C  C65  1  0.36012000  0.98509000  0.74629000  1.0
  N  N66  1  0.18419000  0.28185000  0.48781000  1.0
  N  N67  1  0.31596000  0.76995000  0.51218000  1.0
  N  N68  1  0.81581000  0.71815000  0.51219000  1.0
  N  N69  1  0.68404000  0.23005000  0.48782000  1.0
  N  N70  1  0.30013000  0.38438000  0.42580000  1.0
  N  N71  1  0.19989000  0.81039000  0.57422000  1.0
  N  N72  1  0.69987000  0.61562000  0.57420000  1.0
  N  N73  1  0.80011000  0.18961000  0.42578000  1.0
  N  N74  1  0.28639000  0.47965000  0.46379000  1.0
  N  N75  1  0.21346000  0.94361000  0.53631000  1.0
  N  N76  1  0.71361000  0.52035000  0.53621000  1.0
  N  N77  1  0.78654000  0.05639000  0.46369000  1.0
  N  N78  1  0.15639000  0.43746000  0.55560000  1.0
  N  N79  1  0.34348000  0.99328000  0.44451000  1.0
  N  N80  1  0.84361000  0.56254000  0.44439000  1.0
  N  N81  1  0.65652000  0.00672000  0.55549000  1.0
  N  N82  1  0.73625000  0.18696000  0.83745000  1.0
  N  N83  1  0.76381000  0.02436000  0.16255000  1.0
  N  N84  1  0.26375000  0.81304000  0.16255000  1.0
  N  N85  1  0.23619000  0.97564000  0.83745000  1.0
  Cl  Cl86  1  0.25002000  0.30241000  0.00001000  1.0
  Cl  Cl87  1  0.74998000  0.69759000  0.99999000  1.0
  O  O88  1  0.47024000  0.43608000  0.12107000  1.0
  O  O89  1  0.02975000  0.55716000  0.87878000  1.0
  O  O90  1  0.52976000  0.56392000  0.87893000  1.0
  O  O91  1  0.97025000  0.44284000  0.12122000  1.0
  O  O92  1  0.23459000  0.47043000  0.21529000  1.0
  O  O93  1  0.26540000  0.68567000  0.78475000  1.0
  O  O94  1  0.76541000  0.52957000  0.78471000  1.0
  O  O95  1  0.73460000  0.31433000  0.21525000  1.0
  O  O96  1  0.40544000  0.73330000  0.99947000  1.0
  O  O97  1  0.09440000  0.73275000  0.00062000  1.0
  O  O98  1  0.59456000  0.26670000  0.00053000  1.0
  O  O99  1  0.90560000  0.26725000  0.99938000  1.0
