# generated using pymatgen
data_Cu7H66C48(N6O23)2
_symmetry_space_group_name_H-M   'P 1'
_cell_length_a   11.59370000
_cell_length_b   12.86350000
_cell_length_c   16.31680000
_cell_angle_alpha   72.52330000
_cell_angle_beta   80.61780000
_cell_angle_gamma   65.33920000
_symmetry_Int_Tables_number   1
_chemical_formula_structural   Cu7H66C48(N6O23)2
_chemical_formula_sum   'Cu7 H66 C48 N12 O46'
_cell_volume   2107.39198063
_cell_formula_units_Z   1
loop_
 _symmetry_equiv_pos_site_id
 _symmetry_equiv_pos_as_xyz
  1  'x, y, z'
loop_
 _atom_site_type_symbol
 _atom_site_label
 _atom_site_symmetry_multiplicity
 _atom_site_fract_x
 _atom_site_fract_y
 _atom_site_fract_z
 _atom_site_occupancy
  Cu  Cu0  1  0.52883000  0.48508000  0.42196000  1.0
  Cu  Cu1  1  0.47109000  0.51498000  0.57811000  1.0
  Cu  Cu2  1  0.99978000  0.49981000  0.00021000  1.0
  Cu  Cu3  1  0.69483000  0.57029000  0.98908000  1.0
  Cu  Cu4  1  0.30432000  0.42920000  0.01077000  1.0
  Cu  Cu5  1  0.11801000  0.72439000  0.98723000  1.0
  Cu  Cu6  1  0.88180000  0.27559000  0.01265000  1.0
  H  H7  1  0.54597000  0.88079000  0.50425000  1.0
  H  H8  1  0.45393000  0.11931000  0.49577000  1.0
  H  H9  1  0.66836000  0.75171000  0.56004000  1.0
  H  H10  1  0.33156000  0.24836000  0.43996000  1.0
  H  H11  1  0.61243000  0.81455000  0.36885000  1.0
  H  H12  1  0.38746000  0.18552000  0.63115000  1.0
  H  H13  1  0.75109000  0.69854000  0.41655000  1.0
  H  H14  1  0.24878000  0.30151000  0.58347000  1.0
  H  H15  1  0.68632000  0.12976000  0.26426000  1.0
  H  H16  1  0.31363000  0.87034000  0.73571000  1.0
  H  H17  1  0.83594000  0.13702000  0.26769000  1.0
  H  H18  1  0.16397000  0.86307000  0.73231000  1.0
  H  H19  1  0.74495000  0.25613000  0.37551000  1.0
  H  H20  1  0.25493000  0.74370000  0.62468000  1.0
  H  H21  1  0.60108000  0.23822000  0.38260000  1.0
  H  H22  1  0.39875000  0.76187000  0.61731000  1.0
  H  H23  1  0.07043000  0.73981000  0.55291000  1.0
  H  H24  1  0.92950000  0.26022000  0.44707000  1.0
  H  H25  1  0.10654000  0.86411000  0.49335000  1.0
  H  H26  1  0.89340000  0.13593000  0.50660000  1.0
  H  H27  1  0.09851000  0.67900000  0.41250000  1.0
  H  H28  1  0.90142000  0.32100000  0.58748000  1.0
  H  H29  1  0.15285000  0.79304000  0.36073000  1.0
  H  H30  1  0.84706000  0.20698000  0.63923000  1.0
  H  H31  1  0.81017000  0.59332000  0.33353000  1.0
  H  H32  1  0.19018000  0.40666000  0.66666667  1.0
  H  H33  1  0.76650000  0.51355000  0.28115000  1.0
  H  H34  1  0.23364000  0.48629000  0.71931000  1.0
  H  H35  1  0.69858000  0.72690000  0.20373000  1.0
  H  H36  1  0.30125000  0.27288000  0.79663000  1.0
  H  H37  1  0.85964000  0.71468000  0.19382000  1.0
  H  H38  1  0.14006000  0.28539000  0.80632000  1.0
  H  H39  1  0.36887000  0.37942000  0.29332000  1.0
  H  H40  1  0.63136000  0.62055000  0.70640000  1.0
  H  H41  1  0.27021000  0.47374000  0.35914000  1.0
  H  H42  1  0.73012000  0.52635000  0.64050000  1.0
  H  H43  1  0.38528000  0.56411000  0.22949000  1.0
  H  H44  1  0.61509000  0.43576000  0.77009000  1.0
  H  H45  1  0.22067000  0.64815000  0.24228000  1.0
  H  H46  1  0.77978000  0.35181000  0.75736000  1.0
  H  H47  1  0.05278000  0.14948000  0.28455000  1.0
  H  H48  1  0.94699000  0.85060000  0.71558000  1.0
  H  H49  1  0.21236000  0.10667000  0.31100000  1.0
  H  H50  1  0.78757000  0.89324000  0.68904000  1.0
  H  H51  1  0.19835000  0.05579000  0.17691000  1.0
  H  H52  1  0.80123000  0.94408000  0.82327000  1.0
  H  H53  1  0.28188000  0.15052000  0.16104000  1.0
  H  H54  1  0.71803000  0.84916000  0.83904000  1.0
  H  H55  1  0.81928000  0.40913000  0.10366000  1.0
  H  H56  1  0.18068000  0.59109000  0.89604000  1.0
  H  H57  1  0.33776000  0.76258000  0.94609000  1.0
  H  H58  1  0.66175000  0.23824000  0.05370000  1.0
  H  H59  1  0.30636000  0.74304000  0.86425000  1.0
  H  H60  1  0.69351000  0.25730000  0.13567000  1.0
  H  H61  1  0.07909000  0.83746000  0.09430000  1.0
  H  H62  1  0.92145000  0.16195000  0.90568000  1.0
  H  H63  1  0.95946000  0.93139000  0.03932000  1.0
  H  H64  1  0.03999000  0.06774000  0.96162000  1.0
  H  H65  1  0.54759000  0.61413000  0.11856000  1.0
  H  H66  1  0.45408000  0.38573000  0.88152000  1.0
  H  H67  1  0.56774000  0.48420000  0.12652000  1.0
  H  H68  1  0.43315000  0.51563000  0.87387000  1.0
  H  H69  1  0.59384000  0.79502000  0.92815000  1.0
  H  H70  1  0.40627000  0.20429000  0.07204000  1.0
  H  H71  1  0.60150000  0.73344000  0.85588000  1.0
  H  H72  1  0.39786000  0.26654000  0.14409000  1.0
  C  C73  1  0.69135000  0.98097000  0.40753000  1.0
  C  C74  1  0.30857000  0.01908000  0.59244000  1.0
  C  C75  1  0.90663000  0.97487000  0.40412000  1.0
  C  C76  1  0.09334000  0.02513000  0.59583000  1.0
  C  C77  1  0.85406000  0.80893000  0.49645000  1.0
  C  C78  1  0.14588000  0.19109000  0.50350000  1.0
  C  C79  1  0.64101000  0.81395000  0.49729000  1.0
  C  C80  1  0.35889000  0.18614000  0.50271000  1.0
  C  C81  1  0.65004000  0.75049000  0.42981000  1.0
  C  C82  1  0.34984000  0.24960000  0.57020000  1.0
  C  C83  1  0.58567000  0.66346000  0.45505000  1.0
  C  C84  1  0.41421000  0.33663000  0.54496000  1.0
  C  C85  1  0.74828000  0.13660000  0.30455000  1.0
  C  C86  1  0.25165000  0.86346000  0.69545000  1.0
  C  C87  1  0.68117000  0.24614000  0.33838000  1.0
  C  C88  1  0.31878000  0.75385000  0.66166000  1.0
  C  C89  1  0.62724000  0.36137000  0.26940000  1.0
  C  C90  1  0.37302000  0.63872000  0.73068000  1.0
  C  C91  1  0.06958000  0.80032000  0.48938000  1.0
  C  C92  1  0.93035000  0.19971000  0.51059000  1.0
  C  C93  1  0.14585000  0.73214000  0.42326000  1.0
  C  C94  1  0.85407000  0.26788000  0.57670000  1.0
  C  C95  1  0.27904000  0.64731000  0.45052000  1.0
  C  C96  1  0.72088000  0.35273000  0.54945000  1.0
  C  C97  1  0.05347000  0.50504000  0.29458000  1.0
  C  C98  1  0.94672000  0.49496000  0.70532000  1.0
  C  C99  1  0.21011000  0.31769000  0.26940000  1.0
  C  C100  1  0.79000000  0.68226000  0.73047000  1.0
  C  C101  1  0.98351000  0.36755000  0.26083000  1.0
  C  C102  1  0.01645000  0.63247000  0.73934000  1.0
  C  C103  1  0.82782000  0.56100000  0.27611000  1.0
  C  C104  1  0.17227000  0.43895000  0.72416000  1.0
  C  C105  1  0.79817000  0.66770000  0.19647000  1.0
  C  C106  1  0.20166000  0.33219000  0.80376000  1.0
  C  C107  1  0.81881000  0.63020000  0.11359000  1.0
  C  C108  1  0.18069000  0.37000000  0.88654000  1.0
  C  C109  1  0.28222000  0.45791000  0.29544000  1.0
  C  C110  1  0.71802000  0.54209000  0.70424000  1.0
  C  C111  1  0.28986000  0.56613000  0.22753000  1.0
  C  C112  1  0.71047000  0.43380000  0.77208000  1.0
  C  C113  1  0.27030000  0.56977000  0.13733000  1.0
  C  C114  1  0.72998000  0.43015000  0.86230000  1.0
  C  C115  1  0.13934000  0.16636000  0.26429000  1.0
  C  C116  1  0.86052000  0.83361000  0.73579000  1.0
  C  C117  1  0.18876000  0.14487000  0.17527000  1.0
  C  C118  1  0.81108000  0.85495000  0.82483000  1.0
  C  C119  1  0.09658000  0.23641000  0.10732000  1.0
  C  C120  1  0.90329000  0.76363000  0.89272000  1.0
  N  N121  1  0.72964000  0.87425000  0.47114000  1.0
  N  N122  1  0.27028000  0.12580000  0.52883000  1.0
  N  N123  1  0.78388000  0.02717000  0.37540000  1.0
  N  N124  1  0.21607000  0.97284000  0.62456000  1.0
  N  N125  1  0.93651000  0.86681000  0.46583000  1.0
  N  N126  1  0.06343000  0.13322000  0.53413000  1.0
  N  N127  1  0.95961000  0.47447000  0.27731000  1.0
  N  N128  1  0.04046000  0.52554000  0.72281000  1.0
  N  N129  1  0.17804000  0.42687000  0.28447000  1.0
  N  N130  1  0.82214000  0.57311000  0.71533000  1.0
  N  N131  1  0.10942000  0.28721000  0.26805000  1.0
  N  N132  1  0.89059000  0.71278000  0.73199000  1.0
  O  O133  1  0.58486000  0.61846000  0.39575000  1.0
  O  O134  1  0.41496000  0.38165000  0.60426000  1.0
  O  O135  1  0.54263000  0.64049000  0.53231000  1.0
  O  O136  1  0.45732000  0.35955000  0.46772000  1.0
  O  O137  1  0.62896000  0.35666000  0.19174000  1.0
  O  O138  1  0.37163000  0.64350000  0.80826000  1.0
  O  O139  1  0.58013000  0.45798000  0.29114000  1.0
  O  O140  1  0.42013000  0.54208000  0.70895000  1.0
  O  O141  1  0.30262000  0.62546000  0.52884000  1.0
  O  O142  1  0.69733000  0.37467000  0.47112000  1.0
  O  O143  1  0.35455000  0.60392000  0.39244000  1.0
  O  O144  1  0.64534000  0.39605000  0.60756000  1.0
  O  O145  1  0.58331000  0.03001000  0.38098000  1.0
  O  O146  1  0.41661000  0.97007000  0.61901000  1.0
  O  O147  1  0.98567000  0.01916000  0.37628000  1.0
  O  O148  1  0.01430000  0.98083000  0.62365000  1.0
  O  O149  1  0.88868000  0.70752000  0.54332000  1.0
  O  O150  1  0.11125000  0.29250000  0.45661000  1.0
  O  O151  1  0.72259000  0.65501000  0.07230000  1.0
  O  O152  1  0.27712000  0.34598000  0.92740000  1.0
  O  O153  1  0.93553000  0.57285000  0.09443000  1.0
  O  O154  1  0.06394000  0.42667000  0.90587000  1.0
  O  O155  1  0.21316000  0.67334000  0.08918000  1.0
  O  O156  1  0.78690000  0.32665000  0.91051000  1.0
  O  O157  1  0.30821000  0.47328000  0.11620000  1.0
  O  O158  1  0.69226000  0.52675000  0.88330000  1.0
  O  O159  1  0.02469000  0.19827000  0.08402000  1.0
  O  O160  1  0.97517000  0.80190000  0.91601000  1.0
  O  O161  1  0.09824000  0.33910000  0.08411000  1.0
  O  O162  1  0.90201000  0.66081000  0.91621000  1.0
  O  O163  1  0.02748000  0.59787000  0.31411000  1.0
  O  O164  1  0.97287000  0.40216000  0.68570000  1.0
  O  O165  1  0.32115000  0.24914000  0.25929000  1.0
  O  O166  1  0.67891000  0.75076000  0.74051000  1.0
  O  O167  1  0.90005000  0.34355000  0.24270000  1.0
  O  O168  1  0.09989000  0.65639000  0.75761000  1.0
  O  O169  1  0.82836000  0.42543000  0.04067000  1.0
  O  O170  1  0.17221000  0.57495000  0.95900000  1.0
  O  O171  1  0.26844000  0.79075000  0.90785000  1.0
  O  O172  1  0.73114000  0.20982000  0.09194000  1.0
  O  O173  1  0.04868000  0.87860000  0.03613000  1.0
  O  O174  1  0.95107000  0.12161000  0.96408000  1.0
  O  O175  1  0.53853000  0.56671000  0.08514000  1.0
  O  O176  1  0.46263000  0.43316000  0.91514000  1.0
  O  O177  1  0.57701000  0.73237000  0.91728000  1.0
  O  O178  1  0.42241000  0.26741000  0.08272000  1.0
