# generated using pymatgen
data_CuH7C8N5Cl2
_symmetry_space_group_name_H-M   'P 1'
_cell_length_a   6.63763000
_cell_length_b   10.75520000
_cell_length_c   14.28160000
_cell_angle_alpha   96.50980000
_cell_angle_beta   89.99980000
_cell_angle_gamma   89.99980000
_symmetry_Int_Tables_number   1
_chemical_formula_structural   CuH7C8N5Cl2
_chemical_formula_sum   'Cu4 H28 C32 N20 Cl8'
_cell_volume   1012.97611918
_cell_formula_units_Z   4
loop_
 _symmetry_equiv_pos_site_id
 _symmetry_equiv_pos_as_xyz
  1  'x, y, z'
loop_
 _atom_site_type_symbol
 _atom_site_label
 _atom_site_symmetry_multiplicity
 _atom_site_fract_x
 _atom_site_fract_y
 _atom_site_fract_z
 _atom_site_occupancy
  Cu  Cu0  1  0.33217000  0.15484000  0.25835000  1.0
  Cu  Cu1  1  0.16783000  0.15484000  0.75835000  1.0
  Cu  Cu2  1  0.66783000  0.84516000  0.74165000  1.0
  Cu  Cu3  1  0.83217000  0.84516000  0.24165000  1.0
  H  H4  1  0.35405000  0.48782000  0.44840000  1.0
  H  H5  1  0.14596000  0.48782000  0.94840000  1.0
  H  H6  1  0.64595000  0.51218000  0.55160000  1.0
  H  H7  1  0.85404000  0.51218000  0.05160000  1.0
  H  H8  1  0.86058000  0.30454000  0.57135000  1.0
  H  H9  1  0.63943000  0.30454000  0.07135000  1.0
  H  H10  1  0.13942000  0.69545000  0.42865000  1.0
  H  H11  1  0.36058000  0.69546000  0.92865000  1.0
  H  H12  1  0.83650000  0.07304000  0.51231000  1.0
  H  H13  1  0.66351000  0.07304000  0.01231000  1.0
  H  H14  1  0.16350000  0.92696000  0.48768000  1.0
  H  H15  1  0.33649000  0.92696000  0.98768000  1.0
  H  H16  1  0.58355000  0.01250000  0.38357000  1.0
  H  H17  1  0.91646000  0.01249000  0.88357000  1.0
  H  H18  1  0.41645000  0.98750000  0.61643000  1.0
  H  H19  1  0.08354000  0.98750000  0.11643000  1.0
  H  H20  1  0.75826000  0.55545000  0.34057000  1.0
  H  H21  1  0.74174000  0.55545000  0.84057000  1.0
  H  H22  1  0.24174000  0.44455000  0.65943000  1.0
  H  H23  1  0.25826000  0.44456000  0.15944000  1.0
  H  H24  1  0.64893000  0.35245000  0.24090000  1.0
  H  H25  1  0.85107000  0.35246000  0.74089000  1.0
  H  H26  1  0.35107000  0.64754000  0.75910000  1.0
  H  H27  1  0.14893000  0.64755000  0.25911000  1.0
  H  H28  1  0.90185000  0.17714000  0.22271000  1.0
  H  H29  1  0.59815000  0.17715000  0.72271000  1.0
  H  H30  1  0.09815000  0.82285000  0.77728000  1.0
  H  H31  1  0.40185000  0.82286000  0.27729000  1.0
  C  C32  1  0.47149000  0.30964000  0.43173000  1.0
  C  C33  1  0.02851000  0.30964000  0.93173000  1.0
  C  C34  1  0.52851000  0.69036000  0.56827000  1.0
  C  C35  1  0.97149000  0.69036000  0.06827000  1.0
  C  C36  1  0.74324000  0.26767000  0.52239000  1.0
  C  C37  1  0.75677000  0.26767000  0.02239000  1.0
  C  C38  1  0.25675000  0.73233000  0.47761000  1.0
  C  C39  1  0.24324000  0.73233000  0.97761000  1.0
  C  C40  1  0.73383000  0.14127000  0.48804000  1.0
  C  C41  1  0.76619000  0.14127000  0.98804000  1.0
  C  C42  1  0.26617000  0.85873000  0.51196000  1.0
  C  C43  1  0.23382000  0.85873000  0.01196000  1.0
  C  C44  1  0.59282000  0.10775000  0.41835000  1.0
  C  C45  1  0.90718000  0.10775000  0.91834000  1.0
  C  C46  1  0.40718000  0.89224000  0.58165000  1.0
  C  C47  1  0.09281000  0.89225000  0.08165000  1.0
  C  C48  1  0.15541000  0.38294000  0.36314000  1.0
  C  C49  1  0.34460000  0.38294000  0.86313000  1.0
  C  C50  1  0.84459000  0.61706000  0.63686000  1.0
  C  C51  1  0.65541000  0.61706000  0.13687000  1.0
  C  C52  1  0.85367000  0.47190000  0.33069000  1.0
  C  C53  1  0.64633000  0.47191000  0.83069000  1.0
  C  C54  1  0.14633000  0.52809000  0.66931000  1.0
  C  C55  1  0.35367000  0.52810000  0.16932000  1.0
  C  C56  1  0.79443000  0.36202000  0.27596000  1.0
  C  C57  1  0.70557000  0.36203000  0.77596000  1.0
  C  C58  1  0.20557000  0.63797000  0.72404000  1.0
  C  C59  1  0.29444000  0.63798000  0.22405000  1.0
  C  C60  1  0.93326000  0.26548000  0.26518000  1.0
  C  C61  1  0.56674000  0.26548000  0.76518000  1.0
  C  C62  1  0.06674000  0.73452000  0.73482000  1.0
  C  C63  1  0.43327000  0.73452000  0.23482000  1.0
  N  N64  1  0.33365000  0.39827000  0.41178000  1.0
  N  N65  1  0.16636000  0.39827000  0.91178000  1.0
  N  N66  1  0.66635000  0.60173000  0.58822000  1.0
  N  N67  1  0.83364000  0.60173000  0.08822000  1.0
  N  N68  1  0.46617000  0.19218000  0.38719000  1.0
  N  N69  1  0.03383000  0.19218000  0.88719000  1.0
  N  N70  1  0.53383000  0.80782000  0.61280000  1.0
  N  N71  1  0.96617000  0.80783000  0.11281000  1.0
  N  N72  1  0.61144000  0.35117000  0.49608000  1.0
  N  N73  1  0.88857000  0.35117000  0.99608000  1.0
  N  N74  1  0.38856000  0.64883000  0.50392000  1.0
  N  N75  1  0.11144000  0.64883000  0.00392000  1.0
  N  N76  1  0.11549000  0.27635000  0.30702000  1.0
  N  N77  1  0.38452000  0.27635000  0.80702000  1.0
  N  N78  1  0.88451000  0.72365000  0.69298000  1.0
  N  N79  1  0.61549000  0.72365000  0.19298000  1.0
  N  N80  1  0.03115000  0.48251000  0.37459000  1.0
  N  N81  1  0.46885000  0.48251000  0.87459000  1.0
  N  N82  1  0.96884000  0.51749000  0.62541000  1.0
  N  N83  1  0.53116000  0.51749000  0.12541000  1.0
  Cl  Cl84  1  0.58444000  0.02382000  0.20059000  1.0
  Cl  Cl85  1  0.91556000  0.02382000  0.70059000  1.0
  Cl  Cl86  1  0.41556000  0.97618000  0.79940000  1.0
  Cl  Cl87  1  0.08444000  0.97618000  0.29940000  1.0
  Cl  Cl88  1  0.27069000  0.20325000  0.11016000  1.0
  Cl  Cl89  1  0.22931000  0.20325000  0.61016000  1.0
  Cl  Cl90  1  0.72931000  0.79675000  0.88984000  1.0
  Cl  Cl91  1  0.77069000  0.79675000  0.38984000  1.0
