# generated using pymatgen
data_ZnH16C11(NO3)2
_symmetry_space_group_name_H-M   'P 1'
_cell_length_a   6.06084000
_cell_length_b   7.09298000
_cell_length_c   8.75174000
_cell_angle_alpha   102.30600000
_cell_angle_beta   104.10800000
_cell_angle_gamma   112.25900000
_symmetry_Int_Tables_number   1
_chemical_formula_structural   ZnH16C11(NO3)2
_chemical_formula_sum   'Zn1 H16 C11 N2 O6'
_cell_volume   317.53589590
_cell_formula_units_Z   1
loop_
 _symmetry_equiv_pos_site_id
 _symmetry_equiv_pos_as_xyz
  1  'x, y, z'
loop_
 _atom_site_type_symbol
 _atom_site_label
 _atom_site_symmetry_multiplicity
 _atom_site_fract_x
 _atom_site_fract_y
 _atom_site_fract_z
 _atom_site_occupancy
  Zn  Zn0  1  0.57633000  0.86145000  0.67175000  1.0
  H  H1  1  0.12458000  0.84361000  0.69101000  1.0
  H  H2  1  0.11678000  0.63711000  0.55959000  1.0
  H  H3  1  0.50951000  0.57177000  0.82619000  1.0
  H  H4  1  0.79954000  0.76751000  0.93075000  1.0
  H  H5  1  0.55300000  0.23320000  0.76664000  1.0
  H  H6  1  0.34474000  0.40137000  0.14037000  1.0
  H  H7  1  0.31339000  0.62958000  0.11958000  1.0
  H  H8  1  0.82627000  0.41228000  0.05009000  1.0
  H  H9  1  0.87342000  0.17862000  0.03444000  1.0
  H  H10  1  0.02377000  0.48467000  0.83602000  1.0
  H  H11  1  0.84184000  0.25965000  0.53869000  1.0
  H  H12  1  0.70381000  0.42785000  0.60021000  1.0
  H  H13  1  0.79621000  0.82944000  0.24919000  1.0
  H  H14  1  0.15094000  0.03718000  0.52185000  1.0
  H  H15  1  0.67111000  0.17959000  0.25365000  1.0
  H  H16  1  0.28931000  0.96222000  0.98695000  1.0
  C  C17  1  0.25042000  0.55698000  0.33161000  1.0
  C  C18  1  0.22304000  0.48217000  0.14899000  1.0
  C  C19  1  0.95057000  0.34047000  0.02316000  1.0
  C  C20  1  0.94012000  0.32049000  0.84297000  1.0
  C  C21  1  0.10184000  0.21148000  0.79720000  1.0
  C  C22  1  0.67488000  0.25881000  0.56720000  1.0
  C  C23  1  0.99252000  0.90956000  0.25382000  1.0
  C  C24  1  0.19343000  0.02629000  0.40745000  1.0
  C  C25  1  0.44341000  0.12382000  0.41049000  1.0
  C  C26  1  0.47925000  0.10162000  0.25645000  1.0
  C  C27  1  0.26833000  0.98388000  0.10895000  1.0
  N  N28  1  0.67557000  0.19288000  0.71790000  1.0
  N  N29  1  0.02790000  0.88864000  0.10661000  1.0
  O  O30  1  0.05724000  0.48998000  0.37362000  1.0
  O  O31  1  0.48045000  0.69145000  0.43230000  1.0
  O  O32  1  0.98554000  0.00553000  0.72463000  1.0
  O  O33  1  0.33829000  0.32512000  0.83605000  1.0
  O  O34  1  0.20411000  0.74370000  0.67906000  1.0
  O  O35  1  0.65224000  0.69040000  0.81533000  1.0
