# generated using pymatgen
data_CdH3C4(IN)2
_symmetry_space_group_name_H-M   'P 1'
_cell_length_a   7.71418000
_cell_length_b   7.95482000
_cell_length_c   14.31640000
_cell_angle_alpha   89.99960000
_cell_angle_beta   89.99990000
_cell_angle_gamma   64.04400000
_symmetry_Int_Tables_number   1
_chemical_formula_structural   CdH3C4(IN)2
_chemical_formula_sum   'Cd4 H12 C16 I8 N8'
_cell_volume   789.90823879
_cell_formula_units_Z   4
loop_
 _symmetry_equiv_pos_site_id
 _symmetry_equiv_pos_as_xyz
  1  'x, y, z'
loop_
 _atom_site_type_symbol
 _atom_site_label
 _atom_site_symmetry_multiplicity
 _atom_site_fract_x
 _atom_site_fract_y
 _atom_site_fract_z
 _atom_site_occupancy
  Cd  Cd0  1  0.91586000  0.96759000  0.76334000  1.0
  Cd  Cd1  1  0.58414000  0.03241000  0.26335000  1.0
  Cd  Cd2  1  0.08414000  0.03240000  0.23665000  1.0
  Cd  Cd3  1  0.41586000  0.96760000  0.73665000  1.0
  H  H4  1  0.15709000  0.38131000  0.82838000  1.0
  H  H5  1  0.34291000  0.61869000  0.32838000  1.0
  H  H6  1  0.84291000  0.61870000  0.17162000  1.0
  H  H7  1  0.65709000  0.38130000  0.67162000  1.0
  H  H8  1  0.16999000  0.58225000  0.95796000  1.0
  H  H9  1  0.33002000  0.41775000  0.45796000  1.0
  H  H10  1  0.83002000  0.41776000  0.04204000  1.0
  H  H11  1  0.66998000  0.58224000  0.54204000  1.0
  H  H12  1  0.79214000  0.29318000  0.92322000  1.0
  H  H13  1  0.70786000  0.70682000  0.42322000  1.0
  H  H14  1  0.20786000  0.70682000  0.07678000  1.0
  H  H15  1  0.29213000  0.29318000  0.57678000  1.0
  C  C16  1  0.29518000  0.36817000  0.85436000  1.0
  C  C17  1  0.20482000  0.63183000  0.35436000  1.0
  C  C18  1  0.70482000  0.63184000  0.14564000  1.0
  C  C19  1  0.79518000  0.36817000  0.64564000  1.0
  C  C20  1  0.30420000  0.47968000  0.92773000  1.0
  C  C21  1  0.19580000  0.52032000  0.42773000  1.0
  C  C22  1  0.69580000  0.52032000  0.07227000  1.0
  C  C23  1  0.80420000  0.47967000  0.57227000  1.0
  C  C24  1  0.48549000  0.45107000  0.95948000  1.0
  C  C25  1  0.01451000  0.54892000  0.45948000  1.0
  C  C26  1  0.51451000  0.54893000  0.04052000  1.0
  C  C27  1  0.98548000  0.45108000  0.54052000  1.0
  C  C28  1  0.64355000  0.32050000  0.90836000  1.0
  C  C29  1  0.85645000  0.67950000  0.40836000  1.0
  C  C30  1  0.35645000  0.67950000  0.09164000  1.0
  C  C31  1  0.14355000  0.32050000  0.59165000  1.0
  I  I32  1  0.67468000  0.99886000  0.59635000  1.0
  I  I33  1  0.82532000  0.00114000  0.09635000  1.0
  I  I34  1  0.32532000  0.00114000  0.40365000  1.0
  I  I35  1  0.17467000  0.99886000  0.90365000  1.0
  I  I36  1  0.77288000  0.71132000  0.84282000  1.0
  I  I37  1  0.72712000  0.28868000  0.34282000  1.0
  I  I38  1  0.22712000  0.28868000  0.15718000  1.0
  I  I39  1  0.27288000  0.71132000  0.65718000  1.0
  N  N40  1  0.45127000  0.23649000  0.81410000  1.0
  N  N41  1  0.04873000  0.76351000  0.31410000  1.0
  N  N42  1  0.54873000  0.76351000  0.18590000  1.0
  N  N43  1  0.95127000  0.23649000  0.68590000  1.0
  N  N44  1  0.62511000  0.21775000  0.83910000  1.0
  N  N45  1  0.87489000  0.78225000  0.33910000  1.0
  N  N46  1  0.37489000  0.78225000  0.16090000  1.0
  N  N47  1  0.12511000  0.21775000  0.66090000  1.0
