# generated using pymatgen
data_AgPH2(CN)2
_symmetry_space_group_name_H-M   'P 1'
_cell_length_a   7.48486000
_cell_length_b   10.58930000
_cell_length_c   11.14990000
_cell_angle_alpha   89.99940000
_cell_angle_beta   89.99990000
_cell_angle_gamma   89.99990000
_symmetry_Int_Tables_number   1
_chemical_formula_structural   AgPH2(CN)2
_chemical_formula_sum   'Ag8 P8 H16 C16 N16'
_cell_volume   883.73469618
_cell_formula_units_Z   8
loop_
 _symmetry_equiv_pos_site_id
 _symmetry_equiv_pos_as_xyz
  1  'x, y, z'
loop_
 _atom_site_type_symbol
 _atom_site_label
 _atom_site_symmetry_multiplicity
 _atom_site_fract_x
 _atom_site_fract_y
 _atom_site_fract_z
 _atom_site_occupancy
  Ag  Ag0  1  0.40123000  0.63522000  0.92412000  1.0
  Ag  Ag1  1  0.09877000  0.13521000  0.07587000  1.0
  Ag  Ag2  1  0.90123000  0.36478000  0.57588000  1.0
  Ag  Ag3  1  0.59877000  0.86479000  0.42413000  1.0
  Ag  Ag4  1  0.59877000  0.36479000  0.07588000  1.0
  Ag  Ag5  1  0.90123000  0.86478000  0.92413000  1.0
  Ag  Ag6  1  0.09877000  0.63521000  0.42412000  1.0
  Ag  Ag7  1  0.40123000  0.13522000  0.57587000  1.0
  P  P8  1  0.40537000  0.68891000  0.35255000  1.0
  P  P9  1  0.09463000  0.18891000  0.64745000  1.0
  P  P10  1  0.90537000  0.31108000  0.14745000  1.0
  P  P11  1  0.59463000  0.81109000  0.85256000  1.0
  P  P12  1  0.59463000  0.31109000  0.64745000  1.0
  P  P13  1  0.90537000  0.81109000  0.35256000  1.0
  P  P14  1  0.09463000  0.68891000  0.85255000  1.0
  P  P15  1  0.40537000  0.18891000  0.14744000  1.0
  H  H16  1  0.58463000  0.48148000  0.35587000  1.0
  H  H17  1  0.91537000  0.98148000  0.64413000  1.0
  H  H18  1  0.08463000  0.51851000  0.14413000  1.0
  H  H19  1  0.41537000  0.01852000  0.85587000  1.0
  H  H20  1  0.41537000  0.51852000  0.64413000  1.0
  H  H21  1  0.08463000  0.01852000  0.35587000  1.0
  H  H22  1  0.91537000  0.48148000  0.85588000  1.0
  H  H23  1  0.58463000  0.98148000  0.14413000  1.0
  H  H24  1  0.27889000  0.79621000  0.16409000  1.0
  H  H25  1  0.22111000  0.29620000  0.83590000  1.0
  H  H26  1  0.77889000  0.20379000  0.33591000  1.0
  H  H27  1  0.72111000  0.70379000  0.66409000  1.0
  H  H28  1  0.72111000  0.20379000  0.83591000  1.0
  H  H29  1  0.77889000  0.70379000  0.16410000  1.0
  H  H30  1  0.22111000  0.79621000  0.66409000  1.0
  H  H31  1  0.27889000  0.29621000  0.33590000  1.0
  C  C32  1  0.51407000  0.55124000  0.30191000  1.0
  C  C33  1  0.98593000  0.05123000  0.69809000  1.0
  C  C34  1  0.01407000  0.44876000  0.19809000  1.0
  C  C35  1  0.48593000  0.94877000  0.80191000  1.0
  C  C36  1  0.48593000  0.44877000  0.69809000  1.0
  C  C37  1  0.01407000  0.94877000  0.30191000  1.0
  C  C38  1  0.98593000  0.55124000  0.80192000  1.0
  C  C39  1  0.51407000  0.05124000  0.19808000  1.0
  C  C40  1  0.35329000  0.71672000  0.20072000  1.0
  C  C41  1  0.14671000  0.21672000  0.79927000  1.0
  C  C42  1  0.85330000  0.28328000  0.29928000  1.0
  C  C43  1  0.64671000  0.78328000  0.70073000  1.0
  C  C44  1  0.64671000  0.28328000  0.79928000  1.0
  C  C45  1  0.85329000  0.78328000  0.20073000  1.0
  C  C46  1  0.14670000  0.71672000  0.70073000  1.0
  C  C47  1  0.35329000  0.21672000  0.29927000  1.0
  N  N48  1  0.41391000  0.62872000  0.12623000  1.0
  N  N49  1  0.08609000  0.12872000  0.87377000  1.0
  N  N50  1  0.91392000  0.37128000  0.37377000  1.0
  N  N51  1  0.58608000  0.87128000  0.62623000  1.0
  N  N52  1  0.58609000  0.37128000  0.87377000  1.0
  N  N53  1  0.91392000  0.87128000  0.12623000  1.0
  N  N54  1  0.08608000  0.62872000  0.62623000  1.0
  N  N55  1  0.41391000  0.12873000  0.37377000  1.0
  N  N56  1  0.50534000  0.53428000  0.18383000  1.0
  N  N57  1  0.99466000  0.03428000  0.81617000  1.0
  N  N58  1  0.00535000  0.46572000  0.31618000  1.0
  N  N59  1  0.49466000  0.96572000  0.68382000  1.0
  N  N60  1  0.49466000  0.46572000  0.81617000  1.0
  N  N61  1  0.00535000  0.96572000  0.18383000  1.0
  N  N62  1  0.99465000  0.53428000  0.68382000  1.0
  N  N63  1  0.50535000  0.03428000  0.31618000  1.0
