# generated using pymatgen
data_Zn4H10C32O13F4
_symmetry_space_group_name_H-M   'P 1'
_cell_length_a   16.10050000
_cell_length_b   16.10580000
_cell_length_c   19.63140000
_cell_angle_alpha   84.28990000
_cell_angle_beta   88.90450000
_cell_angle_gamma   83.60030000
_symmetry_Int_Tables_number   1
_chemical_formula_structural   Zn4H10C32O13F4
_chemical_formula_sum   'Zn4 H10 C32 O13 F4'
_cell_volume   5033.65603761
_cell_formula_units_Z   1
loop_
 _symmetry_equiv_pos_site_id
 _symmetry_equiv_pos_as_xyz
  1  'x, y, z'
loop_
 _atom_site_type_symbol
 _atom_site_label
 _atom_site_symmetry_multiplicity
 _atom_site_fract_x
 _atom_site_fract_y
 _atom_site_fract_z
 _atom_site_occupancy
  Zn  Zn0  1  0.43092000  0.57235000  0.55889000  1.0
  Zn  Zn1  1  0.56521000  0.57024000  0.43502000  1.0
  Zn  Zn2  1  0.43064000  0.43758000  0.44815000  1.0
  Zn  Zn3  1  0.57794000  0.42253000  0.56013000  1.0
  H  H4  1  0.41364000  0.58645000  0.76693000  1.0
  H  H5  1  0.40913000  0.57609000  0.89397000  1.0
  H  H6  1  0.50697000  0.65286000  0.09791000  1.0
  H  H7  1  0.43177000  0.01854000  0.44275000  1.0
  H  H8  1  0.47252000  0.59148000  0.99341000  1.0
  H  H9  1  0.45756000  0.39199000  0.11117000  1.0
  H  H10  1  0.60012000  0.37306000  0.77364000  1.0
  H  H11  1  0.52446000  0.40088000  0.00726000  1.0
  H  H12  1  0.01347000  0.43397000  0.44838000  1.0
  H  H13  1  0.59557000  0.36123000  0.90113000  1.0
  C  C14  1  0.72568000  0.48806000  0.49129000  1.0
  C  C15  1  0.50402000  0.46295000  0.98140000  1.0
  C  C16  1  0.48503000  0.52814000  0.01945000  1.0
  C  C17  1  0.27683000  0.51219000  0.51275000  1.0
  C  C18  1  0.48682000  0.51438000  0.23981000  1.0
  C  C19  1  0.81564000  0.48247000  0.48711000  1.0
  C  C20  1  0.97885000  0.47579000  0.48202000  1.0
  C  C21  1  0.02402000  0.52152000  0.51913000  1.0
  C  C22  1  0.11117000  0.51925000  0.51773000  1.0
  C  C23  1  0.89168000  0.47954000  0.48485000  1.0
  C  C24  1  0.18714000  0.51687000  0.51641000  1.0
  C  C25  1  0.50389000  0.46930000  0.90677000  1.0
  C  C26  1  0.48220000  0.81679000  0.48246000  1.0
  C  C27  1  0.47532000  0.98039000  0.47819000  1.0
  C  C28  1  0.52267000  0.02186000  0.51708000  1.0
  C  C29  1  0.48708000  0.72647000  0.48679000  1.0
  C  C30  1  0.52011000  0.10924000  0.51488000  1.0
  C  C31  1  0.47941000  0.89297000  0.48090000  1.0
  C  C32  1  0.51754000  0.18542000  0.51248000  1.0
  C  C33  1  0.51318000  0.27546000  0.50898000  1.0
  C  C34  1  0.48997000  0.50999000  0.31600000  1.0
  C  C35  1  0.50916000  0.48793000  0.68633000  1.0
  C  C36  1  0.55601000  0.41109000  0.87172000  1.0
  C  C37  1  0.50796000  0.48119000  0.76255000  1.0
  C  C38  1  0.45423000  0.53829000  0.79691000  1.0
  C  C39  1  0.45245000  0.53255000  0.86788000  1.0
  C  C40  1  0.55888000  0.41740000  0.80059000  1.0
  C  C41  1  0.47072000  0.44776000  0.13431000  1.0
  C  C42  1  0.47154000  0.44547000  0.20493000  1.0
  C  C43  1  0.49952000  0.58787000  0.19787000  1.0
  C  C44  1  0.49722000  0.59351000  0.12706000  1.0
  C  C45  1  0.48425000  0.52242000  0.09406000  1.0
  O  O46  1  0.50145000  0.50039000  0.50034000  1.0
  O  O47  1  0.54721000  0.54639000  0.34076000  1.0
  O  O48  1  0.56173000  0.43675000  0.65741000  1.0
  O  O49  1  0.43572000  0.47018000  0.34937000  1.0
  O  O50  1  0.45723000  0.54464000  0.65566000  1.0
  O  O51  1  0.44450000  0.69191000  0.53481000  1.0
  O  O52  1  0.56116000  0.30502000  0.54914000  1.0
  O  O53  1  0.68616000  0.54608000  0.45167000  1.0
  O  O54  1  0.31212000  0.45913000  0.47426000  1.0
  O  O55  1  0.69533000  0.43469000  0.53432000  1.0
  O  O56  1  0.31124000  0.56110000  0.54798000  1.0
  O  O57  1  0.53360000  0.69077000  0.44250000  1.0
  O  O58  1  0.46144000  0.31582000  0.46585000  1.0
  F  F59  1  0.98347000  0.57464000  0.56188000  1.0
  F  F60  1  0.57812000  0.97723000  0.56220000  1.0
  F  F61  1  0.45869000  0.37215000  0.24178000  1.0
  F  F62  1  0.51214000  0.65790000  0.22750000  1.0
