# generated using pymatgen
data_ZnH24C33(N3O4)2
_symmetry_space_group_name_H-M   'P 1'
_cell_length_a   9.58345000
_cell_length_b   12.89850000
_cell_length_c   13.30000000
_cell_angle_alpha   72.21060000
_cell_angle_beta   74.80740000
_cell_angle_gamma   74.08710000
_symmetry_Int_Tables_number   1
_chemical_formula_structural   ZnH24C33(N3O4)2
_chemical_formula_sum   'Zn2 H48 C66 N12 O16'
_cell_volume   1476.63107163
_cell_formula_units_Z   2
loop_
 _symmetry_equiv_pos_site_id
 _symmetry_equiv_pos_as_xyz
  1  'x, y, z'
loop_
 _atom_site_type_symbol
 _atom_site_label
 _atom_site_symmetry_multiplicity
 _atom_site_fract_x
 _atom_site_fract_y
 _atom_site_fract_z
 _atom_site_occupancy
  Zn  Zn0  1  0.09835000  0.92270000  0.31377000  1.0
  Zn  Zn1  1  0.90165000  0.07730000  0.68623000  1.0
  H  H2  1  0.37633000  0.66154000  0.38139000  1.0
  H  H3  1  0.62366000  0.33846000  0.61862000  1.0
  H  H4  1  0.51516000  0.65233000  0.45095000  1.0
  H  H5  1  0.48484000  0.34766000  0.54905000  1.0
  H  H6  1  0.37148000  0.50213000  0.32880000  1.0
  H  H7  1  0.62852000  0.49787000  0.67119000  1.0
  H  H8  1  0.48266000  0.31151000  0.30978000  1.0
  H  H9  1  0.51733000  0.68849000  0.69022000  1.0
  H  H10  1  0.88959000  0.33462000  0.37570000  1.0
  H  H11  1  0.11041000  0.66538000  0.62429000  1.0
  H  H12  1  0.77472000  0.52375000  0.39863000  1.0
  H  H13  1  0.22528000  0.47625000  0.60137000  1.0
  H  H14  1  0.41096000  0.73816000  0.18269000  1.0
  H  H15  1  0.58904000  0.26184000  0.81731000  1.0
  H  H16  1  0.52170000  0.87169000  0.02497000  1.0
  H  H17  1  0.47831000  0.12831000  0.97503000  1.0
  H  H18  1  0.83737000  0.87475000  0.20347000  1.0
  H  H19  1  0.16263000  0.12524000  0.79654000  1.0
  H  H20  1  0.72887000  0.73896000  0.35881000  1.0
  H  H21  1  0.27112000  0.26104000  0.64119000  1.0
  H  H22  1  0.95450000  0.15541000  0.40065000  1.0
  H  H23  1  0.04550000  0.84459000  0.59935000  1.0
  H  H24  1  0.61980000  0.17361000  0.23594000  1.0
  H  H25  1  0.38020000  0.82638000  0.76406000  1.0
  H  H26  1  0.72922000  0.90515000  0.87920000  1.0
  H  H27  1  0.27078000  0.09485000  0.12080000  1.0
  H  H28  1  0.81380000  0.06452000  0.08671000  1.0
  H  H29  1  0.18621000  0.93547000  0.91330000  1.0
  H  H30  1  0.87205000  0.62139000  0.62544000  1.0
  H  H31  1  0.12795000  0.37861000  0.37455000  1.0
  H  H32  1  0.12486000  0.58468000  0.31547000  1.0
  H  H33  1  0.87514000  0.41533000  0.68453000  1.0
  H  H34  1  0.33231000  0.18164000  0.43773000  1.0
  H  H35  1  0.66769000  0.81838000  0.56227000  1.0
  H  H36  1  0.48071000  0.83264000  0.45460000  1.0
  H  H37  1  0.51929000  0.16737000  0.54540000  1.0
  H  H38  1  0.29089000  0.21566000  0.25098000  1.0
  H  H39  1  0.70911000  0.78434000  0.74902000  1.0
  H  H40  1  0.64088000  0.32019000  0.95962000  1.0
  H  H41  1  0.35912000  0.67981000  0.04038000  1.0
  H  H42  1  0.28253000  0.50301000  0.15113000  1.0
  H  H43  1  0.71747000  0.49699000  0.84887000  1.0
  H  H44  1  0.08927000  0.77697000  0.11158000  1.0
  H  H45  1  0.91073000  0.22303000  0.88842000  1.0
  H  H46  1  0.04391000  0.65671000  0.84014000  1.0
  H  H47  1  0.95608000  0.34329000  0.15986000  1.0
  H  H48  1  0.99096000  0.51950000  0.18240000  1.0
  H  H49  1  0.00904000  0.48050000  0.81760000  1.0
  C  C50  1  0.49648000  0.64467000  0.37569000  1.0
  C  C51  1  0.50352000  0.35532000  0.62431000  1.0
  C  C52  1  0.56462000  0.52736000  0.36445000  1.0
  C  C53  1  0.43538000  0.47264000  0.63555000  1.0
  C  C54  1  0.48550000  0.46596000  0.33854000  1.0
  C  C55  1  0.51450000  0.53404000  0.66145000  1.0
  C  C56  1  0.54856000  0.35808000  0.32717000  1.0
  C  C57  1  0.45144000  0.64192000  0.67283000  1.0
  C  C58  1  0.69454000  0.31112000  0.33978000  1.0
  C  C59  1  0.30546000  0.68888000  0.66022000  1.0
  C  C60  1  0.77596000  0.37124000  0.36523000  1.0
  C  C61  1  0.22403000  0.62876000  0.63477000  1.0
  C  C62  1  0.71041000  0.47804000  0.37800000  1.0
  C  C63  1  0.28958000  0.52196000  0.62200000  1.0
  C  C64  1  0.56217000  0.72897000  0.28158000  1.0
  C  C65  1  0.43783000  0.27104000  0.71842000  1.0
  C  C66  1  0.50548000  0.76716000  0.18682000  1.0
  C  C67  1  0.49453000  0.23284000  0.81318000  1.0
  C  C68  1  0.56625000  0.84326000  0.09847000  1.0
  C  C69  1  0.43376000  0.15674000  0.90154000  1.0
  C  C70  1  0.68578000  0.88120000  0.10534000  1.0
  C  C71  1  0.31423000  0.11879000  0.89466000  1.0
  C  C72  1  0.74504000  0.84417000  0.19844000  1.0
  C  C73  1  0.25496000  0.15583000  0.80157000  1.0
  C  C74  1  0.68261000  0.76800000  0.28589000  1.0
  C  C75  1  0.31739000  0.23199000  0.71411000  1.0
  C  C76  1  0.88928000  0.13580000  0.35571000  1.0
  C  C77  1  0.11072000  0.86420000  0.64429000  1.0
  C  C78  1  0.71604000  0.14393000  0.27312000  1.0
  C  C79  1  0.28397000  0.85607000  0.72688000  1.0
  C  C80  1  0.76258000  0.96227000  0.90908000  1.0
  C  C81  1  0.23742000  0.03773000  0.09093000  1.0
  C  C82  1  0.80698000  0.04472000  0.01466000  1.0
  C  C83  1  0.19304000  0.95527000  0.98534000  1.0
  C  C84  1  0.99991000  0.61380000  0.46743000  1.0
  C  C85  1  0.00008000  0.38621000  0.53256000  1.0
  C  C86  1  0.92746000  0.56740000  0.57120000  1.0
  C  C87  1  0.07254000  0.43260000  0.42880000  1.0
  C  C88  1  0.07158000  0.54602000  0.39625000  1.0
  C  C89  1  0.92841000  0.45398000  0.60375000  1.0
  C  C90  1  0.00829000  0.73414000  0.43558000  1.0
  C  C91  1  0.99170000  0.26586000  0.56441000  1.0
  C  C92  1  0.39823000  0.00805000  0.43782000  1.0
  C  C93  1  0.60177000  0.99196000  0.56218000  1.0
  C  C94  1  0.40793000  0.10293000  0.46353000  1.0
  C  C95  1  0.59207000  0.89708000  0.53647000  1.0
  C  C96  1  0.49035000  0.90539000  0.47511000  1.0
  C  C97  1  0.50965000  0.09462000  0.52489000  1.0
  C  C98  1  0.29016000  0.01387000  0.37220000  1.0
  C  C99  1  0.70983000  0.98614000  0.62780000  1.0
  C  C100  1  0.45753000  0.39995000  0.06218000  1.0
  C  C101  1  0.54247000  0.60005000  0.93782000  1.0
  C  C102  1  0.57955000  0.39955000  0.97640000  1.0
  C  C103  1  0.42046000  0.60045000  0.02360000  1.0
  C  C104  1  0.37794000  0.50155000  0.08534000  1.0
  C  C105  1  0.62206000  0.49845000  0.91466000  1.0
  C  C106  1  0.42032000  0.29037000  0.12690000  1.0
  C  C107  1  0.57968000  0.70963000  0.87310000  1.0
  C  C108  1  0.02096000  0.59865000  0.01182000  1.0
  C  C109  1  0.97904000  0.40135000  0.98818000  1.0
  C  C110  1  0.02459000  0.58729000  0.90952000  1.0
  C  C111  1  0.97540000  0.41271000  0.09048000  1.0
  C  C112  1  0.99566000  0.51056000  0.10269000  1.0
  C  C113  1  0.00433000  0.48944000  0.89731000  1.0
  C  C114  1  0.04650000  0.70509000  0.01880000  1.0
  C  C115  1  0.95350000  0.29491000  0.98120000  1.0
  N  N116  1  0.91727000  0.04369000  0.32344000  1.0
  N  N117  1  0.08273000  0.95630000  0.67657000  1.0
  N  N118  1  0.80828000  0.04807000  0.27125000  1.0
  N  N119  1  0.19173000  0.95193000  0.72875000  1.0
  N  N120  1  0.76196000  0.20238000  0.32496000  1.0
  N  N121  1  0.23804000  0.79762000  0.67504000  1.0
  N  N122  1  0.82516000  0.04575000  0.84859000  1.0
  N  N123  1  0.17485000  0.95425000  0.15141000  1.0
  N  N124  1  0.85359000  0.09832000  0.91473000  1.0
  N  N125  1  0.14641000  0.90167000  0.08528000  1.0
  N  N126  1  0.74844000  0.95905000  0.01455000  1.0
  N  N127  1  0.25157000  0.04095000  0.98545000  1.0
  O  O128  1  0.07509000  0.77034000  0.33749000  1.0
  O  O129  1  0.92491000  0.22966000  0.66251000  1.0
  O  O130  1  0.95672000  0.79187000  0.50285000  1.0
  O  O131  1  0.04327000  0.20813000  0.49715000  1.0
  O  O132  1  0.24575000  0.92268000  0.39124000  1.0
  O  O133  1  0.75426000  0.07732000  0.60876000  1.0
  O  O134  1  0.24680000  0.10175000  0.30353000  1.0
  O  O135  1  0.75321000  0.89825000  0.69647000  1.0
  O  O136  1  0.49222000  0.20126000  0.10615000  1.0
  O  O137  1  0.50778000  0.79874000  0.89385000  1.0
  O  O138  1  0.30759000  0.29553000  0.21063000  1.0
  O  O139  1  0.69240000  0.70447000  0.78937000  1.0
  O  O140  1  0.04919000  0.78766000  0.94162000  1.0
  O  O141  1  0.95081000  0.21234000  0.05838000  1.0
  O  O142  1  0.06834000  0.70234000  0.11529000  1.0
  O  O143  1  0.93165000  0.29765000  0.88471000  1.0
