# generated using pymatgen
data_AgH18C15SN3(OF)3
_symmetry_space_group_name_H-M   'P 1'
_cell_length_a   9.33710000
_cell_length_b   9.56037000
_cell_length_c   11.04730000
_cell_angle_alpha   75.16210000
_cell_angle_beta   85.50310000
_cell_angle_gamma   65.19590000
_symmetry_Int_Tables_number   1
_chemical_formula_structural   AgH18C15SN3(OF)3
_chemical_formula_sum   'Ag2 H36 C30 S2 N6 O6 F6'
_cell_volume   864.85100477
_cell_formula_units_Z   2
loop_
 _symmetry_equiv_pos_site_id
 _symmetry_equiv_pos_as_xyz
  1  'x, y, z'
loop_
 _atom_site_type_symbol
 _atom_site_label
 _atom_site_symmetry_multiplicity
 _atom_site_fract_x
 _atom_site_fract_y
 _atom_site_fract_z
 _atom_site_occupancy
  Ag  Ag0  1  0.46169000  0.72200000  0.34168000  1.0
  Ag  Ag1  1  0.53831000  0.27800000  0.65832000  1.0
  H  H2  1  0.79265000  0.51759000  0.26408000  1.0
  H  H3  1  0.20735000  0.48241000  0.73592000  1.0
  H  H4  1  0.06725000  0.49386000  0.27348000  1.0
  H  H5  1  0.93275000  0.50614000  0.72652000  1.0
  H  H6  1  0.89831000  0.84066000  0.49599000  1.0
  H  H7  1  0.10169000  0.15934000  0.50400000  1.0
  H  H8  1  0.62903000  0.85911000  0.47005000  1.0
  H  H9  1  0.37097000  0.14089000  0.52995000  1.0
  H  H10  1  0.19161000  0.66367000  0.48973000  1.0
  H  H11  1  0.80839000  0.33633000  0.51027000  1.0
  H  H12  1  0.25876000  0.53748000  0.38525000  1.0
  H  H13  1  0.74124000  0.46252000  0.61475000  1.0
  H  H14  1  0.12331000  0.94137000  0.41539000  1.0
  H  H15  1  0.87668000  0.05864000  0.58461000  1.0
  H  H16  1  0.98572000  0.97382000  0.29624000  1.0
  H  H17  1  0.01428000  0.02618000  0.70376000  1.0
  H  H18  1  0.09002000  0.17724000  0.24089000  1.0
  H  H19  1  0.90999000  0.82276000  0.75911000  1.0
  H  H20  1  0.28870000  0.02849000  0.25817000  1.0
  H  H21  1  0.71130000  0.97151000  0.74183000  1.0
  H  H22  1  0.37183000  0.85196000  0.09856000  1.0
  H  H23  1  0.62817000  0.14804000  0.90144000  1.0
  H  H24  1  0.22218000  0.89342000  0.98645000  1.0
  H  H25  1  0.77782000  0.10658000  0.01355000  1.0
  H  H26  1  0.06542000  0.80506000  0.15135000  1.0
  H  H27  1  0.93458000  0.19493000  0.84865000  1.0
  H  H28  1  0.26182000  0.65390000  0.16125000  1.0
  H  H29  1  0.73818000  0.34610000  0.83875000  1.0
  H  H30  1  0.20398000  0.14662000  0.91937000  1.0
  H  H31  1  0.79602000  0.85338000  0.08063000  1.0
  H  H32  1  0.32827000  0.14215000  0.03463000  1.0
  H  H33  1  0.67173000  0.85784000  0.96537000  1.0
  H  H34  1  0.88745000  0.29903000  0.05528000  1.0
  H  H35  1  0.11255000  0.70097000  0.94472000  1.0
  H  H36  1  0.28684000  0.41591000  0.96630000  1.0
  H  H37  1  0.71317000  0.58408000  0.03370000  1.0
  C  C38  1  0.82032000  0.59073000  0.31122000  1.0
  C  C39  1  0.17968000  0.40927000  0.68878000  1.0
  C  C40  1  0.97390000  0.57669000  0.31854000  1.0
  C  C41  1  0.02610000  0.42330000  0.68147000  1.0
  C  C42  1  0.00674000  0.66720000  0.38469000  1.0
  C  C43  1  0.99326000  0.33280000  0.61532000  1.0
  C  C44  1  0.88064000  0.76885000  0.44136000  1.0
  C  C45  1  0.11936000  0.23114000  0.55864000  1.0
  C  C46  1  0.72938000  0.77967000  0.42810000  1.0
  C  C47  1  0.27062000  0.22033000  0.57190000  1.0
  C  C48  1  0.17207000  0.65360000  0.39624000  1.0
  C  C49  1  0.82793000  0.34640000  0.60376000  1.0
  C  C50  1  0.11073000  0.93982000  0.31793000  1.0
  C  C51  1  0.88927000  0.06018000  0.68207000  1.0
  C  C52  1  0.16520000  0.05705000  0.23041000  1.0
  C  C53  1  0.83480000  0.94295000  0.76959000  1.0
  C  C54  1  0.24191000  0.89290000  0.08330000  1.0
  C  C55  1  0.75809000  0.10710000  0.91670000  1.0
  C  C56  1  0.19007000  0.77436000  0.17270000  1.0
  C  C57  1  0.80993000  0.22564000  0.82730000  1.0
  C  C58  1  0.20425000  0.16603000  0.01365000  1.0
  C  C59  1  0.79575000  0.83397000  0.98635000  1.0
  C  C60  1  0.09874000  0.33760000  0.01014000  1.0
  C  C61  1  0.90127000  0.66240000  0.98986000  1.0
  C  C62  1  0.93659000  0.38741000  0.02953000  1.0
  C  C63  1  0.06342000  0.61259000  0.97047000  1.0
  C  C64  1  0.16061000  0.45227000  0.98124000  1.0
  C  C65  1  0.83940000  0.54773000  0.01876000  1.0
  C  C66  1  0.52788000  0.25062000  0.22165000  1.0
  C  C67  1  0.47211000  0.74939000  0.77835000  1.0
  S  S68  1  0.63410000  0.25991000  0.35348000  1.0
  S  S69  1  0.36589000  0.74009000  0.64652000  1.0
  N  N70  1  0.69923000  0.69211000  0.36373000  1.0
  N  N71  1  0.30077000  0.30789000  0.63627000  1.0
  N  N72  1  0.20958000  0.77674000  0.30384000  1.0
  N  N73  1  0.79042000  0.22326000  0.69616000  1.0
  N  N74  1  0.15420000  0.05303000  0.10031000  1.0
  N  N75  1  0.84580000  0.94697000  0.89969000  1.0
  O  O76  1  0.53204000  0.41651000  0.37377000  1.0
  O  O77  1  0.46796000  0.58348000  0.62623000  1.0
  O  O78  1  0.63407000  0.12687000  0.45452000  1.0
  O  O79  1  0.36592000  0.87313000  0.54548000  1.0
  O  O80  1  0.78811000  0.24404000  0.30460000  1.0
  O  O81  1  0.21188000  0.75596000  0.69540000  1.0
  F  F82  1  0.37503000  0.27962000  0.25022000  1.0
  F  F83  1  0.62497000  0.72039000  0.74978000  1.0
  F  F84  1  0.52697000  0.36099000  0.11509000  1.0
  F  F85  1  0.47302000  0.63902000  0.88491000  1.0
  F  F86  1  0.59600000  0.10515000  0.19591000  1.0
  F  F87  1  0.40400000  0.89486000  0.80409000  1.0
