# generated using pymatgen
data_ZnH11C21(NO2)3
_symmetry_space_group_name_H-M   'P 1'
_cell_length_a   12.60970000
_cell_length_b   13.93660000
_cell_length_c   23.76660000
_cell_angle_alpha   89.81860000
_cell_angle_beta   88.75440000
_cell_angle_gamma   85.29490000
_symmetry_Int_Tables_number   1
_chemical_formula_structural   ZnH11C21(NO2)3
_chemical_formula_sum   'Zn2 H22 C42 N6 O12'
_cell_volume   4161.59283358
_cell_formula_units_Z   2
loop_
 _symmetry_equiv_pos_site_id
 _symmetry_equiv_pos_as_xyz
  1  'x, y, z'
loop_
 _atom_site_type_symbol
 _atom_site_label
 _atom_site_symmetry_multiplicity
 _atom_site_fract_x
 _atom_site_fract_y
 _atom_site_fract_z
 _atom_site_occupancy
  Zn  Zn0  1  0.60972000  0.50538000  0.49838000  1.0
  Zn  Zn1  1  0.39030000  0.49460000  0.50161000  1.0
  H  H2  1  0.33425000  0.49080000  0.78747000  1.0
  H  H3  1  0.55312000  0.73247000  0.94534000  1.0
  H  H4  1  0.45075000  0.26617000  0.94817000  1.0
  H  H5  1  0.54919000  0.73398000  0.05181000  1.0
  H  H6  1  0.62166000  0.97565000  0.49656000  1.0
  H  H7  1  0.37835000  0.02432000  0.50345000  1.0
  H  H8  1  0.90785000  0.43227000  0.57036000  1.0
  H  H9  1  0.00567000  0.35110000  0.64082000  1.0
  H  H10  1  0.07076000  0.46057000  0.63755000  1.0
  H  H11  1  0.12562000  0.35562000  0.60081000  1.0
  H  H12  1  0.09216000  0.56776000  0.42965000  1.0
  H  H13  1  0.66575000  0.50921000  0.21254000  1.0
  H  H14  1  0.99434000  0.64889000  0.35917000  1.0
  H  H15  1  0.87437000  0.64433000  0.39916000  1.0
  H  H16  1  0.92932000  0.53939000  0.36244000  1.0
  H  H17  1  0.33321000  0.49131000  0.68188000  1.0
  H  H18  1  0.66679000  0.50864000  0.31813000  1.0
  H  H19  1  0.67146000  0.50621000  0.67661000  1.0
  H  H20  1  0.32852000  0.49383000  0.32340000  1.0
  H  H21  1  0.67370000  0.50598000  0.78219000  1.0
  H  H22  1  0.32629000  0.49414000  0.21781000  1.0
  H  H23  1  0.44686000  0.26763000  0.05466000  1.0
  C  C24  1  0.54119000  0.31314000  0.49909000  1.0
  C  C25  1  0.40174000  0.49754000  0.29857000  1.0
  C  C26  1  0.59943000  0.50227000  0.75999000  1.0
  C  C27  1  0.40056000  0.49782000  0.24001000  1.0
  C  C28  1  0.50403000  0.49811000  0.79036000  1.0
  C  C29  1  0.49596000  0.50196000  0.20965000  1.0
  C  C30  1  0.44865000  0.79088000  0.50126000  1.0
  C  C31  1  0.55138000  0.20910000  0.49874000  1.0
  C  C32  1  0.45314000  0.97870000  0.50131000  1.0
  C  C33  1  0.54687000  0.02129000  0.49870000  1.0
  C  C34  1  0.55087000  0.12155000  0.49867000  1.0
  C  C35  1  0.45884000  0.68684000  0.50091000  1.0
  C  C36  1  0.44915000  0.87843000  0.50133000  1.0
  C  C37  1  0.97071000  0.52669000  0.47983000  1.0
  C  C38  1  0.02931000  0.47332000  0.52017000  1.0
  C  C39  1  0.50175000  0.49859000  0.61003000  1.0
  C  C40  1  0.49824000  0.50139000  0.38997000  1.0
  C  C41  1  0.14090000  0.47069000  0.51371000  1.0
  C  C42  1  0.85910000  0.52931000  0.48629000  1.0
  C  C43  1  0.51540000  0.58863000  0.12116000  1.0
  C  C44  1  0.48458000  0.41149000  0.87884000  1.0
  C  C45  1  0.47637000  0.41461000  0.12219000  1.0
  C  C46  1  0.40784000  0.49421000  0.76290000  1.0
  C  C47  1  0.52360000  0.58550000  0.87781000  1.0
  C  C48  1  0.47885000  0.41544000  0.05976000  1.0
  C  C49  1  0.52110000  0.58470000  0.94025000  1.0
  C  C50  1  0.49887000  0.50047000  0.03000000  1.0
  C  C51  1  0.50105000  0.49967000  0.97001000  1.0
  C  C52  1  0.51676000  0.58630000  0.05872000  1.0
  C  C53  1  0.48316000  0.41383000  0.94128000  1.0
  C  C54  1  0.46181000  0.33202000  0.03058000  1.0
  C  C55  1  0.53814000  0.66812000  0.96942000  1.0
  C  C56  1  0.46403000  0.33119000  0.97147000  1.0
  C  C57  1  0.59216000  0.50583000  0.23710000  1.0
  C  C58  1  0.53592000  0.66893000  0.02852000  1.0
  C  C59  1  0.05101000  0.39703000  0.61350000  1.0
  C  C60  1  0.94901000  0.60295000  0.38649000  1.0
  C  C61  1  0.40724000  0.49426000  0.70435000  1.0
  C  C62  1  0.59276000  0.50573000  0.29565000  1.0
  C  C63  1  0.50239000  0.49835000  0.67319000  1.0
  C  C64  1  0.49761000  0.50166000  0.32681000  1.0
  C  C65  1  0.59826000  0.50250000  0.70143000  1.0
  N  N66  1  0.49565000  0.50180000  0.14886000  1.0
  N  N67  1  0.50434000  0.49831000  0.85115000  1.0
  N  N68  1  0.76797000  0.52719000  0.49454000  1.0
  N  N69  1  0.23204000  0.47279000  0.50546000  1.0
  N  N70  1  0.98796000  0.42220000  0.56416000  1.0
  N  N71  1  0.01204000  0.57783000  0.43584000  1.0
  O  O72  1  0.62622000  0.35667000  0.49803000  1.0
  O  O73  1  0.46963000  0.33881000  0.85206000  1.0
  O  O74  1  0.45928000  0.34271000  0.14986000  1.0
  O  O75  1  0.54072000  0.65740000  0.85014000  1.0
  O  O76  1  0.37380000  0.64332000  0.50198000  1.0
  O  O77  1  0.44570000  0.35130000  0.50047000  1.0
  O  O78  1  0.55433000  0.64868000  0.49952000  1.0
  O  O79  1  0.59126000  0.50122000  0.58436000  1.0
  O  O80  1  0.40873000  0.49879000  0.41565000  1.0
  O  O81  1  0.41172000  0.49618000  0.58700000  1.0
  O  O82  1  0.58827000  0.50377000  0.41300000  1.0
  O  O83  1  0.53036000  0.66129000  0.14796000  1.0
