# generated using pymatgen
data_CoH6C6(NO)4
_symmetry_space_group_name_H-M   'P 1'
_cell_length_a   6.50030000
_cell_length_b   7.52782000
_cell_length_c   9.03253000
_cell_angle_alpha   99.31300000
_cell_angle_beta   92.77870000
_cell_angle_gamma   109.25600000
_symmetry_Int_Tables_number   1
_chemical_formula_structural   CoH6C6(NO)4
_chemical_formula_sum   'Co2 H12 C12 N8 O8'
_cell_volume   409.29429261
_cell_formula_units_Z   2
loop_
 _symmetry_equiv_pos_site_id
 _symmetry_equiv_pos_as_xyz
  1  'x, y, z'
loop_
 _atom_site_type_symbol
 _atom_site_label
 _atom_site_symmetry_multiplicity
 _atom_site_fract_x
 _atom_site_fract_y
 _atom_site_fract_z
 _atom_site_occupancy
  Co  Co0  1  0.00000000  0.50000000  0.50000000  1.0
  Co  Co1  1  0.00000000  0.00000000  0.50000000  1.0
  H  H2  1  0.30176000  0.70132000  0.93338000  1.0
  H  H3  1  0.69824000  0.29869000  0.06663000  1.0
  H  H4  1  0.36203000  0.78566000  0.21674000  1.0
  H  H5  1  0.63797000  0.21433000  0.78327000  1.0
  H  H6  1  0.20709000  0.21721000  0.25574000  1.0
  H  H7  1  0.79291000  0.78278000  0.74425000  1.0
  H  H8  1  0.14195000  0.10888000  0.97066000  1.0
  H  H9  1  0.85805000  0.89111000  0.02933000  1.0
  H  H10  1  0.44456000  0.26283000  0.52498000  1.0
  H  H11  1  0.55545000  0.73717000  0.47502000  1.0
  H  H12  1  0.39729000  0.09344000  0.38533000  1.0
  H  H13  1  0.60271000  0.90655000  0.61467000  1.0
  C  C14  1  0.20467000  0.39583000  0.92986000  1.0
  C  C15  1  0.79533000  0.60418000  0.07014000  1.0
  C  C16  1  0.27606000  0.58888000  0.99990000  1.0
  C  C17  1  0.72394000  0.41113000  0.00011000  1.0
  C  C18  1  0.31009000  0.63885000  0.15548000  1.0
  C  C19  1  0.68991000  0.36115000  0.84453000  1.0
  C  C20  1  0.22210000  0.31375000  0.17679000  1.0
  C  C21  1  0.77789000  0.68623000  0.82321000  1.0
  C  C22  1  0.18552000  0.25928000  0.02173000  1.0
  C  C23  1  0.81448000  0.74073000  0.97826000  1.0
  C  C24  1  0.13869000  0.33617000  0.76287000  1.0
  C  C25  1  0.86131000  0.66384000  0.23713000  1.0
  N  N26  1  0.27651000  0.50188000  0.24186000  1.0
  N  N27  1  0.72348000  0.49811000  0.75815000  1.0
  N  N28  1  0.90195000  0.20672000  0.40933000  1.0
  N  N29  1  0.09805000  0.79328000  0.59067000  1.0
  N  N30  1  0.74308000  0.14059000  0.31762000  1.0
  N  N31  1  0.25693000  0.85941000  0.68238000  1.0
  N  N32  1  0.58624000  0.07662000  0.23020000  1.0
  N  N33  1  0.41376000  0.92338000  0.76979000  1.0
  O  O34  1  0.16829000  0.47052000  0.68833000  1.0
  O  O35  1  0.83171000  0.52950000  0.31167000  1.0
  O  O36  1  0.05273000  0.15633000  0.71285000  1.0
  O  O37  1  0.94727000  0.84367000  0.28715000  1.0
  O  O38  1  0.29597000  0.55266000  0.39178000  1.0
  O  O39  1  0.70403000  0.44733000  0.60822000  1.0
  O  O40  1  0.33284000  0.14002000  0.47323000  1.0
  O  O41  1  0.66716000  0.85998000  0.52677000  1.0
