# generated using pymatgen
data_CdH14C22O9
_symmetry_space_group_name_H-M   'P 1'
_cell_length_a   4.79092000
_cell_length_b   12.98560000
_cell_length_c   15.21390000
_cell_angle_alpha   91.90700000
_cell_angle_beta   95.73620000
_cell_angle_gamma   91.19110000
_symmetry_Int_Tables_number   1
_chemical_formula_structural   CdH14C22O9
_chemical_formula_sum   'Cd2 H28 C44 O18'
_cell_volume   940.96408617
_cell_formula_units_Z   2
loop_
 _symmetry_equiv_pos_site_id
 _symmetry_equiv_pos_as_xyz
  1  'x, y, z'
loop_
 _atom_site_type_symbol
 _atom_site_label
 _atom_site_symmetry_multiplicity
 _atom_site_fract_x
 _atom_site_fract_y
 _atom_site_fract_z
 _atom_site_occupancy
  Cd  Cd0  1  0.18509000  0.22633000  0.78865000  1.0
  Cd  Cd1  1  0.81490000  0.77367000  0.21135000  1.0
  H  H2  1  0.52704000  0.51411000  0.27426000  1.0
  H  H3  1  0.47296000  0.48589000  0.72574000  1.0
  H  H4  1  0.82518000  0.16618000  0.61835000  1.0
  H  H5  1  0.17482000  0.83382000  0.38165000  1.0
  H  H6  1  0.08272000  0.40734000  0.88709000  1.0
  H  H7  1  0.91728000  0.59266000  0.11291000  1.0
  H  H8  1  0.41274000  0.40589000  0.87675000  1.0
  H  H9  1  0.58726000  0.59411000  0.12325000  1.0
  H  H10  1  0.42004000  0.97401000  0.83731000  1.0
  H  H11  1  0.57996000  0.02599000  0.16269000  1.0
  H  H12  1  0.58016000  0.28383000  0.98965000  1.0
  H  H13  1  0.41983000  0.71617000  0.01035000  1.0
  H  H14  1  0.85234000  0.43863000  0.04702000  1.0
  H  H15  1  0.14766000  0.56137000  0.95298000  1.0
  H  H16  1  0.32263000  0.25678000  0.23960000  1.0
  H  H17  1  0.67737000  0.74323000  0.76040000  1.0
  H  H18  1  0.06596000  0.09906000  0.17577000  1.0
  H  H19  1  0.93404000  0.90094000  0.82423000  1.0
  H  H20  1  0.33382000  0.89107000  0.69679000  1.0
  H  H21  1  0.66618000  0.10893000  0.30321000  1.0
  H  H22  1  0.34608000  0.70744000  0.64548000  1.0
  H  H23  1  0.65392000  0.29256000  0.35452000  1.0
  H  H24  1  0.60766000  0.75076000  0.46531000  1.0
  H  H25  1  0.39235000  0.24924000  0.53470000  1.0
  H  H26  1  0.59871000  0.93221000  0.51531000  1.0
  H  H27  1  0.40129000  0.06779000  0.48469000  1.0
  H  H28  1  0.07418000  0.56084000  0.65589000  1.0
  H  H29  1  0.92582000  0.43916000  0.34411000  1.0
  C  C30  1  0.76130000  0.13525000  0.88348000  1.0
  C  C31  1  0.23870000  0.86475000  0.11652000  1.0
  C  C32  1  0.61158000  0.07062000  0.94466000  1.0
  C  C33  1  0.38841000  0.92938000  0.05534000  1.0
  C  C34  1  0.45326000  0.98517000  0.90896000  1.0
  C  C35  1  0.54674000  0.01483000  0.09104000  1.0
  C  C36  1  0.65852000  0.08698000  0.03715000  1.0
  C  C37  1  0.34148000  0.91302000  0.96285000  1.0
  C  C38  1  0.81075000  0.17990000  0.07675000  1.0
  C  C39  1  0.18925000  0.82010000  0.92325000  1.0
  C  C40  1  0.74893000  0.27702000  0.04255000  1.0
  C  C41  1  0.25107000  0.72298000  0.95745000  1.0
  C  C42  1  0.89734000  0.36467000  0.07640000  1.0
  C  C43  1  0.10266000  0.63533000  0.92360000  1.0
  C  C44  1  0.10579000  0.35835000  0.14771000  1.0
  C  C45  1  0.89421000  0.64165000  0.85229000  1.0
  C  C46  1  0.16116000  0.26214000  0.18442000  1.0
  C  C47  1  0.83883000  0.73786000  0.81558000  1.0
  C  C48  1  0.01625000  0.17402000  0.14895000  1.0
  C  C49  1  0.98375000  0.82598000  0.85105000  1.0
  C  C50  1  0.26617000  0.45245000  0.18009000  1.0
  C  C51  1  0.73383000  0.54755000  0.81991000  1.0
  C  C52  1  0.97508000  0.03307000  0.64117000  1.0
  C  C53  1  0.02492000  0.96693000  0.35883000  1.0
  C  C54  1  0.96718000  0.92389000  0.60972000  1.0
  C  C55  1  0.03283000  0.07611000  0.39028000  1.0
  C  C56  1  0.17542000  0.85923000  0.64637000  1.0
  C  C57  1  0.82458000  0.14077000  0.35363000  1.0
  C  C58  1  0.18152000  0.75694000  0.61757000  1.0
  C  C59  1  0.81849000  0.24306000  0.38243000  1.0
  C  C60  1  0.98088000  0.71667000  0.55082000  1.0
  C  C61  1  0.01913000  0.28334000  0.44918000  1.0
  C  C62  1  0.77050000  0.78140000  0.51509000  1.0
  C  C63  1  0.22951000  0.21860000  0.48491000  1.0
  C  C64  1  0.76380000  0.88389000  0.54405000  1.0
  C  C65  1  0.23620000  0.11611000  0.45595000  1.0
  C  C66  1  0.99247000  0.60732000  0.52213000  1.0
  C  C67  1  0.00753000  0.39268000  0.47787000  1.0
  C  C68  1  0.04697000  0.53414000  0.58691000  1.0
  C  C69  1  0.95303000  0.46586000  0.41309000  1.0
  C  C70  1  0.94562000  0.57138000  0.43318000  1.0
  C  C71  1  0.05438000  0.42862000  0.56682000  1.0
  C  C72  1  0.89505000  0.64079000  0.35672000  1.0
  C  C73  1  0.10495000  0.35921000  0.64327000  1.0
  O  O74  1  0.02590000  0.14129000  0.90021000  1.0
  O  O75  1  0.97410000  0.85871000  0.09979000  1.0
  O  O76  1  0.63568000  0.17701000  0.81585000  1.0
  O  O77  1  0.36432000  0.82299000  0.18416000  1.0
  O  O78  1  0.25079000  0.53511000  0.13989000  1.0
  O  O79  1  0.74921000  0.46489000  0.86011000  1.0
  O  O80  1  0.43115000  0.44418000  0.25501000  1.0
  O  O81  1  0.56885000  0.55582000  0.74499000  1.0
  O  O82  1  0.15249000  0.06614000  0.70131000  1.0
  O  O83  1  0.84751000  0.93386000  0.29869000  1.0
  O  O84  1  0.78351000  0.09194000  0.59955000  1.0
  O  O85  1  0.21650000  0.90806000  0.40045000  1.0
  O  O86  1  0.05881000  0.71768000  0.34807000  1.0
  O  O87  1  0.94118000  0.28232000  0.65193000  1.0
  O  O88  1  0.68922000  0.61902000  0.29881000  1.0
  O  O89  1  0.31078000  0.38098000  0.70119000  1.0
  O  O90  1  0.25171000  0.36459000  0.89350000  1.0
  O  O91  1  0.74829000  0.63541000  0.10650000  1.0
