# generated using pymatgen
data_VCuPH12C17N2O7
_symmetry_space_group_name_H-M   'P 1'
_cell_length_a   9.51968000
_cell_length_b   9.54344000
_cell_length_c   10.85630000
_cell_angle_alpha   111.47900000
_cell_angle_beta   95.85770000
_cell_angle_gamma   110.63200000
_symmetry_Int_Tables_number   1
_chemical_formula_structural   VCuPH12C17N2O7
_chemical_formula_sum   'V2 Cu2 P2 H24 C34 N4 O14'
_cell_volume   828.14852238
_cell_formula_units_Z   2
loop_
 _symmetry_equiv_pos_site_id
 _symmetry_equiv_pos_as_xyz
  1  'x, y, z'
loop_
 _atom_site_type_symbol
 _atom_site_label
 _atom_site_symmetry_multiplicity
 _atom_site_fract_x
 _atom_site_fract_y
 _atom_site_fract_z
 _atom_site_occupancy
  V  V0  1  0.84695000  0.46424000  0.27394000  1.0
  V  V1  1  0.15305000  0.53575000  0.72605000  1.0
  Cu  Cu2  1  0.60908000  0.13082000  0.24919000  1.0
  Cu  Cu3  1  0.39092000  0.86919000  0.75081000  1.0
  P  P4  1  0.00615000  0.29995000  0.40007000  1.0
  P  P5  1  0.99385000  0.70005000  0.59993000  1.0
  H  H6  1  0.26652000  0.37422000  0.28414000  1.0
  H  H7  1  0.73348000  0.62578000  0.71586000  1.0
  H  H8  1  0.35371000  0.20031000  0.10616000  1.0
  H  H9  1  0.64629000  0.79969000  0.89384000  1.0
  H  H10  1  0.98055000  0.76010000  0.07402000  1.0
  H  H11  1  0.01945000  0.23989000  0.92598000  1.0
  H  H12  1  0.89329000  0.93512000  0.25228000  1.0
  H  H13  1  0.10671000  0.06488000  0.74772000  1.0
  H  H14  1  0.63425000  0.43302000  0.48902000  1.0
  H  H15  1  0.36574000  0.56698000  0.51098000  1.0
  H  H16  1  0.47899000  0.48225000  0.66476000  1.0
  H  H17  1  0.52100000  0.51776000  0.33524000  1.0
  H  H18  1  0.26563000  0.23852000  0.66336000  1.0
  H  H19  1  0.73437000  0.76148000  0.33664000  1.0
  H  H20  1  0.21544000  0.95286000  0.49518000  1.0
  H  H21  1  0.78456000  0.04714000  0.50482000  1.0
  H  H22  1  0.18075000  0.72402000  0.33656000  1.0
  H  H23  1  0.81925000  0.27598000  0.66344000  1.0
  H  H24  1  0.15569000  0.46861000  0.14233000  1.0
  H  H25  1  0.84431000  0.53139000  0.85767000  1.0
  H  H26  1  0.34444000  0.49331000  0.99535000  1.0
  H  H27  1  0.65556000  0.50669000  0.00465000  1.0
  H  H28  1  0.54508000  0.77839000  0.04883000  1.0
  H  H29  1  0.45493000  0.22161000  0.95118000  1.0
  C  C30  1  0.07376000  0.16656000  0.27959000  1.0
  C  C31  1  0.92624000  0.83344000  0.72041000  1.0
  C  C32  1  0.20465000  0.23965000  0.23867000  1.0
  C  C33  1  0.79536000  0.76035000  0.76134000  1.0
  C  C34  1  0.25211000  0.14250000  0.13740000  1.0
  C  C35  1  0.74789000  0.85750000  0.86260000  1.0
  C  C36  1  0.16891000  0.96920000  0.07404000  1.0
  C  C37  1  0.83110000  0.03080000  0.92596000  1.0
  C  C38  1  0.21232000  0.86890000  0.95508000  1.0
  C  C39  1  0.78769000  0.13110000  0.04492000  1.0
  C  C40  1  0.04211000  0.89472000  0.11867000  1.0
  C  C41  1  0.95789000  0.10528000  0.88132000  1.0
  C  C42  1  0.99462000  0.99306000  0.22050000  1.0
  C  C43  1  0.00538000  0.00694000  0.77950000  1.0
  C  C44  1  0.53902000  0.33179000  0.49393000  1.0
  C  C45  1  0.46098000  0.66821000  0.50607000  1.0
  C  C46  1  0.45442000  0.35722000  0.59089000  1.0
  C  C47  1  0.54558000  0.64278000  0.40911000  1.0
  C  C48  1  0.33490000  0.22040000  0.58992000  1.0
  C  C49  1  0.66509000  0.77961000  0.41008000  1.0
  C  C50  1  0.30390000  0.06170000  0.49362000  1.0
  C  C51  1  0.69609000  0.93831000  0.50637000  1.0
  C  C52  1  0.39212000  0.04470000  0.39844000  1.0
  C  C53  1  0.60788000  0.95530000  0.60156000  1.0
  C  C54  1  0.37133000  0.88498000  0.29146000  1.0
  C  C55  1  0.62866000  0.11502000  0.70854000  1.0
  C  C56  1  0.25863000  0.73141000  0.27023000  1.0
  C  C57  1  0.74136000  0.26859000  0.72977000  1.0
  C  C58  1  0.24686000  0.58839000  0.16246000  1.0
  C  C59  1  0.75314000  0.41160000  0.83754000  1.0
  C  C60  1  0.35145000  0.60169000  0.08190000  1.0
  C  C61  1  0.64856000  0.39831000  0.91810000  1.0
  C  C62  1  0.46229000  0.75868000  0.10953000  1.0
  C  C63  1  0.53771000  0.24132000  0.89047000  1.0
  N  N64  1  0.50648000  0.17917000  0.39932000  1.0
  N  N65  1  0.49352000  0.82083000  0.60067000  1.0
  N  N66  1  0.47046000  0.89655000  0.21053000  1.0
  N  N67  1  0.52954000  0.10345000  0.78947000  1.0
  O  O68  1  0.02317000  0.44055000  0.35210000  1.0
  O  O69  1  0.97683000  0.55945000  0.64790000  1.0
  O  O70  1  0.12980000  0.38139000  0.53948000  1.0
  O  O71  1  0.87020000  0.61861000  0.46052000  1.0
  O  O72  1  0.84080000  0.20223000  0.39723000  1.0
  O  O73  1  0.15920000  0.79777000  0.60277000  1.0
  O  O74  1  0.32013000  0.95136000  0.91516000  1.0
  O  O75  1  0.67987000  0.04864000  0.08484000  1.0
  O  O76  1  0.13733000  0.71134000  0.90081000  1.0
  O  O77  1  0.86267000  0.28866000  0.09919000  1.0
  O  O78  1  0.87228000  0.59444000  0.20682000  1.0
  O  O79  1  0.12772000  0.40556000  0.79318000  1.0
  O  O80  1  0.65479000  0.34453000  0.24037000  1.0
  O  O81  1  0.34521000  0.65547000  0.75963000  1.0
