# generated using pymatgen
data_ZnH16C25N2O7
_symmetry_space_group_name_H-M   'P 1'
_cell_length_a   11.26780000
_cell_length_b   15.24340000
_cell_length_c   16.31640000
_cell_angle_alpha   90.00010000
_cell_angle_beta   90.00030000
_cell_angle_gamma   79.50000000
_symmetry_Int_Tables_number   1
_chemical_formula_structural   ZnH16C25N2O7
_chemical_formula_sum   'Zn4 H64 C100 N8 O28'
_cell_volume   2755.56996325
_cell_formula_units_Z   4
loop_
 _symmetry_equiv_pos_site_id
 _symmetry_equiv_pos_as_xyz
  1  'x, y, z'
loop_
 _atom_site_type_symbol
 _atom_site_label
 _atom_site_symmetry_multiplicity
 _atom_site_fract_x
 _atom_site_fract_y
 _atom_site_fract_z
 _atom_site_occupancy
  Zn  Zn0  1  0.20804000  0.91460000  0.01443000  1.0
  Zn  Zn1  1  0.79196000  0.58539000  0.51443000  1.0
  Zn  Zn2  1  0.79197000  0.08539000  0.98557000  1.0
  Zn  Zn3  1  0.20804000  0.41461000  0.48557000  1.0
  H  H4  1  0.01552000  0.63540000  0.31370000  1.0
  H  H5  1  0.98450000  0.86459000  0.81368000  1.0
  H  H6  1  0.98451000  0.36459000  0.68631000  1.0
  H  H7  1  0.01548000  0.13541000  0.18632000  1.0
  H  H8  1  0.62520000  0.78608000  0.99386000  1.0
  H  H9  1  0.37481000  0.71392000  0.49386000  1.0
  H  H10  1  0.37481000  0.21391000  0.00613000  1.0
  H  H11  1  0.62520000  0.28609000  0.50614000  1.0
  H  H12  1  0.68877000  0.62095000  0.97461000  1.0
  H  H13  1  0.31124000  0.87906000  0.47460000  1.0
  H  H14  1  0.31125000  0.37905000  0.02538000  1.0
  H  H15  1  0.68876000  0.12095000  0.52539000  1.0
  H  H16  1  0.90632000  0.55654000  0.95162000  1.0
  H  H17  1  0.09368000  0.94347000  0.45161000  1.0
  H  H18  1  0.09369000  0.44346000  0.04838000  1.0
  H  H19  1  0.90631000  0.05654000  0.54838000  1.0
  H  H20  1  0.29435000  0.55678000  0.92663000  1.0
  H  H21  1  0.70564000  0.94322000  0.42663000  1.0
  H  H22  1  0.70565000  0.44322000  0.07337000  1.0
  H  H23  1  0.29435000  0.05678000  0.57337000  1.0
  H  H24  1  0.43598000  0.49594000  0.03943000  1.0
  H  H25  1  0.56401000  0.00407000  0.53944000  1.0
  H  H26  1  0.56403000  0.50406000  0.96056000  1.0
  H  H27  1  0.43597000  0.99594000  0.46056000  1.0
  H  H28  1  0.37072000  0.51852000  0.18576000  1.0
  H  H29  1  0.62929000  0.98147000  0.68576000  1.0
  H  H30  1  0.62930000  0.48147000  0.81424000  1.0
  H  H31  1  0.37070000  0.01853000  0.31424000  1.0
  H  H32  1  0.02432000  0.65986000  0.10646000  1.0
  H  H33  1  0.97568000  0.84013000  0.60646000  1.0
  H  H34  1  0.97569000  0.34013000  0.89354000  1.0
  H  H35  1  0.02430000  0.15986000  0.39355000  1.0
  H  H36  1  0.84449000  0.68576000  0.66432000  1.0
  H  H37  1  0.15552000  0.81424000  0.16432000  1.0
  H  H38  1  0.15552000  0.31424000  0.33568000  1.0
  H  H39  1  0.84448000  0.18576000  0.83568000  1.0
  H  H40  1  0.72701000  0.76036000  0.78373000  1.0
  H  H41  1  0.27299000  0.73965000  0.28373000  1.0
  H  H42  1  0.27299000  0.23963000  0.21628000  1.0
  H  H43  1  0.72701000  0.26036000  0.71627000  1.0
  H  H44  1  0.42733000  0.64067000  0.70201000  1.0
  H  H45  1  0.57268000  0.85933000  0.20202000  1.0
  H  H46  1  0.57268000  0.35933000  0.29799000  1.0
  H  H47  1  0.42733000  0.14067000  0.79799000  1.0
  H  H48  1  0.56038000  0.56630000  0.59040000  1.0
  H  H49  1  0.43962000  0.93370000  0.09040000  1.0
  H  H50  1  0.43962000  0.43370000  0.40960000  1.0
  H  H51  1  0.56038000  0.06630000  0.90960000  1.0
  H  H52  1  0.24516000  0.74137000  0.93572000  1.0
  H  H53  1  0.75484000  0.75862000  0.43574000  1.0
  H  H54  1  0.75484000  0.25863000  0.06426000  1.0
  H  H55  1  0.24516000  0.24138000  0.56426000  1.0
  H  H56  1  0.38185000  0.65270000  0.83455000  1.0
  H  H57  1  0.61815000  0.84729000  0.33457000  1.0
  H  H58  1  0.61815000  0.34729000  0.16544000  1.0
  H  H59  1  0.38184000  0.15271000  0.66543000  1.0
  H  H60  1  0.57569000  0.87312000  0.81984000  1.0
  H  H61  1  0.42430000  0.62688000  0.31984000  1.0
  H  H62  1  0.42431000  0.12687000  0.18016000  1.0
  H  H63  1  0.57569000  0.37312000  0.68016000  1.0
  H  H64  1  0.43004000  0.95202000  0.92370000  1.0
  H  H65  1  0.56996000  0.54798000  0.42369000  1.0
  H  H66  1  0.56996000  0.04798000  0.07630000  1.0
  H  H67  1  0.43004000  0.45203000  0.57631000  1.0
  C  C68  1  0.76006000  0.91166000  0.98986000  1.0
  C  C69  1  0.23995000  0.58835000  0.48987000  1.0
  C  C70  1  0.23995000  0.08834000  0.01014000  1.0
  C  C71  1  0.76005000  0.41166000  0.51014000  1.0
  C  C72  1  0.02290000  0.83351000  0.96129000  1.0
  C  C73  1  0.97710000  0.66649000  0.46130000  1.0
  C  C74  1  0.97710000  0.16649000  0.03871000  1.0
  C  C75  1  0.02290000  0.33351000  0.53871000  1.0
  C  C76  1  0.92622000  0.77724000  0.96664000  1.0
  C  C77  1  0.07378000  0.72277000  0.46665000  1.0
  C  C78  1  0.07379000  0.22276000  0.03336000  1.0
  C  C79  1  0.92621000  0.27724000  0.53336000  1.0
  C  C80  1  0.80348000  0.81316000  0.97956000  1.0
  C  C81  1  0.19653000  0.68685000  0.47957000  1.0
  C  C82  1  0.19653000  0.18685000  0.02043000  1.0
  C  C83  1  0.80347000  0.31316000  0.52043000  1.0
  C  C84  1  0.71927000  0.75628000  0.98314000  1.0
  C  C85  1  0.28074000  0.74372000  0.48314000  1.0
  C  C86  1  0.28075000  0.24371000  0.01685000  1.0
  C  C87  1  0.71926000  0.25629000  0.51686000  1.0
  C  C88  1  0.75491000  0.66467000  0.97287000  1.0
  C  C89  1  0.24510000  0.83534000  0.47287000  1.0
  C  C90  1  0.24511000  0.33533000  0.02711000  1.0
  C  C91  1  0.75490000  0.16467000  0.52712000  1.0
  C  C92  1  0.87634000  0.62808000  0.96018000  1.0
  C  C93  1  0.12367000  0.87192000  0.46018000  1.0
  C  C94  1  0.12368000  0.37191000  0.03981000  1.0
  C  C95  1  0.87633000  0.12808000  0.53982000  1.0
  C  C96  1  0.96039000  0.68466000  0.95826000  1.0
  C  C97  1  0.03961000  0.81534000  0.45826000  1.0
  C  C98  1  0.03962000  0.31534000  0.04174000  1.0
  C  C99  1  0.96038000  0.18466000  0.54174000  1.0
  C  C100  1  0.15228000  0.61345000  0.00972000  1.0
  C  C101  1  0.84771000  0.88654000  0.50972000  1.0
  C  C102  1  0.84773000  0.38655000  0.99029000  1.0
  C  C103  1  0.15228000  0.11346000  0.49029000  1.0
  C  C104  1  0.26814000  0.56697000  0.99074000  1.0
  C  C105  1  0.73186000  0.93303000  0.49074000  1.0
  C  C106  1  0.73188000  0.43303000  0.00926000  1.0
  C  C107  1  0.26813000  0.06697000  0.50926000  1.0
  C  C108  1  0.34664000  0.53345000  0.05402000  1.0
  C  C109  1  0.65336000  0.96655000  0.55403000  1.0
  C  C110  1  0.65338000  0.46655000  0.94598000  1.0
  C  C111  1  0.34662000  0.03345000  0.44598000  1.0
  C  C112  1  0.31096000  0.54501000  0.13563000  1.0
  C  C113  1  0.68905000  0.95498000  0.63563000  1.0
  C  C114  1  0.68906000  0.45498000  0.86437000  1.0
  C  C115  1  0.31093000  0.04502000  0.36437000  1.0
  C  C116  1  0.19441000  0.59005000  0.15401000  1.0
  C  C117  1  0.80559000  0.90995000  0.65401000  1.0
  C  C118  1  0.80560000  0.40994000  0.84599000  1.0
  C  C119  1  0.19439000  0.09006000  0.34600000  1.0
  C  C120  1  0.11432000  0.62432000  0.09120000  1.0
  C  C121  1  0.88567000  0.87568000  0.59120000  1.0
  C  C122  1  0.88568000  0.37567000  0.90880000  1.0
  C  C123  1  0.11431000  0.12432000  0.40881000  1.0
  C  C124  1  0.15789000  0.60111000  0.24225000  1.0
  C  C125  1  0.84212000  0.89888000  0.74225000  1.0
  C  C126  1  0.84212000  0.39887000  0.75775000  1.0
  C  C127  1  0.15785000  0.10112000  0.25776000  1.0
  C  C128  1  0.75251000  0.67653000  0.67668000  1.0
  C  C129  1  0.24750000  0.82348000  0.17668000  1.0
  C  C130  1  0.24750000  0.32347000  0.32332000  1.0
  C  C131  1  0.75250000  0.17653000  0.82332000  1.0
  C  C132  1  0.68622000  0.71859000  0.74200000  1.0
  C  C133  1  0.31379000  0.78142000  0.24200000  1.0
  C  C134  1  0.31379000  0.28141000  0.25800000  1.0
  C  C135  1  0.68621000  0.21859000  0.75800000  1.0
  C  C136  1  0.56625000  0.70769000  0.75233000  1.0
  C  C137  1  0.43375000  0.79231000  0.25233000  1.0
  C  C138  1  0.43375000  0.29230000  0.24767000  1.0
  C  C139  1  0.56625000  0.20769000  0.74766000  1.0
  C  C140  1  0.52036000  0.65086000  0.69778000  1.0
  C  C141  1  0.47963000  0.84915000  0.19779000  1.0
  C  C142  1  0.47964000  0.34914000  0.30222000  1.0
  C  C143  1  0.52036000  0.15085000  0.80222000  1.0
  C  C144  1  0.59265000  0.61019000  0.63466000  1.0
  C  C145  1  0.40736000  0.88981000  0.13467000  1.0
  C  C146  1  0.40735000  0.38981000  0.36533000  1.0
  C  C147  1  0.59265000  0.11019000  0.86533000  1.0
  C  C148  1  0.31909000  0.76795000  0.90828000  1.0
  C  C149  1  0.68091000  0.73205000  0.40829000  1.0
  C  C150  1  0.68091000  0.23205000  0.09171000  1.0
  C  C151  1  0.31909000  0.26796000  0.59171000  1.0
  C  C152  1  0.39524000  0.71935000  0.85140000  1.0
  C  C153  1  0.60475000  0.78065000  0.35141000  1.0
  C  C154  1  0.60475000  0.28065000  0.14859000  1.0
  C  C155  1  0.39524000  0.21935000  0.64859000  1.0
  C  C156  1  0.48866000  0.75637000  0.81642000  1.0
  C  C157  1  0.51135000  0.74363000  0.31642000  1.0
  C  C158  1  0.51135000  0.24363000  0.18358000  1.0
  C  C159  1  0.48865000  0.25637000  0.68358000  1.0
  C  C160  1  0.50306000  0.84133000  0.84303000  1.0
  C  C161  1  0.49693000  0.65867000  0.34303000  1.0
  C  C162  1  0.49694000  0.15867000  0.15697000  1.0
  C  C163  1  0.50307000  0.34133000  0.65697000  1.0
  C  C164  1  0.42283000  0.88613000  0.90044000  1.0
  C  C165  1  0.57717000  0.61387000  0.40045000  1.0
  C  C166  1  0.57717000  0.11387000  0.09955000  1.0
  C  C167  1  0.42283000  0.38614000  0.59956000  1.0
  N  N168  1  0.33163000  0.85046000  0.93191000  1.0
  N  N169  1  0.66836000  0.64953000  0.43191000  1.0
  N  N170  1  0.66836000  0.14953000  0.06809000  1.0
  N  N171  1  0.33164000  0.35047000  0.56809000  1.0
  N  N172  1  0.70608000  0.62434000  0.62334000  1.0
  N  N173  1  0.29393000  0.87566000  0.12334000  1.0
  N  N174  1  0.29393000  0.37566000  0.37666000  1.0
  N  N175  1  0.70607000  0.12434000  0.87666000  1.0
  O  O176  1  0.64934000  0.94274000  0.99322000  1.0
  O  O177  1  0.35066000  0.55726000  0.49322000  1.0
  O  O178  1  0.35067000  0.05726000  0.00678000  1.0
  O  O179  1  0.64933000  0.44275000  0.50678000  1.0
  O  O180  1  0.84523000  0.95826000  0.99513000  1.0
  O  O181  1  0.15477000  0.54175000  0.49514000  1.0
  O  O182  1  0.15478000  0.04174000  0.00487000  1.0
  O  O183  1  0.84523000  0.45826000  0.50487000  1.0
  O  O184  1  0.08290000  0.83899000  0.02745000  1.0
  O  O185  1  0.91710000  0.66102000  0.52746000  1.0
  O  O186  1  0.91711000  0.16101000  0.97255000  1.0
  O  O187  1  0.08290000  0.33899000  0.47255000  1.0
  O  O188  1  0.04859000  0.86543000  0.89386000  1.0
  O  O189  1  0.95140000  0.63457000  0.39387000  1.0
  O  O190  1  0.95140000  0.13457000  0.10614000  1.0
  O  O191  1  0.04860000  0.36543000  0.60614000  1.0
  O  O192  1  0.08213000  0.64819000  0.94383000  1.0
  O  O193  1  0.91787000  0.85181000  0.44384000  1.0
  O  O194  1  0.91789000  0.35181000  0.05617000  1.0
  O  O195  1  0.08212000  0.14819000  0.55617000  1.0
  O  O196  1  0.04126000  0.63310000  0.25222000  1.0
  O  O197  1  0.95875000  0.86689000  0.75221000  1.0
  O  O198  1  0.95875000  0.36688000  0.74778000  1.0
  O  O199  1  0.04122000  0.13311000  0.24780000  1.0
  O  O200  1  0.23166000  0.58264000  0.29856000  1.0
  O  O201  1  0.76834000  0.91734000  0.79858000  1.0
  O  O202  1  0.76835000  0.41734000  0.70143000  1.0
  O  O203  1  0.23162000  0.08268000  0.20143000  1.0
