# generated using pymatgen
data_CdH17C17SN5O4
_symmetry_space_group_name_H-M   'P 1'
_cell_length_a   7.10995000
_cell_length_b   11.67340000
_cell_length_c   12.99910000
_cell_angle_alpha   77.31100000
_cell_angle_beta   79.22390000
_cell_angle_gamma   87.15700000
_symmetry_Int_Tables_number   1
_chemical_formula_structural   CdH17C17SN5O4
_chemical_formula_sum   'Cd2 H34 C34 S2 N10 O8'
_cell_volume   1033.93790818
_cell_formula_units_Z   2
loop_
 _symmetry_equiv_pos_site_id
 _symmetry_equiv_pos_as_xyz
  1  'x, y, z'
loop_
 _atom_site_type_symbol
 _atom_site_label
 _atom_site_symmetry_multiplicity
 _atom_site_fract_x
 _atom_site_fract_y
 _atom_site_fract_z
 _atom_site_occupancy
  Cd  Cd0  1  0.13163000  0.01368000  0.66237000  1.0
  Cd  Cd1  1  0.86838000  0.98632000  0.33763000  1.0
  H  H2  1  0.37459000  0.21468000  0.27723000  1.0
  H  H3  1  0.62542000  0.78532000  0.72276000  1.0
  H  H4  1  0.31399000  0.38194000  0.13008000  1.0
  H  H5  1  0.68600000  0.61806000  0.86992000  1.0
  H  H6  1  0.30479000  0.14230000  0.92361000  1.0
  H  H7  1  0.69521000  0.85769000  0.07639000  1.0
  H  H8  1  0.35801000  0.97323000  0.07274000  1.0
  H  H9  1  0.64199000  0.02677000  0.92725000  1.0
  H  H10  1  0.18978000  0.44460000  0.75333000  1.0
  H  H11  1  0.81022000  0.55540000  0.24667000  1.0
  H  H12  1  0.12564000  0.61264000  0.60723000  1.0
  H  H13  1  0.87435000  0.38737000  0.39277000  1.0
  H  H14  1  0.22941000  0.61901000  0.05075000  1.0
  H  H15  1  0.77058000  0.38099000  0.94925000  1.0
  H  H16  1  0.20294000  0.82716000  0.07482000  1.0
  H  H17  1  0.79707000  0.17284000  0.92518000  1.0
  H  H18  1  0.14833000  0.98785000  0.91926000  1.0
  H  H19  1  0.85168000  0.01215000  0.08074000  1.0
  H  H20  1  0.29340000  0.30804000  0.42980000  1.0
  H  H21  1  0.70660000  0.69196000  0.57020000  1.0
  H  H22  1  0.43568000  0.22613000  0.51954000  1.0
  H  H23  1  0.56432000  0.77387000  0.48045000  1.0
  H  H24  1  0.21556000  0.37336000  0.59681000  1.0
  H  H25  1  0.78444000  0.62664000  0.40319000  1.0
  H  H26  1  0.01454000  0.29732000  0.58160000  1.0
  H  H27  1  0.98546000  0.70268000  0.41840000  1.0
  H  H28  1  0.32088000  0.08369000  0.45184000  1.0
  H  H29  1  0.67912000  0.91632000  0.54815000  1.0
  H  H30  1  0.10040000  0.14154000  0.45586000  1.0
  H  H31  1  0.89960000  0.85846000  0.54414000  1.0
  H  H32  1  0.05901000  0.22609000  0.75785000  1.0
  H  H33  1  0.94100000  0.77391000  0.24215000  1.0
  H  H34  1  0.29128000  0.20006000  0.72348000  1.0
  H  H35  1  0.70872000  0.79994000  0.27652000  1.0
  C  C36  1  0.36116000  0.08356000  0.18456000  1.0
  C  C37  1  0.63885000  0.91643000  0.81543000  1.0
  C  C38  1  0.35314000  0.19874000  0.20079000  1.0
  C  C39  1  0.64687000  0.80126000  0.79921000  1.0
  C  C40  1  0.32043000  0.29192000  0.11904000  1.0
  C  C41  1  0.67957000  0.70808000  0.88095000  1.0
  C  C42  1  0.29647000  0.27120000  0.01929000  1.0
  C  C43  1  0.70353000  0.72880000  0.98071000  1.0
  C  C44  1  0.31208000  0.15580000  0.00307000  1.0
  C  C45  1  0.68792000  0.84420000  0.99692000  1.0
  C  C46  1  0.34305000  0.06254000  0.08522000  1.0
  C  C47  1  0.65696000  0.93746000  0.91477000  1.0
  C  C48  1  0.20201000  0.55016000  0.86702000  1.0
  C  C49  1  0.79798000  0.44984000  0.13299000  1.0
  C  C50  1  0.17788000  0.53415000  0.76609000  1.0
  C  C51  1  0.82211000  0.46585000  0.23391000  1.0
  C  C52  1  0.14266000  0.62721000  0.68515000  1.0
  C  C53  1  0.85733000  0.37279000  0.31485000  1.0
  C  C54  1  0.13044000  0.74504000  0.69878000  1.0
  C  C55  1  0.86955000  0.25497000  0.30123000  1.0
  C  C56  1  0.15328000  0.76304000  0.80354000  1.0
  C  C57  1  0.84671000  0.23696000  0.19646000  1.0
  C  C58  1  0.18677000  0.66675000  0.88664000  1.0
  C  C59  1  0.81323000  0.33325000  0.11337000  1.0
  C  C60  1  0.20378000  0.69159000  0.98619000  1.0
  C  C61  1  0.79622000  0.30841000  0.01381000  1.0
  C  C62  1  0.18852000  0.80598000  0.99914000  1.0
  C  C63  1  0.81148000  0.19402000  0.00086000  1.0
  C  C64  1  0.15811000  0.89621000  0.91229000  1.0
  C  C65  1  0.84189000  0.10379000  0.08771000  1.0
  C  C66  1  0.28837000  0.24027000  0.50432000  1.0
  C  C67  1  0.71163000  0.75973000  0.49568000  1.0
  C  C68  1  0.16272000  0.28635000  0.59599000  1.0
  C  C69  1  0.83728000  0.71365000  0.40401000  1.0
  S  S70  1  0.38506000  0.96204000  0.29078000  1.0
  S  S71  1  0.61494000  0.03796000  0.70922000  1.0
  N  N72  1  0.25775000  0.35775000  0.93180000  1.0
  N  N73  1  0.74224000  0.64225000  0.06819000  1.0
  N  N74  1  0.24170000  0.46180000  0.94984000  1.0
  N  N75  1  0.75830000  0.53820000  0.05016000  1.0
  N  N76  1  0.14078000  0.87507000  0.81823000  1.0
  N  N77  1  0.85921000  0.12494000  0.18177000  1.0
  N  N78  1  0.21677000  0.12805000  0.49424000  1.0
  N  N79  1  0.78323000  0.87195000  0.50576000  1.0
  N  N80  1  0.16073000  0.20277000  0.69942000  1.0
  N  N81  1  0.83928000  0.79724000  0.30057000  1.0
  O  O82  1  0.10019000  0.83219000  0.62334000  1.0
  O  O83  1  0.89981000  0.16781000  0.37667000  1.0
  O  O84  1  0.46960000  0.86552000  0.24153000  1.0
  O  O85  1  0.53040000  0.13448000  0.75847000  1.0
  O  O86  1  0.50556000  0.00205000  0.35715000  1.0
  O  O87  1  0.49445000  0.99795000  0.64285000  1.0
  O  O88  1  0.19020000  0.93532000  0.35269000  1.0
  O  O89  1  0.80980000  0.06469000  0.64731000  1.0
