# generated using pymatgen
data_NiH27C34N3O8
_symmetry_space_group_name_H-M   'P 1'
_cell_length_a   11.13460000
_cell_length_b   16.79720000
_cell_length_c   19.70720000
_cell_angle_alpha   89.99950000
_cell_angle_beta   79.57600000
_cell_angle_gamma   89.99980000
_symmetry_Int_Tables_number   1
_chemical_formula_structural   NiH27C34N3O8
_chemical_formula_sum   'Ni4 H108 C136 N12 O32'
_cell_volume   3625.00769850
_cell_formula_units_Z   4
loop_
 _symmetry_equiv_pos_site_id
 _symmetry_equiv_pos_as_xyz
  1  'x, y, z'
loop_
 _atom_site_type_symbol
 _atom_site_label
 _atom_site_symmetry_multiplicity
 _atom_site_fract_x
 _atom_site_fract_y
 _atom_site_fract_z
 _atom_site_occupancy
  Ni  Ni0  1  0.71714000  0.73106000  0.72752000  1.0
  Ni  Ni1  1  0.28286000  0.23106000  0.77249000  1.0
  Ni  Ni2  1  0.28286000  0.26894000  0.27249000  1.0
  Ni  Ni3  1  0.71715000  0.76894000  0.22751000  1.0
  H  H4  1  0.28750000  0.82781000  0.44696000  1.0
  H  H5  1  0.71248000  0.32780000  0.05303000  1.0
  H  H6  1  0.71250000  0.17219000  0.55304000  1.0
  H  H7  1  0.28755000  0.67221000  0.94696000  1.0
  H  H8  1  0.69034000  0.81564000  0.83783000  1.0
  H  H9  1  0.30968000  0.31564000  0.66217000  1.0
  H  H10  1  0.30968000  0.18436000  0.16218000  1.0
  H  H11  1  0.69034000  0.68436000  0.33783000  1.0
  H  H12  1  0.83438000  0.78824000  0.81158000  1.0
  H  H13  1  0.16563000  0.28824000  0.68841000  1.0
  H  H14  1  0.16563000  0.21176000  0.18842000  1.0
  H  H15  1  0.83439000  0.71176000  0.31158000  1.0
  H  H16  1  0.81067000  0.23672000  0.77569000  1.0
  H  H17  1  0.18933000  0.73672000  0.72431000  1.0
  H  H18  1  0.18932000  0.76328000  0.22431000  1.0
  H  H19  1  0.81067000  0.26329000  0.27569000  1.0
  H  H20  1  0.62093000  0.16005000  0.81980000  1.0
  H  H21  1  0.37906000  0.66004000  0.68020000  1.0
  H  H22  1  0.37907000  0.83996000  0.18021000  1.0
  H  H23  1  0.62094000  0.33997000  0.31979000  1.0
  H  H24  1  0.63161000  0.01075000  0.82406000  1.0
  H  H25  1  0.36838000  0.51074000  0.67594000  1.0
  H  H26  1  0.36838000  0.98925000  0.17595000  1.0
  H  H27  1  0.63164000  0.48928000  0.32405000  1.0
  H  H28  1  0.82553000  0.94185000  0.78779000  1.0
  H  H29  1  0.17446000  0.44185000  0.71221000  1.0
  H  H30  1  0.17446000  0.05815000  0.21221000  1.0
  H  H31  1  0.82556000  0.55816000  0.28778000  1.0
  H  H32  1  0.97786000  0.90346000  0.71453000  1.0
  H  H33  1  0.02214000  0.40345000  0.78547000  1.0
  H  H34  1  0.02214000  0.09654000  0.28547000  1.0
  H  H35  1  0.97788000  0.59654000  0.21450000  1.0
  H  H36  1  0.02644000  0.90976000  0.79557000  1.0
  H  H37  1  0.97356000  0.40975000  0.70443000  1.0
  H  H38  1  0.97355000  0.09025000  0.20443000  1.0
  H  H39  1  0.02644000  0.59026000  0.29555000  1.0
  H  H40  1  0.12605000  0.89732000  0.60579000  1.0
  H  H41  1  0.87394000  0.39730000  0.89420000  1.0
  H  H42  1  0.87394000  0.10268000  0.39421000  1.0
  H  H43  1  0.12608000  0.60270000  0.10577000  1.0
  H  H44  1  0.48353000  0.81195000  0.62197000  1.0
  H  H45  1  0.51646000  0.31194000  0.87801000  1.0
  H  H46  1  0.51647000  0.18807000  0.37802000  1.0
  H  H47  1  0.48356000  0.68807000  0.12199000  1.0
  H  H48  1  0.24176000  0.89294000  0.80300000  1.0
  H  H49  1  0.75824000  0.39294000  0.69699000  1.0
  H  H50  1  0.75824000  0.10705000  0.19700000  1.0
  H  H51  1  0.24176000  0.60705000  0.30299000  1.0
  H  H52  1  0.70731000  0.90287000  0.69481000  1.0
  H  H53  1  0.29269000  0.40287000  0.80519000  1.0
  H  H54  1  0.29269000  0.09713000  0.30519000  1.0
  H  H55  1  0.70732000  0.59713000  0.19481000  1.0
  H  H56  1  0.81364000  0.99940000  0.60838000  1.0
  H  H57  1  0.18636000  0.49940000  0.89162000  1.0
  H  H58  1  0.18636000  0.00060000  0.39163000  1.0
  H  H59  1  0.81364000  0.50060000  0.10837000  1.0
  H  H60  1  0.01694000  0.80042000  0.50554000  1.0
  H  H61  1  0.98304000  0.30043000  0.99446000  1.0
  H  H62  1  0.98304000  0.19956000  0.49446000  1.0
  H  H63  1  0.01695000  0.69957000  0.00553000  1.0
  H  H64  1  0.90670000  0.71327000  0.60008000  1.0
  H  H65  1  0.09329000  0.21327000  0.89992000  1.0
  H  H66  1  0.09331000  0.28672000  0.39993000  1.0
  H  H67  1  0.90669000  0.78672000  0.10007000  1.0
  H  H68  1  0.72458000  0.55301000  0.70760000  1.0
  H  H69  1  0.27541000  0.05301000  0.79241000  1.0
  H  H70  1  0.27542000  0.44699000  0.29241000  1.0
  H  H71  1  0.72458000  0.94699000  0.20760000  1.0
  H  H72  1  0.63187000  0.45510000  0.63530000  1.0
  H  H73  1  0.36812000  0.95510000  0.86471000  1.0
  H  H74  1  0.36814000  0.54490000  0.36470000  1.0
  H  H75  1  0.63187000  0.04491000  0.13531000  1.0
  H  H76  1  0.53038000  0.42817000  0.54310000  1.0
  H  H77  1  0.46962000  0.92817000  0.95693000  1.0
  H  H78  1  0.46963000  0.57183000  0.45691000  1.0
  H  H79  1  0.53037000  0.07184000  0.04310000  1.0
  H  H80  1  0.54277000  0.65677000  0.51583000  1.0
  H  H81  1  0.45721000  0.15677000  0.98419000  1.0
  H  H82  1  0.45722000  0.34323000  0.48419000  1.0
  H  H83  1  0.54277000  0.84324000  0.01583000  1.0
  H  H84  1  0.63066000  0.74329000  0.59474000  1.0
  H  H85  1  0.36932000  0.24330000  0.90528000  1.0
  H  H86  1  0.36932000  0.25670000  0.40528000  1.0
  H  H87  1  0.63068000  0.75671000  0.09473000  1.0
  H  H88  1  0.79087000  0.66342000  0.85323000  1.0
  H  H89  1  0.20912000  0.16342000  0.64678000  1.0
  H  H90  1  0.20912000  0.33657000  0.14679000  1.0
  H  H91  1  0.79088000  0.83657000  0.35322000  1.0
  H  H92  1  0.71096000  0.57025000  0.94720000  1.0
  H  H93  1  0.28904000  0.07027000  0.55280000  1.0
  H  H94  1  0.28903000  0.42973000  0.05281000  1.0
  H  H95  1  0.71097000  0.92973000  0.44720000  1.0
  H  H96  1  0.40168000  0.46839000  0.96079000  1.0
  H  H97  1  0.59832000  0.96840000  0.53921000  1.0
  H  H98  1  0.59831000  0.53160000  0.03921000  1.0
  H  H99  1  0.40170000  0.03161000  0.46079000  1.0
  H  H100  1  0.38287000  0.55054000  0.85932000  1.0
  H  H101  1  0.61712000  0.05054000  0.64068000  1.0
  H  H102  1  0.61712000  0.44946000  0.14068000  1.0
  H  H103  1  0.38289000  0.94947000  0.35932000  1.0
  H  H104  1  0.47592000  0.64766000  0.76957000  1.0
  H  H105  1  0.52407000  0.14765000  0.73044000  1.0
  H  H106  1  0.52408000  0.35233000  0.23044000  1.0
  H  H107  1  0.47593000  0.85234000  0.26956000  1.0
  H  H108  1  0.05046000  0.92950000  0.45314000  1.0
  H  H109  1  0.94952000  0.42950000  0.04685000  1.0
  H  H110  1  0.94953000  0.07049000  0.54686000  1.0
  H  H111  1  0.05047000  0.57050000  0.95313000  1.0
  C  C112  1  0.03841000  0.18468000  0.74051000  1.0
  C  C113  1  0.96158000  0.68467000  0.75948000  1.0
  C  C114  1  0.96159000  0.81533000  0.25948000  1.0
  C  C115  1  0.03842000  0.31533000  0.24052000  1.0
  C  C116  1  0.92587000  0.13403000  0.75845000  1.0
  C  C117  1  0.07413000  0.63402000  0.74155000  1.0
  C  C118  1  0.07413000  0.86597000  0.24155000  1.0
  C  C119  1  0.92588000  0.36598000  0.25845000  1.0
  C  C120  1  0.81321000  0.17196000  0.77830000  1.0
  C  C121  1  0.18679000  0.67195000  0.72170000  1.0
  C  C122  1  0.18679000  0.82805000  0.22171000  1.0
  C  C123  1  0.81321000  0.32806000  0.27829000  1.0
  C  C124  1  0.70679000  0.12880000  0.80239000  1.0
  C  C125  1  0.29321000  0.62880000  0.69761000  1.0
  C  C126  1  0.29321000  0.87121000  0.19762000  1.0
  C  C127  1  0.70680000  0.37122000  0.30238000  1.0
  C  C128  1  0.71326000  0.04597000  0.80541000  1.0
  C  C129  1  0.28673000  0.54596000  0.69460000  1.0
  C  C130  1  0.28674000  0.95404000  0.19460000  1.0
  C  C131  1  0.71327000  0.45405000  0.30539000  1.0
  C  C132  1  0.82445000  0.00651000  0.78468000  1.0
  C  C133  1  0.17555000  0.50651000  0.71532000  1.0
  C  C134  1  0.17555000  0.99349000  0.21532000  1.0
  C  C135  1  0.82447000  0.49350000  0.28467000  1.0
  C  C136  1  0.93123000  0.04999000  0.76098000  1.0
  C  C137  1  0.06876000  0.54999000  0.73902000  1.0
  C  C138  1  0.06876000  0.95001000  0.23902000  1.0
  C  C139  1  0.93125000  0.45002000  0.26097000  1.0
  C  C140  1  0.04732000  0.92921000  0.74132000  1.0
  C  C141  1  0.95267000  0.42920000  0.75868000  1.0
  C  C142  1  0.95267000  0.07079000  0.25868000  1.0
  C  C143  1  0.04735000  0.57079000  0.24130000  1.0
  C  C144  1  0.17213000  0.90101000  0.70755000  1.0
  C  C145  1  0.82786000  0.40100000  0.79245000  1.0
  C  C146  1  0.82786000  0.09899000  0.29245000  1.0
  C  C147  1  0.17216000  0.59899000  0.20754000  1.0
  C  C148  1  0.19640000  0.88610000  0.63642000  1.0
  C  C149  1  0.80359000  0.38609000  0.86357000  1.0
  C  C150  1  0.80360000  0.11390000  0.36358000  1.0
  C  C151  1  0.19643000  0.61391000  0.13641000  1.0
  C  C152  1  0.30913000  0.85382000  0.60544000  1.0
  C  C153  1  0.69086000  0.35381000  0.89454000  1.0
  C  C154  1  0.69086000  0.14618000  0.39456000  1.0
  C  C155  1  0.30916000  0.64619000  0.10544000  1.0
  C  C156  1  0.34067000  0.82916000  0.53207000  1.0
  C  C157  1  0.65930000  0.32915000  0.96792000  1.0
  C  C158  1  0.65932000  0.17085000  0.46794000  1.0
  C  C159  1  0.34072000  0.67086000  0.03206000  1.0
  C  C160  1  0.39726000  0.83826000  0.64588000  1.0
  C  C161  1  0.60273000  0.33825000  0.85411000  1.0
  C  C162  1  0.60274000  0.16175000  0.35412000  1.0
  C  C163  1  0.39728000  0.66175000  0.14588000  1.0
  C  C164  1  0.37536000  0.85267000  0.71673000  1.0
  C  C165  1  0.62463000  0.35266000  0.78326000  1.0
  C  C166  1  0.62464000  0.14734000  0.28327000  1.0
  C  C167  1  0.37538000  0.64733000  0.21674000  1.0
  C  C168  1  0.26189000  0.88428000  0.74720000  1.0
  C  C169  1  0.73811000  0.38427000  0.75279000  1.0
  C  C170  1  0.73811000  0.11572000  0.25280000  1.0
  C  C171  1  0.26190000  0.61571000  0.24719000  1.0
  C  C172  1  0.47306000  0.82760000  0.75765000  1.0
  C  C173  1  0.52693000  0.32760000  0.74234000  1.0
  C  C174  1  0.52693000  0.17240000  0.24236000  1.0
  C  C175  1  0.47308000  0.67239000  0.25766000  1.0
  C  C176  1  0.77715000  0.88334000  0.65206000  1.0
  C  C177  1  0.22285000  0.38334000  0.84794000  1.0
  C  C178  1  0.22286000  0.11665000  0.34794000  1.0
  C  C179  1  0.77715000  0.61665000  0.15205000  1.0
  C  C180  1  0.83634000  0.93632000  0.60330000  1.0
  C  C181  1  0.16365000  0.43632000  0.89670000  1.0
  C  C182  1  0.16366000  0.06367000  0.39670000  1.0
  C  C183  1  0.83634000  0.56367000  0.10329000  1.0
  C  C184  1  0.92591000  0.90816000  0.54881000  1.0
  C  C185  1  0.07409000  0.40817000  0.95118000  1.0
  C  C186  1  0.07409000  0.09183000  0.45118000  1.0
  C  C187  1  0.92590000  0.59183000  0.04880000  1.0
  C  C188  1  0.94873000  0.82567000  0.54654000  1.0
  C  C189  1  0.05126000  0.32567000  0.95346000  1.0
  C  C190  1  0.05127000  0.17432000  0.45347000  1.0
  C  C191  1  0.94873000  0.67433000  0.04653000  1.0
  C  C192  1  0.88795000  0.77689000  0.59850000  1.0
  C  C193  1  0.11205000  0.27690000  0.90150000  1.0
  C  C194  1  0.11206000  0.22310000  0.40151000  1.0
  C  C195  1  0.88794000  0.72310000  0.09849000  1.0
  C  C196  1  0.68220000  0.57257000  0.66473000  1.0
  C  C197  1  0.31779000  0.07257000  0.83528000  1.0
  C  C198  1  0.31780000  0.42743000  0.33528000  1.0
  C  C199  1  0.68221000  0.92744000  0.16473000  1.0
  C  C200  1  0.63389000  0.51874000  0.62342000  1.0
  C  C201  1  0.36610000  0.01874000  0.87659000  1.0
  C  C202  1  0.36611000  0.48126000  0.37659000  1.0
  C  C203  1  0.63389000  0.98127000  0.12342000  1.0
  C  C204  1  0.58093000  0.54687000  0.56832000  1.0
  C  C205  1  0.41906000  0.04687000  0.93169000  1.0
  C  C206  1  0.41907000  0.45313000  0.43169000  1.0
  C  C207  1  0.58093000  0.95313000  0.06833000  1.0
  C  C208  1  0.52670000  0.49031000  0.52707000  1.0
  C  C209  1  0.47329000  0.99032000  0.97294000  1.0
  C  C210  1  0.47330000  0.50969000  0.47294000  1.0
  C  C211  1  0.52669000  0.00969000  0.02707000  1.0
  C  C212  1  0.58205000  0.62968000  0.55705000  1.0
  C  C213  1  0.41793000  0.12967000  0.94297000  1.0
  C  C214  1  0.41794000  0.37032000  0.44297000  1.0
  C  C215  1  0.58205000  0.87033000  0.05704000  1.0
  C  C216  1  0.63066000  0.67902000  0.60128000  1.0
  C  C217  1  0.36933000  0.17902000  0.89873000  1.0
  C  C218  1  0.36933000  0.32098000  0.39874000  1.0
  C  C219  1  0.63067000  0.82098000  0.10128000  1.0
  C  C220  1  0.69999000  0.63806000  0.85692000  1.0
  C  C221  1  0.30000000  0.13805000  0.64308000  1.0
  C  C222  1  0.30000000  0.36194000  0.14309000  1.0
  C  C223  1  0.70001000  0.86194000  0.35691000  1.0
  C  C224  1  0.65421000  0.58613000  0.90966000  1.0
  C  C225  1  0.34578000  0.08614000  0.59035000  1.0
  C  C226  1  0.34577000  0.41385000  0.09035000  1.0
  C  C227  1  0.65423000  0.91386000  0.40965000  1.0
  C  C228  1  0.53690000  0.55387000  0.91324000  1.0
  C  C229  1  0.46309000  0.05388000  0.58676000  1.0
  C  C230  1  0.46308000  0.44611000  0.08676000  1.0
  C  C231  1  0.53692000  0.94612000  0.41324000  1.0
  C  C232  1  0.48098000  0.50271000  0.96942000  1.0
  C  C233  1  0.51902000  0.00272000  0.53058000  1.0
  C  C234  1  0.51900000  0.49728000  0.03058000  1.0
  C  C235  1  0.48100000  0.99729000  0.46942000  1.0
  C  C236  1  0.47312000  0.57512000  0.86054000  1.0
  C  C237  1  0.52687000  0.07512000  0.63947000  1.0
  C  C238  1  0.52687000  0.42487000  0.13948000  1.0
  C  C239  1  0.47314000  0.92488000  0.36053000  1.0
  C  C240  1  0.52464000  0.62875000  0.80998000  1.0
  C  C241  1  0.47534000  0.12874000  0.69003000  1.0
  C  C242  1  0.47535000  0.37125000  0.19003000  1.0
  C  C243  1  0.52466000  0.87126000  0.30997000  1.0
  C  C244  1  0.99694000  0.95994000  0.49753000  1.0
  C  C245  1  0.00305000  0.45994000  0.00245000  1.0
  C  C246  1  0.00305000  0.04005000  0.50246000  1.0
  C  C247  1  0.99694000  0.54006000  0.99753000  1.0
  N  N248  1  0.67846000  0.65181000  0.65504000  1.0
  N  N249  1  0.32152000  0.15181000  0.84497000  1.0
  N  N250  1  0.32152000  0.34818000  0.34497000  1.0
  N  N251  1  0.67847000  0.84819000  0.15504000  1.0
  N  N252  1  0.63654000  0.66002000  0.80779000  1.0
  N  N253  1  0.36344000  0.16001000  0.69222000  1.0
  N  N254  1  0.36345000  0.33998000  0.19222000  1.0
  N  N255  1  0.63655000  0.83998000  0.30778000  1.0
  N  N256  1  0.80345000  0.80499000  0.65058000  1.0
  N  N257  1  0.19654000  0.30499000  0.84941000  1.0
  N  N258  1  0.19655000  0.19500000  0.34942000  1.0
  N  N259  1  0.80346000  0.69500000  0.15058000  1.0
  O  O260  1  0.55836000  0.78690000  0.72023000  1.0
  O  O261  1  0.44164000  0.28689000  0.77975000  1.0
  O  O262  1  0.44164000  0.21311000  0.27977000  1.0
  O  O263  1  0.55837000  0.71310000  0.22024000  1.0
  O  O264  1  0.46436000  0.84592000  0.81995000  1.0
  O  O265  1  0.53561000  0.34593000  0.68005000  1.0
  O  O266  1  0.53563000  0.15408000  0.18005000  1.0
  O  O267  1  0.46437000  0.65407000  0.31995000  1.0
  O  O268  1  0.25505000  0.84911000  0.49305000  1.0
  O  O269  1  0.74494000  0.34910000  0.00694000  1.0
  O  O270  1  0.74496000  0.15089000  0.50696000  1.0
  O  O271  1  0.25509000  0.65091000  0.99304000  1.0
  O  O272  1  0.43374000  0.79319000  0.50674000  1.0
  O  O273  1  0.56623000  0.29318000  0.99325000  1.0
  O  O274  1  0.56625000  0.20682000  0.49327000  1.0
  O  O275  1  0.43379000  0.70683000  0.00674000  1.0
  O  O276  1  0.04266000  0.01507000  0.73780000  1.0
  O  O277  1  0.95733000  0.51506000  0.76220000  1.0
  O  O278  1  0.95732000  0.98494000  0.26220000  1.0
  O  O279  1  0.04269000  0.48494000  0.23779000  1.0
  O  O280  1  0.12115000  0.17079000  0.77626000  1.0
  O  O281  1  0.87884000  0.67078000  0.72375000  1.0
  O  O282  1  0.87885000  0.82921000  0.22374000  1.0
  O  O283  1  0.12116000  0.32922000  0.27626000  1.0
  O  O284  1  0.04329000  0.23768000  0.69396000  1.0
  O  O285  1  0.95670000  0.73768000  0.80604000  1.0
  O  O286  1  0.95670000  0.76232000  0.30604000  1.0
  O  O287  1  0.04330000  0.26232000  0.19397000  1.0
  O  O288  1  0.75933000  0.81647000  0.79950000  1.0
  O  O289  1  0.24068000  0.31646000  0.70049000  1.0
  O  O290  1  0.24068000  0.18353000  0.20050000  1.0
  O  O291  1  0.75933000  0.68353000  0.29950000  1.0
