# generated using pymatgen
data_NiH9C9(NO2)2
_symmetry_space_group_name_H-M   'P 1'
_cell_length_a   6.68703000
_cell_length_b   7.72967000
_cell_length_c   22.09000000
_cell_angle_alpha   90.00010000
_cell_angle_beta   90.00060000
_cell_angle_gamma   90.91990000
_symmetry_Int_Tables_number   1
_chemical_formula_structural   NiH9C9(NO2)2
_chemical_formula_sum   'Ni4 H36 C36 N8 O16'
_cell_volume   1141.65258314
_cell_formula_units_Z   4
loop_
 _symmetry_equiv_pos_site_id
 _symmetry_equiv_pos_as_xyz
  1  'x, y, z'
loop_
 _atom_site_type_symbol
 _atom_site_label
 _atom_site_symmetry_multiplicity
 _atom_site_fract_x
 _atom_site_fract_y
 _atom_site_fract_z
 _atom_site_occupancy
  Ni  Ni0  1  0.46134000  0.39855000  0.79153000  1.0
  Ni  Ni1  1  0.03867000  0.10146000  0.29152000  1.0
  Ni  Ni2  1  0.53868000  0.60146000  0.20848000  1.0
  Ni  Ni3  1  0.96132000  0.89854000  0.70848000  1.0
  H  H4  1  0.15447000  0.97220000  0.80575000  1.0
  H  H5  1  0.18481000  0.76250000  0.78453000  1.0
  H  H6  1  0.04563000  0.31617000  0.82982000  1.0
  H  H7  1  0.83008000  0.35234000  0.91815000  1.0
  H  H8  1  0.97126000  0.72262000  0.86864000  1.0
  H  H9  1  0.32972000  0.61893000  0.00546000  1.0
  H  H10  1  0.52281000  0.56753000  0.91153000  1.0
  H  H11  1  0.90106000  0.02257000  0.89041000  1.0
  H  H12  1  0.67463000  0.90582000  0.88262000  1.0
  H  H13  1  0.34554000  0.52780000  0.30574000  1.0
  H  H14  1  0.31518000  0.73749000  0.28453000  1.0
  H  H15  1  0.45437000  0.18384000  0.32982000  1.0
  H  H16  1  0.66991000  0.14765000  0.41815000  1.0
  H  H17  1  0.52874000  0.77740000  0.36864000  1.0
  H  H18  1  0.17027000  0.88106000  0.50545000  1.0
  H  H19  1  0.97719000  0.93246000  0.41152000  1.0
  H  H20  1  0.59896000  0.47745000  0.39041000  1.0
  H  H21  1  0.82538000  0.59421000  0.38261000  1.0
  H  H22  1  0.84554000  0.02781000  0.19425000  1.0
  H  H23  1  0.81519000  0.23750000  0.21547000  1.0
  H  H24  1  0.95437000  0.68385000  0.17018000  1.0
  H  H25  1  0.16993000  0.64767000  0.08185000  1.0
  H  H26  1  0.02875000  0.27739000  0.13136000  1.0
  H  H27  1  0.67028000  0.38106000  0.99454000  1.0
  H  H28  1  0.47718000  0.43246000  0.08848000  1.0
  H  H29  1  0.09896000  0.97744000  0.10959000  1.0
  H  H30  1  0.32538000  0.09418000  0.11738000  1.0
  H  H31  1  0.65446000  0.47220000  0.69426000  1.0
  H  H32  1  0.68483000  0.26251000  0.71547000  1.0
  H  H33  1  0.54563000  0.81614000  0.67018000  1.0
  H  H34  1  0.33008000  0.85232000  0.58185000  1.0
  H  H35  1  0.47125000  0.22261000  0.63136000  1.0
  H  H36  1  0.82970000  0.11893000  0.49454000  1.0
  H  H37  1  0.02279000  0.06754000  0.58848000  1.0
  H  H38  1  0.40105000  0.52256000  0.60959000  1.0
  H  H39  1  0.17462000  0.40580000  0.61739000  1.0
  C  C40  1  0.77462000  0.68457000  0.79371000  1.0
  C  C41  1  0.10338000  0.37966000  0.87036000  1.0
  C  C42  1  0.98346000  0.40113000  0.92111000  1.0
  C  C43  1  0.06030000  0.48682000  0.97244000  1.0
  C  C44  1  0.91862000  0.80175000  0.83056000  1.0
  C  C45  1  0.73157000  0.08996000  0.81238000  1.0
  C  C46  1  0.25873000  0.54856000  0.96835000  1.0
  C  C47  1  0.36923000  0.52040000  0.91625000  1.0
  C  C48  1  0.80537000  0.95435000  0.85723000  1.0
  C  C49  1  0.72539000  0.81544000  0.29370000  1.0
  C  C50  1  0.39661000  0.12033000  0.37036000  1.0
  C  C51  1  0.51654000  0.09887000  0.42111000  1.0
  C  C52  1  0.43969000  0.01317000  0.47245000  1.0
  C  C53  1  0.58139000  0.69826000  0.33055000  1.0
  C  C54  1  0.76845000  0.41004000  0.31238000  1.0
  C  C55  1  0.24124000  0.95143000  0.46835000  1.0
  C  C56  1  0.13076000  0.97958000  0.41625000  1.0
  C  C57  1  0.69463000  0.54566000  0.35722000  1.0
  C  C58  1  0.22539000  0.31544000  0.20629000  1.0
  C  C59  1  0.89661000  0.62035000  0.12964000  1.0
  C  C60  1  0.01654000  0.59889000  0.07889000  1.0
  C  C61  1  0.93970000  0.51319000  0.02756000  1.0
  C  C62  1  0.08138000  0.19826000  0.16944000  1.0
  C  C63  1  0.26844000  0.91004000  0.18762000  1.0
  C  C64  1  0.74126000  0.45143000  0.03165000  1.0
  C  C65  1  0.63077000  0.47959000  0.08375000  1.0
  C  C66  1  0.19463000  0.04565000  0.14277000  1.0
  C  C67  1  0.27461000  0.18456000  0.70629000  1.0
  C  C68  1  0.60338000  0.87964000  0.62964000  1.0
  C  C69  1  0.48345000  0.90110000  0.57889000  1.0
  C  C70  1  0.56028000  0.98681000  0.52755000  1.0
  C  C71  1  0.41862000  0.30174000  0.66945000  1.0
  C  C72  1  0.23156000  0.58995000  0.68762000  1.0
  C  C73  1  0.75873000  0.04855000  0.53165000  1.0
  C  C74  1  0.86923000  0.02040000  0.58375000  1.0
  C  C75  1  0.30537000  0.45434000  0.64278000  1.0
  N  N76  1  0.08426000  0.86039000  0.79185000  1.0
  N  N77  1  0.29463000  0.43642000  0.86756000  1.0
  N  N78  1  0.41574000  0.63961000  0.29185000  1.0
  N  N79  1  0.20537000  0.06358000  0.36755000  1.0
  N  N80  1  0.91575000  0.13962000  0.20815000  1.0
  N  N81  1  0.70537000  0.56359000  0.13244000  1.0
  N  N82  1  0.58426000  0.36039000  0.70816000  1.0
  N  N83  1  0.79462000  0.93641000  0.63245000  1.0
  O  O84  1  0.66127000  0.58426000  0.82392000  1.0
  O  O85  1  0.63417000  0.21216000  0.83639000  1.0
  O  O86  1  0.77713000  0.69718000  0.73626000  1.0
  O  O87  1  0.77101000  0.07655000  0.75604000  1.0
  O  O88  1  0.83876000  0.91574000  0.32392000  1.0
  O  O89  1  0.86583000  0.28785000  0.33638000  1.0
  O  O90  1  0.72285000  0.80285000  0.23625000  1.0
  O  O91  1  0.72902000  0.42347000  0.25604000  1.0
  O  O92  1  0.33875000  0.41574000  0.17608000  1.0
  O  O93  1  0.36583000  0.78783000  0.16361000  1.0
  O  O94  1  0.22286000  0.30283000  0.26374000  1.0
  O  O95  1  0.22900000  0.92344000  0.24395000  1.0
  O  O96  1  0.16124000  0.08426000  0.67608000  1.0
  O  O97  1  0.13417000  0.71215000  0.66362000  1.0
  O  O98  1  0.27715000  0.19716000  0.76375000  1.0
  O  O99  1  0.27099000  0.57654000  0.74396000  1.0
