# generated using pymatgen
data_YCuH22C18IN5O9
_symmetry_space_group_name_H-M   'P 1'
_cell_length_a   10.88950000
_cell_length_b   11.78464747
_cell_length_c   14.54270000
_cell_angle_alpha   82.21524957
_cell_angle_beta   83.98160000
_cell_angle_gamma   68.04207378
_symmetry_Int_Tables_number   1
_chemical_formula_structural   YCuH22C18IN5O9
_chemical_formula_sum   'Y2 Cu2 H44 C36 I2 N10 O18'
_cell_volume   1711.93144503
_cell_formula_units_Z   2
loop_
 _symmetry_equiv_pos_site_id
 _symmetry_equiv_pos_as_xyz
  1  'x, y, z'
loop_
 _atom_site_type_symbol
 _atom_site_label
 _atom_site_symmetry_multiplicity
 _atom_site_fract_x
 _atom_site_fract_y
 _atom_site_fract_z
 _atom_site_occupancy
  Y  Y0  1  0.90241000  0.37498000  0.03636000  1.0
  Y  Y1  1  0.09759000  0.62501000  0.96364000  1.0
  Cu  Cu2  1  0.51503000  0.99642000  0.41242000  1.0
  Cu  Cu3  1  0.48497000  0.00358000  0.58758000  1.0
  H  H4  1  0.44423000  0.35344000  0.15972000  1.0
  H  H5  1  0.55577000  0.64656000  0.84027000  1.0
  H  H6  1  0.94101000  0.79118000  0.22395000  1.0
  H  H7  1  0.05899000  0.20881000  0.77605000  1.0
  H  H8  1  0.79543000  0.92989000  0.34186000  1.0
  H  H9  1  0.20459000  0.07010000  0.65813000  1.0
  H  H10  1  0.13241000  0.20537000  0.20149000  1.0
  H  H11  1  0.86758000  0.79464000  0.79852000  1.0
  H  H12  1  0.25805000  0.05975000  0.33176000  1.0
  H  H13  1  0.74194000  0.94026000  0.66825000  1.0
  H  H14  1  0.00470000  0.09770000  0.92754000  1.0
  H  H15  1  0.99530000  0.90228000  0.07246000  1.0
  H  H16  1  0.82239000  0.35613000  0.81408000  1.0
  H  H17  1  0.17761000  0.64388000  0.18593000  1.0
  H  H18  1  0.65634000  0.61505000  0.24414000  1.0
  H  H19  1  0.34366000  0.38495000  0.75586000  1.0
  H  H20  1  0.55329000  0.20655000  0.29432000  1.0
  H  H21  1  0.44671000  0.79345000  0.70568000  1.0
  H  H22  1  0.14073000  0.94898000  0.85242000  1.0
  H  H23  1  0.85929000  0.05100000  0.14757000  1.0
  H  H24  1  0.27016000  0.83778000  0.91778000  1.0
  H  H25  1  0.72985000  0.16221000  0.08222000  1.0
  H  H26  1  0.30474000  0.95189000  0.83596000  1.0
  H  H27  1  0.69527000  0.04810000  0.16404000  1.0
  H  H28  1  0.51908000  0.76380000  0.35962000  1.0
  H  H29  1  0.48092000  0.23621000  0.64038000  1.0
  H  H30  1  0.67976000  0.43435000  0.71004000  1.0
  H  H31  1  0.32023000  0.56567000  0.28996000  1.0
  H  H32  1  0.50872000  0.49902000  0.74806000  1.0
  H  H33  1  0.49128000  0.50099000  0.25194000  1.0
  H  H34  1  0.57617000  0.34738000  0.71154000  1.0
  H  H35  1  0.42383000  0.65264000  0.28846000  1.0
  H  H36  1  0.56321000  0.32867000  0.97931000  1.0
  H  H37  1  0.43679000  0.67133000  0.02069000  1.0
  H  H38  1  0.49538000  0.27636000  0.89349000  1.0
  H  H39  1  0.50462000  0.72364000  0.10650000  1.0
  H  H40  1  0.44016000  0.43633000  0.90583000  1.0
  H  H41  1  0.55984000  0.56368000  0.09416000  1.0
  H  H42  1  0.27309000  0.07910000  0.06114000  1.0
  H  H43  1  0.72690000  0.92091000  0.93885000  1.0
  H  H44  1  0.39004000  0.01551000  0.96760000  1.0
  H  H45  1  0.60996000  0.98450000  0.03239000  1.0
  H  H46  1  0.34365000  0.91591000  0.05606000  1.0
  H  H47  1  0.65636000  0.08410000  0.94393000  1.0
  C  C48  1  0.80666000  0.69530000  0.22262000  1.0
  C  C49  1  0.19335000  0.30469000  0.77737000  1.0
  C  C50  1  0.39981000  0.28967000  0.19584000  1.0
  C  C51  1  0.60020000  0.71033000  0.80416000  1.0
  C  C52  1  0.88375000  0.61723000  0.14731000  1.0
  C  C53  1  0.11626000  0.38276000  0.85270000  1.0
  C  C54  1  0.20603000  0.38112000  0.09308000  1.0
  C  C55  1  0.79398000  0.61888000  0.90693000  1.0
  C  C56  1  0.27950000  0.29034000  0.16928000  1.0
  C  C57  1  0.72050000  0.70966000  0.83072000  1.0
  C  C58  1  0.84774000  0.78292000  0.25226000  1.0
  C  C59  1  0.15226000  0.21708000  0.74775000  1.0
  C  C60  1  0.76771000  0.85999000  0.31668000  1.0
  C  C61  1  0.23229000  0.14001000  0.68332000  1.0
  C  C62  1  0.22687000  0.20647000  0.21858000  1.0
  C  C63  1  0.77313000  0.79354000  0.78143000  1.0
  C  C64  1  0.29575000  0.12586000  0.29074000  1.0
  C  C65  1  0.70425000  0.87414000  0.70926000  1.0
  C  C66  1  0.07683000  0.09532000  0.97636000  1.0
  C  C67  1  0.92318000  0.90466000  0.02363000  1.0
  C  C68  1  0.75379000  0.33412000  0.86856000  1.0
  C  C69  1  0.24620000  0.66590000  0.13143000  1.0
  C  C70  1  0.68825000  0.68543000  0.26318000  1.0
  C  C71  1  0.31175000  0.31457000  0.73682000  1.0
  C  C72  1  0.46180000  0.20706000  0.26961000  1.0
  C  C73  1  0.53822000  0.79293000  0.73038000  1.0
  C  C74  1  0.23087000  0.93393000  0.88723000  1.0
  C  C75  1  0.76914000  0.06606000  0.11277000  1.0
  C  C76  1  0.61302000  0.76645000  0.32651000  1.0
  C  C77  1  0.38698000  0.23355000  0.67349000  1.0
  C  C78  1  0.59670000  0.41381000  0.74777000  1.0
  C  C79  1  0.40330000  0.58620000  0.25223000  1.0
  C  C80  1  0.52638000  0.34996000  0.90947000  1.0
  C  C81  1  0.47361000  0.65005000  0.09053000  1.0
  C  C82  1  0.30786000  0.00611000  0.01483000  1.0
  C  C83  1  0.69214000  0.99390000  0.98517000  1.0
  I  I84  1  0.65372000  0.09681000  0.49107000  1.0
  I  I85  1  0.34626000  0.90320000  0.50893000  1.0
  N  N86  1  0.64967000  0.85496000  0.35169000  1.0
  N  N87  1  0.35033000  0.14503000  0.64831000  1.0
  N  N88  1  0.41181000  0.12513000  0.31653000  1.0
  N  N89  1  0.58818000  0.87488000  0.68348000  1.0
  N  N90  1  0.63121000  0.36301000  0.84279000  1.0
  N  N91  1  0.36878000  0.63701000  0.15721000  1.0
  N  N92  1  0.76287000  0.32574000  0.20657000  1.0
  N  N93  1  0.23712000  0.67425000  0.79344000  1.0
  N  N94  1  0.19956000  0.01553000  0.96004000  1.0
  N  N95  1  0.80044000  0.98447000  0.03996000  1.0
  O  O96  1  0.84043000  0.53885000  0.12607000  1.0
  O  O97  1  0.15957000  0.46114000  0.87394000  1.0
  O  O98  1  0.98500000  0.63834000  0.10913000  1.0
  O  O99  1  0.01500000  0.36165000  0.89087000  1.0
  O  O100  1  0.25244000  0.46124000  0.05418000  1.0
  O  O101  1  0.74755000  0.53876000  0.94582000  1.0
  O  O102  1  0.09800000  0.37613000  0.07160000  1.0
  O  O103  1  0.90201000  0.62386000  0.92840000  1.0
  O  O104  1  0.79234000  0.28611000  0.94827000  1.0
  O  O105  1  0.20766000  0.71390000  0.05173000  1.0
  O  O106  1  0.04250000  0.16276000  0.04142000  1.0
  O  O107  1  0.95749000  0.83723000  0.95858000  1.0
  O  O108  1  0.88998000  0.28745000  0.19860000  1.0
  O  O109  1  0.11003000  0.71253000  0.80141000  1.0
  O  O110  1  0.70353000  0.36822000  0.12928000  1.0
  O  O111  1  0.29646000  0.63177000  0.87073000  1.0
  O  O112  1  0.70011000  0.32288000  0.28182000  1.0
  O  O113  1  0.29989000  0.67710000  0.71818000  1.0
