# generated using pymatgen
data_H8PbC12(NO3)2
_symmetry_space_group_name_H-M   'P 1'
_cell_length_a   8.08357000
_cell_length_b   13.52260000
_cell_length_c   15.54380000
_cell_angle_alpha   90.00020000
_cell_angle_beta   90.00010000
_cell_angle_gamma   89.99990000
_symmetry_Int_Tables_number   1
_chemical_formula_structural   H8PbC12(NO3)2
_chemical_formula_sum   'H32 Pb4 C48 N8 O24'
_cell_volume   1699.10651376
_cell_formula_units_Z   4
loop_
 _symmetry_equiv_pos_site_id
 _symmetry_equiv_pos_as_xyz
  1  'x, y, z'
loop_
 _atom_site_type_symbol
 _atom_site_label
 _atom_site_symmetry_multiplicity
 _atom_site_fract_x
 _atom_site_fract_y
 _atom_site_fract_z
 _atom_site_occupancy
  H  H0  1  0.02689000  0.98904000  0.24626000  1.0
  H  H1  1  0.52689000  0.51096000  0.25374000  1.0
  H  H2  1  0.97311000  0.48904000  0.25374000  1.0
  H  H3  1  0.47311000  0.01096000  0.24626000  1.0
  H  H4  1  0.97310000  0.01096000  0.75374000  1.0
  H  H5  1  0.47310000  0.48904000  0.74626000  1.0
  H  H6  1  0.02689000  0.51096000  0.74626000  1.0
  H  H7  1  0.52690000  0.98904000  0.75374000  1.0
  H  H8  1  0.09413000  0.11014000  0.36819000  1.0
  H  H9  1  0.59413000  0.38986000  0.13181000  1.0
  H  H10  1  0.90587000  0.61013000  0.13181000  1.0
  H  H11  1  0.40587000  0.88986000  0.36819000  1.0
  H  H12  1  0.90586000  0.88986000  0.63181000  1.0
  H  H13  1  0.40587000  0.61014000  0.86819000  1.0
  H  H14  1  0.09413000  0.38986000  0.86819000  1.0
  H  H15  1  0.59413000  0.11014000  0.63181000  1.0
  H  H16  1  0.22172000  0.32382000  0.17452000  1.0
  H  H17  1  0.72173000  0.17618000  0.32549000  1.0
  H  H18  1  0.77827000  0.82381000  0.32549000  1.0
  H  H19  1  0.27828000  0.67618000  0.17451000  1.0
  H  H20  1  0.77827000  0.67619000  0.82549000  1.0
  H  H21  1  0.27828000  0.82382000  0.67451000  1.0
  H  H22  1  0.22173000  0.17619000  0.67451000  1.0
  H  H23  1  0.72173000  0.32381000  0.82549000  1.0
  H  H24  1  0.15661000  0.19454000  0.06048000  1.0
  H  H25  1  0.65661000  0.30546000  0.43952000  1.0
  H  H26  1  0.84339000  0.69454000  0.43952000  1.0
  H  H27  1  0.34339000  0.80546000  0.06048000  1.0
  H  H28  1  0.84339000  0.80546000  0.93952000  1.0
  H  H29  1  0.34339000  0.69454000  0.56048000  1.0
  H  H30  1  0.15661000  0.30546000  0.56047000  1.0
  H  H31  1  0.65661000  0.19454000  0.93952000  1.0
  Pb  Pb32  1  0.75000000  0.00000000  0.05865000  1.0
  Pb  Pb33  1  0.25000000  0.50000000  0.44135000  1.0
  Pb  Pb34  1  0.25000000  0.00000000  0.94135000  1.0
  Pb  Pb35  1  0.75000000  0.50000000  0.55865000  1.0
  C  C36  1  0.07495000  0.06335000  0.23661000  1.0
  C  C37  1  0.57495000  0.43665000  0.26339000  1.0
  C  C38  1  0.92505000  0.56335000  0.26339000  1.0
  C  C39  1  0.42505000  0.93665000  0.23661000  1.0
  C  C40  1  0.92504000  0.93665000  0.76339000  1.0
  C  C41  1  0.42505000  0.56335000  0.73661000  1.0
  C  C42  1  0.07495000  0.43665000  0.73661000  1.0
  C  C43  1  0.57495000  0.06335000  0.76339000  1.0
  C  C44  1  0.10992000  0.13080000  0.30092000  1.0
  C  C45  1  0.60993000  0.36920000  0.19908000  1.0
  C  C46  1  0.89007000  0.63080000  0.19908000  1.0
  C  C47  1  0.39008000  0.86920000  0.30092000  1.0
  C  C48  1  0.89007000  0.86920000  0.69908000  1.0
  C  C49  1  0.39008000  0.63080000  0.80092000  1.0
  C  C50  1  0.10993000  0.36920000  0.80092000  1.0
  C  C51  1  0.60993000  0.13080000  0.69908000  1.0
  C  C52  1  0.16254000  0.22638000  0.27981000  1.0
  C  C53  1  0.66255000  0.27362000  0.22019000  1.0
  C  C54  1  0.83745000  0.72638000  0.22019000  1.0
  C  C55  1  0.33746000  0.77362000  0.27981000  1.0
  C  C56  1  0.83745000  0.77362000  0.72019000  1.0
  C  C57  1  0.33746000  0.72638000  0.77981000  1.0
  C  C58  1  0.16255000  0.27362000  0.77981000  1.0
  C  C59  1  0.66255000  0.22638000  0.72019000  1.0
  C  C60  1  0.18116000  0.24999000  0.19267000  1.0
  C  C61  1  0.68117000  0.25002000  0.30733000  1.0
  C  C62  1  0.81883000  0.74998000  0.30734000  1.0
  C  C63  1  0.31884000  0.75001000  0.19267000  1.0
  C  C64  1  0.81883000  0.75002000  0.80733000  1.0
  C  C65  1  0.31884000  0.74999000  0.69267000  1.0
  C  C66  1  0.18117000  0.25001000  0.69266000  1.0
  C  C67  1  0.68117000  0.24998000  0.80734000  1.0
  C  C68  1  0.14700000  0.18109000  0.12954000  1.0
  C  C69  1  0.64700000  0.31892000  0.37046000  1.0
  C  C70  1  0.85299000  0.68109000  0.37046000  1.0
  C  C71  1  0.35300000  0.81891000  0.12954000  1.0
  C  C72  1  0.85299000  0.81891000  0.87046000  1.0
  C  C73  1  0.35300000  0.68109000  0.62954000  1.0
  C  C74  1  0.14700000  0.31892000  0.62954000  1.0
  C  C75  1  0.64701000  0.18109000  0.87046000  1.0
  C  C76  1  0.19457000  0.30352000  0.34776000  1.0
  C  C77  1  0.69458000  0.19648000  0.15224000  1.0
  C  C78  1  0.80542000  0.80352000  0.15224000  1.0
  C  C79  1  0.30543000  0.69648000  0.34776000  1.0
  C  C80  1  0.80542000  0.69648000  0.65224000  1.0
  C  C81  1  0.30543000  0.80352000  0.84776000  1.0
  C  C82  1  0.19458000  0.19648000  0.84776000  1.0
  C  C83  1  0.69458000  0.30352000  0.65224000  1.0
  N  N84  1  0.09343000  0.08922000  0.15232000  1.0
  N  N85  1  0.59344000  0.41079000  0.34768000  1.0
  N  N86  1  0.90656000  0.58921000  0.34768000  1.0
  N  N87  1  0.40657000  0.91078000  0.15232000  1.0
  N  N88  1  0.90656000  0.91079000  0.84768000  1.0
  N  N89  1  0.40656000  0.58921000  0.65232000  1.0
  N  N90  1  0.09344000  0.41079000  0.65232000  1.0
  N  N91  1  0.59344000  0.08921000  0.84768000  1.0
  O  O92  1  0.05584000  0.02451000  0.09175000  1.0
  O  O93  1  0.55585000  0.47549000  0.40826000  1.0
  O  O94  1  0.94415000  0.52451000  0.40826000  1.0
  O  O95  1  0.44415000  0.97549000  0.09174000  1.0
  O  O96  1  0.94415000  0.97550000  0.90825000  1.0
  O  O97  1  0.44415000  0.52451000  0.59174000  1.0
  O  O98  1  0.05585000  0.47549000  0.59175000  1.0
  O  O99  1  0.55585000  0.02451000  0.90826000  1.0
  O  O100  1  0.22276000  0.39097000  0.31828000  1.0
  O  O101  1  0.72276000  0.10903000  0.18172000  1.0
  O  O102  1  0.77723000  0.89097000  0.18173000  1.0
  O  O103  1  0.27724000  0.60903000  0.31827000  1.0
  O  O104  1  0.77724000  0.60903000  0.68172000  1.0
  O  O105  1  0.27724000  0.89097000  0.81828000  1.0
  O  O106  1  0.22277000  0.10903000  0.81827000  1.0
  O  O107  1  0.72277000  0.39097000  0.68173000  1.0
  O  O108  1  0.19152000  0.27978000  0.42599000  1.0
  O  O109  1  0.69152000  0.22022000  0.07402000  1.0
  O  O110  1  0.80847000  0.77978000  0.07402000  1.0
  O  O111  1  0.30848000  0.72022000  0.42598000  1.0
  O  O112  1  0.80848000  0.72022000  0.57402000  1.0
  O  O113  1  0.30849000  0.77978000  0.92598000  1.0
  O  O114  1  0.19153000  0.22022000  0.92598000  1.0
  O  O115  1  0.69153000  0.27978000  0.57402000  1.0
