# generated using pymatgen
data_YbH9C14(SO5)2
_symmetry_space_group_name_H-M   'P 1'
_cell_length_a   7.33845000
_cell_length_b   7.83584000
_cell_length_c   13.64330000
_cell_angle_alpha   85.88610000
_cell_angle_beta   86.94360000
_cell_angle_gamma   85.70590000
_symmetry_Int_Tables_number   1
_chemical_formula_structural   YbH9C14(SO5)2
_chemical_formula_sum   'Yb2 H18 C28 S4 O20'
_cell_volume   779.40435825
_cell_formula_units_Z   2
loop_
 _symmetry_equiv_pos_site_id
 _symmetry_equiv_pos_as_xyz
  1  'x, y, z'
loop_
 _atom_site_type_symbol
 _atom_site_label
 _atom_site_symmetry_multiplicity
 _atom_site_fract_x
 _atom_site_fract_y
 _atom_site_fract_z
 _atom_site_occupancy
  Yb  Yb0  1  0.32853000  0.17121000  0.51504000  1.0
  Yb  Yb1  1  0.67147000  0.82880000  0.48496000  1.0
  H  H2  1  0.96627000  0.57156000  0.77693000  1.0
  H  H3  1  0.03373000  0.42844000  0.22307000  1.0
  H  H4  1  0.95458000  0.12588000  0.75820000  1.0
  H  H5  1  0.04541000  0.87412000  0.24180000  1.0
  H  H6  1  0.79804000  0.12935000  0.92355000  1.0
  H  H7  1  0.20196000  0.87065000  0.07645000  1.0
  H  H8  1  0.52549000  0.81716000  0.21793000  1.0
  H  H9  1  0.47451000  0.18284000  0.78207000  1.0
  H  H10  1  0.52990000  0.26306000  0.23439000  1.0
  H  H11  1  0.47010000  0.73694000  0.76561000  1.0
  H  H12  1  0.69666000  0.26031000  0.07087000  1.0
  H  H13  1  0.30335000  0.73969000  0.92913000  1.0
  H  H14  1  0.97429000  0.35081000  0.59481000  1.0
  H  H15  1  0.02571000  0.64919000  0.40519000  1.0
  H  H16  1  0.13267000  0.47796000  0.59453000  1.0
  H  H17  1  0.86733000  0.52204000  0.40547000  1.0
  H  H18  1  0.33522000  0.89676000  0.39238000  1.0
  H  H19  1  0.66478000  0.10324000  0.60762000  1.0
  C  C20  1  0.92895000  0.69426000  0.80801000  1.0
  C  C21  1  0.07106000  0.30573000  0.19199000  1.0
  C  C22  1  0.96857000  0.84869000  0.75753000  1.0
  C  C23  1  0.03143000  0.15131000  0.24248000  1.0
  C  C24  1  0.92179000  0.00601000  0.79833000  1.0
  C  C25  1  0.07821000  0.99399000  0.20167000  1.0
  C  C26  1  0.83296000  0.00773000  0.89096000  1.0
  C  C27  1  0.16704000  0.99227000  0.10904000  1.0
  C  C28  1  0.56048000  0.69444000  0.18624000  1.0
  C  C29  1  0.43952000  0.30556000  0.81376000  1.0
  C  C30  1  0.51651000  0.53944000  0.23510000  1.0
  C  C31  1  0.48349000  0.46056000  0.76490000  1.0
  C  C32  1  0.56400000  0.38264000  0.19438000  1.0
  C  C33  1  0.43600000  0.61735000  0.80562000  1.0
  C  C34  1  0.65817000  0.38178000  0.10301000  1.0
  C  C35  1  0.34184000  0.61822000  0.89699000  1.0
  C  C36  1  0.80421000  0.53098000  0.95551000  1.0
  C  C37  1  0.19579000  0.46901000  0.04449000  1.0
  C  C38  1  0.69879000  0.85871000  0.04239000  1.0
  C  C39  1  0.30121000  0.14129000  0.95761000  1.0
  C  C40  1  0.79162000  0.85396000  0.94310000  1.0
  C  C41  1  0.20838000  0.14604000  0.05690000  1.0
  C  C42  1  0.84046000  0.69655000  0.90135000  1.0
  C  C43  1  0.15955000  0.30345000  0.09865000  1.0
  C  C44  1  0.70277000  0.53578000  0.05241000  1.0
  C  C45  1  0.29723000  0.46422000  0.94759000  1.0
  C  C46  1  0.65321000  0.69313000  0.09412000  1.0
  C  C47  1  0.34679000  0.30687000  0.90588000  1.0
  S  S48  1  0.07371000  0.84599000  0.63712000  1.0
  S  S49  1  0.92629000  0.15401000  0.36288000  1.0
  S  S50  1  0.40645000  0.54586000  0.35400000  1.0
  S  S51  1  0.59355000  0.45414000  0.64600000  1.0
  O  O52  1  0.18922000  0.99341000  0.62920000  1.0
  O  O53  1  0.81078000  0.00659000  0.37080000  1.0
  O  O54  1  0.92241000  0.87410000  0.57037000  1.0
  O  O55  1  0.07759000  0.12590000  0.42963000  1.0
  O  O56  1  0.17790000  0.68166000  0.62925000  1.0
  O  O57  1  0.82210000  0.31834000  0.37075000  1.0
  O  O58  1  0.36757000  0.36747000  0.38427000  1.0
  O  O59  1  0.63243000  0.63253000  0.61573000  1.0
  O  O60  1  0.54023000  0.61198000  0.41502000  1.0
  O  O61  1  0.45977000  0.38802000  0.58498000  1.0
  O  O62  1  0.24149000  0.66234000  0.34454000  1.0
  O  O63  1  0.75851000  0.33766000  0.65546000  1.0
  O  O64  1  0.65964000  0.99534000  0.08129000  1.0
  O  O65  1  0.34036000  0.00466000  0.91871000  1.0
  O  O66  1  0.85990000  0.39330000  0.92137000  1.0
  O  O67  1  0.14010000  0.60670000  0.07864000  1.0
  O  O68  1  0.42098000  0.95680000  0.42684000  1.0
  O  O69  1  0.57902000  0.04320000  0.57316000  1.0
  O  O70  1  0.10534000  0.36217000  0.57776000  1.0
  O  O71  1  0.89466000  0.63783000  0.42224000  1.0
