# generated using pymatgen
data_SmH14C14N3O9F4
_symmetry_space_group_name_H-M   'P 1'
_cell_length_a   11.46740000
_cell_length_b   12.36535863
_cell_length_c   20.13830000
_cell_angle_alpha   73.82788663
_cell_angle_beta   73.45500000
_cell_angle_gamma   62.37359559
_symmetry_Int_Tables_number   1
_chemical_formula_structural   SmH14C14N3O9F4
_chemical_formula_sum   'Sm4 H56 C56 N12 O36 F16'
_cell_volume   2388.92345345
_cell_formula_units_Z   4
loop_
 _symmetry_equiv_pos_site_id
 _symmetry_equiv_pos_as_xyz
  1  'x, y, z'
loop_
 _atom_site_type_symbol
 _atom_site_label
 _atom_site_symmetry_multiplicity
 _atom_site_fract_x
 _atom_site_fract_y
 _atom_site_fract_z
 _atom_site_occupancy
  Sm  Sm0  1  0.14739000  0.10774000  0.69407000  1.0
  Sm  Sm1  1  0.94913000  0.39230000  0.80592000  1.0
  Sm  Sm2  1  0.85261000  0.89226000  0.30593000  1.0
  Sm  Sm3  1  0.05087000  0.60770000  0.19408000  1.0
  H  H4  1  0.97190000  0.02528000  0.61068000  1.0
  H  H5  1  0.60779000  0.47478000  0.88932000  1.0
  H  H6  1  0.02810000  0.97472000  0.38932000  1.0
  H  H7  1  0.39221000  0.52522000  0.11068000  1.0
  H  H8  1  0.23860000  0.73085000  0.66025000  1.0
  H  H9  1  0.62962000  0.76921000  0.83976000  1.0
  H  H10  1  0.76140000  0.26915000  0.33975000  1.0
  H  H11  1  0.37037000  0.23080000  0.16024000  1.0
  H  H12  1  0.25196000  0.68063000  0.58203000  1.0
  H  H13  1  0.51460000  0.81940000  0.91798000  1.0
  H  H14  1  0.74804000  0.31937000  0.41797000  1.0
  H  H15  1  0.48540000  0.18060000  0.08202000  1.0
  H  H16  1  0.13877000  0.65448000  0.65919000  1.0
  H  H17  1  0.45242000  0.84559000  0.84081000  1.0
  H  H18  1  0.86123000  0.34552000  0.34081000  1.0
  H  H19  1  0.54758000  0.15441000  0.15919000  1.0
  H  H20  1  0.92453000  0.93610000  0.54772000  1.0
  H  H21  1  0.40830000  0.56391000  0.95230000  1.0
  H  H22  1  0.07547000  0.06390000  0.45228000  1.0
  H  H23  1  0.59170000  0.43609000  0.04770000  1.0
  H  H24  1  0.96945000  0.77380000  0.57259000  1.0
  H  H25  1  0.31581000  0.72617000  0.92746000  1.0
  H  H26  1  0.03055000  0.22620000  0.42741000  1.0
  H  H27  1  0.68419000  0.27383000  0.07254000  1.0
  H  H28  1  0.07665000  0.82835000  0.50449000  1.0
  H  H29  1  0.40950000  0.67172000  0.99553000  1.0
  H  H30  1  0.92335000  0.17165000  0.49551000  1.0
  H  H31  1  0.59049000  0.32829000  0.00447000  1.0
  H  H32  1  0.49039000  0.01198000  0.67632000  1.0
  H  H33  1  0.17861667  0.48805000  0.82370000  1.0
  H  H34  1  0.50961000  0.98802000  0.32368000  1.0
  H  H35  1  0.82139333  0.51194000  0.17630000  1.0
  H  H36  1  0.70175000  0.91627000  0.67841000  1.0
  H  H37  1  0.29635000  0.58374000  0.82160000  1.0
  H  H38  1  0.29825000  0.08373000  0.32159000  1.0
  H  H39  1  0.70366000  0.41626000  0.17840000  1.0
  H  H40  1  0.78830000  0.78379000  0.63517000  1.0
  H  H41  1  0.20732000  0.71620000  0.86481000  1.0
  H  H42  1  0.21170000  0.21621000  0.36483000  1.0
  H  H43  1  0.79268000  0.28380000  0.13519000  1.0
  H  H44  1  0.75248000  0.76195000  0.72856000  1.0
  H  H45  1  0.24299000  0.73804000  0.77145000  1.0
  H  H46  1  0.24752000  0.23805000  0.27144000  1.0
  H  H47  1  0.75701000  0.26196000  0.22855000  1.0
  H  H48  1  0.48419000  0.71560000  0.69234000  1.0
  H  H49  1  0.89215000  0.78440000  0.80765000  1.0
  H  H50  1  0.51581000  0.28440000  0.30766000  1.0
  H  H51  1  0.10785000  0.21560000  0.19235000  1.0
  H  H52  1  0.64524000  0.63413000  0.71850000  1.0
  H  H53  1  0.99793000  0.86591000  0.78145000  1.0
  H  H54  1  0.35476000  0.36587000  0.28150000  1.0
  H  H55  1  0.00207000  0.13409000  0.21855000  1.0
  H  H56  1  0.63452000  0.67928000  0.62745000  1.0
  H  H57  1  0.94123000  0.82078000  0.87251000  1.0
  H  H58  1  0.36547000  0.32072000  0.37255000  1.0
  H  H59  1  0.05877000  0.17922000  0.12749000  1.0
  C  C60  1  0.28987000  0.25002000  0.75000000  1.0
  C  C61  1  0.71013000  0.74998000  0.25000000  1.0
  C  C62  1  0.42182000  0.25003000  0.75001000  1.0
  C  C63  1  0.57818000  0.74997000  0.24999000  1.0
  C  C64  1  0.52610000  0.14357000  0.77597000  1.0
  C  C65  1  0.44560000  0.35649000  0.72403000  1.0
  C  C66  1  0.47390000  0.85643000  0.22403000  1.0
  C  C67  1  0.55440000  0.64351000  0.27597000  1.0
  C  C68  1  0.64799000  0.14319000  0.77541000  1.0
  C  C69  1  0.56659000  0.35686000  0.72454000  1.0
  C  C70  1  0.35200000  0.85682000  0.22459000  1.0
  C  C71  1  0.43341000  0.64314000  0.27546000  1.0
  C  C72  1  0.67114000  0.25004000  0.74999000  1.0
  C  C73  1  0.32886000  0.74996000  0.25001000  1.0
  C  C74  1  0.80332000  0.25010000  0.75000000  1.0
  C  C75  1  0.19668000  0.74990000  0.25000000  1.0
  C  C76  1  0.99062000  0.44330000  0.65183000  1.0
  C  C77  1  0.08568000  0.05675000  0.84816000  1.0
  C  C78  1  0.00938000  0.55670000  0.34817000  1.0
  C  C79  1  0.91432000  0.94325000  0.15184000  1.0
  C  C80  1  0.99643000  0.47163000  0.57351000  1.0
  C  C81  1  0.04152000  0.02841000  0.92650000  1.0
  C  C82  1  0.00358000  0.52836000  0.42649000  1.0
  C  C83  1  0.95848000  0.97159000  0.07350000  1.0
  C  C84  1  0.90986000  0.45515000  0.54478000  1.0
  C  C85  1  0.90970000  0.04492000  0.95522000  1.0
  C  C86  1  0.09014000  0.54485000  0.45522000  1.0
  C  C87  1  0.09031000  0.95508000  0.04478000  1.0
  C  C88  1  0.91336000  0.48341000  0.47253000  1.0
  C  C89  1  0.86932000  0.01650000  0.02747000  1.0
  C  C90  1  0.08664000  0.51659000  0.52747000  1.0
  C  C91  1  0.13069000  0.98349000  0.97253000  1.0
  C  C92  1  0.05331000  0.93957000  0.63085000  1.0
  C  C93  1  0.62367000  0.56048000  0.86914000  1.0
  C  C94  1  0.94669000  0.06043000  0.36915000  1.0
  C  C95  1  0.37633000  0.43952000  0.13086000  1.0
  C  C96  1  0.18349000  0.71905000  0.62860000  1.0
  C  C97  1  0.53105000  0.78099000  0.87142000  1.0
  C  C98  1  0.81651000  0.28095000  0.37140000  1.0
  C  C99  1  0.46895000  0.21901000  0.12858000  1.0
  C  C100  1  0.00845000  0.84499000  0.55519000  1.0
  C  C101  1  0.40860000  0.65501000  0.94485000  1.0
  C  C102  1  0.99155000  0.15501000  0.44481000  1.0
  C  C103  1  0.59140000  0.34499000  0.05515000  1.0
  C  C104  1  0.47737000  0.92871000  0.67734000  1.0
  C  C105  1  0.08335000  0.57132000  0.82268000  1.0
  C  C106  1  0.52263000  0.07129000  0.32266000  1.0
  C  C107  1  0.91664000  0.42869000  0.17732000  1.0
  C  C108  1  0.71497000  0.82167000  0.68061000  1.0
  C  C109  1  0.21721000  0.67834000  0.81939000  1.0
  C  C110  1  0.28503000  0.17833000  0.31939000  1.0
  C  C111  1  0.78280000  0.32166000  0.18060000  1.0
  C  C112  1  0.58756000  0.70574000  0.67964000  1.0
  C  C113  1  0.97295000  0.79433000  0.82032000  1.0
  C  C114  1  0.41243000  0.29426000  0.32036000  1.0
  C  C115  1  0.02705000  0.20567000  0.17968000  1.0
  N  N116  1  0.07879000  0.83911000  0.60677000  1.0
  N  N117  1  0.52459000  0.66093000  0.89322000  1.0
  N  N118  1  0.92121000  0.16089000  0.39323000  1.0
  N  N119  1  0.47541000  0.33907000  0.10678000  1.0
  N  N120  1  0.58766000  0.82345000  0.67980000  1.0
  N  N121  1  0.09086000  0.67657000  0.82021000  1.0
  N  N122  1  0.41234000  0.17655000  0.32020000  1.0
  N  N123  1  0.90914000  0.32343000  0.17979000  1.0
  N  N124  1  0.20702000  0.19228000  0.54158000  1.0
  N  N125  1  0.94088000  0.30777000  0.95840000  1.0
  N  N126  1  0.79298000  0.80772000  0.45842000  1.0
  N  N127  1  0.05912000  0.69223000  0.04160000  1.0
  O  O128  1  0.29699000  0.16187000  0.72669000  1.0
  O  O129  1  0.18554000  0.33820000  0.77326000  1.0
  O  O130  1  0.70301000  0.83813000  0.27331000  1.0
  O  O131  1  0.81446000  0.66180000  0.22674000  1.0
  O  O132  1  0.90680000  0.16754000  0.72119000  1.0
  O  O133  1  0.79538000  0.33269000  0.77880000  1.0
  O  O134  1  0.09320000  0.83246000  0.27881000  1.0
  O  O135  1  0.20462000  0.66731000  0.22120000  1.0
  O  O136  1  0.03651000  0.32982000  0.68154000  1.0
  O  O137  1  0.04788000  0.17028000  0.81855000  1.0
  O  O138  1  0.96349000  0.67018000  0.31846000  1.0
  O  O139  1  0.95212000  0.82972000  0.18145000  1.0
  O  O140  1  0.93869000  0.53105000  0.68583000  1.0
  O  O141  1  0.15549000  0.96910000  0.81407000  1.0
  O  O142  1  0.06131000  0.46895000  0.31417000  1.0
  O  O143  1  0.84451000  0.03090000  0.18593000  1.0
  O  O144  1  0.11517000  0.93924000  0.67331000  1.0
  O  O145  1  0.72771000  0.56080000  0.82672000  1.0
  O  O146  1  0.88483000  0.06076000  0.32669000  1.0
  O  O147  1  0.27229000  0.43920000  0.17328000  1.0
  O  O148  1  0.36406000  0.93597000  0.67738000  1.0
  O  O149  1  0.97738000  0.56403000  0.82261000  1.0
  O  O150  1  0.63593000  0.06403000  0.32263000  1.0
  O  O151  1  0.02262000  0.43597000  0.17739000  1.0
  O  O152  1  0.27689000  0.18573000  0.58325000  1.0
  O  O153  1  0.04591000  0.31422000  0.91672000  1.0
  O  O154  1  0.72311000  0.81427000  0.41675000  1.0
  O  O155  1  0.95409000  0.68578000  0.08328000  1.0
  O  O156  1  0.22995000  0.22838000  0.47758000  1.0
  O  O157  1  0.93589000  0.27169000  0.02241000  1.0
  O  O158  1  0.77006000  0.77162000  0.52242000  1.0
  O  O159  1  0.06411000  0.72831000  0.97759000  1.0
  O  O160  1  0.10919000  0.15954000  0.57045000  1.0
  O  O161  1  0.83915000  0.34056000  0.92955000  1.0
  O  O162  1  0.89081000  0.84046000  0.42955000  1.0
  O  O163  1  0.16085000  0.65944000  0.07045000  1.0
  F  F164  1  0.50962000  0.03724000  0.80407000  1.0
  F  F165  1  0.35092000  0.46282000  0.69592000  1.0
  F  F166  1  0.49038000  0.96276000  0.19593000  1.0
  F  F167  1  0.64908000  0.53718000  0.30408000  1.0
  F  F168  1  0.74351000  0.03618000  0.80191000  1.0
  F  F169  1  0.58157000  0.46389000  0.69808000  1.0
  F  F170  1  0.25649000  0.96382000  0.19808000  1.0
  F  F171  1  0.41843000  0.53611000  0.30192000  1.0
  F  F172  1  0.81917000  0.41317000  0.58746000  1.0
  F  F173  1  0.81976000  0.08687000  0.91251000  1.0
  F  F174  1  0.18083000  0.58683000  0.41253000  1.0
  F  F175  1  0.18024000  0.91313000  0.08749000  1.0
  F  F176  1  0.82575000  0.46822000  0.44682000  1.0
  F  F177  1  0.74076000  0.03183000  0.05320000  1.0
  F  F178  1  0.17425000  0.53178000  0.55318000  1.0
  F  F179  1  0.25924000  0.96817000  0.94680000  1.0
