# generated using pymatgen
data_CdH6C8S2N5
_symmetry_space_group_name_H-M   'P 1'
_cell_length_a   9.91987000
_cell_length_b   9.91983000
_cell_length_c   12.28250000
_cell_angle_alpha   83.12860000
_cell_angle_beta   83.12810000
_cell_angle_gamma   83.51100000
_symmetry_Int_Tables_number   1
_chemical_formula_structural   CdH6C8S2N5
_chemical_formula_sum   'Cd4 H24 C32 S8 N20'
_cell_volume   1185.35096126
_cell_formula_units_Z   4
loop_
 _symmetry_equiv_pos_site_id
 _symmetry_equiv_pos_as_xyz
  1  'x, y, z'
loop_
 _atom_site_type_symbol
 _atom_site_label
 _atom_site_symmetry_multiplicity
 _atom_site_fract_x
 _atom_site_fract_y
 _atom_site_fract_z
 _atom_site_occupancy
  Cd  Cd0  1  0.76179000  0.35531000  0.05399000  1.0
  Cd  Cd1  1  0.64469000  0.23821000  0.44601000  1.0
  Cd  Cd2  1  0.23821000  0.64469000  0.94601000  1.0
  Cd  Cd3  1  0.35531000  0.76178000  0.55398000  1.0
  H  H4  1  0.67884000  0.22192000  0.84254000  1.0
  H  H5  1  0.77807000  0.32116000  0.65746000  1.0
  H  H6  1  0.32116000  0.77808000  0.15746000  1.0
  H  H7  1  0.22193000  0.67884000  0.34254000  1.0
  H  H8  1  0.63202000  0.99626000  0.78868000  1.0
  H  H9  1  0.00374000  0.36798000  0.71132000  1.0
  H  H10  1  0.36798000  0.00374000  0.21132000  1.0
  H  H11  1  0.99626000  0.63202000  0.28867000  1.0
  H  H12  1  0.64049000  0.79252000  0.93111000  1.0
  H  H13  1  0.20748000  0.35952000  0.56888000  1.0
  H  H14  1  0.35951000  0.20748000  0.06889000  1.0
  H  H15  1  0.79252000  0.64049000  0.43111000  1.0
  H  H16  1  0.69720000  0.81984000  0.11776000  1.0
  H  H17  1  0.18015000  0.30280000  0.38224000  1.0
  H  H18  1  0.30279000  0.18016000  0.88225000  1.0
  H  H19  1  0.81984000  0.69720000  0.61776000  1.0
  H  H20  1  0.75145000  0.98097000  0.35088000  1.0
  H  H21  1  0.01903000  0.24854000  0.14912000  1.0
  H  H22  1  0.24854000  0.01903000  0.64912000  1.0
  H  H23  1  0.98097000  0.75146000  0.85088000  1.0
  H  H24  1  0.67780000  0.88572000  0.27069000  1.0
  H  H25  1  0.11428000  0.32220000  0.22931000  1.0
  H  H26  1  0.32221000  0.11428000  0.72931000  1.0
  H  H27  1  0.88572000  0.67780000  0.77069000  1.0
  C  C28  1  0.68284000  0.12995000  0.90100000  1.0
  C  C29  1  0.87004000  0.31716000  0.59900000  1.0
  C  C30  1  0.31716000  0.87005000  0.09900000  1.0
  C  C31  1  0.12996000  0.68284000  0.40100000  1.0
  C  C32  1  0.65623000  0.00486000  0.87157000  1.0
  C  C33  1  0.99514000  0.34378000  0.62843000  1.0
  C  C34  1  0.34377000  0.99514000  0.12843000  1.0
  C  C35  1  0.00486000  0.65624000  0.37157000  1.0
  C  C36  1  0.66089000  0.89211000  0.95065000  1.0
  C  C37  1  0.10789000  0.33911000  0.54935000  1.0
  C  C38  1  0.33911000  0.10789000  0.04935000  1.0
  C  C39  1  0.89211000  0.66089000  0.45065000  1.0
  C  C40  1  0.69160000  0.90816000  0.05596000  1.0
  C  C41  1  0.09184000  0.30840000  0.44404000  1.0
  C  C42  1  0.30840000  0.09184000  0.94404000  1.0
  C  C43  1  0.90816000  0.69160000  0.55596000  1.0
  C  C44  1  0.71779000  0.03670000  0.07911000  1.0
  C  C45  1  0.96330000  0.28221000  0.42089000  1.0
  C  C46  1  0.28221000  0.96330000  0.92089000  1.0
  C  C47  1  0.03670000  0.71779000  0.57911000  1.0
  C  C48  1  0.75352000  0.05981000  0.18922000  1.0
  C  C49  1  0.94019000  0.24648000  0.31078000  1.0
  C  C50  1  0.24648000  0.94019000  0.81078000  1.0
  C  C51  1  0.05981000  0.75352000  0.68922000  1.0
  C  C52  1  0.42000000  0.44661000  0.13050000  1.0
  C  C53  1  0.55339000  0.57999000  0.36951000  1.0
  C  C54  1  0.57999000  0.55339000  0.86951000  1.0
  C  C55  1  0.44661000  0.42000000  0.63050000  1.0
  C  C56  1  0.07924000  0.37312000  0.92291000  1.0
  C  C57  1  0.62688000  0.92075000  0.57709000  1.0
  C  C58  1  0.92076000  0.62688000  0.07709000  1.0
  C  C59  1  0.37312000  0.07924000  0.42291000  1.0
  S  S60  1  0.26015000  0.50958000  0.14971000  1.0
  S  S61  1  0.49043000  0.73984000  0.35030000  1.0
  S  S62  1  0.73984000  0.49042000  0.85030000  1.0
  S  S63  1  0.50957000  0.26015000  0.64971000  1.0
  S  S64  1  0.19651000  0.43885000  0.83413000  1.0
  S  S65  1  0.56115000  0.80349000  0.66587000  1.0
  S  S66  1  0.80349000  0.56115000  0.16587000  1.0
  S  S67  1  0.43885000  0.19651000  0.33413000  1.0
  N  N68  1  0.71295000  0.14537000  0.00174000  1.0
  N  N69  1  0.85462000  0.28705000  0.49826000  1.0
  N  N70  1  0.28706000  0.85463000  0.99826000  1.0
  N  N71  1  0.14537000  0.71295000  0.50174000  1.0
  N  N72  1  0.80332000  0.17540000  0.19713000  1.0
  N  N73  1  0.82460000  0.19668000  0.30286000  1.0
  N  N74  1  0.19668000  0.82460000  0.80286000  1.0
  N  N75  1  0.17540000  0.80332000  0.69714000  1.0
  N  N76  1  0.74024000  0.95987000  0.27310000  1.0
  N  N77  1  0.04013000  0.25976000  0.22690000  1.0
  N  N78  1  0.25976000  0.04013000  0.72690000  1.0
  N  N79  1  0.95987000  0.74024000  0.77310000  1.0
  N  N80  1  0.53413000  0.39836000  0.11710000  1.0
  N  N81  1  0.60164000  0.46586000  0.38291000  1.0
  N  N82  1  0.46586000  0.60164000  0.88291000  1.0
  N  N83  1  0.39836000  0.53413000  0.61710000  1.0
  N  N84  1  0.99570000  0.32049000  0.98592000  1.0
  N  N85  1  0.67951000  0.00431000  0.51408000  1.0
  N  N86  1  0.00431000  0.67951000  0.01408000  1.0
  N  N87  1  0.32049000  0.99569000  0.48592000  1.0
