# generated using pymatgen
data_CuH14C12NO4
_symmetry_space_group_name_H-M   'P 1'
_cell_length_a   7.58606000
_cell_length_b   7.97217000
_cell_length_c   11.89850000
_cell_angle_alpha   86.59750000
_cell_angle_beta   85.93960000
_cell_angle_gamma   81.96580000
_symmetry_Int_Tables_number   1
_chemical_formula_structural   CuH14C12NO4
_chemical_formula_sum   'Cu2 H28 C24 N2 O8'
_cell_volume   709.84704231
_cell_formula_units_Z   2
loop_
 _symmetry_equiv_pos_site_id
 _symmetry_equiv_pos_as_xyz
  1  'x, y, z'
loop_
 _atom_site_type_symbol
 _atom_site_label
 _atom_site_symmetry_multiplicity
 _atom_site_fract_x
 _atom_site_fract_y
 _atom_site_fract_z
 _atom_site_occupancy
  Cu  Cu0  1  0.61608000  0.51759000  0.91605000  1.0
  Cu  Cu1  1  0.38392000  0.48241000  0.08395000  1.0
  H  H2  1  0.47521000  0.98382000  0.87295000  1.0
  H  H3  1  0.52478000  0.01620000  0.12702000  1.0
  H  H4  1  0.37146000  0.10684000  0.76292000  1.0
  H  H5  1  0.62852000  0.89319000  0.23707000  1.0
  H  H6  1  0.18163000  0.01320000  0.99096000  1.0
  H  H7  1  0.81836000  0.98682000  0.00903000  1.0
  H  H8  1  0.07592000  0.12981000  0.87871000  1.0
  H  H9  1  0.92407000  0.87020000  0.12128000  1.0
  H  H10  1  0.17173000  0.87300000  0.75639000  1.0
  H  H11  1  0.82828000  0.12701000  0.24360000  1.0
  H  H12  1  0.01410000  0.84108000  0.87172000  1.0
  H  H13  1  0.98592000  0.15891000  0.12827000  1.0
  H  H14  1  0.01036000  0.40192000  0.88389000  1.0
  H  H15  1  0.98966000  0.59808000  0.11612000  1.0
  H  H16  1  0.27078000  0.43195000  0.74771000  1.0
  H  H17  1  0.72922000  0.56805000  0.25230000  1.0
  H  H18  1  0.91063000  0.74322000  0.53155000  1.0
  H  H19  1  0.08935000  0.25676000  0.46846000  1.0
  H  H20  1  0.66388000  0.69842000  0.67737000  1.0
  H  H21  1  0.33611000  0.30157000  0.32265000  1.0
  H  H22  1  0.22119000  0.65126000  0.46128000  1.0
  H  H23  1  0.77880000  0.34872000  0.53872000  1.0
  H  H24  1  0.31575000  0.74047000  0.57062000  1.0
  H  H25  1  0.68424000  0.25953000  0.42938000  1.0
  H  H26  1  0.37947000  0.36098000  0.52599000  1.0
  H  H27  1  0.62053000  0.63901000  0.47402000  1.0
  H  H28  1  0.48185000  0.45988000  0.62754000  1.0
  H  H29  1  0.51814000  0.54012000  0.37246000  1.0
  C  C30  1  0.40850000  0.24303000  0.90662000  1.0
  C  C31  1  0.59150000  0.75697000  0.09338000  1.0
  C  C32  1  0.36426000  0.08485000  0.85520000  1.0
  C  C33  1  0.63574000  0.91516000  0.14479000  1.0
  C  C34  1  0.18591000  0.02965000  0.89856000  1.0
  C  C35  1  0.81409000  0.97037000  0.10142000  1.0
  C  C36  1  0.27814000  0.71728000  0.89599000  1.0
  C  C37  1  0.72187000  0.28271000  0.10401000  1.0
  C  C38  1  0.15152000  0.86444000  0.84870000  1.0
  C  C39  1  0.84850000  0.13556000  0.15130000  1.0
  C  C40  1  0.99353000  0.47358000  0.80355000  1.0
  C  C41  1  0.00649000  0.52642000  0.19646000  1.0
  C  C42  1  0.13813000  0.49083000  0.72715000  1.0
  C  C43  1  0.86187000  0.50915000  0.27287000  1.0
  C  C44  1  0.11364000  0.59080000  0.62736000  1.0
  C  C45  1  0.88634000  0.40918000  0.37265000  1.0
  C  C46  1  0.93900000  0.66564000  0.60855000  1.0
  C  C47  1  0.06099000  0.33435000  0.39147000  1.0
  C  C48  1  0.80109000  0.64085000  0.68876000  1.0
  C  C49  1  0.19890000  0.35914000  0.31124000  1.0
  C  C50  1  0.26862000  0.62310000  0.54663000  1.0
  C  C51  1  0.73137000  0.37689000  0.45337000  1.0
  C  C52  1  0.42652000  0.48092000  0.54404000  1.0
  C  C53  1  0.57349000  0.51907000  0.45595000  1.0
  N  N54  1  0.82680000  0.54675000  0.78522000  1.0
  N  N55  1  0.17323000  0.45324000  0.21478000  1.0
  O  O56  1  0.52592000  0.32022000  0.85115000  1.0
  O  O57  1  0.47407000  0.67979000  0.14885000  1.0
  O  O58  1  0.32777000  0.28454000  0.00035000  1.0
  O  O59  1  0.67225000  0.71545000  0.99966000  1.0
  O  O60  1  0.22749000  0.64948000  0.99019000  1.0
  O  O61  1  0.77250000  0.35053000  0.00981000  1.0
  O  O62  1  0.42821000  0.67928000  0.84155000  1.0
  O  O63  1  0.57180000  0.32074000  0.15845000  1.0
