# generated using pymatgen
data_Zn2H10C17(NO)5
_symmetry_space_group_name_H-M   'P 1'
_cell_length_a   9.83421000
_cell_length_b   9.84517000
_cell_length_c   10.85130000
_cell_angle_alpha   110.13300000
_cell_angle_beta   116.48100000
_cell_angle_gamma   92.93670000
_symmetry_Int_Tables_number   1
_chemical_formula_structural   Zn2H10C17(NO)5
_chemical_formula_sum   'Zn4 H20 C34 N10 O10'
_cell_volume   856.33169983
_cell_formula_units_Z   2
loop_
 _symmetry_equiv_pos_site_id
 _symmetry_equiv_pos_as_xyz
  1  'x, y, z'
loop_
 _atom_site_type_symbol
 _atom_site_label
 _atom_site_symmetry_multiplicity
 _atom_site_fract_x
 _atom_site_fract_y
 _atom_site_fract_z
 _atom_site_occupancy
  Zn  Zn0  1  0.54674000  0.80106000  0.57660000  1.0
  Zn  Zn1  1  0.45326000  0.19893000  0.42340000  1.0
  Zn  Zn2  1  0.45747000  0.68742000  0.21951000  1.0
  Zn  Zn3  1  0.54253000  0.31258000  0.78049000  1.0
  H  H4  1  0.18575000  0.49241000  0.88057000  1.0
  H  H5  1  0.81425000  0.50759000  0.11943000  1.0
  H  H6  1  0.96112000  0.27612000  0.76419000  1.0
  H  H7  1  0.03888000  0.72388000  0.23581000  1.0
  H  H8  1  0.11050000  0.30072000  0.21354000  1.0
  H  H9  1  0.88950000  0.69928000  0.78646000  1.0
  H  H10  1  0.33176000  0.50985000  0.31128000  1.0
  H  H11  1  0.66824000  0.49014000  0.68872000  1.0
  H  H12  1  0.50464000  0.72506000  0.78323000  1.0
  H  H13  1  0.49536000  0.27494000  0.21677000  1.0
  H  H14  1  0.39891000  0.61452000  0.90100000  1.0
  H  H15  1  0.60109000  0.38549000  0.09901000  1.0
  H  H16  1  0.68101000  0.96121000  0.32626000  1.0
  H  H17  1  0.31899000  0.03880000  0.67374000  1.0
  H  H18  1  0.80523000  0.08415000  0.22324000  1.0
  H  H19  1  0.19477000  0.91585000  0.77676000  1.0
  H  H20  1  0.97524000  0.73319000  0.46203000  1.0
  H  H21  1  0.02476000  0.26681000  0.53797000  1.0
  H  H22  1  0.37501000  0.87550000  0.37378000  1.0
  H  H23  1  0.62499000  0.12450000  0.62622000  1.0
  C  C24  1  0.71645000  0.60709000  0.44014000  1.0
  C  C25  1  0.28355000  0.39291000  0.55986000  1.0
  C  C26  1  0.85946000  0.54581000  0.47014000  1.0
  C  C27  1  0.14054000  0.45419000  0.52986000  1.0
  C  C28  1  0.98391000  0.62962000  0.47764000  1.0
  C  C29  1  0.01609000  0.37038000  0.52236000  1.0
  C  C30  1  0.87544000  0.41376000  0.49256000  1.0
  C  C31  1  0.12457000  0.58624000  0.50744000  1.0
  C  C32  1  0.74704000  0.31253000  0.48173000  1.0
  C  C33  1  0.25296000  0.68747000  0.51827000  1.0
  C  C34  1  0.16582000  0.44635000  0.95084000  1.0
  C  C35  1  0.83418000  0.55365000  0.04916000  1.0
  C  C36  1  0.03993000  0.32589000  0.88617000  1.0
  C  C37  1  0.96008000  0.67411000  0.11383000  1.0
  C  C38  1  0.01502000  0.27196000  0.98065000  1.0
  C  C39  1  0.98498000  0.72804000  0.01935000  1.0
  C  C40  1  0.12249000  0.34042000  0.13612000  1.0
  C  C41  1  0.87751000  0.65958000  0.86388000  1.0
  C  C42  1  0.24648000  0.45748000  0.19103000  1.0
  C  C43  1  0.75352000  0.54252000  0.80897000  1.0
  C  C44  1  0.88547000  0.14924000  0.92771000  1.0
  C  C45  1  0.11453000  0.85076000  0.07229000  1.0
  C  C46  1  0.73588000  0.99218000  0.93372000  1.0
  C  C47  1  0.26412000  0.00782000  0.06628000  1.0
  C  C48  1  0.66530000  0.91677000  0.99343000  1.0
  C  C49  1  0.33470000  0.08323000  0.00657000  1.0
  C  C50  1  0.54890000  0.78283000  0.90396000  1.0
  C  C51  1  0.45110000  0.21717000  0.09604000  1.0
  C  C52  1  0.48728000  0.71996000  0.97001000  1.0
  C  C53  1  0.51271000  0.28004000  0.02999000  1.0
  C  C54  1  0.64689000  0.91165000  0.20683000  1.0
  C  C55  1  0.35311000  0.08835000  0.79317000  1.0
  C  C56  1  0.71459000  0.98058000  0.14887000  1.0
  C  C57  1  0.28541000  0.01942000  0.85113000  1.0
  N  N58  1  0.26824000  0.51261000  0.10100000  1.0
  N  N59  1  0.73176000  0.48739000  0.89900000  1.0
  N  N60  1  0.78369000  0.06016000  0.78123000  1.0
  N  N61  1  0.21631000  0.93984000  0.21877000  1.0
  N  N62  1  0.68847000  0.95885000  0.78485000  1.0
  N  N63  1  0.31153000  0.04115000  0.21516000  1.0
  N  N64  1  0.85874000  0.11118000  0.02520000  1.0
  N  N65  1  0.14126000  0.88882000  0.97480000  1.0
  N  N66  1  0.53412000  0.78242000  0.11866000  1.0
  N  N67  1  0.46587000  0.21758000  0.88134000  1.0
  O  O68  1  0.70153000  0.67970000  0.55276000  1.0
  O  O69  1  0.29847000  0.32030000  0.44723000  1.0
  O  O70  1  0.63080000  0.58993000  0.30372000  1.0
  O  O71  1  0.36920000  0.41006000  0.69627000  1.0
  O  O72  1  0.77189000  0.19993000  0.50872000  1.0
  O  O73  1  0.22811000  0.80007000  0.49129000  1.0
  O  O74  1  0.61353000  0.34969000  0.44188000  1.0
  O  O75  1  0.38647000  0.65031000  0.55812000  1.0
  O  O76  1  0.47112000  0.83955000  0.39645000  1.0
  O  O77  1  0.52887000  0.16044000  0.60355000  1.0
