# generated using pymatgen
data_CuH11C17N8
_symmetry_space_group_name_H-M   'P 1'
_cell_length_a   7.72908000
_cell_length_b   10.75210000
_cell_length_c   11.47660604
_cell_angle_alpha   117.48658298
_cell_angle_beta   97.74016209
_cell_angle_gamma   94.11840000
_symmetry_Int_Tables_number   1
_chemical_formula_structural   CuH11C17N8
_chemical_formula_sum   'Cu2 H22 C34 N16'
_cell_volume   828.58586156
_cell_formula_units_Z   2
loop_
 _symmetry_equiv_pos_site_id
 _symmetry_equiv_pos_as_xyz
  1  'x, y, z'
loop_
 _atom_site_type_symbol
 _atom_site_label
 _atom_site_symmetry_multiplicity
 _atom_site_fract_x
 _atom_site_fract_y
 _atom_site_fract_z
 _atom_site_occupancy
  Cu  Cu0  1  0.60213000  0.30186000  0.27836000  1.0
  Cu  Cu1  1  0.39790000  0.69813000  0.72162000  1.0
  H  H2  1  0.87517000  0.46747000  0.54483000  1.0
  H  H3  1  0.12483000  0.53252000  0.45518000  1.0
  H  H4  1  0.03629000  0.39994000  0.70726000  1.0
  H  H5  1  0.96368000  0.60005000  0.29275000  1.0
  H  H6  1  0.96969000  0.14732000  0.66483000  1.0
  H  H7  1  0.03027000  0.85268000  0.33518000  1.0
  H  H8  1  0.76842000  0.97096000  0.45210000  1.0
  H  H9  1  0.23155000  0.02904000  0.54791000  1.0
  H  H10  1  0.84805000  0.85320000  0.15125000  1.0
  H  H11  1  0.15194000  0.14678000  0.84871000  1.0
  H  H12  1  0.82415000  0.59740000  0.09109000  1.0
  H  H13  1  0.17582000  0.40258000  0.90888000  1.0
  H  H14  1  0.56580000  0.48067000  0.13073000  1.0
  H  H15  1  0.43418000  0.51935000  0.86929000  1.0
  H  H16  1  0.31952000  0.61373000  0.21343000  1.0
  H  H17  1  0.68050000  0.38629000  0.78661000  1.0
  H  H18  1  0.33637000  0.86651000  0.26309000  1.0
  H  H19  1  0.66366000  0.13353000  0.73696000  1.0
  H  H20  1  0.32604000  0.04791000  0.04321000  1.0
  H  H21  1  0.67404000  0.95208000  0.95676000  1.0
  H  H22  1  0.40421000  0.89125000  0.03110000  1.0
  H  H23  1  0.59586000  0.10876000  0.96888000  1.0
  C  C24  1  0.85917000  0.35851000  0.52752000  1.0
  C  C25  1  0.14082000  0.64150000  0.47250000  1.0
  C  C26  1  0.94483000  0.32028000  0.61865000  1.0
  C  C27  1  0.05515000  0.67973000  0.38137000  1.0
  C  C28  1  0.91064000  0.18052000  0.59402000  1.0
  C  C29  1  0.08933000  0.81949000  0.40600000  1.0
  C  C30  1  0.79835000  0.08156000  0.47594000  1.0
  C  C31  1  0.20162000  0.91845000  0.52407000  1.0
  C  C32  1  0.72415000  0.12593000  0.38654000  1.0
  C  C33  1  0.27584000  0.87407000  0.61346000  1.0
  C  C34  1  0.61459000  0.02855000  0.25508000  1.0
  C  C35  1  0.38544000  0.97146000  0.74492000  1.0
  C  C36  1  0.59389000  0.87441000  0.21142000  1.0
  C  C37  1  0.40612000  0.12560000  0.78858000  1.0
  C  C38  1  0.73178000  0.79929000  0.16300000  1.0
  C  C39  1  0.26820000  0.20070000  0.83698000  1.0
  C  C40  1  0.71928000  0.65703000  0.13235000  1.0
  C  C41  1  0.28070000  0.34297000  0.86764000  1.0
  C  C42  1  0.57270000  0.59083000  0.15236000  1.0
  C  C43  1  0.42729000  0.40918000  0.84765000  1.0
  C  C44  1  0.43486000  0.66571000  0.19906000  1.0
  C  C45  1  0.56514000  0.33431000  0.80097000  1.0
  C  C46  1  0.44380000  0.80719000  0.22764000  1.0
  C  C47  1  0.55621000  0.19283000  0.77239000  1.0
  C  C48  1  0.44490000  0.00023000  0.05125000  1.0
  C  C49  1  0.55517000  0.99976000  0.94872000  1.0
  C  C50  1  0.23171000  0.32967000  0.15554000  1.0
  C  C51  1  0.76830000  0.67032000  0.84444000  1.0
  C  C52  1  0.93093000  0.32655000  0.13936000  1.0
  C  C53  1  0.06908000  0.67344000  0.86061000  1.0
  C  C54  1  0.66014000  0.63031000  0.46779000  1.0
  C  C55  1  0.33985000  0.36967000  0.53221000  1.0
  C  C56  1  0.78605000  0.85699000  0.63351000  1.0
  C  C57  1  0.21389000  0.14300000  0.36651000  1.0
  N  N58  1  0.75104000  0.26349000  0.41462000  1.0
  N  N59  1  0.24897000  0.73651000  0.58538000  1.0
  N  N60  1  0.54727000  0.08602000  0.18584000  1.0
  N  N61  1  0.45278000  0.91398000  0.81414000  1.0
  N  N62  1  0.37561000  0.31024000  0.18396000  1.0
  N  N63  1  0.62440000  0.68975000  0.81603000  1.0
  N  N64  1  0.08252000  0.35623000  0.11460000  1.0
  N  N65  1  0.91749000  0.64375000  0.88537000  1.0
  N  N66  1  0.78629000  0.30863000  0.15653000  1.0
  N  N67  1  0.21371000  0.69137000  0.84345000  1.0
  N  N68  1  0.64286000  0.50608000  0.40119000  1.0
  N  N69  1  0.35717000  0.49391000  0.59879000  1.0
  N  N70  1  0.66408000  0.76502000  0.53402000  1.0
  N  N71  1  0.33587000  0.23496000  0.46600000  1.0
  N  N72  1  0.88584000  0.95138000  0.72350000  1.0
  N  N73  1  0.11411000  0.04863000  0.27654000  1.0
