# generated using pymatgen
data_V2ZnH9C10(NO2)3
_symmetry_space_group_name_H-M   'P 1'
_cell_length_a   7.97340000
_cell_length_b   10.56020000
_cell_length_c   16.70090000
_cell_angle_alpha   89.99990000
_cell_angle_beta   101.26000000
_cell_angle_gamma   89.99980000
_symmetry_Int_Tables_number   1
_chemical_formula_structural   V2ZnH9C10(NO2)3
_chemical_formula_sum   'V8 Zn4 H36 C40 N12 O24'
_cell_volume   1379.15927985
_cell_formula_units_Z   4
loop_
 _symmetry_equiv_pos_site_id
 _symmetry_equiv_pos_as_xyz
  1  'x, y, z'
loop_
 _atom_site_type_symbol
 _atom_site_label
 _atom_site_symmetry_multiplicity
 _atom_site_fract_x
 _atom_site_fract_y
 _atom_site_fract_z
 _atom_site_occupancy
  V  V0  1  0.39954000  0.85791000  0.27837000  1.0
  V  V1  1  0.10047000  0.35791000  0.22163000  1.0
  V  V2  1  0.60046000  0.14209000  0.72163000  1.0
  V  V3  1  0.89954000  0.64209000  0.77837000  1.0
  V  V4  1  0.08022000  0.04300000  0.24121000  1.0
  V  V5  1  0.41978000  0.54300000  0.25879000  1.0
  V  V6  1  0.91978000  0.95701000  0.75879000  1.0
  V  V7  1  0.58022000  0.45701000  0.74121000  1.0
  Zn  Zn8  1  0.67782000  0.98923000  0.17002000  1.0
  Zn  Zn9  1  0.82219000  0.48922000  0.32998000  1.0
  Zn  Zn10  1  0.32219000  0.01077000  0.82998000  1.0
  Zn  Zn11  1  0.17781000  0.51078000  0.67002000  1.0
  H  H12  1  0.81700000  0.00116000  0.93893000  1.0
  H  H13  1  0.68300000  0.50116000  0.56108000  1.0
  H  H14  1  0.18300000  0.99884000  0.06108000  1.0
  H  H15  1  0.31700000  0.49884000  0.43892000  1.0
  H  H16  1  0.71698000  0.71535000  0.18613000  1.0
  H  H17  1  0.78301000  0.21535000  0.31388000  1.0
  H  H18  1  0.28302000  0.28465000  0.81387000  1.0
  H  H19  1  0.21699000  0.78465000  0.68612000  1.0
  H  H20  1  0.83994000  0.53966000  0.11650000  1.0
  H  H21  1  0.66005000  0.03967000  0.38351000  1.0
  H  H22  1  0.16006000  0.46033000  0.88350000  1.0
  H  H23  1  0.33994000  0.96033000  0.61650000  1.0
  H  H24  1  0.93719000  0.59086000  0.98321000  1.0
  H  H25  1  0.56281000  0.09087000  0.51680000  1.0
  H  H26  1  0.06281000  0.40914000  0.01679000  1.0
  H  H27  1  0.43718000  0.90913000  0.48320000  1.0
  H  H28  1  0.90321000  0.80790000  0.92920000  1.0
  H  H29  1  0.59678000  0.30790000  0.57080000  1.0
  H  H30  1  0.09679000  0.19210000  0.07080000  1.0
  H  H31  1  0.40321000  0.69210000  0.42920000  1.0
  H  H32  1  0.75788000  0.19990000  0.90514000  1.0
  H  H33  1  0.74212000  0.69990000  0.59486000  1.0
  H  H34  1  0.24212000  0.80010000  0.09486000  1.0
  H  H35  1  0.25788000  0.30010000  0.40514000  1.0
  H  H36  1  0.64249000  0.40720000  0.93673000  1.0
  H  H37  1  0.85752000  0.90720000  0.56327000  1.0
  H  H38  1  0.35751000  0.59280000  0.06327000  1.0
  H  H39  1  0.14248000  0.09280000  0.43673000  1.0
  H  H40  1  0.51610000  0.42836000  0.06522000  1.0
  H  H41  1  0.98390000  0.92835000  0.43477000  1.0
  H  H42  1  0.48390000  0.57165000  0.93478000  1.0
  H  H43  1  0.01610000  0.07165000  0.56522000  1.0
  H  H44  1  0.52419000  0.24118000  0.15509000  1.0
  H  H45  1  0.97581000  0.74118000  0.34491000  1.0
  H  H46  1  0.47581000  0.75882000  0.84491000  1.0
  H  H47  1  0.02419000  0.25882000  0.65509000  1.0
  C  C48  1  0.76127000  0.73188000  0.12924000  1.0
  C  C49  1  0.73872000  0.23188000  0.37076000  1.0
  C  C50  1  0.23873000  0.26812000  0.87076000  1.0
  C  C51  1  0.26127000  0.76812000  0.62924000  1.0
  C  C52  1  0.82873000  0.63439000  0.09032000  1.0
  C  C53  1  0.67126000  0.13439000  0.40968000  1.0
  C  C54  1  0.17126000  0.36561000  0.90968000  1.0
  C  C55  1  0.32874000  0.86561000  0.59032000  1.0
  C  C56  1  0.88165000  0.66251000  0.01704000  1.0
  C  C57  1  0.61834000  0.16252000  0.48297000  1.0
  C  C58  1  0.11834000  0.33748000  0.98296000  1.0
  C  C59  1  0.38166000  0.83748000  0.51703000  1.0
  C  C60  1  0.86215000  0.78367000  0.98566000  1.0
  C  C61  1  0.63784000  0.28367000  0.51435000  1.0
  C  C62  1  0.13785000  0.21633000  0.01434000  1.0
  C  C63  1  0.36215000  0.71633000  0.48565000  1.0
  C  C64  1  0.79068000  0.87831000  0.02812000  1.0
  C  C65  1  0.70931000  0.37831000  0.47188000  1.0
  C  C66  1  0.20932000  0.12169000  0.97188000  1.0
  C  C67  1  0.29068000  0.62169000  0.52812000  1.0
  C  C68  1  0.70589000  0.11000000  0.01417000  1.0
  C  C69  1  0.79411000  0.60999000  0.48583000  1.0
  C  C70  1  0.29411000  0.89001000  0.98583000  1.0
  C  C71  1  0.20589000  0.39001000  0.51417000  1.0
  C  C72  1  0.70559000  0.21261000  0.96007000  1.0
  C  C73  1  0.79442000  0.71261000  0.53993000  1.0
  C  C74  1  0.29441000  0.78739000  0.03993000  1.0
  C  C75  1  0.20558000  0.28739000  0.46007000  1.0
  C  C76  1  0.63901000  0.32753000  0.97786000  1.0
  C  C77  1  0.86099000  0.82753000  0.52213000  1.0
  C  C78  1  0.36099000  0.67247000  0.02214000  1.0
  C  C79  1  0.13901000  0.17247000  0.47786000  1.0
  C  C80  1  0.56976000  0.34006000  0.04840000  1.0
  C  C81  1  0.93024000  0.84005000  0.45160000  1.0
  C  C82  1  0.43024000  0.65994000  0.95160000  1.0
  C  C83  1  0.06976000  0.15995000  0.54840000  1.0
  C  C84  1  0.57498000  0.23643000  0.09908000  1.0
  C  C85  1  0.92502000  0.73642000  0.40092000  1.0
  C  C86  1  0.42502000  0.76357000  0.90092000  1.0
  C  C87  1  0.07498000  0.26358000  0.59908000  1.0
  N  N88  1  0.74328000  0.85167000  0.09966000  1.0
  N  N89  1  0.75672000  0.35167000  0.40035000  1.0
  N  N90  1  0.25673000  0.14833000  0.90034000  1.0
  N  N91  1  0.24327000  0.64833000  0.59965000  1.0
  N  N92  1  0.77148000  0.99689000  0.99304000  1.0
  N  N93  1  0.72852000  0.49689000  0.50696000  1.0
  N  N94  1  0.22852000  0.00311000  0.00696000  1.0
  N  N95  1  0.27147000  0.50311000  0.49304000  1.0
  N  N96  1  0.64316000  0.12358000  0.08341000  1.0
  N  N97  1  0.85684000  0.62357000  0.41659000  1.0
  N  N98  1  0.35683000  0.87642000  0.91659000  1.0
  N  N99  1  0.14316000  0.37643000  0.58341000  1.0
  O  O100  1  0.47482000  0.94847000  0.20920000  1.0
  O  O101  1  0.02519000  0.44847000  0.29081000  1.0
  O  O102  1  0.52519000  0.05153000  0.79081000  1.0
  O  O103  1  0.97481000  0.55153000  0.70919000  1.0
  O  O104  1  0.21662000  0.93556000  0.30764000  1.0
  O  O105  1  0.28338000  0.43555000  0.19236000  1.0
  O  O106  1  0.78339000  0.06445000  0.69236000  1.0
  O  O107  1  0.71661000  0.56445000  0.80764000  1.0
  O  O108  1  0.34371000  0.70221000  0.23687000  1.0
  O  O109  1  0.15630000  0.20220000  0.26313000  1.0
  O  O110  1  0.65629000  0.29779000  0.76313000  1.0
  O  O111  1  0.84371000  0.79780000  0.73687000  1.0
  O  O112  1  0.54795000  0.84198000  0.35912000  1.0
  O  O113  1  0.95206000  0.34199000  0.14088000  1.0
  O  O114  1  0.45205000  0.15801000  0.64088000  1.0
  O  O115  1  0.04795000  0.65801000  0.85912000  1.0
  O  O116  1  0.08409000  0.00621000  0.14620000  1.0
  O  O117  1  0.41592000  0.50622000  0.35380000  1.0
  O  O118  1  0.91592000  0.99378000  0.85380000  1.0
  O  O119  1  0.58408000  0.49378000  0.64620000  1.0
  O  O120  1  0.87619000  0.02796000  0.25604000  1.0
  O  O121  1  0.62380000  0.52796000  0.24396000  1.0
  O  O122  1  0.12380000  0.97204000  0.74396000  1.0
  O  O123  1  0.37620000  0.47204000  0.75604000  1.0
