# generated using pymatgen
data_ZnH4C16Cl5O4
_symmetry_space_group_name_H-M   'P 1'
_cell_length_a   7.45232000
_cell_length_b   17.70810000
_cell_length_c   34.66640000
_cell_angle_alpha   90.08110000
_cell_angle_beta   90.05450000
_cell_angle_gamma   89.86640000
_symmetry_Int_Tables_number   1
_chemical_formula_structural   ZnH4C16Cl5O4
_chemical_formula_sum   'Zn4 H16 C64 Cl20 O16'
_cell_volume   4574.78189742
_cell_formula_units_Z   4
loop_
 _symmetry_equiv_pos_site_id
 _symmetry_equiv_pos_as_xyz
  1  'x, y, z'
loop_
 _atom_site_type_symbol
 _atom_site_label
 _atom_site_symmetry_multiplicity
 _atom_site_fract_x
 _atom_site_fract_y
 _atom_site_fract_z
 _atom_site_occupancy
  Zn  Zn0  1  0.34645000  0.00020000  0.49986000  1.0
  Zn  Zn1  1  0.71035000  0.00993000  0.50001000  1.0
  Zn  Zn2  1  0.74406000  0.99933000  0.99996000  1.0
  Zn  Zn3  1  0.38011000  0.00972000  0.99978000  1.0
  H  H4  1  0.75049000  0.98529000  0.25444000  1.0
  H  H5  1  0.33936000  0.98564000  0.24539000  1.0
  H  H6  1  0.75093000  0.98634000  0.74539000  1.0
  H  H7  1  0.33990000  0.98482000  0.75438000  1.0
  H  H8  1  0.35517000  0.77859000  0.49992000  1.0
  H  H9  1  0.32959000  0.63882000  0.49996000  1.0
  H  H10  1  0.90883000  0.62428000  0.50002000  1.0
  H  H11  1  0.29961000  0.38907000  0.50001000  1.0
  H  H12  1  0.85681000  0.23679000  0.50003000  1.0
  H  H13  1  0.87902000  0.37673000  0.50006000  1.0
  H  H14  1  0.73618000  0.77784000  0.99943000  1.0
  H  H15  1  0.76238000  0.63812000  0.00023000  1.0
  H  H16  1  0.18331000  0.62434000  0.00206000  1.0
  H  H17  1  0.79185000  0.38773000  0.00152000  1.0
  H  H18  1  0.23372000  0.23713000  0.00073000  1.0
  H  H19  1  0.21237000  0.37711000  0.00139000  1.0
  C  C20  1  0.63242000  0.86554000  0.49996000  1.0
  C  C21  1  0.45275000  0.99906000  0.42737000  1.0
  C  C22  1  0.57615000  0.14890000  0.49996000  1.0
  C  C23  1  0.45224000  0.99935000  0.57245000  1.0
  C  C24  1  0.45875000  0.86519000  0.00001000  1.0
  C  C25  1  0.63757000  0.99874000  0.07246000  1.0
  C  C26  1  0.51392000  0.14841000  0.00019000  1.0
  C  C27  1  0.63753000  0.99867000  0.92736000  1.0
  C  C28  1  0.64043000  0.99334000  0.11577000  1.0
  C  C29  1  0.58070000  0.92732000  0.13379000  1.0
  C  C30  1  0.57214000  0.92328000  0.17425000  1.0
  C  C31  1  0.62577000  0.98517000  0.19703000  1.0
  C  C32  1  0.68872000  0.05061000  0.17843000  1.0
  C  C33  1  0.69441000  0.05523000  0.13804000  1.0
  C  C34  1  0.62081000  0.98341000  0.23965000  1.0
  C  C35  1  0.46904000  0.98351000  0.26018000  1.0
  C  C36  1  0.40126000  0.05085000  0.32148000  1.0
  C  C37  1  0.46420000  0.98528000  0.30281000  1.0
  C  C38  1  0.51813000  0.92333000  0.32552000  1.0
  C  C39  1  0.50980000  0.92743000  0.36598000  1.0
  C  C40  1  0.44983000  0.99356000  0.38407000  1.0
  C  C41  1  0.39565000  0.05551000  0.36188000  1.0
  C  C42  1  0.64076000  0.99329000  0.88406000  1.0
  C  C43  1  0.58116000  0.92728000  0.86588000  1.0
  C  C44  1  0.57277000  0.92335000  0.82541000  1.0
  C  C45  1  0.62643000  0.98532000  0.80279000  1.0
  C  C46  1  0.68929000  0.05072000  0.82155000  1.0
  C  C47  1  0.69487000  0.05524000  0.86195000  1.0
  C  C48  1  0.62138000  0.98379000  0.76016000  1.0
  C  C49  1  0.46953000  0.98337000  0.73960000  1.0
  C  C50  1  0.39985000  0.05071000  0.67845000  1.0
  C  C51  1  0.46430000  0.98532000  0.69698000  1.0
  C  C52  1  0.51918000  0.92361000  0.67416000  1.0
  C  C53  1  0.51038000  0.92775000  0.63370000  1.0
  C  C54  1  0.44919000  0.99374000  0.61574000  1.0
  C  C55  1  0.39393000  0.05547000  0.63805000  1.0
  C  C56  1  0.64096000  0.78126000  0.49997000  1.0
  C  C57  1  0.47480000  0.74350000  0.49995000  1.0
  C  C58  1  0.46086000  0.66575000  0.49997000  1.0
  C  C59  1  0.61835000  0.62131000  0.50000000  1.0
  C  C60  1  0.78608000  0.65773000  0.50000000  1.0
  C  C61  1  0.79767000  0.73638000  0.49999000  1.0
  C  C62  1  0.60853000  0.54166000  0.50002000  1.0
  C  C63  1  0.59875000  0.47287000  0.50003000  1.0
  C  C64  1  0.59026000  0.39318000  0.50003000  1.0
  C  C65  1  0.42326000  0.35622000  0.50002000  1.0
  C  C66  1  0.41341000  0.27760000  0.50001000  1.0
  C  C67  1  0.57102000  0.23314000  0.49999000  1.0
  C  C68  1  0.73635000  0.27134000  0.50002000  1.0
  C  C69  1  0.74845000  0.34922000  0.50003000  1.0
  C  C70  1  0.45048000  0.78094000  0.00035000  1.0
  C  C71  1  0.61669000  0.74295000  0.00002000  1.0
  C  C72  1  0.63096000  0.66518000  0.00043000  1.0
  C  C73  1  0.47374000  0.62093000  0.00112000  1.0
  C  C74  1  0.30591000  0.65760000  0.00147000  1.0
  C  C75  1  0.29397000  0.73627000  0.00112000  1.0
  C  C76  1  0.48378000  0.54125000  0.00142000  1.0
  C  C77  1  0.49317000  0.47244000  0.00156000  1.0
  C  C78  1  0.50124000  0.39272000  0.00144000  1.0
  C  C79  1  0.66802000  0.35524000  0.00134000  1.0
  C  C80  1  0.67741000  0.27659000  0.00093000  1.0
  C  C81  1  0.51950000  0.23260000  0.00065000  1.0
  C  C82  1  0.35440000  0.27130000  0.00088000  1.0
  C  C83  1  0.34278000  0.34922000  0.00125000  1.0
  Cl  Cl84  1  0.76202000  0.13675000  0.11547000  1.0
  Cl  Cl85  1  0.75484000  0.12627000  0.20617000  1.0
  Cl  Cl86  1  0.52050000  0.85106000  0.10586000  1.0
  Cl  Cl87  1  0.49943000  0.84149000  0.19579000  1.0
  Cl  Cl88  1  0.59117000  0.84145000  0.30385000  1.0
  Cl  Cl89  1  0.57070000  0.85117000  0.39381000  1.0
  Cl  Cl90  1  0.33482000  0.12657000  0.29384000  1.0
  Cl  Cl91  1  0.32802000  0.13717000  0.38454000  1.0
  Cl  Cl92  1  0.76229000  0.13670000  0.88473000  1.0
  Cl  Cl93  1  0.75541000  0.12646000  0.79401000  1.0
  Cl  Cl94  1  0.52064000  0.85099000  0.89362000  1.0
  Cl  Cl95  1  0.50001000  0.84161000  0.80366000  1.0
  Cl  Cl96  1  0.59393000  0.84190000  0.69565000  1.0
  Cl  Cl97  1  0.57221000  0.85169000  0.60573000  1.0
  Cl  Cl98  1  0.33195000  0.12608000  0.70625000  1.0
  Cl  Cl99  1  0.32465000  0.13696000  0.61556000  1.0
  Cl  Cl100  1  0.01097000  0.77405000  0.50001000  1.0
  Cl  Cl101  1  0.19982000  0.23985000  0.50002000  1.0
  Cl  Cl102  1  0.08055000  0.77423000  0.00185000  1.0
  Cl  Cl103  1  0.89081000  0.23824000  0.00077000  1.0
  O  O104  1  0.47660000  0.89483000  0.49990000  1.0
  O  O105  1  0.77858000  0.90445000  0.50003000  1.0
  O  O106  1  0.60443000  0.00819000  0.44282000  1.0
  O  O107  1  0.30118000  0.99399000  0.44478000  1.0
  O  O108  1  0.73424000  0.11835000  0.50001000  1.0
  O  O109  1  0.43078000  0.11197000  0.49987000  1.0
  O  O110  1  0.30082000  0.99420000  0.55491000  1.0
  O  O111  1  0.60399000  0.00860000  0.55712000  1.0
  O  O112  1  0.61449000  0.89425000  0.99989000  1.0
  O  O113  1  0.31245000  0.90429000  0.99986000  1.0
  O  O114  1  0.48587000  0.00799000  0.05701000  1.0
  O  O115  1  0.78920000  0.99344000  0.05506000  1.0
  O  O116  1  0.35580000  0.11823000  0.00003000  1.0
  O  O117  1  0.65922000  0.11113000  0.00001000  1.0
  O  O118  1  0.78901000  0.99334000  0.94487000  1.0
  O  O119  1  0.48568000  0.00798000  0.94270000  1.0
