# generated using pymatgen
data_CuH12C11NO4
_symmetry_space_group_name_H-M   'P 1'
_cell_length_a   9.14871000
_cell_length_b   11.85960000
_cell_length_c   13.42714954
_cell_angle_alpha   116.21396530
_cell_angle_beta   90.43490143
_cell_angle_gamma   89.98490000
_symmetry_Int_Tables_number   1
_chemical_formula_structural   CuH12C11NO4
_chemical_formula_sum   'Cu4 H48 C44 N4 O16'
_cell_volume   1306.96530043
_cell_formula_units_Z   4
loop_
 _symmetry_equiv_pos_site_id
 _symmetry_equiv_pos_as_xyz
  1  'x, y, z'
loop_
 _atom_site_type_symbol
 _atom_site_label
 _atom_site_symmetry_multiplicity
 _atom_site_fract_x
 _atom_site_fract_y
 _atom_site_fract_z
 _atom_site_occupancy
  Cu  Cu0  1  0.42105000  0.43409000  0.41424000  1.0
  Cu  Cu1  1  0.07891000  0.01985000  0.58581000  1.0
  Cu  Cu2  1  0.57895000  0.56591000  0.58576000  1.0
  Cu  Cu3  1  0.92109000  0.98015000  0.41419000  1.0
  H  H4  1  0.40837000  0.17343000  0.57798000  1.0
  H  H5  1  0.57899000  0.13502000  0.51391000  1.0
  H  H6  1  0.69261000  0.28730000  0.70738000  1.0
  H  H7  1  0.52072000  0.27966000  0.76259000  1.0
  H  H8  1  0.54644000  0.03485000  0.66042000  1.0
  H  H9  1  0.66171000  0.11709000  0.77824000  1.0
  H  H10  1  0.24829000  0.19562000  0.36100000  1.0
  H  H11  1  0.06486000  0.05322000  0.22688000  1.0
  H  H12  1  0.10524000  0.27403000  0.04414000  1.0
  H  H13  1  0.28634000  0.40972000  0.18936000  1.0
  H  H14  1  0.86980000  0.04684000  0.07945000  1.0
  H  H15  1  0.92221000  0.10655000  0.98492000  1.0
  H  H16  1  0.09159000  0.59524000  0.42193000  1.0
  H  H17  1  0.92101000  0.62110000  0.48609000  1.0
  H  H18  1  0.80722000  0.58016000  0.29273000  1.0
  H  H19  1  0.97906000  0.51721000  0.23740000  1.0
  H  H20  1  0.95351000  0.37450000  0.33943000  1.0
  H  H21  1  0.83822000  0.33895000  0.22164000  1.0
  H  H22  1  0.25141000  0.83444000  0.63936000  1.0
  H  H23  1  0.43524000  0.82618000  0.77330000  1.0
  H  H24  1  0.39478000  0.22981000  0.95594000  1.0
  H  H25  1  0.21372000  0.22028000  0.81070000  1.0
  H  H26  1  0.63034000  0.96741000  0.92070000  1.0
  H  H27  1  0.57775000  0.12166000  0.01521000  1.0
  H  H28  1  0.59163000  0.82657000  0.42202000  1.0
  H  H29  1  0.42101000  0.86498000  0.48609000  1.0
  H  H30  1  0.30739000  0.71270000  0.29262000  1.0
  H  H31  1  0.47927000  0.72033000  0.23741000  1.0
  H  H32  1  0.45357000  0.96513000  0.33957000  1.0
  H  H33  1  0.33829000  0.88291000  0.22176000  1.0
  H  H34  1  0.75171000  0.80439000  0.63901000  1.0
  H  H35  1  0.93514000  0.94678000  0.77312000  1.0
  H  H36  1  0.89476000  0.72598000  0.95587000  1.0
  H  H37  1  0.71366000  0.59028000  0.81064000  1.0
  H  H38  1  0.13021000  0.95315000  0.92054000  1.0
  H  H39  1  0.07779000  0.89345000  0.01508000  1.0
  H  H40  1  0.90842000  0.40476000  0.57807000  1.0
  H  H41  1  0.07899000  0.37890000  0.51391000  1.0
  H  H42  1  0.19279000  0.41984000  0.70727000  1.0
  H  H43  1  0.02094000  0.48279000  0.76260000  1.0
  H  H44  1  0.04649000  0.62550000  0.66058000  1.0
  H  H45  1  0.16178000  0.66106000  0.77837000  1.0
  H  H46  1  0.74858000  0.16555000  0.36063000  1.0
  H  H47  1  0.56476000  0.17382000  0.22670000  1.0
  H  H48  1  0.60522000  0.77019000  0.04406000  1.0
  H  H49  1  0.78628000  0.77972000  0.18930000  1.0
  H  H50  1  0.36965000  0.03258000  0.07929000  1.0
  H  H51  1  0.42225000  0.87834000  0.98479000  1.0
  C  C52  1  0.51692000  0.32143000  0.55937000  1.0
  C  C53  1  0.52078000  0.20880000  0.58382000  1.0
  C  C54  1  0.59438000  0.22836000  0.69265000  1.0
  C  C55  1  0.63682000  0.10275000  0.69347000  1.0
  C  C56  1  0.77100000  0.04998000  0.62281000  1.0
  C  C57  1  0.21325000  0.20932000  0.28930000  1.0
  C  C58  1  0.11121000  0.13004000  0.21345000  1.0
  C  C59  1  0.07015000  0.15086000  0.12229000  1.0
  C  C60  1  0.13438000  0.25290000  0.11303000  1.0
  C  C61  1  0.23531000  0.32835000  0.19306000  1.0
  C  C62  1  0.96405000  0.06376000  0.03729000  1.0
  C  C63  1  0.98322000  0.76205000  0.44070000  1.0
  C  C64  1  0.97921000  0.62494000  0.41618000  1.0
  C  C65  1  0.90544000  0.53582000  0.30735000  1.0
  C  C66  1  0.86305000  0.40935000  0.30642000  1.0
  C  C67  1  0.72896000  0.42711000  0.37714000  1.0
  C  C68  1  0.28653000  0.91986000  0.71101000  1.0
  C  C69  1  0.38882000  0.91644000  0.78674000  1.0
  C  C70  1  0.42992000  0.02847000  0.87780000  1.0
  C  C71  1  0.36559000  0.13977000  0.88708000  1.0
  C  C72  1  0.26466000  0.13518000  0.80705000  1.0
  C  C73  1  0.53602000  0.02649000  0.96279000  1.0
  C  C74  1  0.48308000  0.67857000  0.44063000  1.0
  C  C75  1  0.47921000  0.79120000  0.41618000  1.0
  C  C76  1  0.40562000  0.77163000  0.30734000  1.0
  C  C77  1  0.36317000  0.89725000  0.30653000  1.0
  C  C78  1  0.22900000  0.95003000  0.37720000  1.0
  C  C79  1  0.78675000  0.79068000  0.71070000  1.0
  C  C80  1  0.88879000  0.86996000  0.78655000  1.0
  C  C81  1  0.92985000  0.84914000  0.87771000  1.0
  C  C82  1  0.86562000  0.74711000  0.88698000  1.0
  C  C83  1  0.76469000  0.67165000  0.80694000  1.0
  C  C84  1  0.03595000  0.93624000  0.96271000  1.0
  C  C85  1  0.01678000  0.23795000  0.55930000  1.0
  C  C86  1  0.02080000  0.37505000  0.58381000  1.0
  C  C87  1  0.09456000  0.46418000  0.69265000  1.0
  C  C88  1  0.13695000  0.59064000  0.69358000  1.0
  C  C89  1  0.27104000  0.57289000  0.62287000  1.0
  C  C90  1  0.71346000  0.08014000  0.28898000  1.0
  C  C91  1  0.61117000  0.08357000  0.21326000  1.0
  C  C92  1  0.57007000  0.97154000  0.12220000  1.0
  C  C93  1  0.63441000  0.86023000  0.11292000  1.0
  C  C94  1  0.73533000  0.86482000  0.19295000  1.0
  C  C95  1  0.46398000  0.97351000  0.03721000  1.0
  N  N96  1  0.27530000  0.30708000  0.27978000  1.0
  N  N97  1  0.22457000  0.02715000  0.72042000  1.0
  N  N98  1  0.72471000  0.69292000  0.72022000  1.0
  N  N99  1  0.77543000  0.97285000  0.27958000  1.0
  O  O100  1  0.44555000  0.30597000  0.47196000  1.0
  O  O101  1  0.58520000  0.42118000  0.62383000  1.0
  O  O102  1  0.89217000  0.05657000  0.67276000  1.0
  O  O103  1  0.75399000  0.00807000  0.51808000  1.0
  O  O104  1  0.05452000  0.83396000  0.52816000  1.0
  O  O105  1  0.91504000  0.79738000  0.37619000  1.0
  O  O106  1  0.60775000  0.38383000  0.32724000  1.0
  O  O107  1  0.74606000  0.48985000  0.48186000  1.0
  O  O108  1  0.55445000  0.69403000  0.52804000  1.0
  O  O109  1  0.41480000  0.57881000  0.37617000  1.0
  O  O110  1  0.10783000  0.94342000  0.32724000  1.0
  O  O111  1  0.24602000  0.99194000  0.48192000  1.0
  O  O112  1  0.94548000  0.16604000  0.47183000  1.0
  O  O113  1  0.08495000  0.20261000  0.62380000  1.0
  O  O114  1  0.39225000  0.61617000  0.67276000  1.0
  O  O115  1  0.25394000  0.51015000  0.51814000  1.0
