# generated using pymatgen
data_CdH18C22(NO)4
_symmetry_space_group_name_H-M   'P 1'
_cell_length_a   8.09185000
_cell_length_b   11.41460000
_cell_length_c   12.95460496
_cell_angle_alpha   63.87686729
_cell_angle_beta   71.83616359
_cell_angle_gamma   89.99000000
_symmetry_Int_Tables_number   1
_chemical_formula_structural   CdH18C22(NO)4
_chemical_formula_sum   'Cd2 H36 C44 N8 O8'
_cell_volume   1007.52738459
_cell_formula_units_Z   2
loop_
 _symmetry_equiv_pos_site_id
 _symmetry_equiv_pos_as_xyz
  1  'x, y, z'
loop_
 _atom_site_type_symbol
 _atom_site_label
 _atom_site_symmetry_multiplicity
 _atom_site_fract_x
 _atom_site_fract_y
 _atom_site_fract_z
 _atom_site_occupancy
  Cd  Cd0  1  0.99977000  0.08294000  0.00013000  1.0
  Cd  Cd1  1  0.50028000  0.58370000  0.99981000  1.0
  H  H2  1  0.56282000  0.89717000  0.84463000  1.0
  H  H3  1  0.43764000  0.74129000  0.15515000  1.0
  H  H4  1  0.09253000  0.39653000  0.84513000  1.0
  H  H5  1  0.90729000  0.24170000  0.15511000  1.0
  H  H6  1  0.59898000  0.30211000  0.80071000  1.0
  H  H7  1  0.40110000  0.10173000  0.19940000  1.0
  H  H8  1  0.10037000  0.80295000  0.80039000  1.0
  H  H9  1  0.89979000  0.60283000  0.19956000  1.0
  H  H10  1  0.72830000  0.42784000  0.80152000  1.0
  H  H11  1  0.27243000  0.22867000  0.19845000  1.0
  H  H12  1  0.96986000  0.92857000  0.80090000  1.0
  H  H13  1  0.03013000  0.72903000  0.19909000  1.0
  H  H14  1  0.70789000  0.25697000  0.61361000  1.0
  H  H15  1  0.29210000  0.87006000  0.38659000  1.0
  H  H16  1  0.17839000  0.75679000  0.61374000  1.0
  H  H17  1  0.82133000  0.37063000  0.38653000  1.0
  H  H18  1  0.92101000  0.60195000  0.61446000  1.0
  H  H19  1  0.07932000  0.21625000  0.38536000  1.0
  H  H20  1  0.96505000  0.10247000  0.61340000  1.0
  H  H21  1  0.03524000  0.71592000  0.38645000  1.0
  H  H22  1  0.33546000  0.92552000  0.01846000  1.0
  H  H23  1  0.66475000  0.94359000  0.98158000  1.0
  H  H24  1  0.14647000  0.42522000  0.01880000  1.0
  H  H25  1  0.85400000  0.44416000  0.98132000  1.0
  H  H26  1  0.20569000  0.13551000  0.70167000  1.0
  H  H27  1  0.79432000  0.83660000  0.29849000  1.0
  H  H28  1  0.59190000  0.63545000  0.70176000  1.0
  H  H29  1  0.40733000  0.33712000  0.29779000  1.0
  H  H30  1  0.61443000  0.83542000  0.69657000  1.0
  H  H31  1  0.38592000  0.53156000  0.30327000  1.0
  H  H32  1  0.18850000  0.33515000  0.69677000  1.0
  H  H33  1  0.81085000  0.03187000  0.30306000  1.0
  H  H34  1  0.79640000  0.84293000  0.49984000  1.0
  H  H35  1  0.20338000  0.34265000  0.49992000  1.0
  H  H36  1  0.46953000  0.21191000  0.49972000  1.0
  H  H37  1  0.53026000  0.71147000  0.50017000  1.0
  C  C38  1  0.83804000  0.25000000  0.82946000  1.0
  C  C39  1  0.16181000  0.07896000  0.17078000  1.0
  C  C40  1  0.83298000  0.75041000  0.82902000  1.0
  C  C41  1  0.16733000  0.57903000  0.17113000  1.0
  C  C42  1  0.73370000  0.35402000  0.76857000  1.0
  C  C43  1  0.26655000  0.12187000  0.23149000  1.0
  C  C44  1  0.99775000  0.85467000  0.76807000  1.0
  C  C45  1  0.00237000  0.62232000  0.23191000  1.0
  C  C46  1  0.80694000  0.42130000  0.63001000  1.0
  C  C47  1  0.19315000  0.05086000  0.37004000  1.0
  C  C48  1  0.06317000  0.92153000  0.62950000  1.0
  C  C49  1  0.93687000  0.55104000  0.37051000  1.0
  C  C50  1  0.78139000  0.35721000  0.56407000  1.0
  C  C51  1  0.21853000  0.92083000  0.43611000  1.0
  C  C52  1  0.15452000  0.85705000  0.56392000  1.0
  C  C53  1  0.84532000  0.42116000  0.43626000  1.0
  C  C54  1  0.89915000  0.55085000  0.56444000  1.0
  C  C55  1  0.10100000  0.11512000  0.43542000  1.0
  C  C56  1  0.03683000  0.05118000  0.56357000  1.0
  C  C57  1  0.96337000  0.61490000  0.43631000  1.0
  C  C58  1  0.34276000  0.96886000  0.92384000  1.0
  C  C59  1  0.65745000  0.89217000  0.07620000  1.0
  C  C60  1  0.23356000  0.46848000  0.92418000  1.0
  C  C61  1  0.76664000  0.39282000  0.07587000  1.0
  C  C62  1  0.28030000  0.07834000  0.75756000  1.0
  C  C63  1  0.71981000  0.83534000  0.24252000  1.0
  C  C64  1  0.46146000  0.57836000  0.75771000  1.0
  C  C65  1  0.53791000  0.33596000  0.24202000  1.0
  C  C66  1  0.42536000  0.02062000  0.72661000  1.0
  C  C67  1  0.57491000  0.74665000  0.27332000  1.0
  C  C68  1  0.34738000  0.52038000  0.72691000  1.0
  C  C69  1  0.65197000  0.24724000  0.27300000  1.0
  C  C70  1  0.52715000  0.02211000  0.61129000  1.0
  C  C71  1  0.47296000  0.63302000  0.38861000  1.0
  C  C72  1  0.36101000  0.52164000  0.61167000  1.0
  C  C73  1  0.63845000  0.13342000  0.38823000  1.0
  C  C74  1  0.62034000  0.91849000  0.61032000  1.0
  C  C75  1  0.37966000  0.52848000  0.38958000  1.0
  C  C76  1  0.26896000  0.41806000  0.61059000  1.0
  C  C77  1  0.73060000  0.02880000  0.38926000  1.0
  C  C78  1  0.72090000  0.92213000  0.49980000  1.0
  C  C79  1  0.27885000  0.42175000  0.50004000  1.0
  C  C80  1  0.53657000  0.12903000  0.49974000  1.0
  C  C81  1  0.46322000  0.62858000  0.50019000  1.0
  N  N82  1  0.23101000  0.04532000  0.88011000  1.0
  N  N83  1  0.76903000  0.92493000  0.12003000  1.0
  N  N84  1  0.38869000  0.54532000  0.88025000  1.0
  N  N85  1  0.61124000  0.42562000  0.11958000  1.0
  N  N86  1  0.46115000  0.95197000  0.83393000  1.0
  N  N87  1  0.53924000  0.78530000  0.16597000  1.0
  N  N88  1  0.20487000  0.45142000  0.83435000  1.0
  N  N89  1  0.79498000  0.28586000  0.16576000  1.0
  O  O90  1  0.84033000  0.14345000  0.82342000  1.0
  O  O91  1  0.15894000  0.96629000  0.17699000  1.0
  O  O92  1  0.83700000  0.64388000  0.82300000  1.0
  O  O93  1  0.16365000  0.46632000  0.17747000  1.0
  O  O94  1  0.91898000  0.27736000  0.89086000  1.0
  O  O95  1  0.08107000  0.16789000  0.10937000  1.0
  O  O96  1  0.69063000  0.77757000  0.89060000  1.0
  O  O97  1  0.30946000  0.66793000  0.10933000  1.0
