# generated using pymatgen
data_CdH8C9SINO6
_symmetry_space_group_name_H-M   'P 1'
_cell_length_a   6.79804000
_cell_length_b   9.97278000
_cell_length_c   10.21170000
_cell_angle_alpha   73.50430000
_cell_angle_beta   85.48200000
_cell_angle_gamma   77.27740000
_symmetry_Int_Tables_number   1
_chemical_formula_structural   CdH8C9SINO6
_chemical_formula_sum   'Cd2 H16 C18 S2 I2 N2 O12'
_cell_volume   647.41560127
_cell_formula_units_Z   2
loop_
 _symmetry_equiv_pos_site_id
 _symmetry_equiv_pos_as_xyz
  1  'x, y, z'
loop_
 _atom_site_type_symbol
 _atom_site_label
 _atom_site_symmetry_multiplicity
 _atom_site_fract_x
 _atom_site_fract_y
 _atom_site_fract_z
 _atom_site_occupancy
  Cd  Cd0  1  0.17994000  0.34871000  0.83516000  1.0
  Cd  Cd1  1  0.82006000  0.65129000  0.16485000  1.0
  H  H2  1  0.02690000  0.37357000  0.58226000  1.0
  H  H3  1  0.97310000  0.62644000  0.41774000  1.0
  H  H4  1  0.70241000  0.90645000  0.31471000  1.0
  H  H5  1  0.29761000  0.09356000  0.68529000  1.0
  H  H6  1  0.22651000  0.43394000  0.53978000  1.0
  H  H7  1  0.77349000  0.56607000  0.46022000  1.0
  H  H8  1  0.63107000  0.17360000  0.25259000  1.0
  H  H9  1  0.36893000  0.82641000  0.74740000  1.0
  H  H10  1  0.21909000  0.62327000  0.78109000  1.0
  H  H11  1  0.78090000  0.37673000  0.21891000  1.0
  H  H12  1  0.64899000  0.31072000  0.00793000  1.0
  H  H13  1  0.35100000  0.68929000  0.99205000  1.0
  H  H14  1  0.01843000  0.63494000  0.87324000  1.0
  H  H15  1  0.98156000  0.36506000  0.12677000  1.0
  H  H16  1  0.76927000  0.15646000  0.59129000  1.0
  H  H17  1  0.23072000  0.84352000  0.40870000  1.0
  C  C18  1  0.70801000  0.96924000  0.20863000  1.0
  C  C19  1  0.29200000  0.03076000  0.79137000  1.0
  C  C20  1  0.67001000  0.11919000  0.17258000  1.0
  C  C21  1  0.32999000  0.88082000  0.82741000  1.0
  C  C22  1  0.67689000  0.19448000  0.03687000  1.0
  C  C23  1  0.32311000  0.80552000  0.96313000  1.0
  C  C24  1  0.73158000  0.18576000  0.79189000  1.0
  C  C25  1  0.26843000  0.81424000  0.20811000  1.0
  C  C26  1  0.76572000  0.10341000  0.70026000  1.0
  C  C27  1  0.23427000  0.89658000  0.29973000  1.0
  C  C28  1  0.79596000  0.95411000  0.74563000  1.0
  C  C29  1  0.20403000  0.04588000  0.25438000  1.0
  C  C30  1  0.79989000  0.87919000  0.88545000  1.0
  C  C31  1  0.20010000  0.12081000  0.11455000  1.0
  C  C32  1  0.72216000  0.11972000  0.93524000  1.0
  C  C33  1  0.27784000  0.88028000  0.06476000  1.0
  C  C34  1  0.75806000  0.96713000  0.98055000  1.0
  C  C35  1  0.24194000  0.03287000  0.01945000  1.0
  S  S36  1  0.69724000  0.37357000  0.72730000  1.0
  S  S37  1  0.30276000  0.62643000  0.27270000  1.0
  I  I38  1  0.82302000  0.83548000  0.60234000  1.0
  I  I39  1  0.17699000  0.16451000  0.39766000  1.0
  N  N40  1  0.75083000  0.89668000  0.11566000  1.0
  N  N41  1  0.24918000  0.10332000  0.88434000  1.0
  O  O42  1  0.82526000  0.42116000  0.80789000  1.0
  O  O43  1  0.17474000  0.57883000  0.19210000  1.0
  O  O44  1  0.17304000  0.35342000  0.60190000  1.0
  O  O45  1  0.82696000  0.64658000  0.39810000  1.0
  O  O46  1  0.48281000  0.43641000  0.74357000  1.0
  O  O47  1  0.51719000  0.56358000  0.25644000  1.0
  O  O48  1  0.15102000  0.57074000  0.85987000  1.0
  O  O49  1  0.84898000  0.42926000  0.14014000  1.0
  O  O50  1  0.76242000  0.39970000  0.58176000  1.0
  O  O51  1  0.23757000  0.60030000  0.41824000  1.0
  O  O52  1  0.83295000  0.74062000  0.93032000  1.0
  O  O53  1  0.16703000  0.25938000  0.06969000  1.0
