# generated using pymatgen
data_ZnH22C20NClO8
_symmetry_space_group_name_H-M   'P 1'
_cell_length_a   9.97277000
_cell_length_b   10.98150000
_cell_length_c   13.96970000
_cell_angle_alpha   91.92340000
_cell_angle_beta   95.90170000
_cell_angle_gamma   91.59180000
_symmetry_Int_Tables_number   1
_chemical_formula_structural   ZnH22C20NClO8
_chemical_formula_sum   'Zn2 H44 C40 N2 Cl2 O16'
_cell_volume   1520.18841714
_cell_formula_units_Z   2
loop_
 _symmetry_equiv_pos_site_id
 _symmetry_equiv_pos_as_xyz
  1  'x, y, z'
loop_
 _atom_site_type_symbol
 _atom_site_label
 _atom_site_symmetry_multiplicity
 _atom_site_fract_x
 _atom_site_fract_y
 _atom_site_fract_z
 _atom_site_occupancy
  Zn  Zn0  1  0.63787000  0.51437000  0.49708000  1.0
  Zn  Zn1  1  0.34122000  0.49719000  0.48581000  1.0
  H  H2  1  0.91911000  0.39042000  0.70180000  1.0
  H  H3  1  0.72729000  0.59187000  0.21880000  1.0
  H  H4  1  0.87022000  0.49869000  0.22588000  1.0
  H  H5  1  0.02446000  0.68350000  0.24314000  1.0
  H  H6  1  0.90386000  0.69982000  0.14187000  1.0
  H  H7  1  0.88266000  0.77890000  0.25247000  1.0
  H  H8  1  0.82869000  0.70233000  0.67613000  1.0
  H  H9  1  0.00253000  0.71808000  0.72279000  1.0
  H  H10  1  0.85701000  0.85195000  0.81588000  1.0
  H  H11  1  0.93529000  0.74002000  0.89067000  1.0
  H  H12  1  0.76194000  0.72079000  0.84457000  1.0
  H  H13  1  0.16272000  0.57244000  0.71639000  1.0
  H  H14  1  0.22250000  0.99681000  0.66258000  1.0
  H  H15  1  0.08335000  0.01315000  0.57410000  1.0
  H  H16  1  0.05275000  0.22620000  0.63801000  1.0
  H  H17  1  0.03646000  0.11609000  0.72689000  1.0
  H  H18  1  0.18773000  0.20801000  0.73045000  1.0
  H  H19  1  0.08188000  0.79085000  0.41231000  1.0
  H  H20  1  0.24471000  0.78508000  0.37093000  1.0
  H  H21  1  0.23068000  0.01141000  0.33512000  1.0
  H  H22  1  0.09859000  0.92228000  0.26893000  1.0
  H  H23  1  0.06512000  0.00986000  0.37294000  1.0
  H  H24  1  0.16952000  0.41075000  0.70547000  1.0
  H  H25  1  0.54060000  0.98476000  0.28393000  1.0
  H  H26  1  0.52376000  0.82359000  0.29878000  1.0
  H  H27  1  0.65872000  0.78516000  0.15992000  1.0
  H  H28  1  0.52131000  0.87897000  0.12467000  1.0
  H  H29  1  0.68687000  0.94520000  0.14990000  1.0
  H  H30  1  0.89032000  0.11869000  0.32171000  1.0
  H  H31  1  0.86401000  0.26791000  0.37037000  1.0
  H  H32  1  0.70840000  0.30872000  0.22103000  1.0
  H  H33  1  0.87180000  0.27121000  0.19029000  1.0
  H  H34  1  0.73757000  0.16074000  0.17324000  1.0
  H  H35  1  0.80070000  0.12995000  0.49248000  1.0
  H  H36  1  0.04508000  0.31325000  0.30607000  1.0
  H  H37  1  0.21909000  0.35571000  0.33431000  1.0
  H  H38  1  0.21950000  0.45463000  0.17475000  1.0
  H  H39  1  0.17264000  0.29741000  0.15875000  1.0
  H  H40  1  0.04678000  0.40945000  0.14484000  1.0
  H  H41  1  0.83558000  0.43180000  0.91114000  1.0
  H  H42  1  0.72686000  0.31172000  0.85777000  1.0
  H  H43  1  0.93253000  0.28646000  0.03625000  1.0
  H  H44  1  0.82087000  0.16821000  0.98226000  1.0
  H  H45  1  0.94968000  0.23107000  0.91752000  1.0
  C  C46  1  0.48108000  0.27216000  0.50850000  1.0
  C  C47  1  0.71528000  0.09041000  0.44373000  1.0
  C  C48  1  0.07577000  0.49995000  0.57483000  1.0
  C  C49  1  0.51499000  0.51115000  0.67590000  1.0
  C  C50  1  0.04264000  0.51089000  0.41219000  1.0
  C  C51  1  0.90438000  0.54229000  0.42015000  1.0
  C  C52  1  0.93890000  0.50936000  0.58068000  1.0
  C  C53  1  0.95376000  0.48401000  0.68921000  1.0
  C  C54  1  0.11271000  0.48985000  0.68138000  1.0
  C  C55  1  0.47112000  0.73518000  0.48278000  1.0
  C  C56  1  0.48965000  0.47246000  0.30973000  1.0
  C  C57  1  0.53623000  0.48692000  0.77724000  1.0
  C  C58  1  0.48915000  0.45696000  0.20688000  1.0
  C  C59  1  0.47471000  0.45899000  0.01967000  1.0
  C  C60  1  0.57036000  0.42915000  0.95852000  1.0
  C  C61  1  0.55148000  0.45761000  0.86094000  1.0
  C  C62  1  0.48909000  0.45263000  0.11920000  1.0
  C  C63  1  0.78196000  0.34661000  0.92583000  1.0
  C  C64  1  0.87618000  0.25268000  0.96863000  1.0
  C  C65  1  0.83293000  0.58666000  0.24865000  1.0
  C  C66  1  0.91701000  0.69403000  0.22075000  1.0
  C  C67  1  0.90132000  0.68687000  0.73916000  1.0
  C  C68  1  0.58330000  0.06958000  0.48500000  1.0
  C  C69  1  0.86171000  0.75373000  0.82808000  1.0
  C  C70  1  0.16428000  0.06315000  0.61946000  1.0
  C  C71  1  0.10787000  0.15963000  0.68259000  1.0
  C  C72  1  0.17338000  0.84492000  0.40298000  1.0
  C  C73  1  0.14030000  0.95392000  0.34170000  1.0
  C  C74  1  0.58920000  0.89693000  0.27533000  1.0
  C  C75  1  0.61649000  0.87502000  0.17159000  1.0
  C  C76  1  0.81799000  0.19307000  0.32150000  1.0
  C  C77  1  0.78181000  0.23629000  0.22074000  1.0
  C  C78  1  0.12527000  0.37889000  0.29206000  1.0
  C  C79  1  0.47562000  0.13606000  0.51190000  1.0
  C  C80  1  0.14158000  0.38602000  0.18636000  1.0
  C  C81  1  0.35927000  0.06571000  0.52843000  1.0
  C  C82  1  0.35269000  0.93691000  0.50738000  1.0
  C  C83  1  0.46776000  0.87121000  0.48758000  1.0
  C  C84  1  0.58172000  0.94358000  0.47447000  1.0
  C  C85  1  0.71426000  0.94321000  0.42987000  1.0
  N  N86  1  0.12973000  0.49440000  0.49047000  1.0
  N  N87  1  0.84954000  0.52874000  0.50445000  1.0
  Cl  Cl88  1  0.32272000  0.51708000  0.96940000  1.0
  Cl  Cl89  1  0.85375000  0.87503000  0.50092000  1.0
  O  O90  1  0.59213000  0.32795000  0.53596000  1.0
  O  O91  1  0.82072000  0.58781000  0.35204000  1.0
  O  O92  1  0.90080000  0.55873000  0.75804000  1.0
  O  O93  1  0.25297000  0.12491000  0.55883000  1.0
  O  O94  1  0.22667000  0.88215000  0.50083000  1.0
  O  O95  1  0.71723000  0.89908000  0.33532000  1.0
  O  O96  1  0.69616000  0.15153000  0.35700000  1.0
  O  O97  1  0.08363000  0.50038000  0.32387000  1.0
  O  O98  1  0.37214000  0.31994000  0.47338000  1.0
  O  O99  1  0.61655000  0.55363000  0.63813000  1.0
  O  O100  1  0.39759000  0.48495000  0.63555000  1.0
  O  O101  1  0.58073000  0.68884000  0.46247000  1.0
  O  O102  1  0.36615000  0.67644000  0.50274000  1.0
  O  O103  1  0.59730000  0.44423000  0.36030000  1.0
  O  O104  1  0.38360000  0.51466000  0.34009000  1.0
  O  O105  1  0.68437000  0.37401000  0.99424000  1.0
