# generated using pymatgen
data_ZnH10C24(NO3)2
_symmetry_space_group_name_H-M   'P 1'
_cell_length_a   14.84420000
_cell_length_b   16.20060000
_cell_length_c   23.74600000
_cell_angle_alpha   90.06070000
_cell_angle_beta   90.02230000
_cell_angle_gamma   89.62680000
_symmetry_Int_Tables_number   1
_chemical_formula_structural   ZnH10C24(NO3)2
_chemical_formula_sum   'Zn2 H20 C48 N4 O12'
_cell_volume   5710.43077891
_cell_formula_units_Z   2
loop_
 _symmetry_equiv_pos_site_id
 _symmetry_equiv_pos_as_xyz
  1  'x, y, z'
loop_
 _atom_site_type_symbol
 _atom_site_label
 _atom_site_symmetry_multiplicity
 _atom_site_fract_x
 _atom_site_fract_y
 _atom_site_fract_z
 _atom_site_occupancy
  Zn  Zn0  1  0.40591000  0.50050000  0.49998000  1.0
  Zn  Zn1  1  0.59408000  0.49950000  0.50002000  1.0
  H  H2  1  0.42979000  0.69789000  0.05352000  1.0
  H  H3  1  0.57023000  0.30217000  0.94648000  1.0
  H  H4  1  0.42980000  0.69791000  0.94678000  1.0
  H  H5  1  0.57023000  0.30214000  0.05322000  1.0
  H  H6  1  0.35569000  0.49984000  0.67899000  1.0
  H  H7  1  0.35573000  0.49986000  0.32096000  1.0
  H  H8  1  0.64428000  0.50016000  0.67904000  1.0
  H  H9  1  0.64431000  0.50018000  0.32102000  1.0
  H  H10  1  0.64481000  0.50011000  0.78498000  1.0
  H  H11  1  0.64477000  0.50013000  0.21508000  1.0
  H  H12  1  0.35526000  0.92364000  0.49480000  1.0
  H  H13  1  0.64474000  0.07636000  0.50520000  1.0
  H  H14  1  0.35498000  0.07771000  0.49483000  1.0
  H  H15  1  0.64502000  0.92229000  0.50517000  1.0
  H  H16  1  0.91562000  0.55928000  0.58173000  1.0
  H  H17  1  0.08438000  0.44072000  0.41827000  1.0
  H  H18  1  0.91609000  0.44081000  0.41835000  1.0
  H  H19  1  0.08391000  0.55919000  0.58165000  1.0
  H  H20  1  0.35523000  0.49991000  0.78493000  1.0
  H  H21  1  0.35519000  0.49994000  0.21502000  1.0
  C  C22  1  0.49995000  0.66122000  0.50005000  1.0
  C  C23  1  0.50005000  0.33879000  0.49995000  1.0
  C  C24  1  0.41825000  0.49979000  0.76137000  1.0
  C  C25  1  0.41821000  0.49974000  0.23860000  1.0
  C  C26  1  0.41844000  0.49992000  0.70276000  1.0
  C  C27  1  0.41846000  0.49982000  0.29721000  1.0
  C  C28  1  0.49998000  0.50010000  0.67308000  1.0
  C  C29  1  0.50002000  0.49992000  0.32692000  1.0
  C  C30  1  0.58154000  0.50020000  0.70279000  1.0
  C  C31  1  0.58156000  0.50011000  0.29724000  1.0
  C  C32  1  0.58179000  0.50030000  0.76140000  1.0
  C  C33  1  0.58176000  0.50025000  0.23863000  1.0
  C  C34  1  0.50002000  0.50006000  0.79027000  1.0
  C  C35  1  0.49998000  0.49999000  0.20973000  1.0
  C  C36  1  0.41812000  0.04319000  0.49709000  1.0
  C  C37  1  0.58187000  0.95681000  0.50292000  1.0
  C  C38  1  0.41827000  0.95760000  0.49708000  1.0
  C  C39  1  0.58172000  0.04239000  0.50292000  1.0
  C  C40  1  0.49986000  0.08708000  0.50001000  1.0
  C  C41  1  0.50013000  0.91291000  0.49999000  1.0
  C  C42  1  0.49981000  0.17441000  0.49999000  1.0
  C  C43  1  0.50019000  0.82559000  0.50001000  1.0
  C  C44  1  0.49998000  0.75037000  0.50005000  1.0
  C  C45  1  0.50002000  0.24963000  0.49995000  1.0
  C  C46  1  0.49998000  0.50011000  0.60988000  1.0
  C  C47  1  0.50002000  0.49990000  0.39012000  1.0
  C  C48  1  0.04662000  0.53353000  0.54628000  1.0
  C  C49  1  0.95338000  0.46647000  0.45372000  1.0
  C  C50  1  0.04689000  0.46644000  0.45367000  1.0
  C  C51  1  0.95310000  0.53356000  0.54633000  1.0
  C  C52  1  0.09331000  0.49999000  0.49994000  1.0
  C  C53  1  0.90669000  0.50002000  0.50005000  1.0
  C  C54  1  0.18906000  0.50020000  0.49987000  1.0
  C  C55  1  0.81094000  0.49980000  0.50012000  1.0
  C  C56  1  0.52617000  0.42603000  0.12171000  1.0
  C  C57  1  0.47385000  0.57402000  0.87829000  1.0
  C  C58  1  0.47380000  0.57400000  0.12181000  1.0
  C  C59  1  0.52621000  0.42605000  0.87819000  1.0
  C  C60  1  0.47418000  0.57256000  0.05932000  1.0
  C  C61  1  0.52584000  0.42750000  0.94068000  1.0
  C  C62  1  0.50001000  0.50002000  0.03002000  1.0
  C  C63  1  0.50002000  0.50003000  0.96999000  1.0
  C  C64  1  0.52583000  0.42747000  0.05921000  1.0
  C  C65  1  0.47420000  0.57258000  0.94079000  1.0
  C  C66  1  0.44924000  0.64303000  0.02969000  1.0
  C  C67  1  0.55078000  0.35703000  0.97031000  1.0
  C  C68  1  0.44925000  0.64304000  0.97052000  1.0
  C  C69  1  0.55078000  0.35702000  0.02948000  1.0
  N  N70  1  0.49998000  0.50000000  0.14889000  1.0
  N  N71  1  0.50003000  0.50005000  0.85111000  1.0
  N  N72  1  0.73280000  0.49941000  0.50012000  1.0
  N  N73  1  0.26720000  0.50059000  0.49988000  1.0
  O  O74  1  0.42305000  0.62664000  0.50002000  1.0
  O  O75  1  0.57695000  0.37335000  0.49997000  1.0
  O  O76  1  0.42308000  0.37415000  0.49992000  1.0
  O  O77  1  0.57691000  0.62585000  0.50008000  1.0
  O  O78  1  0.42345000  0.50041000  0.58554000  1.0
  O  O79  1  0.57655000  0.49960000  0.41446000  1.0
  O  O80  1  0.42349000  0.50019000  0.41441000  1.0
  O  O81  1  0.57651000  0.49981000  0.58559000  1.0
  O  O82  1  0.54753000  0.36458000  0.14899000  1.0
  O  O83  1  0.45248000  0.63546000  0.85101000  1.0
  O  O84  1  0.45243000  0.63544000  0.14918000  1.0
  O  O85  1  0.54757000  0.36461000  0.85082000  1.0
