# generated using pymatgen
data_DyH13(CO)10
_symmetry_space_group_name_H-M   'P 1'
_cell_length_a   6.57646000
_cell_length_b   11.99655835
_cell_length_c   19.15341203
_cell_angle_alpha   71.93473043
_cell_angle_beta   80.46661834
_cell_angle_gamma   74.18998224
_symmetry_Int_Tables_number   1
_chemical_formula_structural   DyH13(CO)10
_chemical_formula_sum   'Dy4 H52 C40 O40'
_cell_volume   1376.81981987
_cell_formula_units_Z   4
loop_
 _symmetry_equiv_pos_site_id
 _symmetry_equiv_pos_as_xyz
  1  'x, y, z'
loop_
 _atom_site_type_symbol
 _atom_site_label
 _atom_site_symmetry_multiplicity
 _atom_site_fract_x
 _atom_site_fract_y
 _atom_site_fract_z
 _atom_site_occupancy
  Dy  Dy0  1  0.97713000  0.17308000  0.98428000  1.0
  Dy  Dy1  1  0.13620000  0.32717000  0.51492000  1.0
  Dy  Dy2  1  0.02287000  0.82692000  0.01572000  1.0
  Dy  Dy3  1  0.86379000  0.67283000  0.48508000  1.0
  H  H4  1  0.32574000  0.22953000  0.35155000  1.0
  H  H5  1  0.90758000  0.27107000  0.14737000  1.0
  H  H6  1  0.67425000  0.77048000  0.64845000  1.0
  H  H7  1  0.09242000  0.72893000  0.85263000  1.0
  H  H8  1  0.88762000  0.44540000  0.93710000  1.0
  H  H9  1  0.27074000  0.05496000  0.56222000  1.0
  H  H10  1  0.11238000  0.55460000  0.06290000  1.0
  H  H11  1  0.72926000  0.94504000  0.43778000  1.0
  H  H12  1  0.67187000  0.40681000  0.96992000  1.0
  H  H13  1  0.04839000  0.09452000  0.52922000  1.0
  H  H14  1  0.32814000  0.59318000  0.03008000  1.0
  H  H15  1  0.95160000  0.90548000  0.47079000  1.0
  H  H16  1  0.52067000  0.22653000  0.92459000  1.0
  H  H17  1  0.67362000  0.27383000  0.57447000  1.0
  H  H18  1  0.47933000  0.77347000  0.07541000  1.0
  H  H19  1  0.32638000  0.72617000  0.42552000  1.0
  H  H20  1  0.72388000  0.25048000  0.86791000  1.0
  H  H21  1  0.84562000  0.25073000  0.63098000  1.0
  H  H22  1  0.27612000  0.74952000  0.13209000  1.0
  H  H23  1  0.15439000  0.74926000  0.36901000  1.0
  H  H24  1  0.52607000  0.92286000  0.13914000  1.0
  H  H25  1  0.58754000  0.57794000  0.35999000  1.0
  H  H26  1  0.47393000  0.07715000  0.86086000  1.0
  H  H27  1  0.41248000  0.42206000  0.64000000  1.0
  H  H28  1  0.38561000  0.16899000  0.16974000  1.0
  H  H29  1  0.72175000  0.33148000  0.32994000  1.0
  H  H30  1  0.61439000  0.83101000  0.83026000  1.0
  H  H31  1  0.27825000  0.66852000  0.67006000  1.0
  H  H32  1  0.14773000  0.96726000  0.23346000  1.0
  H  H33  1  0.34828000  0.53348000  0.26385000  1.0
  H  H34  1  0.85227000  0.03274000  0.76654000  1.0
  H  H35  1  0.65172000  0.46652000  0.73615000  1.0
  H  H36  1  0.08283000  0.11102000  0.24912000  1.0
  H  H37  1  0.44256000  0.38944000  0.24873000  1.0
  H  H38  1  0.91716000  0.88898000  0.75088000  1.0
  H  H39  1  0.55743000  0.61057000  0.75127000  1.0
  H  H40  1  0.24439000  0.94023000  0.35352000  1.0
  H  H41  1  0.53922000  0.55969000  0.14490000  1.0
  H  H42  1  0.75560000  0.05977000  0.64648000  1.0
  H  H43  1  0.46078000  0.44031000  0.85510000  1.0
  H  H44  1  0.47426000  0.81972000  0.27545000  1.0
  H  H45  1  0.57066000  0.68050000  0.22333000  1.0
  H  H46  1  0.52574000  0.18028000  0.72454000  1.0
  H  H47  1  0.42935000  0.31950000  0.77667000  1.0
  H  H48  1  0.82261000  0.86969000  0.21471000  1.0
  H  H49  1  0.90686000  0.62969000  0.28599000  1.0
  H  H50  1  0.17739000  0.13031000  0.78529000  1.0
  H  H51  1  0.09315000  0.37031000  0.71401000  1.0
  H  H52  1  0.73981000  0.00747000  0.23823000  1.0
  H  H53  1  0.98427000  0.49165000  0.26272000  1.0
  H  H54  1  0.26018000  0.99253000  0.76177000  1.0
  H  H55  1  0.01573000  0.50835000  0.73728000  1.0
  C  C56  1  0.56034000  0.99555000  0.15568000  1.0
  C  C57  1  0.71002000  0.50489000  0.34386000  1.0
  C  C58  1  0.43966000  0.00445000  0.84432000  1.0
  C  C59  1  0.28998000  0.49511000  0.65614000  1.0
  C  C60  1  0.35062000  0.08537000  0.16764000  1.0
  C  C61  1  0.60148000  0.41536000  0.33138000  1.0
  C  C62  1  0.64938000  0.91464000  0.83236000  1.0
  C  C63  1  0.39853000  0.58463000  0.66862000  1.0
  C  C64  1  0.21612000  0.03782000  0.23934000  1.0
  C  C65  1  0.49279000  0.46261000  0.25889000  1.0
  C  C66  1  0.78389000  0.96218000  0.76065000  1.0
  C  C67  1  0.50721000  0.53739000  0.74111000  1.0
  C  C68  1  0.34635000  0.98237000  0.30650000  1.0
  C  C69  1  0.63570000  0.51753000  0.19245000  1.0
  C  C70  1  0.65365000  0.01763000  0.69350000  1.0
  C  C71  1  0.36431000  0.48247000  0.80755000  1.0
  C  C72  1  0.53857000  0.88453000  0.29054000  1.0
  C  C73  1  0.71435000  0.61530000  0.20892000  1.0
  C  C74  1  0.46143000  0.11547000  0.70946000  1.0
  C  C75  1  0.28565000  0.38470000  0.79108000  1.0
  C  C76  1  0.68262000  0.93891000  0.22499000  1.0
  C  C77  1  0.84595000  0.56072000  0.27525000  1.0
  C  C78  1  0.31738000  0.06109000  0.77501000  1.0
  C  C79  1  0.15405000  0.43928000  0.72475000  1.0
  C  C80  1  0.70060000  0.05607000  0.09246000  1.0
  C  C81  1  0.84766000  0.44390000  0.40741000  1.0
  C  C82  1  0.29941000  0.94393000  0.90754000  1.0
  C  C83  1  0.15234000  0.55609000  0.59259000  1.0
  C  C84  1  0.22344000  0.11945000  0.10169000  1.0
  C  C85  1  0.44312000  0.38161000  0.39707000  1.0
  C  C86  1  0.77657000  0.88055000  0.89831000  1.0
  C  C87  1  0.55688000  0.61839000  0.60293000  1.0
  C  C88  1  0.41630000  0.07121000  0.33458000  1.0
  C  C89  1  0.82242000  0.42873000  0.16495000  1.0
  C  C90  1  0.58369000  0.92879000  0.66543000  1.0
  C  C91  1  0.17758000  0.57127000  0.83505000  1.0
  C  C92  1  0.65444000  0.81015000  0.35806000  1.0
  C  C93  1  0.82449000  0.68925000  0.14202000  1.0
  C  C94  1  0.34556000  0.18984000  0.64194000  1.0
  C  C95  1  0.17551000  0.31075000  0.85798000  1.0
  O  O96  1  0.86738000  0.99030000  0.06526000  1.0
  O  O97  1  0.92102000  0.50935000  0.43542000  1.0
  O  O98  1  0.13262000  0.00970000  0.93474000  1.0
  O  O99  1  0.07898000  0.49064000  0.56458000  1.0
  O  O100  1  0.66449000  0.16941000  0.06858000  1.0
  O  O101  1  0.90242000  0.33052000  0.43061000  1.0
  O  O102  1  0.33552000  0.83059000  0.93142000  1.0
  O  O103  1  0.09758000  0.66947000  0.56939000  1.0
  O  O104  1  0.28519000  0.06758000  0.05109000  1.0
  O  O105  1  0.40467000  0.43301000  0.44789000  1.0
  O  O106  1  0.71482000  0.93243000  0.94891000  1.0
  O  O107  1  0.59535000  0.56698000  0.55211000  1.0
  O  O108  1  0.04684000  0.20067000  0.09730000  1.0
  O  O109  1  0.34254000  0.30072000  0.40127000  1.0
  O  O110  1  0.95317000  0.79933000  0.90270000  1.0
  O  O111  1  0.65747000  0.69928000  0.59872000  1.0
  O  O112  1  0.57779000  0.04177000  0.36771000  1.0
  O  O113  1  0.98731000  0.45834000  0.13270000  1.0
  O  O114  1  0.42219000  0.95823000  0.63230000  1.0
  O  O115  1  0.01270000  0.54166000  0.86729000  1.0
  O  O116  1  0.28631000  0.17908000  0.32249000  1.0
  O  O117  1  0.78850000  0.32092000  0.17623000  1.0
  O  O118  1  0.71368000  0.82093000  0.67751000  1.0
  O  O119  1  0.21150000  0.67908000  0.82377000  1.0
  O  O120  1  0.85536000  0.77961000  0.35333000  1.0
  O  O121  1  0.99065000  0.71896000  0.14754000  1.0
  O  O122  1  0.14463000  0.22038000  0.64667000  1.0
  O  O123  1  0.00934000  0.28105000  0.85246000  1.0
  O  O124  1  0.54821000  0.77263000  0.41997000  1.0
  O  O125  1  0.74233000  0.72743000  0.07978000  1.0
  O  O126  1  0.45178000  0.22737000  0.58003000  1.0
  O  O127  1  0.25767000  0.27257000  0.92022000  1.0
  O  O128  1  0.82275000  0.38489000  0.97585000  1.0
  O  O129  1  0.18407000  0.11555000  0.52322000  1.0
  O  O130  1  0.17725000  0.61511000  0.02415000  1.0
  O  O131  1  0.81593000  0.88445000  0.47678000  1.0
  O  O132  1  0.67929000  0.20578000  0.91734000  1.0
  O  O133  1  0.80540000  0.29417000  0.58127000  1.0
  O  O134  1  0.32071000  0.79423000  0.08266000  1.0
  O  O135  1  0.19460000  0.70582000  0.41873000  1.0
