# generated using pymatgen
data_ZnH10C15(NO3)2
_symmetry_space_group_name_H-M   'P 1'
_cell_length_a   8.49334000
_cell_length_b   10.09740000
_cell_length_c   18.43400000
_cell_angle_alpha   88.05050000
_cell_angle_beta   85.36040000
_cell_angle_gamma   65.12930000
_symmetry_Int_Tables_number   1
_chemical_formula_structural   ZnH10C15(NO3)2
_chemical_formula_sum   'Zn4 H40 C60 N8 O24'
_cell_volume   1429.59693759
_cell_formula_units_Z   4
loop_
 _symmetry_equiv_pos_site_id
 _symmetry_equiv_pos_as_xyz
  1  'x, y, z'
loop_
 _atom_site_type_symbol
 _atom_site_label
 _atom_site_symmetry_multiplicity
 _atom_site_fract_x
 _atom_site_fract_y
 _atom_site_fract_z
 _atom_site_occupancy
  Zn  Zn0  1  0.58091000  0.89411000  0.59399000  1.0
  Zn  Zn1  1  0.52469000  0.89435000  0.90602000  1.0
  Zn  Zn2  1  0.41909000  0.10589000  0.40601000  1.0
  Zn  Zn3  1  0.47531000  0.10565000  0.09398000  1.0
  H  H4  1  0.86254000  0.94636000  0.64343000  1.0
  H  H5  1  0.19067000  0.94653000  0.85661000  1.0
  H  H6  1  0.13746000  0.05364000  0.35657000  1.0
  H  H7  1  0.80933000  0.05347000  0.14339000  1.0
  H  H8  1  0.94094000  0.47906000  0.43913000  1.0
  H  H9  1  0.57958000  0.47922000  0.06095000  1.0
  H  H10  1  0.05906000  0.52094000  0.56087000  1.0
  H  H11  1  0.42042000  0.52078000  0.93905000  1.0
  H  H12  1  0.06728000  0.27959000  0.53116000  1.0
  H  H13  1  0.65257000  0.27979000  0.96894000  1.0
  H  H14  1  0.93272000  0.72042000  0.46884000  1.0
  H  H15  1  0.34743000  0.72021000  0.03106000  1.0
  H  H16  1  0.50506000  0.36847000  0.42768000  1.0
  H  H17  1  0.12610000  0.36846000  0.07237000  1.0
  H  H18  1  0.49494000  0.63153000  0.57232000  1.0
  H  H19  1  0.87390000  0.63154000  0.92763000  1.0
  H  H20  1  0.31611000  0.56203000  0.15257000  1.0
  H  H21  1  0.12131000  0.56218000  0.34755000  1.0
  H  H22  1  0.68389000  0.43796000  0.84743000  1.0
  H  H23  1  0.87869000  0.43782000  0.65245000  1.0
  H  H24  1  0.28152000  0.79173000  0.21168000  1.0
  H  H25  1  0.92597000  0.79191000  0.28853000  1.0
  H  H26  1  0.71847000  0.20827000  0.78832000  1.0
  H  H27  1  0.07403000  0.20809000  0.71147000  1.0
  H  H28  1  0.44701000  0.77937000  0.32032000  1.0
  H  H29  1  0.77304000  0.77955000  0.17983000  1.0
  H  H30  1  0.55298000  0.22064000  0.67968000  1.0
  H  H31  1  0.22696000  0.22045000  0.82017000  1.0
  H  H32  1  0.68565000  0.31036000  0.30551000  1.0
  H  H33  1  0.00388000  0.31052000  0.19448000  1.0
  H  H34  1  0.31435000  0.68964000  0.69449000  1.0
  H  H35  1  0.99612000  0.68948000  0.80552000  1.0
  H  H36  1  0.25532000  0.00097000  0.64300000  1.0
  H  H37  1  0.74341000  0.00110000  0.85692000  1.0
  H  H38  1  0.74468000  0.99903000  0.35700000  1.0
  H  H39  1  0.25659000  0.99890000  0.14308000  1.0
  H  H40  1  0.36994000  0.91057000  0.70901000  1.0
  H  H41  1  0.71933000  0.91056000  0.79096000  1.0
  H  H42  1  0.63006000  0.08943000  0.29099000  1.0
  H  H43  1  0.28067000  0.08944000  0.20904000  1.0
  C  C44  1  0.71837000  0.43385000  0.42772000  1.0
  C  C45  1  0.84736000  0.43397000  0.07236000  1.0
  C  C46  1  0.28163000  0.56615000  0.57228000  1.0
  C  C47  1  0.15264000  0.56603000  0.92764000  1.0
  C  C48  1  0.87510000  0.41075000  0.45773000  1.0
  C  C49  1  0.71371000  0.41087000  0.04236000  1.0
  C  C50  1  0.12489000  0.58926000  0.54227000  1.0
  C  C51  1  0.28629000  0.58913000  0.95764000  1.0
  C  C52  1  0.94434000  0.30099000  0.50829000  1.0
  C  C53  1  0.75420000  0.30107000  0.99181000  1.0
  C  C54  1  0.05566000  0.69901000  0.49171000  1.0
  C  C55  1  0.24580000  0.69893000  0.00819000  1.0
  C  C56  1  0.85744000  0.21311000  0.53003000  1.0
  C  C57  1  0.92897000  0.21312000  0.97009000  1.0
  C  C58  1  0.14256000  0.78689000  0.46997000  1.0
  C  C59  1  0.07103000  0.78688000  0.02991000  1.0
  C  C60  1  0.69894000  0.23810000  0.50048000  1.0
  C  C61  1  0.06252000  0.23809000  0.99964000  1.0
  C  C62  1  0.30106000  0.76190000  0.49951000  1.0
  C  C63  1  0.93748000  0.76191000  0.00036000  1.0
  C  C64  1  0.62848000  0.34939000  0.44927000  1.0
  C  C65  1  0.02171000  0.34938000  0.05084000  1.0
  C  C66  1  0.37152000  0.65061000  0.55073000  1.0
  C  C67  1  0.97829000  0.65061000  0.94916000  1.0
  C  C68  1  0.60990000  0.14578000  0.52390000  1.0
  C  C69  1  0.24390000  0.14573000  0.97625000  1.0
  C  C70  1  0.39010000  0.85422000  0.47609000  1.0
  C  C71  1  0.75610000  0.85427000  0.02375000  1.0
  C  C72  1  0.92841000  0.09786000  0.58381000  1.0
  C  C73  1  0.97327000  0.09791000  0.91627000  1.0
  C  C74  1  0.07159000  0.90214000  0.41619000  1.0
  C  C75  1  0.02673000  0.90208000  0.08373000  1.0
  C  C76  1  0.38839000  0.55876000  0.19926000  1.0
  C  C77  1  0.05236000  0.55893000  0.30085000  1.0
  C  C78  1  0.61160000  0.44124000  0.80074000  1.0
  C  C79  1  0.94764000  0.44107000  0.69915000  1.0
  C  C80  1  0.36818000  0.68674000  0.23314000  1.0
  C  C81  1  0.94449000  0.68692000  0.26700000  1.0
  C  C82  1  0.63182000  0.31326000  0.76686000  1.0
  C  C83  1  0.05551000  0.31308000  0.73300000  1.0
  C  C84  1  0.45798000  0.68053000  0.29411000  1.0
  C  C85  1  0.86096000  0.68072000  0.20600000  1.0
  C  C86  1  0.54202000  0.31947000  0.70588000  1.0
  C  C87  1  0.13905000  0.31928000  0.79400000  1.0
  C  C88  1  0.56824000  0.54485000  0.32117000  1.0
  C  C89  1  0.88651000  0.54503000  0.17888000  1.0
  C  C90  1  0.43175000  0.45515000  0.67883000  1.0
  C  C91  1  0.11349000  0.45497000  0.82112000  1.0
  C  C92  1  0.59437000  0.41606000  0.28665000  1.0
  C  C93  1  0.98932000  0.41624000  0.21337000  1.0
  C  C94  1  0.40562000  0.58394000  0.71335000  1.0
  C  C95  1  0.01068000  0.58376000  0.78663000  1.0
  C  C96  1  0.50291000  0.42345000  0.22559000  1.0
  C  C97  1  0.07330000  0.42363000  0.27446000  1.0
  C  C98  1  0.49710000  0.57654000  0.77441000  1.0
  C  C99  1  0.92670000  0.57637000  0.72555000  1.0
  C  C100  1  0.53102000  0.28588000  0.18854000  1.0
  C  C101  1  0.18285000  0.28601000  0.31145000  1.0
  C  C102  1  0.46898000  0.71412000  0.81146000  1.0
  C  C103  1  0.81715000  0.71399000  0.68855000  1.0
  N  N104  1  0.68044000  0.04036000  0.57240000  1.0
  N  N105  1  0.27879000  0.04039000  0.92770000  1.0
  N  N106  1  0.31956000  0.95964000  0.42760000  1.0
  N  N107  1  0.72121000  0.95961000  0.07230000  1.0
  N  N108  1  0.83279000  0.02076000  0.60113000  1.0
  N  N109  1  0.14602000  0.02086000  0.89893000  1.0
  N  N110  1  0.16721000  0.97924000  0.39887000  1.0
  N  N111  1  0.85398000  0.97914000  0.10107000  1.0
  O  O112  1  0.46346000  0.16397000  0.50016000  1.0
  O  O113  1  0.37210000  0.16397000  0.00002000  1.0
  O  O114  1  0.53654000  0.83603000  0.49984000  1.0
  O  O115  1  0.62791000  0.83603000  0.99998000  1.0
  O  O116  1  0.06644000  0.07004000  0.61380000  1.0
  O  O117  1  0.86311000  0.07014000  0.88622000  1.0
  O  O118  1  0.93356000  0.92997000  0.38620000  1.0
  O  O119  1  0.13689000  0.92986000  0.11378000  1.0
  O  O120  1  0.44405000  0.29668000  0.13302000  1.0
  O  O121  1  0.25918000  0.29676000  0.36693000  1.0
  O  O122  1  0.55595000  0.70332000  0.86698000  1.0
  O  O123  1  0.74081000  0.70324000  0.63307000  1.0
  O  O124  1  0.63981000  0.16329000  0.21137000  1.0
  O  O125  1  0.19647000  0.16347000  0.28861000  1.0
  O  O126  1  0.36019000  0.83671000  0.78863000  1.0
  O  O127  1  0.80353000  0.83653000  0.71139000  1.0
  O  O128  1  0.65905000  0.54825000  0.37985000  1.0
  O  O129  1  0.79236000  0.54842000  0.12020000  1.0
  O  O130  1  0.34095000  0.45175000  0.62016000  1.0
  O  O131  1  0.20765000  0.45158000  0.87980000  1.0
  O  O132  1  0.37187000  0.96607000  0.66302000  1.0
  O  O133  1  0.66174000  0.96621000  0.83688000  1.0
  O  O134  1  0.62813000  0.03393000  0.33697000  1.0
  O  O135  1  0.33826000  0.03378000  0.16312000  1.0
