# generated using pymatgen
data_Cu3H14C8(BrO6)2
_symmetry_space_group_name_H-M   'P 1'
_cell_length_a   6.17802000
_cell_length_b   9.21701000
_cell_length_c   9.27595000
_cell_angle_alpha   78.92100000
_cell_angle_beta   74.11460000
_cell_angle_gamma   73.96970000
_symmetry_Int_Tables_number   1
_chemical_formula_structural   Cu3H14C8(BrO6)2
_chemical_formula_sum   'Cu3 H14 C8 Br2 O12'
_cell_volume   484.37538993
_cell_formula_units_Z   1
loop_
 _symmetry_equiv_pos_site_id
 _symmetry_equiv_pos_as_xyz
  1  'x, y, z'
loop_
 _atom_site_type_symbol
 _atom_site_label
 _atom_site_symmetry_multiplicity
 _atom_site_fract_x
 _atom_site_fract_y
 _atom_site_fract_z
 _atom_site_occupancy
  Cu  Cu0  1  0.99961000  0.49961000  0.00074000  1.0
  Cu  Cu1  1  0.46250000  0.43674000  0.16651000  1.0
  Cu  Cu2  1  0.53774000  0.56262000  0.83344000  1.0
  H  H3  1  0.33769000  0.02842000  0.89142000  1.0
  H  H4  1  0.66222000  0.97120000  0.10871000  1.0
  H  H5  1  0.92461000  0.26109000  0.54356000  1.0
  H  H6  1  0.07220000  0.74107000  0.45688000  1.0
  H  H7  1  0.10754000  0.17444000  0.38257000  1.0
  H  H8  1  0.89246000  0.82558000  0.61986000  1.0
  H  H9  1  0.84703000  0.11420000  0.48068000  1.0
  H  H10  1  0.15190000  0.88645000  0.52080000  1.0
  H  H11  1  0.78860000  0.33061000  0.95780000  1.0
  H  H12  1  0.21185000  0.66868000  0.04209000  1.0
  H  H13  1  0.24868000  0.44869000  0.43435000  1.0
  H  H14  1  0.74975000  0.55514000  0.56598000  1.0
  H  H15  1  0.05918000  0.48096000  0.33096000  1.0
  H  H16  1  0.94218000  0.51884000  0.66758000  1.0
  C  C17  1  0.29399000  0.19803000  0.04126000  1.0
  C  C18  1  0.70612000  0.80146000  0.95900000  1.0
  C  C19  1  0.37549000  0.03615000  0.99775000  1.0
  C  C20  1  0.62445000  0.96337000  0.00240000  1.0
  C  C21  1  0.79834000  0.33166000  0.34324000  1.0
  C  C22  1  0.20279000  0.66757000  0.65564000  1.0
  C  C23  1  0.92659000  0.21135000  0.44462000  1.0
  C  C24  1  0.07262000  0.78916000  0.55621000  1.0
  Br  Br25  1  0.18274000  0.91270000  0.15289000  1.0
  Br  Br26  1  0.81723000  0.08682000  0.84719000  1.0
  O  O27  1  0.15712000  0.29039000  0.96428000  1.0
  O  O28  1  0.84266000  0.70917000  0.03622000  1.0
  O  O29  1  0.36521000  0.22571000  0.14445000  1.0
  O  O30  1  0.63534000  0.77365000  0.85564000  1.0
  O  O31  1  0.63560000  0.29824000  0.30487000  1.0
  O  O32  1  0.36398000  0.70136000  0.69549000  1.0
  O  O33  1  0.85213000  0.45949000  0.29854000  1.0
  O  O34  1  0.15188000  0.53868000  0.69754000  1.0
  O  O35  1  0.72255000  0.43574000  0.98163000  1.0
  O  O36  1  0.27761000  0.56355000  0.01819000  1.0
  O  O37  1  0.20900000  0.50704000  0.34171000  1.0
  O  O38  1  0.79086000  0.49435000  0.65727000  1.0
