# generated using pymatgen
data_NiH32C38(N6Cl)2
_symmetry_space_group_name_H-M   'P 1'
_cell_length_a   13.60010000
_cell_length_b   13.72196628
_cell_length_c   13.78010000
_cell_angle_alpha   115.89140615
_cell_angle_beta   115.57400000
_cell_angle_gamma   97.12853444
_symmetry_Int_Tables_number   1
_chemical_formula_structural   NiH32C38(N6Cl)2
_chemical_formula_sum   'Ni2 H64 C76 N24 Cl4'
_cell_volume   1925.80580280
_cell_formula_units_Z   2
loop_
 _symmetry_equiv_pos_site_id
 _symmetry_equiv_pos_as_xyz
  1  'x, y, z'
loop_
 _atom_site_type_symbol
 _atom_site_label
 _atom_site_symmetry_multiplicity
 _atom_site_fract_x
 _atom_site_fract_y
 _atom_site_fract_z
 _atom_site_occupancy
  Ni  Ni0  1  0.00000000  0.00000000  0.00000000  1.0
  Ni  Ni1  1  0.50000000  1.00000000  1.00000000  1.0
  H  H2  1  0.81539000  0.87849000  0.68258000  1.0
  H  H3  1  0.36719000  0.80409000  0.68258000  1.0
  H  H4  1  0.18461000  0.12151000  0.31742000  1.0
  H  H5  1  0.63281000  0.19591000  0.31742000  1.0
  H  H6  1  0.18683000  0.04811000  0.91199000  1.0
  H  H7  1  0.22516000  0.86388000  0.91199000  1.0
  H  H8  1  0.81317000  0.95189000  0.08801000  1.0
  H  H9  1  0.77484000  0.13612000  0.08801000  1.0
  H  H10  1  0.01876000  0.81740000  0.48510000  1.0
  H  H11  1  0.96635000  0.66771000  0.48511000  1.0
  H  H12  1  0.98124000  0.18260000  0.51490000  1.0
  H  H13  1  0.03365000  0.33229000  0.51489000  1.0
  H  H14  1  0.35990000  0.19885000  0.74423000  1.0
  H  H15  1  0.88433000  0.54538000  0.74423000  1.0
  H  H16  1  0.64010000  0.80115000  0.25577000  1.0
  H  H17  1  0.11567000  0.45462000  0.25577000  1.0
  H  H18  1  0.24095000  0.16273000  0.82986000  1.0
  H  H19  1  0.08891000  0.66713000  0.82986000  1.0
  H  H20  1  0.75905000  0.83727000  0.17014000  1.0
  H  H21  1  0.91109000  0.33287000  0.17014000  1.0
  H  H22  1  0.17887000  0.66816000  0.28807000  1.0
  H  H23  1  0.60920000  0.61991000  0.28807000  1.0
  H  H24  1  0.82113000  0.33184000  0.71193000  1.0
  H  H25  1  0.39080000  0.38009000  0.71193000  1.0
  H  H26  1  0.11495000  0.67664000  0.37930000  1.0
  H  H27  1  0.76435000  0.70266000  0.37930000  1.0
  H  H28  1  0.88504000  0.32336000  0.62070000  1.0
  H  H29  1  0.23565000  0.29734000  0.62070000  1.0
  H  H30  1  0.26765000  0.75625000  0.45925000  1.0
  H  H31  1  0.69160000  0.70300000  0.45925000  1.0
  H  H32  1  0.73235000  0.24375000  0.54075000  1.0
  H  H33  1  0.30840000  0.29700000  0.54075000  1.0
  H  H34  1  0.01458000  0.86008000  0.24291000  1.0
  H  H35  1  0.72833000  0.38283000  0.24291000  1.0
  H  H36  1  0.98543000  0.13993000  0.75710000  1.0
  H  H37  1  0.27167000  0.61717000  0.75709000  1.0
  H  H38  1  0.96287000  0.74060000  0.25209000  1.0
  H  H39  1  0.78922000  0.51149000  0.25209000  1.0
  H  H40  1  0.03713000  0.25940000  0.74791000  1.0
  H  H41  1  0.21078000  0.48851000  0.74791000  1.0
  H  H42  1  0.03059000  0.72643000  0.16390000  1.0
  H  H43  1  0.63331000  0.43746000  0.16389000  1.0
  H  H44  1  0.96941000  0.27357000  0.83610000  1.0
  H  H45  1  0.36668000  0.56253000  0.83610000  1.0
  H  H46  1  0.24288000  0.79323000  0.20372000  1.0
  H  H47  1  0.46083000  0.41049000  0.20372000  1.0
  H  H48  1  0.75712000  0.20677000  0.79628000  1.0
  H  H49  1  0.53916000  0.58951000  0.79628000  1.0
  H  H50  1  0.51454000  0.14039000  0.45399000  1.0
  H  H51  1  0.43945000  0.31360000  0.45399000  1.0
  H  H52  1  0.48547000  0.85961000  0.54601000  1.0
  H  H53  1  0.56055000  0.68640000  0.54601000  1.0
  H  H54  1  0.45384000  0.19260000  0.61114000  1.0
  H  H55  1  0.65730000  0.41854000  0.61114000  1.0
  H  H56  1  0.54616000  0.80740000  0.38886000  1.0
  H  H57  1  0.34270000  0.58146000  0.38886000  1.0
  H  H58  1  0.45960000  0.77113000  0.02275000  1.0
  H  H59  1  0.06315000  0.25162000  0.02275000  1.0
  H  H60  1  0.54040000  0.22887000  0.97725000  1.0
  H  H61  1  0.93685000  0.74838000  0.97725000  1.0
  H  H62  1  0.44186000  0.09320000  0.22607000  1.0
  H  H63  1  0.28422000  0.13288000  0.22608000  1.0
  H  H64  1  0.55814000  0.90680000  0.77393000  1.0
  H  H65  1  0.71578000  0.86712000  0.77392000  1.0
  C  C66  1  0.90642000  0.91462000  0.71320000  1.0
  C  C67  1  0.30678000  0.79858000  0.71320000  1.0
  C  C68  1  0.09358000  0.08538000  0.28680000  1.0
  C  C69  1  0.69322000  0.20142000  0.28680000  1.0
  C  C70  1  0.09389000  0.00356000  0.83325000  1.0
  C  C71  1  0.23936000  0.82969000  0.83325000  1.0
  C  C72  1  0.90611000  0.99644000  0.16674000  1.0
  C  C73  1  0.76064000  0.17031000  0.16675000  1.0
  C  C74  1  0.12425000  0.98836000  0.66131000  1.0
  C  C75  1  0.03706000  0.67295000  0.66131000  1.0
  C  C76  1  0.87575000  0.01164000  0.33869000  1.0
  C  C77  1  0.96294000  0.32705000  0.33869000  1.0
  C  C78  1  0.09421000  0.89903000  0.54005000  1.0
  C  C79  1  0.94584000  0.64102000  0.54005000  1.0
  C  C80  1  0.90579000  0.10097000  0.45995000  1.0
  C  C81  1  0.05416000  0.35898000  0.45995000  1.0
  C  C82  1  0.16332000  0.91762000  0.49499000  1.0
  C  C83  1  0.83167000  0.57737000  0.49499000  1.0
  C  C84  1  0.83668000  0.08238000  0.50501000  1.0
  C  C85  1  0.16833000  0.42263000  0.50501000  1.0
  C  C86  1  0.25855000  0.02607000  0.56762000  1.0
  C  C87  1  0.80907000  0.54155000  0.56762000  1.0
  C  C88  1  0.74146000  0.97394000  0.43239000  1.0
  C  C89  1  0.19093000  0.45845000  0.43238000  1.0
  C  C90  1  0.28646000  0.11516000  0.68770000  1.0
  C  C91  1  0.90124000  0.57254000  0.68770000  1.0
  C  C92  1  0.71354000  0.88484000  0.31230000  1.0
  C  C93  1  0.09876000  0.42746000  0.31230000  1.0
  C  C94  1  0.21944000  0.09567000  0.73537000  1.0
  C  C95  1  0.01593000  0.63970000  0.73536000  1.0
  C  C96  1  0.78057000  0.90434000  0.26464000  1.0
  C  C97  1  0.98407000  0.36030000  0.26464000  1.0
  C  C98  1  0.15449000  0.83209000  0.37181000  1.0
  C  C99  1  0.71733000  0.53972000  0.37181000  1.0
  C  C100  1  0.84551000  0.16791000  0.62819000  1.0
  C  C101  1  0.28268000  0.46028000  0.62819000  1.0
  C  C102  1  0.18044000  0.72686000  0.37475000  1.0
  C  C103  1  0.69431000  0.64789000  0.37475000  1.0
  C  C104  1  0.81956000  0.27314000  0.62525000  1.0
  C  C105  1  0.30569000  0.35211000  0.62525000  1.0
  C  C106  1  0.03321000  0.78747000  0.25041000  1.0
  C  C107  1  0.71720000  0.46294000  0.25041000  1.0
  C  C108  1  0.96679000  0.21253000  0.74959000  1.0
  C  C109  1  0.28280000  0.53706000  0.74959000  1.0
  C  C110  1  0.25341000  0.90839000  0.38051000  1.0
  C  C111  1  0.62710000  0.47212000  0.38051000  1.0
  C  C112  1  0.74659000  0.09161000  0.61949000  1.0
  C  C113  1  0.37290000  0.52788000  0.61949000  1.0
  C  C114  1  0.28748000  0.87883000  0.29353000  1.0
  C  C115  1  0.50606000  0.41471000  0.29354000  1.0
  C  C116  1  0.71251000  0.12116000  0.70646000  1.0
  C  C117  1  0.49395000  0.58530000  0.70647000  1.0
  C  C118  1  0.38084000  0.96464000  0.32142000  1.0
  C  C119  1  0.44058000  0.35678000  0.32142000  1.0
  C  C120  1  0.61916000  0.03536000  0.67858000  1.0
  C  C121  1  0.55942000  0.64322000  0.67858000  1.0
  C  C122  1  0.43956000  0.07734000  0.43357000  1.0
  C  C123  1  0.49401000  0.35623000  0.43357000  1.0
  C  C124  1  0.56043000  0.92265000  0.56642000  1.0
  C  C125  1  0.50599000  0.64377000  0.56643000  1.0
  C  C126  1  0.40561000  0.10636000  0.52153000  1.0
  C  C127  1  0.61592000  0.41517000  0.52153000  1.0
  C  C128  1  0.59439000  0.89364000  0.47848000  1.0
  C  C129  1  0.38409000  0.58484000  0.47848000  1.0
  C  C130  1  0.31250000  0.02149000  0.49498000  1.0
  C  C131  1  0.68248000  0.47349000  0.49499000  1.0
  C  C132  1  0.68749000  0.97850000  0.50501000  1.0
  C  C133  1  0.31752000  0.52651000  0.50501000  1.0
  C  C134  1  0.44729000  0.83979000  0.08939000  1.0
  C  C135  1  0.14210000  0.24960000  0.08939000  1.0
  C  C136  1  0.55271000  0.16021000  0.91061000  1.0
  C  C137  1  0.85790000  0.75040000  0.91061000  1.0
  C  C138  1  0.44379000  0.00646000  0.19475000  1.0
  C  C139  1  0.25096000  0.18829000  0.19475000  1.0
  C  C140  1  0.55621000  0.99354000  0.80525000  1.0
  C  C141  1  0.74904000  0.81171000  0.80525000  1.0
  N  N142  1  0.99994000  0.96993000  0.83724000  1.0
  N  N143  1  0.33730000  0.86731000  0.83724000  1.0
  N  N144  1  0.00006000  0.03007000  0.16276000  1.0
  N  N145  1  0.66270000  0.13269000  0.16276000  1.0
  N  N146  1  0.93633000  0.91101000  0.63231000  1.0
  N  N147  1  0.19598000  0.72130000  0.63231000  1.0
  N  N148  1  0.06367000  0.08899000  0.36769000  1.0
  N  N149  1  0.80402000  0.27870000  0.36769000  1.0
  N  N150  1  0.05643000  0.96901000  0.71062000  1.0
  N  N151  1  0.15419000  0.74161000  0.71062000  1.0
  N  N152  1  0.94357000  0.03099000  0.28938000  1.0
  N  N153  1  0.84581000  0.25839000  0.28939000  1.0
  N  N154  1  0.41528000  0.93752000  0.23225000  1.0
  N  N155  1  0.31698000  0.29474000  0.23226000  1.0
  N  N156  1  0.58471000  0.06248000  0.76774000  1.0
  N  N157  1  0.68302000  0.70526000  0.76774000  1.0
  N  N158  1  0.41539000  0.82932000  0.16399000  1.0
  N  N159  1  0.24860000  0.33467000  0.16399000  1.0
  N  N160  1  0.58461000  0.17068000  0.83601000  1.0
  N  N161  1  0.75139000  0.66533000  0.83601000  1.0
  N  N162  1  0.46571000  0.94733000  0.10527000  1.0
  N  N163  1  0.13956000  0.15794000  0.10527000  1.0
  N  N164  1  0.53429000  0.05267000  0.89473000  1.0
  N  N165  1  0.86044000  0.84206000  0.89473000  1.0
  Cl  Cl166  1  0.86130000  0.09523000  0.95748000  1.0
  Cl  Cl167  1  0.59618000  0.86225000  0.95748000  1.0
  Cl  Cl168  1  0.13870000  0.90477000  0.04252000  1.0
  Cl  Cl169  1  0.40382000  0.13775000  0.04252000  1.0
