# generated using pymatgen
data_ZnH17C28N3O2
_symmetry_space_group_name_H-M   'P 1'
_cell_length_a   23.71870000
_cell_length_b   23.71870000
_cell_length_c   30.68618048
_cell_angle_alpha   110.56551014
_cell_angle_beta   110.56651050
_cell_angle_gamma   95.16770000
_symmetry_Int_Tables_number   1
_chemical_formula_structural   ZnH17C28N3O2
_chemical_formula_sum   'Zn8 H136 C224 N24 O16'
_cell_volume   14677.41717058
_cell_formula_units_Z   8
loop_
 _symmetry_equiv_pos_site_id
 _symmetry_equiv_pos_as_xyz
  1  'x, y, z'
loop_
 _atom_site_type_symbol
 _atom_site_label
 _atom_site_symmetry_multiplicity
 _atom_site_fract_x
 _atom_site_fract_y
 _atom_site_fract_z
 _atom_site_occupancy
  Zn  Zn0  1  0.38174000  0.63165000  0.26334000  1.0
  Zn  Zn1  1  0.86835000  0.11826000  0.23666000  1.0
  Zn  Zn2  1  0.61826000  0.36835000  0.73666000  1.0
  Zn  Zn3  1  0.13165000  0.88174000  0.76334000  1.0
  Zn  Zn4  1  0.34840000  0.09846000  0.19683000  1.0
  Zn  Zn5  1  0.40154000  0.15160000  0.30317000  1.0
  Zn  Zn6  1  0.65160000  0.90154000  0.80317000  1.0
  Zn  Zn7  1  0.59847000  0.84840000  0.69683000  1.0
  H  H8  1  0.18302000  0.72034000  0.25684000  1.0
  H  H9  1  0.25978000  0.80614000  0.25132000  1.0
  H  H10  1  0.48542000  0.82993000  0.25094000  1.0
  H  H11  1  0.57037000  0.76130000  0.25642000  1.0
  H  H12  1  0.41294333  0.88071333  0.33333333  1.0
  H  H13  1  0.41159333  0.98639333  0.33333333  1.0
  H  H14  1  0.33029000  0.90517000  0.16980000  1.0
  H  H15  1  0.33114000  0.79915000  0.16933000  1.0
  H  H16  1  0.11617000  0.57192000  0.18185000  1.0
  H  H17  1  0.01528000  0.56674000  0.19011000  1.0
  H  H18  1  0.01368000  0.60240000  0.27624000  1.0
  H  H19  1  0.11330000  0.64220000  0.35382000  1.0
  H  H20  1  0.21388000  0.64663000  0.34509000  1.0
  H  H21  1  0.52373000  0.88482000  0.61562000  1.0
  H  H22  1  0.47474000  0.84148000  0.52086000  1.0
  H  H23  1  0.51865000  0.64761000  0.44522000  1.0
  H  H24  1  0.46884000  0.60376000  0.35073000  1.0
  H  H25  1  0.57417000  0.53663000  0.25723000  1.0
  H  H26  1  0.49171000  0.44520000  0.25139000  1.0
  H  H27  1  0.26568000  0.42097000  0.25092000  1.0
  H  H28  1  0.18628000  0.49517000  0.25654000  1.0
  H  H29  1  0.42034333  0.45258333  0.33333333  1.0
  H  H30  1  0.42149000  0.34682000  0.33320000  1.0
  H  H31  1  0.33944000  0.26469000  0.16971000  1.0
  H  H32  1  0.33835000  0.37027000  0.16921000  1.0
  H  H33  1  0.56590000  0.60996000  0.18192000  1.0
  H  H34  1  0.67500000  0.62329000  0.19011000  1.0
  H  H35  1  0.76272000  0.67379000  0.27623000  1.0
  H  H36  1  0.74064000  0.71165000  0.35385000  1.0
  H  H37  1  0.63133000  0.69854000  0.34512000  1.0
  H  H38  1  0.59199000  0.73080000  0.61564000  1.0
  H  H39  1  0.54621000  0.67943000  0.52087000  1.0
  H  H40  1  0.42670000  0.79765000  0.44520000  1.0
  H  H41  1  0.38183000  0.74690000  0.35070000  1.0
  H  H42  1  0.77965000  0.31697000  0.24315000  1.0
  H  H43  1  0.69387000  0.24022000  0.24868000  1.0
  H  H44  1  0.67007000  0.01458000  0.24906000  1.0
  H  H45  1  0.73870000  0.92964000  0.24358000  1.0
  H  H46  1  0.61925000  0.08702000  0.16663000  1.0
  H  H47  1  0.51363000  0.08843000  0.16669000  1.0
  H  H48  1  0.59482000  0.16970000  0.33019000  1.0
  H  H49  1  0.70084000  0.16885000  0.33066000  1.0
  H  H50  1  0.92808000  0.38383000  0.31815000  1.0
  H  H51  1  0.93326000  0.48472000  0.30989000  1.0
  H  H52  1  0.89760000  0.48632000  0.22376000  1.0
  H  H53  1  0.85780000  0.38670000  0.14618000  1.0
  H  H54  1  0.85337000  0.28612000  0.15491000  1.0
  H  H55  1  0.61518000  0.97627000  0.88438000  1.0
  H  H56  1  0.65852000  0.02526000  0.97914000  1.0
  H  H57  1  0.85240000  0.98136000  0.05479000  1.0
  H  H58  1  0.89623000  0.03116000  0.14927000  1.0
  H  H59  1  0.96337000  0.92583000  0.24277000  1.0
  H  H60  1  0.05480000  0.00829000  0.24861000  1.0
  H  H61  1  0.07902000  0.23431000  0.24907000  1.0
  H  H62  1  0.00483000  0.31372000  0.24346000  1.0
  H  H63  1  0.04748000  0.07972000  0.16673000  1.0
  H  H64  1  0.15318000  0.07852000  0.16680000  1.0
  H  H65  1  0.23532000  0.16055000  0.33029000  1.0
  H  H66  1  0.12973000  0.16164000  0.33079000  1.0
  H  H67  1  0.89004000  0.93410000  0.31808000  1.0
  H  H68  1  0.87671000  0.82500000  0.30989000  1.0
  H  H69  1  0.82621000  0.73728000  0.22377000  1.0
  H  H70  1  0.78835000  0.75935000  0.14615000  1.0
  H  H71  1  0.80146000  0.86867000  0.15488000  1.0
  H  H72  1  0.76919000  0.90801000  0.88436000  1.0
  H  H73  1  0.82057000  0.95378000  0.97913000  1.0
  H  H74  1  0.70235000  0.07330000  0.05480000  1.0
  H  H75  1  0.75309000  0.11817000  0.14930000  1.0
  H  H76  1  0.81697000  0.27965000  0.74315000  1.0
  H  H77  1  0.74022000  0.19387000  0.74868000  1.0
  H  H78  1  0.51458000  0.17008000  0.74906000  1.0
  H  H79  1  0.42964000  0.23870000  0.74358000  1.0
  H  H80  1  0.58702000  0.11925000  0.66663000  1.0
  H  H81  1  0.58840667  0.01360667  0.66666667  1.0
  H  H82  1  0.66971000  0.09483000  0.83020000  1.0
  H  H83  1  0.66885000  0.20084000  0.83066000  1.0
  H  H84  1  0.88383000  0.42808000  0.81815000  1.0
  H  H85  1  0.98472000  0.43326000  0.80989000  1.0
  H  H86  1  0.98632000  0.39760000  0.72376000  1.0
  H  H87  1  0.88670000  0.35780000  0.64618000  1.0
  H  H88  1  0.78612000  0.35337000  0.65491000  1.0
  H  H89  1  0.47627000  0.11518000  0.38438000  1.0
  H  H90  1  0.52526000  0.15852000  0.47914000  1.0
  H  H91  1  0.48135000  0.35239000  0.55478000  1.0
  H  H92  1  0.53117000  0.39624000  0.64927000  1.0
  H  H93  1  0.42583000  0.46337000  0.74277000  1.0
  H  H94  1  0.50829000  0.55480000  0.74861000  1.0
  H  H95  1  0.73431000  0.57902000  0.74907000  1.0
  H  H96  1  0.81372000  0.50483000  0.74346000  1.0
  H  H97  1  0.57971000  0.54748000  0.66673000  1.0
  H  H98  1  0.57851000  0.65318000  0.66680000  1.0
  H  H99  1  0.66055000  0.73532000  0.83029000  1.0
  H  H100  1  0.66165000  0.62973000  0.83079000  1.0
  H  H101  1  0.43410000  0.39004000  0.81808000  1.0
  H  H102  1  0.32499000  0.37670000  0.80988000  1.0
  H  H103  1  0.23728000  0.32621000  0.72377000  1.0
  H  H104  1  0.25936000  0.28835000  0.64615000  1.0
  H  H105  1  0.36867000  0.30146000  0.65488000  1.0
  H  H106  1  0.40801000  0.26920000  0.38436000  1.0
  H  H107  1  0.45379000  0.32057000  0.47913000  1.0
  H  H108  1  0.57330000  0.20235000  0.55480000  1.0
  H  H109  1  0.61817000  0.25310000  0.64930000  1.0
  H  H110  1  0.22035000  0.68303000  0.75685000  1.0
  H  H111  1  0.30613000  0.75978000  0.75132000  1.0
  H  H112  1  0.32992000  0.98541000  0.75093000  1.0
  H  H113  1  0.26130000  0.07037000  0.75642000  1.0
  H  H114  1  0.38075000  0.91298000  0.83337000  1.0
  H  H115  1  0.48637000  0.91157000  0.83331000  1.0
  H  H116  1  0.40518000  0.83029000  0.66981000  1.0
  H  H117  1  0.29916000  0.83115000  0.66934000  1.0
  H  H118  1  0.07192000  0.61617000  0.68185000  1.0
  H  H119  1  0.06674000  0.51528000  0.69011000  1.0
  H  H120  1  0.10239000  0.51368000  0.77624000  1.0
  H  H121  1  0.14220000  0.61330000  0.85382000  1.0
  H  H122  1  0.14663000  0.71388000  0.84509000  1.0
  H  H123  1  0.38482000  0.02373000  0.11562000  1.0
  H  H124  1  0.34148000  0.97474000  0.02086000  1.0
  H  H125  1  0.14760000  0.01865000  0.94522000  1.0
  H  H126  1  0.10376000  0.96884000  0.85073000  1.0
  H  H127  1  0.03663000  0.07417000  0.75723000  1.0
  H  H128  1  0.94520000  0.99171000  0.75139000  1.0
  H  H129  1  0.92098000  0.76569000  0.75093000  1.0
  H  H130  1  0.99517000  0.68628000  0.75654000  1.0
  H  H131  1  0.95252000  0.92028000  0.83327000  1.0
  H  H132  1  0.84682000  0.92149000  0.83320000  1.0
  H  H133  1  0.76468000  0.83945000  0.66971000  1.0
  H  H134  1  0.87027000  0.83835000  0.66921000  1.0
  H  H135  1  0.10996000  0.06590000  0.68192000  1.0
  H  H136  1  0.12330000  0.17501000  0.69012000  1.0
  H  H137  1  0.17379000  0.26272000  0.77623000  1.0
  H  H138  1  0.21165000  0.24064000  0.85385000  1.0
  H  H139  1  0.19854000  0.13133000  0.84512000  1.0
  H  H140  1  0.23080000  0.09199000  0.11564000  1.0
  H  H141  1  0.17943000  0.04621000  0.02087000  1.0
  H  H142  1  0.29765000  0.92670000  0.94520000  1.0
  H  H143  1  0.24690000  0.88183000  0.85070000  1.0
  C  C144  1  0.25787000  0.66807000  0.25622000  1.0
  C  C145  1  0.22809000  0.71869000  0.25569000  1.0
  C  C146  1  0.26709000  0.76227000  0.25299000  1.0
  C  C147  1  0.32128000  0.73878000  0.25239000  1.0
  C  C148  1  0.37365000  0.77076000  0.25160000  1.0
  C  C149  1  0.42768000  0.75005000  0.25245000  1.0
  C  C150  1  0.48140000  0.78492000  0.25277000  1.0
  C  C151  1  0.52441000  0.75011000  0.25547000  1.0
  C  C152  1  0.49697000  0.69355000  0.25631000  1.0
  C  C153  1  0.23245000  0.61354000  0.25830000  1.0
  C  C154  1  0.37236000  0.83338000  0.25132000  1.0
  C  C155  1  0.39483000  0.88627000  0.29752000  1.0
  C  C156  1  0.39426000  0.94495000  0.29767000  1.0
  C  C157  1  0.37121000  0.95180000  0.25157000  1.0
  C  C158  1  0.34828000  0.89909000  0.20534000  1.0
  C  C159  1  0.34885000  0.84037000  0.20524000  1.0
  C  C160  1  0.37207000  0.01509000  0.25185000  1.0
  C  C161  1  0.17163000  0.60962000  0.26292000  1.0
  C  C162  1  0.11531000  0.58717000  0.21949000  1.0
  C  C163  1  0.05877000  0.58447000  0.22424000  1.0
  C  C164  1  0.05781000  0.60434000  0.27250000  1.0
  C  C165  1  0.11368000  0.62668000  0.31600000  1.0
  C  C166  1  0.17016000  0.62919000  0.31119000  1.0
  C  C167  1  0.52695000  0.83932000  0.59248000  1.0
  C  C168  1  0.49989000  0.81437000  0.53951000  1.0
  C  C169  1  0.48855000  0.67185000  0.42660000  1.0
  C  C170  1  0.46097000  0.64680000  0.37357000  1.0
  C  C171  1  0.49867000  0.58826000  0.25650000  1.0
  C  C172  1  0.52793000  0.53713000  0.25603000  1.0
  C  C173  1  0.48613000  0.49078000  0.25314000  1.0
  C  C174  1  0.43130000  0.51363000  0.25242000  1.0
  C  C175  1  0.37809000  0.48083000  0.25152000  1.0
  C  C176  1  0.32488000  0.50234000  0.25234000  1.0
  C  C177  1  0.27152000  0.46781000  0.25275000  1.0
  C  C178  1  0.23124000  0.50537000  0.25552000  1.0
  C  C179  1  0.25948000  0.56271000  0.25628000  1.0
  C  C180  1  0.52609000  0.64481000  0.25843000  1.0
  C  C181  1  0.37906000  0.41793000  0.25122000  1.0
  C  C182  1  0.40263000  0.41119000  0.29742000  1.0
  C  C183  1  0.40325000  0.35266000  0.29757000  1.0
  C  C184  1  0.38019000  0.29976000  0.25147000  1.0
  C  C185  1  0.35702000  0.30630000  0.20523000  1.0
  C  C186  1  0.35650000  0.36493000  0.20512000  1.0
  C  C187  1  0.37962000  0.23677000  0.25176000  1.0
  C  C188  1  0.59149000  0.65335000  0.26297000  1.0
  C  C189  1  0.60441000  0.63235000  0.21955000  1.0
  C  C190  1  0.66567000  0.63977000  0.22426000  1.0
  C  C191  1  0.71486000  0.66818000  0.27253000  1.0
  C  C192  1  0.70246000  0.68939000  0.31603000  1.0
  C  C193  1  0.64118000  0.68210000  0.31123000  1.0
  C  C194  1  0.56558000  0.75315000  0.59250000  1.0
  C  C195  1  0.53966000  0.72515000  0.53952000  1.0
  C  C196  1  0.43815000  0.75478000  0.42658000  1.0
  C  C197  1  0.41258000  0.72674000  0.37355000  1.0
  C  C198  1  0.83192000  0.24212000  0.24377000  1.0
  C  C199  1  0.78130000  0.27190000  0.24430000  1.0
  C  C200  1  0.73774000  0.23291000  0.24701000  1.0
  C  C201  1  0.76122000  0.17872000  0.24761000  1.0
  C  C202  1  0.72924000  0.12634000  0.24839000  1.0
  C  C203  1  0.74996000  0.07233000  0.24755000  1.0
  C  C204  1  0.71508000  0.01860000  0.24722000  1.0
  C  C205  1  0.74990000  0.97559000  0.24453000  1.0
  C  C206  1  0.80644000  0.00302000  0.24368000  1.0
  C  C207  1  0.88646000  0.26755000  0.24170000  1.0
  C  C208  1  0.66661000  0.12764000  0.24867000  1.0
  C  C209  1  0.61372000  0.10516000  0.20247000  1.0
  C  C210  1  0.55505000  0.10574000  0.20233000  1.0
  C  C211  1  0.54819000  0.12878000  0.24842000  1.0
  C  C212  1  0.60091000  0.15172000  0.29465000  1.0
  C  C213  1  0.65963000  0.15114000  0.29475000  1.0
  C  C214  1  0.48490000  0.12793000  0.24814000  1.0
  C  C215  1  0.89039000  0.32838000  0.23709000  1.0
  C  C216  1  0.91283000  0.38469000  0.28051000  1.0
  C  C217  1  0.91553000  0.44123000  0.27576000  1.0
  C  C218  1  0.89566000  0.44219000  0.22750000  1.0
  C  C219  1  0.87333000  0.38633000  0.18401000  1.0
  C  C220  1  0.87081000  0.32984000  0.18881000  1.0
  C  C221  1  0.66068000  0.97305000  0.90752000  1.0
  C  C222  1  0.68563000  0.00011000  0.96049000  1.0
  C  C223  1  0.82815000  0.01145000  0.07340000  1.0
  C  C224  1  0.85320000  0.03903000  0.12643000  1.0
  C  C225  1  0.91174000  0.00133000  0.24349000  1.0
  C  C226  1  0.96287000  0.97207000  0.24397000  1.0
  C  C227  1  0.00921000  0.01386000  0.24685000  1.0
  C  C228  1  0.98637000  0.06870000  0.24758000  1.0
  C  C229  1  0.01917000  0.12191000  0.24848000  1.0
  C  C230  1  0.99767000  0.17512000  0.24766000  1.0
  C  C231  1  0.03219000  0.22848000  0.24725000  1.0
  C  C232  1  0.99464000  0.26876000  0.24448000  1.0
  C  C233  1  0.93728000  0.24051000  0.24371000  1.0
  C  C234  1  0.85519000  0.97391000  0.24157000  1.0
  C  C235  1  0.08207000  0.12094000  0.24878000  1.0
  C  C236  1  0.08881000  0.09738000  0.20258000  1.0
  C  C237  1  0.14735000  0.09675000  0.20243000  1.0
  C  C238  1  0.20024000  0.11981000  0.24853000  1.0
  C  C239  1  0.19370000  0.14298000  0.29477000  1.0
  C  C240  1  0.13508000  0.14350000  0.29488000  1.0
  C  C241  1  0.26323000  0.12038000  0.24824000  1.0
  C  C242  1  0.84665000  0.90851000  0.23703000  1.0
  C  C243  1  0.86765000  0.89559000  0.28045000  1.0
  C  C244  1  0.86023000  0.83433000  0.27574000  1.0
  C  C245  1  0.83182000  0.78514000  0.22747000  1.0
  C  C246  1  0.81061000  0.79753000  0.18397000  1.0
  C  C247  1  0.81790000  0.85882000  0.18877000  1.0
  C  C248  1  0.74685000  0.93442000  0.90750000  1.0
  C  C249  1  0.77485000  0.96034000  0.96048000  1.0
  C  C250  1  0.74522000  0.06185000  0.07342000  1.0
  C  C251  1  0.77326000  0.08742000  0.12645000  1.0
  C  C252  1  0.74212000  0.33192000  0.74377000  1.0
  C  C253  1  0.77190000  0.28130000  0.74430000  1.0
  C  C254  1  0.73291000  0.23774000  0.74701000  1.0
  C  C255  1  0.67872000  0.26122000  0.74761000  1.0
  C  C256  1  0.62635000  0.22925000  0.74840000  1.0
  C  C257  1  0.57233000  0.24996000  0.74755000  1.0
  C  C258  1  0.51860000  0.21508000  0.74722000  1.0
  C  C259  1  0.47559000  0.24990000  0.74453000  1.0
  C  C260  1  0.50302000  0.30644000  0.74368000  1.0
  C  C261  1  0.76755000  0.38646000  0.74170000  1.0
  C  C262  1  0.62764000  0.16661000  0.74867000  1.0
  C  C263  1  0.60517000  0.11373000  0.70248000  1.0
  C  C264  1  0.60574000  0.05505000  0.70233000  1.0
  C  C265  1  0.62879000  0.04820000  0.74843000  1.0
  C  C266  1  0.65173000  0.10092000  0.79466000  1.0
  C  C267  1  0.65114000  0.15963000  0.79475000  1.0
  C  C268  1  0.62793000  0.98491000  0.74815000  1.0
  C  C269  1  0.82837000  0.39038000  0.73708000  1.0
  C  C270  1  0.88469000  0.41283000  0.78051000  1.0
  C  C271  1  0.94123000  0.41553000  0.77576000  1.0
  C  C272  1  0.94219000  0.39566000  0.72750000  1.0
  C  C273  1  0.88633000  0.37333000  0.68401000  1.0
  C  C274  1  0.82984000  0.37081000  0.68881000  1.0
  C  C275  1  0.47305000  0.16068000  0.40752000  1.0
  C  C276  1  0.50011000  0.18563000  0.46049000  1.0
  C  C277  1  0.51145000  0.32815000  0.57340000  1.0
  C  C278  1  0.53903000  0.35321000  0.62643000  1.0
  C  C279  1  0.50133000  0.41175000  0.74350000  1.0
  C  C280  1  0.47207000  0.46287000  0.74397000  1.0
  C  C281  1  0.51387000  0.50922000  0.74686000  1.0
  C  C282  1  0.56870000  0.48637000  0.74758000  1.0
  C  C283  1  0.62191000  0.51917000  0.74848000  1.0
  C  C284  1  0.67512000  0.49766000  0.74766000  1.0
  C  C285  1  0.72848000  0.53219000  0.74725000  1.0
  C  C286  1  0.76876000  0.49463000  0.74448000  1.0
  C  C287  1  0.74052000  0.43729000  0.74372000  1.0
  C  C288  1  0.47391000  0.35519000  0.74157000  1.0
  C  C289  1  0.62094000  0.58207000  0.74878000  1.0
  C  C290  1  0.59737000  0.58881000  0.70258000  1.0
  C  C291  1  0.59675000  0.64734000  0.70243000  1.0
  C  C292  1  0.61981000  0.70024000  0.74853000  1.0
  C  C293  1  0.64298000  0.69371000  0.79477000  1.0
  C  C294  1  0.64350000  0.63508000  0.79488000  1.0
  C  C295  1  0.62039000  0.76323000  0.74824000  1.0
  C  C296  1  0.40851000  0.34665000  0.73703000  1.0
  C  C297  1  0.39559000  0.36765000  0.78045000  1.0
  C  C298  1  0.33432000  0.36022000  0.77573000  1.0
  C  C299  1  0.28514000  0.33182000  0.72747000  1.0
  C  C300  1  0.29753000  0.31061000  0.68397000  1.0
  C  C301  1  0.35882000  0.31790000  0.68877000  1.0
  C  C302  1  0.43442000  0.24685000  0.40750000  1.0
  C  C303  1  0.46034000  0.27485000  0.46048000  1.0
  C  C304  1  0.56185000  0.24522000  0.57342000  1.0
  C  C305  1  0.58742000  0.27326000  0.62645000  1.0
  C  C306  1  0.16808000  0.75788000  0.75623000  1.0
  C  C307  1  0.21870000  0.72810000  0.75570000  1.0
  C  C308  1  0.26226000  0.76709000  0.75299000  1.0
  C  C309  1  0.23879000  0.82129000  0.75240000  1.0
  C  C310  1  0.27076000  0.87366000  0.75161000  1.0
  C  C311  1  0.25004000  0.92767000  0.75245000  1.0
  C  C312  1  0.28492000  0.98141000  0.75278000  1.0
  C  C313  1  0.25011000  0.02441000  0.75547000  1.0
  C  C314  1  0.19356000  0.99697000  0.75632000  1.0
  C  C315  1  0.11354000  0.73245000  0.75830000  1.0
  C  C316  1  0.33339000  0.87236000  0.75133000  1.0
  C  C317  1  0.38628000  0.89484000  0.79753000  1.0
  C  C318  1  0.44495000  0.89425000  0.79767000  1.0
  C  C319  1  0.45181000  0.87122000  0.75158000  1.0
  C  C320  1  0.39910000  0.84828000  0.70535000  1.0
  C  C321  1  0.34037000  0.84885000  0.70525000  1.0
  C  C322  1  0.51510000  0.87207000  0.75186000  1.0
  C  C323  1  0.10962000  0.67163000  0.76292000  1.0
  C  C324  1  0.08718000  0.61532000  0.71950000  1.0
  C  C325  1  0.08447000  0.55877000  0.72424000  1.0
  C  C326  1  0.10434000  0.55781000  0.77250000  1.0
  C  C327  1  0.12668000  0.61367000  0.81600000  1.0
  C  C328  1  0.12919000  0.67017000  0.81120000  1.0
  C  C329  1  0.33932000  0.02695000  0.09248000  1.0
  C  C330  1  0.31437000  0.99989000  0.03951000  1.0
  C  C331  1  0.17185000  0.98855000  0.92660000  1.0
  C  C332  1  0.14679000  0.96097000  0.87357000  1.0
  C  C333  1  0.08826000  0.99868000  0.75651000  1.0
  C  C334  1  0.03713000  0.02793000  0.75603000  1.0
  C  C335  1  0.99078000  0.98613000  0.75314000  1.0
  C  C336  1  0.01363000  0.93130000  0.75242000  1.0
  C  C337  1  0.98083000  0.87809000  0.75152000  1.0
  C  C338  1  0.00234000  0.82487000  0.75234000  1.0
  C  C339  1  0.96781000  0.77152000  0.75275000  1.0
  C  C340  1  0.00536000  0.73124000  0.75552000  1.0
  C  C341  1  0.06272000  0.75949000  0.75629000  1.0
  C  C342  1  0.14481000  0.02609000  0.75843000  1.0
  C  C343  1  0.91793000  0.87906000  0.75122000  1.0
  C  C344  1  0.91119000  0.90263000  0.79742000  1.0
  C  C345  1  0.85266000  0.90326000  0.79758000  1.0
  C  C346  1  0.79976000  0.88019000  0.75147000  1.0
  C  C347  1  0.80629000  0.85702000  0.70523000  1.0
  C  C348  1  0.86493000  0.85651000  0.70513000  1.0
  C  C349  1  0.73677000  0.87962000  0.75176000  1.0
  C  C350  1  0.15335000  0.09149000  0.76297000  1.0
  C  C351  1  0.13235000  0.10441000  0.71955000  1.0
  C  C352  1  0.13978000  0.16568000  0.72427000  1.0
  C  C353  1  0.16818000  0.21486000  0.77253000  1.0
  C  C354  1  0.18939000  0.20246000  0.81603000  1.0
  C  C355  1  0.18210000  0.14118000  0.81123000  1.0
  C  C356  1  0.25315000  0.06558000  0.09250000  1.0
  C  C357  1  0.22515000  0.03966000  0.03952000  1.0
  C  C358  1  0.25478000  0.93815000  0.92658000  1.0
  C  C359  1  0.22674000  0.91258000  0.87355000  1.0
  C  C360  1  0.50568000  0.75567000  0.51135000  1.0
  C  C361  1  0.47743000  0.72740000  0.45476000  1.0
  C  C362  1  0.74433000  0.99432000  0.98865000  1.0
  C  C363  1  0.77260000  0.02257000  0.04524000  1.0
  C  C364  1  0.49431000  0.24432000  0.48864000  1.0
  C  C365  1  0.52256000  0.27259000  0.54523000  1.0
  C  C366  1  0.25568000  0.00569000  0.01136000  1.0
  C  C367  1  0.22741000  0.97744000  0.95477000  1.0
  N  N368  1  0.31432000  0.68158000  0.25422000  1.0
  N  N369  1  0.43826000  0.69476000  0.25425000  1.0
  N  N370  1  0.44016000  0.57271000  0.25436000  1.0
  N  N371  1  0.31609000  0.55941000  0.25414000  1.0
  N  N372  1  0.81841000  0.18567000  0.24577000  1.0
  N  N373  1  0.80523000  0.06174000  0.24574000  1.0
  N  N374  1  0.92729000  0.05984000  0.24564000  1.0
  N  N375  1  0.94058000  0.18391000  0.24585000  1.0
  N  N376  1  0.68567000  0.31841000  0.74577000  1.0
  N  N377  1  0.56174000  0.30523000  0.74574000  1.0
  N  N378  1  0.55985000  0.42730000  0.74565000  1.0
  N  N379  1  0.68392000  0.44059000  0.74586000  1.0
  N  N380  1  0.18158000  0.81432000  0.75423000  1.0
  N  N381  1  0.19477000  0.93826000  0.75426000  1.0
  N  N382  1  0.07271000  0.94016000  0.75436000  1.0
  N  N383  1  0.05942000  0.81609000  0.75415000  1.0
  N  N384  1  0.55928000  0.80925000  0.61854000  1.0
  N  N385  1  0.42361000  0.67361000  0.34729000  1.0
  N  N386  1  0.69075000  0.94072000  0.88146000  1.0
  N  N387  1  0.82639000  0.07639000  0.15271000  1.0
  N  N388  1  0.44072000  0.19075000  0.38146000  1.0
  N  N389  1  0.57639000  0.32639000  0.65271000  1.0
  N  N390  1  0.30925000  0.05928000  0.11854000  1.0
  N  N391  1  0.17361000  0.92361000  0.84729000  1.0
  O  O392  1  0.35014000  0.01824000  0.20873000  1.0
  O  O393  1  0.39514000  0.06109000  0.29535000  1.0
  O  O394  1  0.35840000  0.19053000  0.20863000  1.0
  O  O395  1  0.40010000  0.23424000  0.29526000  1.0
  O  O396  1  0.48176000  0.14986000  0.29127000  1.0
  O  O397  1  0.43891000  0.10486000  0.20465000  1.0
  O  O398  1  0.30948000  0.14160000  0.29137000  1.0
  O  O399  1  0.26576000  0.09990000  0.20474000  1.0
  O  O400  1  0.64986000  0.98176000  0.79127000  1.0
  O  O401  1  0.60485000  0.93891000  0.70465000  1.0
  O  O402  1  0.64159000  0.80947000  0.79136000  1.0
  O  O403  1  0.59991000  0.76576000  0.70474000  1.0
  O  O404  1  0.51824000  0.85013000  0.70873000  1.0
  O  O405  1  0.56109000  0.89514000  0.79535000  1.0
  O  O406  1  0.69052000  0.85840000  0.70863000  1.0
  O  O407  1  0.73424000  0.90010000  0.79526000  1.0
