# generated using pymatgen
data_MnH4C7O5
_symmetry_space_group_name_H-M   'P 1'
_cell_length_a   7.24592000
_cell_length_b   9.75362000
_cell_length_c   10.04400000
_cell_angle_alpha   89.99920000
_cell_angle_beta   90.00110000
_cell_angle_gamma   89.99610000
_symmetry_Int_Tables_number   1
_chemical_formula_structural   MnH4C7O5
_chemical_formula_sum   'Mn4 H16 C28 O20'
_cell_volume   709.84915427
_cell_formula_units_Z   4
loop_
 _symmetry_equiv_pos_site_id
 _symmetry_equiv_pos_as_xyz
  1  'x, y, z'
loop_
 _atom_site_type_symbol
 _atom_site_label
 _atom_site_symmetry_multiplicity
 _atom_site_fract_x
 _atom_site_fract_y
 _atom_site_fract_z
 _atom_site_occupancy
  Mn  Mn0  1  0.10104000  0.26189000  0.00001000  1.0
  Mn  Mn1  1  0.89979000  0.73855000  0.99996000  1.0
  Mn  Mn2  1  0.39986000  0.76144000  0.99998000  1.0
  Mn  Mn3  1  0.60101000  0.23810000  0.00000000  1.0
  H  H4  1  0.82652000  0.44726000  0.92294000  1.0
  H  H5  1  0.17342000  0.55331000  0.92290000  1.0
  H  H6  1  0.67343000  0.94669000  0.07710000  1.0
  H  H7  1  0.32649000  0.05273000  0.07706000  1.0
  H  H8  1  0.17343000  0.55334000  0.07710000  1.0
  H  H9  1  0.82649000  0.44730000  0.07703000  1.0
  H  H10  1  0.32651000  0.05269000  0.92296000  1.0
  H  H11  1  0.67342000  0.94664000  0.92289000  1.0
  H  H12  1  0.09173000  0.33088000  0.37542000  1.0
  H  H13  1  0.90835000  0.66913000  0.37547000  1.0
  H  H14  1  0.40842000  0.83089000  0.62452000  1.0
  H  H15  1  0.59170000  0.16913000  0.62457000  1.0
  H  H16  1  0.90840000  0.66913000  0.62453000  1.0
  H  H17  1  0.09175000  0.33090000  0.62456000  1.0
  H  H18  1  0.59172000  0.16913000  0.37544000  1.0
  H  H19  1  0.40839000  0.83086000  0.37548000  1.0
  C  C20  1  0.20321000  0.38035000  0.43016000  1.0
  C  C21  1  0.79677000  0.61975000  0.43019000  1.0
  C  C22  1  0.29681000  0.88025000  0.56983000  1.0
  C  C23  1  0.70323000  0.11968000  0.56984000  1.0
  C  C24  1  0.79679000  0.61977000  0.56983000  1.0
  C  C25  1  0.20324000  0.38035000  0.56981000  1.0
  C  C26  1  0.70323000  0.11969000  0.43019000  1.0
  C  C27  1  0.29681000  0.88026000  0.43018000  1.0
  C  C28  1  0.35250000  0.43219000  0.35998000  1.0
  C  C29  1  0.64744000  0.56809000  0.35995000  1.0
  C  C30  1  0.14742000  0.93189000  0.64005000  1.0
  C  C31  1  0.85250000  0.06784000  0.64002000  1.0
  C  C32  1  0.64742000  0.56811000  0.64006000  1.0
  C  C33  1  0.35250000  0.43218000  0.64000000  1.0
  C  C34  1  0.85250000  0.06784000  0.36000000  1.0
  C  C35  1  0.14745000  0.93192000  0.35995000  1.0
  C  C36  1  0.49992000  0.50018000  0.42825000  1.0
  C  C37  1  0.99994000  0.99983000  0.57176000  1.0
  C  C38  1  0.49993000  0.50020000  0.57176000  1.0
  C  C39  1  0.99995000  0.99985000  0.42825000  1.0
  C  C40  1  0.35979000  0.39445000  0.21576000  1.0
  C  C41  1  0.64016000  0.60586000  0.21576000  1.0
  C  C42  1  0.14015000  0.89412000  0.78425000  1.0
  C  C43  1  0.85979000  0.10554000  0.78426000  1.0
  C  C44  1  0.64015000  0.60588000  0.78427000  1.0
  C  C45  1  0.35983000  0.39443000  0.78422000  1.0
  C  C46  1  0.85979000  0.10555000  0.21577000  1.0
  C  C47  1  0.14017000  0.89413000  0.21574000  1.0
  O  O48  1  0.20968000  0.40334000  0.14838000  1.0
  O  O49  1  0.79021000  0.59724000  0.14834000  1.0
  O  O50  1  0.29022000  0.90279000  0.85165000  1.0
  O  O51  1  0.70968000  0.09659000  0.85164000  1.0
  O  O52  1  0.79026000  0.59723000  0.85167000  1.0
  O  O53  1  0.20970000  0.40334000  0.85159000  1.0
  O  O54  1  0.70969000  0.09661000  0.14837000  1.0
  O  O55  1  0.29020000  0.90278000  0.14831000  1.0
  O  O56  1  0.51030000  0.34644000  0.17106000  1.0
  O  O57  1  0.48943000  0.65369000  0.17108000  1.0
  O  O58  1  0.98950000  0.84626000  0.82892000  1.0
  O  O59  1  0.01026000  0.15357000  0.82896000  1.0
  O  O60  1  0.48949000  0.65371000  0.82894000  1.0
  O  O61  1  0.51034000  0.34645000  0.82893000  1.0
  O  O62  1  0.01029000  0.15357000  0.17107000  1.0
  O  O63  1  0.98945000  0.84625000  0.17108000  1.0
  O  O64  1  0.84112000  0.38192000  0.99999000  1.0
  O  O65  1  0.15890000  0.61871000  0.99999000  1.0
  O  O66  1  0.65884000  0.88128000  0.00001000  1.0
  O  O67  1  0.34114000  0.11808000  0.99999000  1.0
