# generated using pymatgen
data_ZnH5C11N4Cl3O5
_symmetry_space_group_name_H-M   'P 1'
_cell_length_a   15.43890000
_cell_length_b   17.82900000
_cell_length_c   19.40080000
_cell_angle_alpha   88.92950000
_cell_angle_beta   87.67570000
_cell_angle_gamma   87.89040000
_symmetry_Int_Tables_number   1
_chemical_formula_structural   ZnH5C11N4Cl3O5
_chemical_formula_sum   'Zn8 H40 C88 N32 Cl24 O40'
_cell_volume   5331.46688435
_cell_formula_units_Z   8
loop_
 _symmetry_equiv_pos_site_id
 _symmetry_equiv_pos_as_xyz
  1  'x, y, z'
loop_
 _atom_site_type_symbol
 _atom_site_label
 _atom_site_symmetry_multiplicity
 _atom_site_fract_x
 _atom_site_fract_y
 _atom_site_fract_z
 _atom_site_occupancy
  Zn  Zn0  1  0.02591000  0.58706000  0.06300000  1.0
  Zn  Zn1  1  0.06547000  0.35735000  0.98359000  1.0
  Zn  Zn2  1  0.49062000  0.07553000  0.42792000  1.0
  Zn  Zn3  1  0.42557000  0.86371000  0.54225000  1.0
  Zn  Zn4  1  0.18193000  0.50053000  0.97347000  1.0
  Zn  Zn5  1  0.89955000  0.47807000  0.95325000  1.0
  Zn  Zn6  1  0.59433000  0.97590000  0.54425000  1.0
  Zn  Zn7  1  0.30339000  0.01913000  0.50608000  1.0
  H  H8  1  0.26147000  0.49134000  0.82122000  1.0
  H  H9  1  0.41510000  0.61609000  0.04372000  1.0
  H  H10  1  0.17577000  0.59732000  0.77519000  1.0
  H  H11  1  0.76785000  0.50048000  0.06580000  1.0
  H  H12  1  0.25968000  0.96032000  0.29629000  1.0
  H  H13  1  0.92665000  0.91554000  0.55076000  1.0
  H  H14  1  0.85994000  0.13136000  0.41191000  1.0
  H  H15  1  0.20860000  0.09616000  0.64335000  1.0
  H  H16  1  0.84935000  0.75209000  0.89092000  1.0
  H  H17  1  0.00796000  0.38366000  0.24625000  1.0
  H  H18  1  0.41435000  0.27187000  0.89510000  1.0
  H  H19  1  0.79508000  0.49708000  0.24449000  1.0
  H  H20  1  0.65988000  0.69551000  0.13065000  1.0
  H  H21  1  0.38933000  0.28012000  0.34302000  1.0
  H  H22  1  0.46302000  0.76713000  0.76650000  1.0
  H  H23  1  0.75391000  0.84649000  0.42661000  1.0
  H  H24  1  0.20063000  0.22437000  0.63724000  1.0
  H  H25  1  0.36915000  0.40539000  0.23686000  1.0
  H  H26  1  0.49051000  0.67714000  0.90570000  1.0
  H  H27  1  0.89077000  0.74565000  0.35235000  1.0
  H  H28  1  0.15929000  0.30259000  0.77194000  1.0
  H  H29  1  0.82304000  0.81412000  0.74965000  1.0
  H  H30  1  0.59743000  0.67257000  0.01156000  1.0
  H  H31  1  0.02709000  0.23880000  0.33716000  1.0
  H  H32  1  0.53231000  0.16444000  0.80577000  1.0
  H  H33  1  0.53060000  0.79496000  0.20686000  1.0
  H  H34  1  0.25719000  0.64661000  0.28792000  1.0
  H  H35  1  0.01265000  0.19370000  0.66539000  1.0
  H  H36  1  0.87123000  0.41404000  0.30272000  1.0
  H  H37  1  0.19088000  0.84623000  0.92052000  1.0
  H  H38  1  0.76493000  0.17220000  0.75077000  1.0
  H  H39  1  0.46105000  0.75753000  0.29681000  1.0
  H  H40  1  0.31161000  0.81980000  0.83109000  1.0
  H  H41  1  0.93079000  0.51842000  0.17751000  1.0
  H  H42  1  0.67615000  0.39453000  0.31951000  1.0
  H  H43  1  0.67650000  0.02816000  0.39422000  1.0
  H  H44  1  0.49944000  0.05358000  0.73209000  1.0
  H  H45  1  0.12788000  0.19244000  0.43020000  1.0
  H  H46  1  0.67668000  0.96569000  0.66000000  1.0
  H  H47  1  0.78988000  0.41676000  0.77486000  1.0
  C  C48  1  0.03079000  0.66942000  0.92515000  1.0
  C  C49  1  0.32368000  0.71249000  0.14503000  1.0
  C  C50  1  0.11559000  0.73102000  0.82059000  1.0
  C  C51  1  0.81006000  0.31337000  0.18800000  1.0
  C  C52  1  0.29567000  0.81023000  0.29506000  1.0
  C  C53  1  0.87997000  0.12697000  0.62368000  1.0
  C  C54  1  0.77562000  0.24127000  0.33657000  1.0
  C  C55  1  0.16918000  0.89102000  0.74331000  1.0
  C  C56  1  0.90733000  0.22647000  0.71294000  1.0
  C  C57  1  0.31225000  0.70285000  0.21408000  1.0
  C  C58  1  0.15164000  0.79482000  0.84250000  1.0
  C  C59  1  0.93569000  0.31217000  0.09720000  1.0
  C  C60  1  0.80591000  0.34368000  0.25168000  1.0
  C  C61  1  0.34262000  0.75013000  0.26939000  1.0
  C  C62  1  0.86148000  0.16381000  0.68413000  1.0
  C  C63  1  0.76245000  0.31290000  0.31306000  1.0
  C  C64  1  0.19652000  0.85108000  0.79948000  1.0
  C  C65  1  0.26406000  0.39279000  0.86085000  1.0
  C  C66  1  0.81998000  0.59197000  0.20077000  1.0
  C  C67  1  0.71035000  0.62913000  0.99721000  1.0
  C  C68  1  0.06135000  0.45509000  0.15983000  1.0
  C  C69  1  0.61535000  0.93793000  0.39095000  1.0
  C  C70  1  0.98355000  0.30526000  0.84839000  1.0
  C  C71  1  0.46789000  0.06094000  0.63922000  1.0
  C  C72  1  0.24454000  0.15678000  0.42265000  1.0
  C  C73  1  0.60964000  0.87803000  0.66788000  1.0
  C  C74  1  0.22496000  0.28666000  0.91149000  1.0
  C  C75  1  0.87967000  0.68515000  0.14269000  1.0
  C  C76  1  0.80597000  0.61389000  0.91132000  1.0
  C  C77  1  0.17642000  0.40639000  0.10200000  1.0
  C  C78  1  0.54261000  0.83919000  0.42320000  1.0
  C  C79  1  0.42506000  0.14802000  0.56466000  1.0
  C  C80  1  0.34949000  0.14949000  0.34250000  1.0
  C  C81  1  0.18073000  0.67100000  0.10450000  1.0
  C  C82  1  0.53912000  0.77584000  0.64905000  1.0
  C  C83  1  0.89194000  0.39833000  0.82475000  1.0
  C  C84  1  0.29151000  0.62004000  0.04560000  1.0
  C  C85  1  0.11682000  0.59501000  0.86338000  1.0
  C  C86  1  0.83864000  0.40633000  0.08700000  1.0
  C  C87  1  0.29870000  0.91901000  0.38031000  1.0
  C  C88  1  0.84968000  0.99683000  0.57272000  1.0
  C  C89  1  0.73730000  0.13472000  0.42098000  1.0
  C  C90  1  0.23088000  0.98892000  0.65121000  1.0
  C  C91  1  0.08631000  0.67029000  0.86581000  1.0
  C  C92  1  0.62574000  0.19377000  0.37394000  1.0
  C  C93  1  0.85985000  0.34315000  0.12910000  1.0
  C  C94  1  0.91508000  0.32447000  0.80437000  1.0
  C  C95  1  0.27188000  0.67219000  0.09831000  1.0
  C  C96  1  0.71689000  0.19769000  0.37839000  1.0
  C  C97  1  0.22918000  0.92169000  0.69128000  1.0
  C  C98  1  0.30452000  0.84253000  0.36208000  1.0
  C  C99  1  0.82676000  0.06958000  0.59823000  1.0
  C  C100  1  0.27505000  0.31399000  0.85474000  1.0
  C  C101  1  0.81088000  0.66973000  0.18999000  1.0
  C  C102  1  0.73410000  0.66016000  0.93142000  1.0
  C  C103  1  0.30010000  0.87950000  0.66211000  1.0
  C  C104  1  0.13920000  0.40958000  0.16805000  1.0
  C  C105  1  0.60987000  0.86167000  0.37754000  1.0
  C  C106  1  0.42508000  0.13207000  0.63584000  1.0
  C  C107  1  0.27188000  0.19113000  0.35940000  1.0
  C  C108  1  0.58896000  0.80817000  0.69903000  1.0
  C  C109  1  0.74220000  0.75879000  0.84010000  1.0
  C  C110  1  0.11140000  0.32526000  0.27059000  1.0
  C  C111  1  0.39636000  0.23221000  0.80543000  1.0
  C  C112  1  0.67243000  0.74521000  0.22066000  1.0
  C  C113  1  0.28775000  0.31052000  0.29228000  1.0
  C  C114  1  0.31509000  0.80593000  0.42643000  1.0
  C  C115  1  0.56738000  0.74724000  0.81608000  1.0
  C  C116  1  0.74737000  0.79324000  0.34037000  1.0
  C  C117  1  0.30332000  0.20865000  0.68846000  1.0
  C  C118  1  0.25660000  0.36577000  0.24655000  1.0
  C  C119  1  0.60185000  0.71419000  0.87505000  1.0
  C  C120  1  0.79495000  0.74686000  0.29405000  1.0
  C  C121  1  0.26866000  0.25589000  0.73981000  1.0
  C  C122  1  0.70998000  0.78529000  0.77751000  1.0
  C  C123  1  0.14374000  0.26847000  0.31446000  1.0
  C  C124  1  0.43174000  0.18659000  0.75305000  1.0
  C  C125  1  0.73620000  0.07218000  0.59309000  1.0
  C  C126  1  0.62514000  0.79109000  0.26762000  1.0
  C  C127  1  0.16879000  0.36891000  0.22950000  1.0
  C  C128  1  0.69145000  0.71485000  0.88583000  1.0
  C  C129  1  0.75823000  0.72216000  0.23360000  1.0
  C  C130  1  0.31536000  0.26900000  0.79877000  1.0
  C  C131  1  0.62187000  0.77892000  0.76397000  1.0
  C  C132  1  0.23350000  0.25558000  0.32196000  1.0
  C  C133  1  0.38727000  0.17625000  0.69240000  1.0
  C  C134  1  0.66131000  0.81553000  0.32794000  1.0
  C  C135  1  0.87064000  0.27774000  0.75814000  1.0
  N  N136  1  0.02994000  0.60122000  0.95612000  1.0
  N  N137  1  0.88734000  0.56449000  0.16098000  1.0
  N  N138  1  0.76345000  0.57177000  0.01521000  1.0
  N  N139  1  0.05675000  0.47965000  0.09286000  1.0
  N  N140  1  0.55232000  0.96109000  0.44074000  1.0
  N  N141  1  0.48816000  0.03579000  0.57548000  1.0
  N  N142  1  0.30358000  0.10425000  0.44260000  1.0
  N  N143  1  0.57531000  0.88519000  0.60563000  1.0
  N  N144  1  0.18585000  0.34283000  0.94694000  1.0
  N  N145  1  0.92661000  0.62266000  0.12478000  1.0
  N  N146  1  0.82342000  0.56299000  0.96141000  1.0
  N  N147  1  0.95887000  0.35196000  0.04063000  1.0
  N  N148  1  0.12672000  0.44518000  0.05475000  1.0
  N  N149  1  0.50546000  0.89570000  0.45915000  1.0
  N  N150  1  0.45960000  0.08954000  0.52871000  1.0
  N  N151  1  0.37100000  0.10033000  0.39322000  1.0
  N  N152  1  0.52855000  0.82189000  0.59372000  1.0
  N  N153  1  0.94309000  0.42059000  0.87481000  1.0
  N  N154  1  0.21869000  0.59098000  0.02306000  1.0
  N  N155  1  0.08582000  0.55378000  0.91715000  1.0
  N  N156  1  0.89858000  0.41113000  0.03400000  1.0
  N  N157  1  0.31038000  0.92669000  0.44828000  1.0
  N  N158  1  0.00166000  0.36210000  0.88929000  1.0
  N  N159  1  0.78124000  0.95913000  0.55555000  1.0
  N  N160  1  0.66646000  0.09707000  0.43963000  1.0
  N  N161  1  0.29652000  0.98447000  0.60222000  1.0
  N  N162  1  0.14918000  0.62333000  0.06088000  1.0
  N  N163  1  0.59631000  0.13431000  0.40976000  1.0
  N  N164  1  0.34104000  0.91604000  0.61075000  1.0
  N  N165  1  0.32194000  0.85490000  0.47741000  1.0
  N  N166  1  0.70944000  0.00662000  0.56891000  1.0
  N  N167  1  0.21264000  0.40971000  0.91654000  1.0
  Cl  Cl168  1  0.97100000  0.74250000  0.95879000  1.0
  Cl  Cl169  1  0.90315000  0.77303000  0.11441000  1.0
  Cl  Cl170  1  0.86455000  0.61101000  0.83507000  1.0
  Cl  Cl171  1  0.27190000  0.36142000  0.07803000  1.0
  Cl  Cl172  1  0.51634000  0.74854000  0.43861000  1.0
  Cl  Cl173  1  0.39606000  0.23000000  0.52388000  1.0
  Cl  Cl174  1  0.40718000  0.14744000  0.26586000  1.0
  Cl  Cl175  1  0.50295000  0.68623000  0.64897000  1.0
  Cl  Cl176  1  0.39216000  0.78189000  0.11205000  1.0
  Cl  Cl177  1  0.75599000  0.28995000  0.76447000  1.0
  Cl  Cl178  1  0.75303000  0.23373000  0.17170000  1.0
  Cl  Cl179  1  0.99607000  0.23482000  0.12044000  1.0
  Cl  Cl180  1  0.11648000  0.71112000  0.73270000  1.0
  Cl  Cl181  1  0.97321000  0.14625000  0.57219000  1.0
  Cl  Cl182  1  0.21503000  0.85397000  0.24506000  1.0
  Cl  Cl183  1  0.06003000  0.89757000  0.72583000  1.0
  Cl  Cl184  1  0.87083000  0.19155000  0.30768000  1.0
  Cl  Cl185  1  0.03586000  0.22017000  0.85579000  1.0
  Cl  Cl186  1  0.11205000  0.72043000  0.15854000  1.0
  Cl  Cl187  1  0.55891000  0.25224000  0.32870000  1.0
  Cl  Cl188  1  0.33010000  0.78898000  0.68144000  1.0
  Cl  Cl189  1  0.30993000  0.71246000  0.44469000  1.0
  Cl  Cl190  1  0.66463000  0.14525000  0.60958000  1.0
  Cl  Cl191  1  0.21599000  0.19583000  0.93817000  1.0
  O  O192  1  0.29910000  0.44522000  0.81909000  1.0
  O  O193  1  0.36912000  0.59721000  0.01649000  1.0
  O  O194  1  0.17393000  0.56337000  0.81584000  1.0
  O  O195  1  0.76981000  0.45173000  0.09661000  1.0
  O  O196  1  0.28029000  0.97898000  0.33989000  1.0
  O  O197  1  0.93153000  0.96659000  0.56727000  1.0
  O  O198  1  0.81497000  0.10796000  0.44132000  1.0
  O  O199  1  0.17839000  0.04990000  0.65848000  1.0
  O  O200  1  0.82726000  0.77501000  0.84864000  1.0
  O  O201  1  0.02308000  0.33230000  0.26615000  1.0
  O  O202  1  0.44565000  0.23860000  0.86240000  1.0
  O  O203  1  0.77259000  0.55034000  0.24433000  1.0
  O  O204  1  0.62708000  0.72662000  0.16462000  1.0
  O  O205  1  0.37439000  0.31523000  0.30576000  1.0
  O  O206  1  0.47822000  0.74529000  0.81129000  1.0
  O  O207  1  0.79026000  0.81237000  0.39802000  1.0
  O  O208  1  0.25176000  0.19016000  0.63469000  1.0
  O  O209  1  0.31204000  0.41753000  0.21878000  1.0
  O  O210  1  0.54897000  0.67688000  0.92320000  1.0
  O  O211  1  0.87816000  0.72372000  0.30819000  1.0
  O  O212  1  0.18717000  0.28576000  0.72856000  1.0
  O  O213  1  0.76633000  0.81415000  0.72887000  1.0
  O  O214  1  0.64349000  0.65133000  0.04075000  1.0
  O  O215  1  0.08579000  0.22215000  0.34982000  1.0
  O  O216  1  0.51203000  0.15078000  0.76072000  1.0
  O  O217  1  0.54002000  0.81222000  0.25375000  1.0
  O  O218  1  0.26730000  0.64184000  0.23820000  1.0
  O  O219  1  0.99435000  0.23212000  0.69920000  1.0
  O  O220  1  0.84233000  0.41348000  0.25887000  1.0
  O  O221  1  0.15923000  0.80094000  0.91262000  1.0
  O  O222  1  0.79720000  0.13252000  0.72544000  1.0
  O  O223  1  0.41400000  0.72073000  0.30150000  1.0
  O  O224  1  0.27818000  0.86661000  0.82290000  1.0
  O  O225  1  0.00260000  0.46958000  0.20757000  1.0
  O  O226  1  0.70619000  0.35988000  0.35078000  1.0
  O  O227  1  0.67248000  0.98281000  0.36180000  1.0
  O  O228  1  0.48713000  0.01885000  0.69489000  1.0
  O  O229  1  0.17165000  0.16961000  0.46136000  1.0
  O  O230  1  0.65523000  0.93068000  0.69640000  1.0
  O  O231  1  0.82781000  0.44518000  0.80317000  1.0
