# generated using pymatgen
data_MnH12C16(IO)6
_symmetry_space_group_name_H-M   'P 1'
_cell_length_a   4.61914000
_cell_length_b   16.27690000
_cell_length_c   16.71950000
_cell_angle_alpha   89.99990000
_cell_angle_beta   89.99990000
_cell_angle_gamma   88.74280000
_symmetry_Int_Tables_number   1
_chemical_formula_structural   MnH12C16(IO)6
_chemical_formula_sum   'Mn2 H24 C32 I12 O12'
_cell_volume   1256.75768446
_cell_formula_units_Z   2
loop_
 _symmetry_equiv_pos_site_id
 _symmetry_equiv_pos_as_xyz
  1  'x, y, z'
loop_
 _atom_site_type_symbol
 _atom_site_label
 _atom_site_symmetry_multiplicity
 _atom_site_fract_x
 _atom_site_fract_y
 _atom_site_fract_z
 _atom_site_occupancy
  Mn  Mn0  1  0.50000000  0.50000000  0.50000000  1.0
  Mn  Mn1  1  0.50000000  0.00000000  0.00000000  1.0
  H  H2  1  0.09376000  0.50820000  0.39346000  1.0
  H  H3  1  0.90624000  0.99180000  0.89347000  1.0
  H  H4  1  0.90624000  0.49180000  0.60654000  1.0
  H  H5  1  0.09376000  0.00820000  0.10654000  1.0
  H  H6  1  0.45444000  0.07344000  0.46114000  1.0
  H  H7  1  0.54554000  0.42656000  0.96113000  1.0
  H  H8  1  0.54556000  0.92655000  0.53887000  1.0
  H  H9  1  0.45445000  0.57345000  0.03886000  1.0
  H  H10  1  0.33908000  0.32930000  0.39719000  1.0
  H  H11  1  0.66092000  0.17070000  0.89719000  1.0
  H  H12  1  0.66093000  0.67070000  0.60282000  1.0
  H  H13  1  0.33908000  0.82930000  0.10281000  1.0
  H  H14  1  0.41858000  0.54716000  0.29210000  1.0
  H  H15  1  0.58142000  0.95284000  0.79210000  1.0
  H  H16  1  0.58141000  0.45284000  0.70790000  1.0
  H  H17  1  0.41858000  0.04716000  0.20790000  1.0
  H  H18  1  0.27561000  0.44901000  0.26445000  1.0
  H  H19  1  0.72439000  0.05099000  0.76445000  1.0
  H  H20  1  0.72438000  0.55099000  0.73555000  1.0
  H  H21  1  0.27561000  0.94901000  0.23555000  1.0
  H  H22  1  0.62042000  0.45437000  0.31205000  1.0
  H  H23  1  0.37959000  0.04563000  0.81206000  1.0
  H  H24  1  0.37958000  0.54563000  0.68794000  1.0
  H  H25  1  0.62042000  0.95437000  0.18795000  1.0
  C  C26  1  0.00441000  0.37662000  0.51873000  1.0
  C  C27  1  0.99559000  0.12338000  0.01873000  1.0
  C  C28  1  0.99559000  0.62338000  0.48127000  1.0
  C  C29  1  0.00441000  0.87662000  0.98128000  1.0
  C  C30  1  0.12535000  0.29109000  0.50451000  1.0
  C  C31  1  0.87464000  0.20891000  0.00450000  1.0
  C  C32  1  0.87464000  0.70891000  0.49550000  1.0
  C  C33  1  0.12536000  0.79109000  0.99549000  1.0
  C  C34  1  0.06606000  0.22593000  0.55661000  1.0
  C  C35  1  0.93393000  0.27407000  0.05661000  1.0
  C  C36  1  0.93394000  0.77407000  0.44339000  1.0
  C  C37  1  0.06607000  0.72593000  0.94339000  1.0
  C  C38  1  0.18498000  0.14770000  0.54022000  1.0
  C  C39  1  0.81501000  0.35230000  0.04021000  1.0
  C  C40  1  0.81503000  0.85230000  0.45978000  1.0
  C  C41  1  0.18499000  0.64770000  0.95978000  1.0
  C  C42  1  0.36148000  0.13428000  0.47308000  1.0
  C  C43  1  0.63851000  0.36572000  0.97308000  1.0
  C  C44  1  0.63852000  0.86571000  0.52692000  1.0
  C  C45  1  0.36149000  0.63429000  0.02692000  1.0
  C  C46  1  0.41554000  0.20004000  0.42233000  1.0
  C  C47  1  0.58445000  0.29996000  0.92232000  1.0
  C  C48  1  0.58445000  0.79996000  0.57767000  1.0
  C  C49  1  0.41555000  0.70004000  0.07767000  1.0
  C  C50  1  0.29786000  0.27801000  0.43690000  1.0
  C  C51  1  0.70214000  0.22199000  0.93689000  1.0
  C  C52  1  0.70214000  0.72199000  0.56310000  1.0
  C  C53  1  0.29786000  0.77801000  0.06310000  1.0
  C  C54  1  0.40228000  0.48223000  0.30924000  1.0
  C  C55  1  0.59772000  0.01777000  0.80925000  1.0
  C  C56  1  0.59771000  0.51777000  0.69075000  1.0
  C  C57  1  0.40228000  0.98223000  0.19076000  1.0
  I  I58  1  0.80260000  0.25064000  0.65745000  1.0
  I  I59  1  0.19738000  0.24937000  0.15744000  1.0
  I  I60  1  0.19740000  0.74936000  0.34255000  1.0
  I  I61  1  0.80261000  0.75064000  0.84255000  1.0
  I  I62  1  0.11699000  0.04497000  0.61400000  1.0
  I  I63  1  0.88300000  0.45503000  0.11400000  1.0
  I  I64  1  0.88303000  0.95503000  0.38600000  1.0
  I  I65  1  0.11699000  0.54497000  0.88600000  1.0
  I  I66  1  0.68065000  0.18510000  0.32009000  1.0
  I  I67  1  0.31934000  0.31489000  0.82009000  1.0
  I  I68  1  0.31935000  0.81489000  0.67991000  1.0
  I  I69  1  0.68066000  0.68510000  0.17991000  1.0
  O  O70  1  0.15517000  0.42649000  0.56013000  1.0
  O  O71  1  0.84483000  0.07351000  0.06013000  1.0
  O  O72  1  0.84483000  0.57351000  0.43987000  1.0
  O  O73  1  0.15517000  0.92649000  0.93987000  1.0
  O  O74  1  0.76205000  0.39374000  0.48704000  1.0
  O  O75  1  0.23797000  0.10627000  0.98704000  1.0
  O  O76  1  0.23796000  0.60626000  0.51296000  1.0
  O  O77  1  0.76204000  0.89374000  0.01296000  1.0
  O  O78  1  0.27508000  0.47402000  0.38744000  1.0
  O  O79  1  0.72492000  0.02598000  0.88745000  1.0
  O  O80  1  0.72492000  0.52598000  0.61256000  1.0
  O  O81  1  0.27508000  0.97402000  0.11256000  1.0
