# generated using pymatgen
data_Zr3H8C20(N3O8)2
_symmetry_space_group_name_H-M   'P 1'
_cell_length_a   17.17820000
_cell_length_b   17.18340000
_cell_length_c   32.01550000
_cell_angle_alpha   89.89360000
_cell_angle_beta   90.04350000
_cell_angle_gamma   89.94020000
_symmetry_Int_Tables_number   1
_chemical_formula_structural   Zr3H8C20(N3O8)2
_chemical_formula_sum   'Zr12 H32 C80 N24 O64'
_cell_volume   9450.30732851
_cell_formula_units_Z   4
loop_
 _symmetry_equiv_pos_site_id
 _symmetry_equiv_pos_as_xyz
  1  'x, y, z'
loop_
 _atom_site_type_symbol
 _atom_site_label
 _atom_site_symmetry_multiplicity
 _atom_site_fract_x
 _atom_site_fract_y
 _atom_site_fract_z
 _atom_site_occupancy
  Zr  Zr0  1  0.09583000  0.94383000  0.54695000  1.0
  Zr  Zr1  1  0.08671000  0.95190000  0.43594000  1.0
  Zr  Zr2  1  0.95020000  0.08852000  0.55190000  1.0
  Zr  Zr3  1  0.94183000  0.10105000  0.44111000  1.0
  Zr  Zr4  1  0.12236000  0.12404000  0.49462000  1.0
  Zr  Zr5  1  0.91502000  0.91751000  0.49390000  1.0
  Zr  Zr6  1  0.60084000  0.60721000  0.04827000  1.0
  Zr  Zr7  1  0.58992000  0.59489000  0.93752000  1.0
  Zr  Zr8  1  0.45687000  0.45928000  0.05281000  1.0
  Zr  Zr9  1  0.44226000  0.45132000  0.94204000  1.0
  Zr  Zr10  1  0.41906000  0.63151000  0.99576000  1.0
  Zr  Zr11  1  0.62665000  0.42373000  0.99456000  1.0
  H  H12  1  0.05648000  0.82429000  0.49335000  1.0
  H  H13  1  0.09579000  0.10565000  0.40652000  1.0
  H  H14  1  0.82344000  0.07139000  0.49497000  1.0
  H  H15  1  0.10215000  0.09707000  0.58360000  1.0
  H  H16  1  0.10772000  0.97711000  0.35213000  1.0
  H  H17  1  0.00404000  0.03408000  0.36820000  1.0
  H  H18  1  0.85844000  0.22978000  0.44144000  1.0
  H  H19  1  0.80885000  0.16274000  0.57629000  1.0
  H  H20  1  0.92681000  0.05829000  0.63283000  1.0
  H  H21  1  0.03113000  0.00702000  0.61998000  1.0
  H  H22  1  0.22722000  0.86153000  0.54303000  1.0
  H  H23  1  0.18472000  0.85486000  0.48408000  1.0
  H  H24  1  0.87471000  0.22716000  0.56971000  1.0
  H  H25  1  0.05475000  0.91608000  0.62886000  1.0
  H  H26  1  0.17192000  0.80978000  0.43930000  1.0
  H  H27  1  0.91393000  0.06004000  0.35963000  1.0
  H  H28  1  0.71846000  0.57731000  0.99372000  1.0
  H  H29  1  0.43700000  0.60611000  0.90743000  1.0
  H  H30  1  0.47261000  0.33245000  0.99574000  1.0
  H  H31  1  0.44575000  0.61050000  0.08440000  1.0
  H  H32  1  0.55912000  0.62408000  0.85462000  1.0
  H  H33  1  0.50948000  0.51593000  0.86906000  1.0
  H  H34  1  0.31401000  0.36744000  0.94242000  1.0
  H  H35  1  0.38302000  0.31776000  0.07717000  1.0
  H  H36  1  0.48696000  0.43547000  0.13364000  1.0
  H  H37  1  0.53843000  0.54129000  0.12105000  1.0
  H  H38  1  0.68543000  0.73468000  0.04959000  1.0
  H  H39  1  0.73013000  0.66528000  0.91436000  1.0
  H  H40  1  0.31870000  0.38370000  0.07024000  1.0
  H  H41  1  0.62885000  0.56568000  0.12950000  1.0
  H  H42  1  0.66859000  0.73405000  0.92038000  1.0
  H  H43  1  0.48492000  0.42607000  0.86029000  1.0
  C  C44  1  0.25004000  0.05147000  0.55899000  1.0
  C  C45  1  0.97776000  0.79780000  0.42371000  1.0
  C  C46  1  0.24487000  0.05732000  0.42730000  1.0
  C  C47  1  0.97827000  0.79588000  0.56382000  1.0
  C  C48  1  0.79622000  0.97701000  0.56621000  1.0
  C  C49  1  0.05546000  0.25426000  0.43163000  1.0
  C  C50  1  0.79399000  0.97775000  0.42550000  1.0
  C  C51  1  0.05515000  0.24967000  0.56048000  1.0
  C  C52  1  0.03721000  0.45853000  0.61961000  1.0
  C  C53  1  0.02404000  0.52073000  0.68130000  1.0
  C  C54  1  0.00275000  0.58541000  0.62082000  1.0
  C  C55  1  0.58440000  0.00088000  0.62158000  1.0
  C  C56  1  0.51948000  0.02181000  0.68186000  1.0
  C  C57  1  0.45738000  0.03490000  0.62000000  1.0
  C  C58  1  0.58254000  0.00027000  0.36962000  1.0
  C  C59  1  0.45582000  0.03555000  0.37059000  1.0
  C  C60  1  0.51819000  0.02078000  0.30905000  1.0
  C  C61  1  0.03830000  0.46072000  0.37012000  1.0
  C  C62  1  0.02182000  0.52090000  0.30797000  1.0
  C  C63  1  0.00102000  0.58679000  0.36791000  1.0
  C  C64  1  0.50794000  0.96728000  0.87106000  1.0
  C  C65  1  0.54294000  0.09393000  0.86890000  1.0
  C  C66  1  0.52237000  0.02790000  0.80894000  1.0
  C  C67  1  0.48717000  0.76033000  0.05880000  1.0
  C  C68  1  0.74599000  0.48418000  0.92384000  1.0
  C  C69  1  0.48675000  0.75765000  0.92941000  1.0
  C  C70  1  0.74695000  0.48182000  0.06379000  1.0
  C  C71  1  0.56761000  0.30452000  0.06661000  1.0
  C  C72  1  0.28927000  0.56516000  0.93230000  1.0
  C  C73  1  0.56569000  0.30448000  0.92532000  1.0
  C  C74  1  0.29338000  0.56180000  0.06094000  1.0
  C  C75  1  0.08374000  0.54432000  0.87049000  1.0
  C  C76  1  0.02484000  0.52278000  0.80848000  1.0
  C  C77  1  0.95803000  0.50592000  0.86855000  1.0
  C  C78  1  0.50447000  0.96696000  0.11972000  1.0
  C  C79  1  0.52027000  0.02680000  0.18196000  1.0
  C  C80  1  0.54174000  0.09288000  0.12205000  1.0
  C  C81  1  0.08429000  0.53781000  0.11923000  1.0
  C  C82  1  0.95789000  0.50198000  0.12024000  1.0
  C  C83  1  0.02304000  0.51950000  0.18083000  1.0
  C  C84  1  0.56925000  0.22771000  0.08522000  1.0
  C  C85  1  0.55943000  0.16442000  0.10144000  1.0
  C  C86  1  0.48291000  0.83624000  0.07827000  1.0
  C  C87  1  0.48928000  0.89776000  0.09669000  1.0
  C  C88  1  0.21359000  0.56926000  0.91241000  1.0
  C  C89  1  0.15250000  0.56153000  0.89363000  1.0
  C  C90  1  0.82281000  0.48126000  0.90530000  1.0
  C  C91  1  0.88635000  0.48969000  0.88919000  1.0
  C  C92  1  0.21625000  0.56241000  0.07912000  1.0
  C  C93  1  0.15420000  0.55396000  0.09682000  1.0
  C  C94  1  0.82337000  0.47810000  0.08274000  1.0
  C  C95  1  0.88674000  0.48609000  0.09911000  1.0
  C  C96  1  0.55967000  0.16527000  0.88954000  1.0
  C  C97  1  0.56847000  0.22849000  0.90590000  1.0
  C  C98  1  0.49343000  0.89735000  0.89385000  1.0
  C  C99  1  0.48583000  0.83498000  0.91139000  1.0
  C  C100  1  0.02384000  0.51933000  0.22544000  1.0
  C  C101  1  0.02332000  0.51940000  0.26339000  1.0
  C  C102  1  0.51789000  0.02294000  0.26445000  1.0
  C  C103  1  0.51865000  0.02458000  0.22651000  1.0
  C  C104  1  0.51913000  0.02438000  0.72643000  1.0
  C  C105  1  0.52042000  0.02594000  0.76436000  1.0
  C  C106  1  0.02673000  0.52140000  0.76386000  1.0
  C  C107  1  0.02619000  0.52034000  0.72591000  1.0
  C  C108  1  0.98375000  0.65822000  0.38854000  1.0
  C  C109  1  0.97481000  0.72151000  0.40478000  1.0
  C  C110  1  0.06005000  0.33012000  0.41199000  1.0
  C  C111  1  0.05360000  0.39148000  0.39329000  1.0
  C  C112  1  0.97644000  0.71966000  0.58315000  1.0
  C  C113  1  0.98569000  0.65656000  0.59971000  1.0
  C  C114  1  0.05100000  0.38826000  0.59713000  1.0
  C  C115  1  0.05760000  0.32624000  0.57920000  1.0
  C  C116  1  0.71733000  0.97485000  0.40674000  1.0
  C  C117  1  0.65371000  0.98352000  0.39068000  1.0
  C  C118  1  0.32231000  0.05799000  0.40952000  1.0
  C  C119  1  0.38527000  0.05037000  0.39266000  1.0
  C  C120  1  0.65586000  0.98417000  0.60074000  1.0
  C  C121  1  0.71935000  0.97499000  0.58470000  1.0
  C  C122  1  0.32568000  0.05446000  0.57883000  1.0
  C  C123  1  0.38735000  0.04846000  0.59725000  1.0
  N  N124  1  0.04223000  0.45398000  0.66160000  1.0
  N  N125  1  0.00348000  0.58823000  0.66291000  1.0
  N  N126  1  0.01833000  0.52236000  0.59727000  1.0
  N  N127  1  0.58720000  0.00159000  0.66367000  1.0
  N  N128  1  0.45273000  0.03968000  0.66199000  1.0
  N  N129  1  0.52151000  0.01641000  0.59785000  1.0
  N  N130  1  0.51951000  0.01684000  0.39305000  1.0
  N  N131  1  0.45149000  0.03981000  0.32855000  1.0
  N  N132  1  0.58544000  0.99997000  0.32750000  1.0
  N  N133  1  0.04228000  0.45520000  0.32814000  1.0
  N  N134  1  0.99997000  0.58837000  0.32581000  1.0
  N  N135  1  0.01896000  0.52490000  0.39196000  1.0
  N  N136  1  0.52662000  0.03144000  0.89291000  1.0
  N  N137  1  0.54308000  0.09562000  0.82675000  1.0
  N  N138  1  0.50355000  0.96171000  0.82910000  1.0
  N  N139  1  0.08995000  0.54536000  0.82845000  1.0
  N  N140  1  0.95731000  0.50153000  0.82649000  1.0
  N  N141  1  0.01930000  0.52621000  0.89243000  1.0
  N  N142  1  0.49999000  0.96132000  0.16170000  1.0
  N  N143  1  0.54211000  0.09442000  0.16414000  1.0
  N  N144  1  0.52425000  0.03119000  0.09794000  1.0
  N  N145  1  0.02048000  0.52001000  0.09677000  1.0
  N  N146  1  0.95565000  0.49941000  0.16234000  1.0
  N  N147  1  0.08935000  0.53983000  0.16126000  1.0
  O  O148  1  0.21225000  0.98942000  0.56726000  1.0
  O  O149  1  0.22858000  0.10812000  0.53624000  1.0
  O  O150  1  0.03811000  0.83666000  0.41375000  1.0
  O  O151  1  0.92379000  0.81777000  0.44868000  1.0
  O  O152  1  0.20305000  0.00054000  0.41534000  1.0
  O  O153  1  0.22580000  0.11161000  0.45234000  1.0
  O  O154  1  0.03531000  0.83783000  0.57571000  1.0
  O  O155  1  0.92666000  0.81296000  0.53685000  1.0
  O  O156  1  0.17623000  0.85574000  0.53018000  1.0
  O  O157  1  0.07460000  0.96406000  0.61659000  1.0
  O  O158  1  0.18080000  0.86097000  0.45128000  1.0
  O  O159  1  0.06567000  0.97269000  0.37221000  1.0
  O  O160  1  0.12305000  0.00399000  0.49254000  1.0
  O  O161  1  0.04325000  0.87921000  0.49330000  1.0
  O  O162  1  0.83702000  0.03515000  0.57821000  1.0
  O  O163  1  0.81531000  0.92507000  0.54023000  1.0
  O  O164  1  0.99321000  0.21791000  0.42283000  1.0
  O  O165  1  0.11127000  0.23157000  0.45490000  1.0
  O  O166  1  0.83672000  0.03243000  0.41223000  1.0
  O  O167  1  0.81048000  0.92816000  0.45394000  1.0
  O  O168  1  0.99278000  0.21219000  0.56857000  1.0
  O  O169  1  0.11256000  0.22670000  0.53887000  1.0
  O  O170  1  0.85007000  0.18089000  0.55776000  1.0
  O  O171  1  0.97249000  0.07109000  0.61627000  1.0
  O  O172  1  0.85207000  0.17459000  0.44689000  1.0
  O  O173  1  0.96252000  0.07856000  0.37182000  1.0
  O  O174  1  0.87639000  0.05145000  0.49692000  1.0
  O  O175  1  0.00268000  0.12711000  0.49662000  1.0
  O  O176  1  0.97677000  0.97508000  0.53972000  1.0
  O  O177  1  0.07292000  0.08422000  0.43175000  1.0
  O  O178  1  0.07991000  0.07517000  0.55831000  1.0
  O  O179  1  0.97281000  0.97921000  0.44900000  1.0
  O  O180  1  0.54960000  0.72378000  0.06714000  1.0
  O  O181  1  0.43071000  0.73773000  0.03607000  1.0
  O  O182  1  0.70657000  0.54374000  0.91302000  1.0
  O  O183  1  0.72581000  0.43079000  0.94900000  1.0
  O  O184  1  0.54696000  0.71798000  0.91934000  1.0
  O  O185  1  0.43048000  0.73606000  0.95215000  1.0
  O  O186  1  0.70416000  0.53609000  0.07749000  1.0
  O  O187  1  0.73087000  0.43326000  0.03494000  1.0
  O  O188  1  0.69126000  0.67968000  0.04352000  1.0
  O  O189  1  0.58019000  0.58513000  0.11770000  1.0
  O  O190  1  0.69071000  0.68712000  0.93298000  1.0
  O  O191  1  0.57073000  0.58070000  0.87304000  1.0
  O  O192  1  0.53913000  0.63459000  0.99327000  1.0
  O  O193  1  0.66530000  0.55786000  0.99287000  1.0
  O  O194  1  0.51029000  0.34611000  0.07897000  1.0
  O  O195  1  0.61902000  0.32298000  0.04011000  1.0
  O  O196  1  0.32589000  0.50287000  0.92367000  1.0
  O  O197  1  0.31163000  0.62095000  0.95546000  1.0
  O  O198  1  0.51122000  0.34781000  0.91216000  1.0
  O  O199  1  0.61487000  0.31953000  0.95403000  1.0
  O  O200  1  0.33224000  0.50035000  0.06936000  1.0
  O  O201  1  0.31567000  0.61966000  0.03941000  1.0
  O  O202  1  0.36471000  0.35844000  0.05828000  1.0
  O  O203  1  0.47394000  0.48097000  0.11693000  1.0
  O  O204  1  0.36941000  0.36122000  0.94730000  1.0
  O  O205  1  0.46572000  0.47438000  0.87249000  1.0
  O  O206  1  0.49247000  0.38539000  0.99742000  1.0
  O  O207  1  0.41693000  0.51192000  0.99729000  1.0
  O  O208  1  0.56952000  0.48583000  0.03947000  1.0
  O  O209  1  0.45930000  0.58360000  0.93256000  1.0
  O  O210  1  0.46823000  0.58906000  0.05905000  1.0
  O  O211  1  0.56443000  0.48189000  0.94930000  1.0
