# generated using pymatgen
data_CuH5C5SIN
_symmetry_space_group_name_H-M   'P 1'
_cell_length_a   7.79383000
_cell_length_b   13.19440000
_cell_length_c   13.27100000
_cell_angle_alpha   65.74890000
_cell_angle_beta   82.60670000
_cell_angle_gamma   83.10740000
_symmetry_Int_Tables_number   1
_chemical_formula_structural   CuH5C5SIN
_chemical_formula_sum   'Cu6 H30 C30 S6 I6 N6'
_cell_volume   1230.53810640
_cell_formula_units_Z   6
loop_
 _symmetry_equiv_pos_site_id
 _symmetry_equiv_pos_as_xyz
  1  'x, y, z'
loop_
 _atom_site_type_symbol
 _atom_site_label
 _atom_site_symmetry_multiplicity
 _atom_site_fract_x
 _atom_site_fract_y
 _atom_site_fract_z
 _atom_site_occupancy
  Cu  Cu0  1  0.45723000  0.09166000  0.62249000  1.0
  Cu  Cu1  1  0.54278000  0.90834000  0.37751000  1.0
  Cu  Cu2  1  0.21747000  0.10447000  0.48894000  1.0
  Cu  Cu3  1  0.78253000  0.89553000  0.51106000  1.0
  Cu  Cu4  1  0.70008000  0.21637000  0.33237000  1.0
  Cu  Cu5  1  0.29993000  0.78363000  0.66763000  1.0
  H  H6  1  0.57541000  0.41764000  0.30092000  1.0
  H  H7  1  0.42459000  0.58237000  0.69908000  1.0
  H  H8  1  0.97821000  0.11643000  0.65477000  1.0
  H  H9  1  0.02182000  0.88357000  0.34523000  1.0
  H  H10  1  0.48267000  0.95694000  0.82247000  1.0
  H  H11  1  0.51732000  0.04306000  0.17753000  1.0
  H  H12  1  0.19843000  0.31458000  0.57199000  1.0
  H  H13  1  0.80158000  0.68541000  0.42801000  1.0
  H  H14  1  0.13478000  0.51378000  0.54785000  1.0
  H  H15  1  0.86521000  0.48621000  0.45215000  1.0
  H  H16  1  0.30554000  0.66235000  0.39917000  1.0
  H  H17  1  0.69444000  0.33765000  0.60084000  1.0
  H  H18  1  0.53347000  0.60515000  0.27515000  1.0
  H  H19  1  0.46652000  0.39485000  0.72486000  1.0
  H  H20  1  0.16357000  0.80920000  0.88836000  1.0
  H  H21  1  0.83642000  0.19079000  0.11164000  1.0
  H  H22  1  0.94146000  0.83587000  0.03188000  1.0
  H  H23  1  0.05854000  0.16413000  0.96812000  1.0
  H  H24  1  0.73740000  0.00658000  0.97915000  1.0
  H  H25  1  0.26261000  0.99343000  0.02085000  1.0
  H  H26  1  0.76643000  0.15008000  0.77981000  1.0
  H  H27  1  0.23358000  0.84993000  0.22018000  1.0
  H  H28  1  0.86114000  0.74456000  0.73783000  1.0
  H  H29  1  0.13886000  0.25544000  0.26217000  1.0
  H  H30  1  0.82131000  0.60144000  0.93093000  1.0
  H  H31  1  0.17869000  0.39856000  0.06907000  1.0
  H  H32  1  0.60433000  0.64084000  0.06930000  1.0
  H  H33  1  0.39566000  0.35917000  0.93069000  1.0
  H  H34  1  0.43359000  0.82956000  0.00593000  1.0
  H  H35  1  0.56640000  0.17045000  0.99408000  1.0
  C  C36  1  0.39727000  0.35279000  0.43632000  1.0
  C  C37  1  0.60274000  0.64721000  0.56368000  1.0
  C  C38  1  0.26720000  0.38119000  0.50646000  1.0
  C  C39  1  0.73281000  0.61881000  0.49354000  1.0
  C  C40  1  0.23351000  0.49138000  0.49279000  1.0
  C  C41  1  0.76648000  0.50861000  0.50721000  1.0
  C  C42  1  0.32747000  0.57582000  0.40894000  1.0
  C  C43  1  0.67252000  0.42418000  0.59106000  1.0
  C  C44  1  0.45244000  0.54583000  0.34089000  1.0
  C  C45  1  0.54755000  0.45417000  0.65911000  1.0
  C  C46  1  0.08952000  0.96704000  0.75990000  1.0
  C  C47  1  0.91049000  0.03296000  0.24010000  1.0
  C  C48  1  0.07695000  0.88477000  0.86904000  1.0
  C  C49  1  0.92305000  0.11523000  0.13096000  1.0
  C  C50  1  0.95265000  0.89942000  0.94731000  1.0
  C  C51  1  0.04736000  0.10058000  0.05269000  1.0
  C  C52  1  0.83794000  0.99604000  0.91855000  1.0
  C  C53  1  0.16207000  0.00396000  0.08145000  1.0
  C  C54  1  0.85333000  0.07505000  0.81144000  1.0
  C  C55  1  0.14667000  0.92495000  0.18856000  1.0
  C  C56  1  0.66821000  0.86328000  0.76631000  1.0
  C  C57  1  0.33179000  0.13671000  0.23369000  1.0
  C  C58  1  0.76586000  0.75973000  0.79869000  1.0
  C  C59  1  0.23413000  0.24026000  0.20131000  1.0
  C  C60  1  0.74340000  0.68078000  0.90630000  1.0
  C  C61  1  0.25659000  0.31922000  0.09370000  1.0
  C  C62  1  0.62301000  0.70278000  0.98470000  1.0
  C  C63  1  0.37697000  0.29722000  0.01530000  1.0
  C  C64  1  0.52822000  0.80410000  0.95138000  1.0
  C  C65  1  0.47178000  0.19590000  0.04862000  1.0
  S  S66  1  0.45448000  0.21940000  0.44396000  1.0
  S  S67  1  0.54552000  0.78060000  0.55603000  1.0
  S  S68  1  0.24118000  0.95860000  0.65640000  1.0
  S  S69  1  0.75883000  0.04139000  0.34361000  1.0
  S  S70  1  0.69592000  0.97107000  0.63762000  1.0
  S  S71  1  0.30408000  0.02892000  0.36239000  1.0
  I  I72  1  0.37624000  0.16206000  0.78120000  1.0
  I  I73  1  0.62377000  0.83794000  0.21879000  1.0
  I  I74  1  0.74568000  0.38671000  0.14738000  1.0
  I  I75  1  0.25431000  0.61328000  0.85262000  1.0
  I  I76  1  0.93729000  0.23855000  0.46011000  1.0
  I  I77  1  0.06271000  0.76145000  0.53989000  1.0
  N  N78  1  0.48306000  0.43785000  0.35565000  1.0
  N  N79  1  0.51694000  0.56216000  0.64435000  1.0
  N  N80  1  0.97686000  0.05925000  0.73691000  1.0
  N  N81  1  0.02315000  0.94075000  0.26309000  1.0
  N  N82  1  0.55122000  0.87960000  0.84529000  1.0
  N  N83  1  0.44877000  0.12040000  0.15471000  1.0
