# generated using pymatgen
data_ErH14C20N5O7
_symmetry_space_group_name_H-M   'P 1'
_cell_length_a   9.79992000
_cell_length_b   11.83130000
_cell_length_c   11.83120000
_cell_angle_alpha   65.67640000
_cell_angle_beta   71.46500000
_cell_angle_gamma   71.46530000
_symmetry_Int_Tables_number   1
_chemical_formula_structural   ErH14C20N5O7
_chemical_formula_sum   'Er2 H28 C40 N10 O14'
_cell_volume   1157.09396088
_cell_formula_units_Z   2
loop_
 _symmetry_equiv_pos_site_id
 _symmetry_equiv_pos_as_xyz
  1  'x, y, z'
loop_
 _atom_site_type_symbol
 _atom_site_label
 _atom_site_symmetry_multiplicity
 _atom_site_fract_x
 _atom_site_fract_y
 _atom_site_fract_z
 _atom_site_occupancy
  Er  Er0  1  0.75000000  0.06228000  0.93773000  1.0
  Er  Er1  1  0.25000000  0.93774000  0.06224000  1.0
  H  H2  1  0.90237000  0.89104000  0.27456000  1.0
  H  H3  1  0.82774000  0.92504000  0.66321000  1.0
  H  H4  1  0.70352000  0.79397000  0.42675000  1.0
  H  H5  1  0.44992000  0.80703000  0.55936000  1.0
  H  H6  1  0.38794000  0.86965000  0.75072000  1.0
  H  H7  1  0.08374000  0.78930000  0.59344000  1.0
  H  H8  1  0.29759000  0.79386000  0.37443000  1.0
  H  H9  1  0.59762000  0.72544000  0.10896000  1.0
  H  H10  1  0.67227000  0.33678000  0.07497000  1.0
  H  H11  1  0.79648000  0.57324000  0.20603000  1.0
  H  H12  1  0.05008000  0.44064000  0.19298000  1.0
  H  H13  1  0.11207000  0.24928000  0.13035000  1.0
  H  H14  1  0.41627000  0.40656000  0.21070000  1.0
  H  H15  1  0.20241000  0.62557000  0.20613000  1.0
  H  H16  1  0.09762000  0.10895000  0.72544000  1.0
  H  H17  1  0.17226000  0.07496000  0.33680000  1.0
  H  H18  1  0.29647000  0.20603000  0.57325000  1.0
  H  H19  1  0.55007000  0.19297000  0.44065000  1.0
  H  H20  1  0.61207000  0.13035000  0.24929000  1.0
  H  H21  1  0.91626000  0.21069000  0.40657000  1.0
  H  H22  1  0.70241000  0.20613000  0.62558000  1.0
  H  H23  1  0.40238000  0.27456000  0.89104000  1.0
  H  H24  1  0.32773000  0.66322000  0.92503000  1.0
  H  H25  1  0.20352000  0.42676000  0.79397000  1.0
  H  H26  1  0.94992000  0.55935000  0.80702000  1.0
  H  H27  1  0.88792000  0.75071000  0.86964000  1.0
  H  H28  1  0.58373000  0.59344000  0.78930000  1.0
  H  H29  1  0.79758000  0.37443000  0.79387000  1.0
  C  C30  1  0.56523000  0.94023000  0.83110000  1.0
  C  C31  1  0.60466000  0.89964000  0.71849000  1.0
  C  C32  1  0.74666000  0.89630000  0.64141000  1.0
  C  C33  1  0.78418000  0.85709000  0.53637000  1.0
  C  C34  1  0.67542000  0.82582000  0.50725000  1.0
  C  C35  1  0.53327000  0.83140000  0.58302000  1.0
  C  C36  1  0.49788000  0.86629000  0.68959000  1.0
  C  C37  1  0.93556000  0.84665000  0.46137000  1.0
  C  C38  1  0.06935000  0.81385000  0.49838000  1.0
  C  C39  1  0.17873000  0.81381000  0.38826000  1.0
  C  C40  1  0.93478000  0.16890000  0.05978000  1.0
  C  C41  1  0.89534000  0.28151000  0.10037000  1.0
  C  C42  1  0.75333000  0.35859000  0.10371000  1.0
  C  C43  1  0.71583000  0.46362000  0.14292000  1.0
  C  C44  1  0.82458000  0.49274000  0.17418000  1.0
  C  C45  1  0.96674000  0.41698000  0.16861000  1.0
  C  C46  1  0.00213000  0.31041000  0.13371000  1.0
  C  C47  1  0.56444000  0.53863000  0.15336000  1.0
  C  C48  1  0.43065000  0.50161000  0.18616000  1.0
  C  C49  1  0.32127000  0.61173000  0.18620000  1.0
  C  C50  1  0.43479000  0.05977000  0.16889000  1.0
  C  C51  1  0.39534000  0.10036000  0.28151000  1.0
  C  C52  1  0.25334000  0.10370000  0.35859000  1.0
  C  C53  1  0.21583000  0.14290000  0.46363000  1.0
  C  C54  1  0.32458000  0.17417000  0.49275000  1.0
  C  C55  1  0.46673000  0.16859000  0.41700000  1.0
  C  C56  1  0.50212000  0.13370000  0.31042000  1.0
  C  C57  1  0.06443000  0.15335000  0.53864000  1.0
  C  C58  1  0.93065000  0.18616000  0.50162000  1.0
  C  C59  1  0.82127000  0.18620000  0.61175000  1.0
  C  C60  1  0.06521000  0.83110000  0.94021000  1.0
  C  C61  1  0.10465000  0.71849000  0.89963000  1.0
  C  C62  1  0.24666000  0.64141000  0.89628000  1.0
  C  C63  1  0.28417000  0.53638000  0.85708000  1.0
  C  C64  1  0.17541000  0.50726000  0.82581000  1.0
  C  C65  1  0.03326000  0.58301000  0.83139000  1.0
  C  C66  1  0.99786000  0.68958000  0.86629000  1.0
  C  C67  1  0.43556000  0.46137000  0.84663000  1.0
  C  C68  1  0.56935000  0.49839000  0.81384000  1.0
  C  C69  1  0.67872000  0.38827000  0.81381000  1.0
  N  N70  1  0.11856000  0.84631000  0.28844000  1.0
  N  N71  1  0.97146000  0.86491000  0.33517000  1.0
  N  N72  1  0.38144000  0.71155000  0.15369000  1.0
  N  N73  1  0.52853000  0.66482000  0.13509000  1.0
  N  N74  1  0.88144000  0.15370000  0.71156000  1.0
  N  N75  1  0.02854000  0.13509000  0.66483000  1.0
  N  N76  1  0.61856000  0.28845000  0.84631000  1.0
  N  N77  1  0.47146000  0.33518000  0.86490000  1.0
  N  N78  1  0.75000000  0.83166000  0.16835000  1.0
  N  N79  1  0.25001000  0.16835000  0.83164000  1.0
  O  O80  1  0.64217000  0.00796000  0.83281000  1.0
  O  O81  1  0.45644000  0.90472000  0.91884000  1.0
  O  O82  1  0.79908000  0.92560000  0.15573000  1.0
  O  O83  1  0.85783000  0.16720000  0.99205000  1.0
  O  O84  1  0.04358000  0.08117000  0.09528000  1.0
  O  O85  1  0.70092000  0.84428000  0.07441000  1.0
  O  O86  1  0.35783000  0.99205000  0.16719000  1.0
  O  O87  1  0.54357000  0.09529000  0.08117000  1.0
  O  O88  1  0.20094000  0.07440000  0.84427000  1.0
  O  O89  1  0.14218000  0.83281000  0.00794000  1.0
  O  O90  1  0.95642000  0.91883000  0.90471000  1.0
  O  O91  1  0.29909000  0.15573000  0.92559000  1.0
  O  O92  1  0.75002000  0.73511000  0.26489000  1.0
  O  O93  1  0.25001000  0.26489000  0.73511000  1.0
