# generated using pymatgen
data_AgPH16C20NO2F3
_symmetry_space_group_name_H-M   'P 1'
_cell_length_a   7.63205000
_cell_length_b   10.37890000
_cell_length_c   27.08050000
_cell_angle_alpha   90.00100000
_cell_angle_beta   90.00120000
_cell_angle_gamma   100.25300000
_symmetry_Int_Tables_number   1
_chemical_formula_structural   AgPH16C20NO2F3
_chemical_formula_sum   'Ag4 P4 H64 C80 N4 O8 F12'
_cell_volume   2110.85382878
_cell_formula_units_Z   4
loop_
 _symmetry_equiv_pos_site_id
 _symmetry_equiv_pos_as_xyz
  1  'x, y, z'
loop_
 _atom_site_type_symbol
 _atom_site_label
 _atom_site_symmetry_multiplicity
 _atom_site_fract_x
 _atom_site_fract_y
 _atom_site_fract_z
 _atom_site_occupancy
  Ag  Ag0  1  0.86449000  0.48992000  0.45864000  1.0
  Ag  Ag1  1  0.13550000  0.01009000  0.95864000  1.0
  Ag  Ag2  1  0.13551000  0.51008000  0.54136000  1.0
  Ag  Ag3  1  0.86448000  0.98991000  0.04136000  1.0
  P  P4  1  0.80452000  0.32761000  0.39718000  1.0
  P  P5  1  0.19548000  0.17240000  0.89718000  1.0
  P  P6  1  0.19549000  0.67239000  0.60282000  1.0
  P  P7  1  0.80451000  0.82760000  0.10282000  1.0
  H  H8  1  0.65967000  0.44445000  0.33725000  1.0
  H  H9  1  0.34030000  0.05553000  0.83726000  1.0
  H  H10  1  0.34032000  0.55554000  0.66274000  1.0
  H  H11  1  0.65968000  0.94446000  0.16274000  1.0
  H  H12  1  0.55930000  0.27467000  0.33778000  1.0
  H  H13  1  0.44068000  0.22531000  0.83778000  1.0
  H  H14  1  0.44069000  0.72532000  0.66222000  1.0
  H  H15  1  0.55930000  0.77468000  0.16222000  1.0
  H  H16  1  0.54430000  0.60091000  0.38669000  1.0
  H  H17  1  0.45568000  0.89908000  0.88670000  1.0
  H  H18  1  0.45569000  0.39908000  0.61330000  1.0
  H  H19  1  0.54432000  0.10092000  0.11330000  1.0
  H  H20  1  0.32636000  0.64952000  0.45042000  1.0
  H  H21  1  0.67363000  0.85047000  0.95042000  1.0
  H  H22  1  0.67365000  0.35048000  0.54958000  1.0
  H  H23  1  0.32636000  0.14953000  0.04958000  1.0
  H  H24  1  0.15776000  0.25571000  0.47973000  1.0
  H  H25  1  0.84226000  0.24428000  0.97973000  1.0
  H  H26  1  0.84224000  0.74428000  0.52027000  1.0
  H  H27  1  0.15773000  0.75572000  0.02026000  1.0
  H  H28  1  0.35973000  0.19031000  0.41513000  1.0
  H  H29  1  0.64028000  0.30968000  0.91513000  1.0
  H  H30  1  0.64027000  0.80969000  0.58487000  1.0
  H  H31  1  0.35971000  0.69032000  0.08487000  1.0
  H  H32  1  0.83124000  0.20225000  0.49239000  1.0
  H  H33  1  0.16878000  0.29777000  0.99239000  1.0
  H  H34  1  0.16876000  0.79775000  0.50761000  1.0
  H  H35  1  0.83123000  0.70223000  0.00761000  1.0
  H  H36  1  0.75770000  0.97367000  0.52041000  1.0
  H  H37  1  0.24232000  0.52635000  0.02041000  1.0
  H  H38  1  0.24229000  0.02633000  0.47959000  1.0
  H  H39  1  0.75769000  0.47364000  0.97959000  1.0
  H  H40  1  0.62410000  0.79687000  0.46187000  1.0
  H  H41  1  0.37592000  0.70314000  0.96187000  1.0
  H  H42  1  0.37589000  0.20313000  0.53813000  1.0
  H  H43  1  0.62409000  0.29686000  0.03813000  1.0
  H  H44  1  0.56152000  0.85315000  0.37514000  1.0
  H  H45  1  0.43849000  0.64685000  0.87514000  1.0
  H  H46  1  0.43850000  0.14685000  0.62485000  1.0
  H  H47  1  0.56149000  0.35315000  0.12486000  1.0
  H  H48  1  0.63469000  0.08206000  0.34646000  1.0
  H  H49  1  0.36532000  0.41794000  0.84646000  1.0
  H  H50  1  0.36535000  0.91794000  0.65353000  1.0
  H  H51  1  0.63465000  0.58207000  0.15353000  1.0
  H  H52  1  0.98323000  0.11611000  0.35641000  1.0
  H  H53  1  0.01676000  0.38390000  0.85641000  1.0
  H  H54  1  0.01679000  0.88391000  0.64358000  1.0
  H  H55  1  0.98322000  0.61610000  0.14359000  1.0
  H  H56  1  0.22377000  0.12065000  0.29598000  1.0
  H  H57  1  0.77621000  0.37935000  0.79599000  1.0
  H  H58  1  0.77626000  0.87938000  0.70401000  1.0
  H  H59  1  0.22376000  0.62064000  0.20402000  1.0
  H  H60  1  0.35907000  0.33104000  0.25488000  1.0
  H  H61  1  0.64090000  0.16896000  0.75488000  1.0
  H  H62  1  0.64093000  0.66899000  0.74512000  1.0
  H  H63  1  0.35909000  0.83103000  0.24512000  1.0
  H  H64  1  0.24970000  0.53662000  0.27690000  1.0
  H  H65  1  0.75029000  0.96338000  0.77690000  1.0
  H  H66  1  0.75028000  0.46340000  0.72310000  1.0
  H  H67  1  0.24973000  0.03661000  0.22310000  1.0
  H  H68  1  0.00372000  0.53124000  0.33648000  1.0
  H  H69  1  0.99628000  0.96877000  0.83648000  1.0
  H  H70  1  0.99626000  0.46877000  0.66352000  1.0
  H  H71  1  0.00374000  0.03124000  0.16352000  1.0
  C  C72  1  0.60936000  0.36013000  0.36091000  1.0
  C  C73  1  0.39062000  0.13986000  0.86091000  1.0
  C  C74  1  0.39064000  0.63987000  0.63909000  1.0
  C  C75  1  0.60936000  0.86013000  0.13909000  1.0
  C  C76  1  0.47118000  0.39136000  0.39595000  1.0
  C  C77  1  0.52882000  0.10863000  0.89595000  1.0
  C  C78  1  0.52883000  0.60864000  0.60405000  1.0
  C  C79  1  0.47117000  0.89136000  0.10405000  1.0
  C  C80  1  0.45868000  0.52186000  0.40613000  1.0
  C  C81  1  0.54131000  0.97813000  0.90612000  1.0
  C  C82  1  0.54132000  0.47814000  0.59387000  1.0
  C  C83  1  0.45868000  0.02186000  0.09387000  1.0
  C  C84  1  0.34158000  0.54938000  0.44217000  1.0
  C  C85  1  0.65842000  0.95061000  0.94217000  1.0
  C  C86  1  0.65842000  0.45062000  0.55783000  1.0
  C  C87  1  0.34158000  0.04938000  0.05782000  1.0
  C  C88  1  0.24609000  0.32879000  0.45814000  1.0
  C  C89  1  0.75393000  0.17120000  0.95814000  1.0
  C  C90  1  0.75392000  0.67121000  0.54186000  1.0
  C  C91  1  0.24607000  0.82880000  0.04186000  1.0
  C  C92  1  0.35859000  0.29346000  0.42221000  1.0
  C  C93  1  0.64141000  0.20653000  0.92221000  1.0
  C  C94  1  0.64141000  0.70653000  0.57779000  1.0
  C  C95  1  0.35857000  0.79347000  0.07779000  1.0
  C  C96  1  0.73885000  0.15856000  0.41734000  1.0
  C  C97  1  0.26117000  0.34145000  0.91734000  1.0
  C  C98  1  0.26117000  0.84144000  0.58266000  1.0
  C  C99  1  0.73883000  0.65856000  0.08266000  1.0
  C  C100  1  0.77226000  0.12644000  0.46633000  1.0
  C  C101  1  0.22776000  0.37357000  0.96633000  1.0
  C  C102  1  0.22775000  0.87356000  0.53367000  1.0
  C  C103  1  0.77224000  0.62642000  0.03367000  1.0
  C  C104  1  0.73067000  0.99653000  0.48223000  1.0
  C  C105  1  0.26936000  0.50348000  0.98222000  1.0
  C  C106  1  0.26933000  0.00347000  0.51777000  1.0
  C  C107  1  0.73065000  0.49652000  0.01778000  1.0
  C  C108  1  0.65527000  0.89832000  0.44954000  1.0
  C  C109  1  0.34475000  0.60170000  0.94954000  1.0
  C  C110  1  0.34473000  0.10168000  0.55045000  1.0
  C  C111  1  0.65525000  0.39830000  0.05045000  1.0
  C  C112  1  0.61977000  0.92965000  0.40080000  1.0
  C  C113  1  0.38024000  0.57035000  0.90080000  1.0
  C  C114  1  0.38024000  0.07035000  0.59920000  1.0
  C  C115  1  0.61975000  0.42965000  0.09920000  1.0
  C  C116  1  0.66103000  0.05909000  0.38479000  1.0
  C  C117  1  0.33898000  0.44092000  0.88479000  1.0
  C  C118  1  0.33899000  0.94092000  0.61521000  1.0
  C  C119  1  0.66100000  0.55908000  0.11521000  1.0
  C  C120  1  0.97470000  0.32278000  0.35014000  1.0
  C  C121  1  0.02529000  0.17722000  0.85014000  1.0
  C  C122  1  0.02530000  0.67722000  0.64985000  1.0
  C  C123  1  0.97471000  0.82278000  0.14986000  1.0
  C  C124  1  0.03872000  0.20805000  0.33855000  1.0
  C  C125  1  0.96127000  0.29196000  0.83855000  1.0
  C  C126  1  0.96129000  0.79197000  0.66145000  1.0
  C  C127  1  0.03871000  0.70804000  0.16145000  1.0
  C  C128  1  0.17612000  0.21123000  0.30432000  1.0
  C  C129  1  0.82387000  0.28878000  0.80432000  1.0
  C  C130  1  0.82389000  0.78880000  0.69568000  1.0
  C  C131  1  0.17612000  0.71121000  0.19568000  1.0
  C  C132  1  0.25177000  0.32872000  0.28166000  1.0
  C  C133  1  0.74821000  0.17128000  0.78166000  1.0
  C  C134  1  0.74823000  0.67130000  0.71834000  1.0
  C  C135  1  0.25178000  0.82871000  0.21834000  1.0
  C  C136  1  0.18963000  0.44365000  0.29357000  1.0
  C  C137  1  0.81036000  0.05635000  0.79357000  1.0
  C  C138  1  0.81035000  0.55637000  0.70643000  1.0
  C  C139  1  0.18965000  0.94364000  0.20643000  1.0
  C  C140  1  0.05170000  0.44120000  0.32747000  1.0
  C  C141  1  0.94830000  0.05881000  0.82747000  1.0
  C  C142  1  0.94829000  0.55882000  0.67253000  1.0
  C  C143  1  0.05171000  0.94119000  0.17253000  1.0
  C  C144  1  0.96553000  0.73078000  0.39540000  1.0
  C  C145  1  0.03448000  0.76921000  0.89540000  1.0
  C  C146  1  0.03447000  0.26922000  0.60460000  1.0
  C  C147  1  0.96552000  0.23078000  0.10460000  1.0
  C  C148  1  0.09401000  0.84092000  0.36751000  1.0
  C  C149  1  0.90600000  0.65906000  0.86751000  1.0
  C  C150  1  0.90599000  0.15908000  0.63249000  1.0
  C  C151  1  0.09402000  0.34091000  0.13249000  1.0
  N  N152  1  0.23877000  0.45470000  0.46870000  1.0
  N  N153  1  0.76124000  0.04529000  0.96870000  1.0
  N  N154  1  0.76124000  0.54530000  0.53130000  1.0
  N  N155  1  0.23875000  0.95471000  0.03130000  1.0
  O  O156  1  0.01500000  0.70921000  0.43889000  1.0
  O  O157  1  0.98502000  0.79080000  0.93889000  1.0
  O  O158  1  0.98501000  0.29080000  0.56111000  1.0
  O  O159  1  0.01497000  0.20921000  0.06111000  1.0
  O  O160  1  0.83697000  0.67270000  0.37083000  1.0
  O  O161  1  0.16304000  0.82730000  0.87083000  1.0
  O  O162  1  0.16302000  0.32731000  0.62918000  1.0
  O  O163  1  0.83696000  0.17269000  0.12917000  1.0
  F  F164  1  0.01635000  0.89135000  0.32859000  1.0
  F  F165  1  0.98366000  0.60862000  0.82860000  1.0
  F  F166  1  0.98365000  0.10865000  0.67141000  1.0
  F  F167  1  0.01639000  0.39135000  0.17141000  1.0
  F  F168  1  0.16504000  0.94428000  0.39700000  1.0
  F  F169  1  0.83497000  0.55572000  0.89701000  1.0
  F  F170  1  0.83497000  0.05572000  0.60300000  1.0
  F  F171  1  0.16506000  0.44426000  0.10300000  1.0
  F  F172  1  0.23541000  0.79021000  0.34878000  1.0
  F  F173  1  0.76460000  0.70976000  0.84879000  1.0
  F  F174  1  0.76458000  0.20978000  0.65122000  1.0
  F  F175  1  0.23542000  0.29019000  0.15121000  1.0
