# generated using pymatgen
data_ZnH14C18S2N6O7
_symmetry_space_group_name_H-M   'P 1'
_cell_length_a   8.35617000
_cell_length_b   11.26270000
_cell_length_c   12.18230000
_cell_angle_alpha   108.36700000
_cell_angle_beta   95.13530000
_cell_angle_gamma   103.29200000
_symmetry_Int_Tables_number   1
_chemical_formula_structural   ZnH14C18S2N6O7
_chemical_formula_sum   'Zn2 H28 C36 S4 N12 O14'
_cell_volume   1042.55148765
_cell_formula_units_Z   2
loop_
 _symmetry_equiv_pos_site_id
 _symmetry_equiv_pos_as_xyz
  1  'x, y, z'
loop_
 _atom_site_type_symbol
 _atom_site_label
 _atom_site_symmetry_multiplicity
 _atom_site_fract_x
 _atom_site_fract_y
 _atom_site_fract_z
 _atom_site_occupancy
  Zn  Zn0  1  0.25082000  0.15719000  0.48404000  1.0
  Zn  Zn1  1  0.74918000  0.84281000  0.51595000  1.0
  H  H2  1  0.30389000  0.94294000  0.51858000  1.0
  H  H3  1  0.69611000  0.05706000  0.48142000  1.0
  H  H4  1  0.10586000  0.90544000  0.47732000  1.0
  H  H5  1  0.89414000  0.09456000  0.52268000  1.0
  H  H6  1  0.36782000  0.80126000  0.12804000  1.0
  H  H7  1  0.63219000  0.19873000  0.87197000  1.0
  H  H8  1  0.56012000  0.91529000  0.31882000  1.0
  H  H9  1  0.43990000  0.08471000  0.68118000  1.0
  H  H10  1  0.59814000  0.56730000  0.35455000  1.0
  H  H11  1  0.40187000  0.43271000  0.64546000  1.0
  H  H12  1  0.40690000  0.43782000  0.16270000  1.0
  H  H13  1  0.59310000  0.56218000  0.83732000  1.0
  H  H14  1  0.85906000  0.29707000  0.68210000  1.0
  H  H15  1  0.14092000  0.70293000  0.31791000  1.0
  H  H16  1  0.80757000  0.37911000  0.58617000  1.0
  H  H17  1  0.19244000  0.62090000  0.41383000  1.0
  H  H18  1  0.04081000  0.79862000  0.89160000  1.0
  H  H19  1  0.95918000  0.20138000  0.10839000  1.0
  H  H20  1  0.83672000  0.73914000  0.70538000  1.0
  H  H21  1  0.16328000  0.26086000  0.29461000  1.0
  H  H22  1  0.99350000  0.11278000  0.69604000  1.0
  H  H23  1  0.00650000  0.88722000  0.30395000  1.0
  H  H24  1  0.20066000  0.18627000  0.87837000  1.0
  H  H25  1  0.79933000  0.81373000  0.12163000  1.0
  H  H26  1  0.75116000  0.17359000  0.31672000  1.0
  H  H27  1  0.24884000  0.82642000  0.68327000  1.0
  H  H28  1  0.77445000  0.34022000  0.40263000  1.0
  H  H29  1  0.22554000  0.65979000  0.59737000  1.0
  C  C30  1  0.37392000  0.60935000  0.12909000  1.0
  C  C31  1  0.62609000  0.39065000  0.87092000  1.0
  C  C32  1  0.41685000  0.74546000  0.17460000  1.0
  C  C33  1  0.58316000  0.25453000  0.82541000  1.0
  C  C34  1  0.52558000  0.80953000  0.28167000  1.0
  C  C35  1  0.47442000  0.19047000  0.71833000  1.0
  C  C36  1  0.54557000  0.61517000  0.30096000  1.0
  C  C37  1  0.45444000  0.38483000  0.69905000  1.0
  C  C38  1  0.43942000  0.54353000  0.19465000  1.0
  C  C39  1  0.56059000  0.45646000  0.80536000  1.0
  C  C40  1  0.26445000  0.53479000  0.01722000  1.0
  C  C41  1  0.73556000  0.46521000  0.98279000  1.0
  C  C42  1  0.09372000  0.49529000  0.85928000  1.0
  C  C43  1  0.90629000  0.50470000  0.14073000  1.0
  C  C44  1  0.90931000  0.37220000  0.64539000  1.0
  C  C45  1  0.09069000  0.62780000  0.35461000  1.0
  C  C46  1  0.05132000  0.34272000  0.57817000  1.0
  C  C47  1  0.94869000  0.65729000  0.42183000  1.0
  C  C48  1  0.13994000  0.99658000  0.89789000  1.0
  C  C49  1  0.86005000  0.00342000  0.10210000  1.0
  C  C50  1  0.03302000  0.86973000  0.84957000  1.0
  C  C51  1  0.96698000  0.13027000  0.15042000  1.0
  C  C52  1  0.92060000  0.83688000  0.74672000  1.0
  C  C53  1  0.07940000  0.16312000  0.25326000  1.0
  C  C54  1  0.00667000  0.04448000  0.74030000  1.0
  C  C55  1  0.99332000  0.95552000  0.25969000  1.0
  C  C56  1  0.12386000  0.08598000  0.84262000  1.0
  C  C57  1  0.87612000  0.91403000  0.15738000  1.0
  C  C58  1  0.26490000  0.03238000  0.00153000  1.0
  C  C59  1  0.73509000  0.96762000  0.99846000  1.0
  C  C60  1  0.47036000  0.15356000  0.14007000  1.0
  C  C61  1  0.52964000  0.84644000  0.85992000  1.0
  C  C62  1  0.68523000  0.24869000  0.34420000  1.0
  C  C63  1  0.31477000  0.75132000  0.65579000  1.0
  C  C64  1  0.54361000  0.20467000  0.40591000  1.0
  C  C65  1  0.45638000  0.79533000  0.59409000  1.0
  S  S66  1  0.97061000  0.53027000  0.75946000  1.0
  S  S67  1  0.02939000  0.46973000  0.24055000  1.0
  S  S68  1  0.62037000  0.29439000  0.22181000  1.0
  S  S69  1  0.37963000  0.70561000  0.77818000  1.0
  N  N70  1  0.58983000  0.74645000  0.34400000  1.0
  N  N71  1  0.41017000  0.25356000  0.65601000  1.0
  N  N72  1  0.23360000  0.41074000  0.95717000  1.0
  N  N73  1  0.76641000  0.58926000  0.04284000  1.0
  N  N74  1  0.12317000  0.38418000  0.85453000  1.0
  N  N75  1  0.87685000  0.61581000  0.14547000  1.0
  N  N76  1  0.90805000  0.92198000  0.69143000  1.0
  N  N77  1  0.09193000  0.07802000  0.30856000  1.0
  N  N78  1  0.30097000  0.96045000  0.06073000  1.0
  N  N79  1  0.69902000  0.03955000  0.93926000  1.0
  N  N80  1  0.43448000  0.03816000  0.15071000  1.0
  N  N81  1  0.56551000  0.96183000  0.84928000  1.0
  O  O82  1  0.05459000  0.22204000  0.54863000  1.0
  O  O83  1  0.94542000  0.77796000  0.45137000  1.0
  O  O84  1  0.14898000  0.42964000  0.55584000  1.0
  O  O85  1  0.85102000  0.57036000  0.44418000  1.0
  O  O86  1  0.17826000  0.59559000  0.95988000  1.0
  O  O87  1  0.82174000  0.40441000  0.04012000  1.0
  O  O88  1  0.55326000  0.11912000  0.45081000  1.0
  O  O89  1  0.44675000  0.88088000  0.54919000  1.0
  O  O90  1  0.42338000  0.25723000  0.41055000  1.0
  O  O91  1  0.57661000  0.74276000  0.58944000  1.0
  O  O92  1  0.36829000  0.15777000  0.04751000  1.0
  O  O93  1  0.63169000  0.84223000  0.95248000  1.0
  O  O94  1  0.20946000  0.97909000  0.49985000  1.0
  O  O95  1  0.79055000  0.02092000  0.50015000  1.0
