# generated using pymatgen
data_ZrH26C20(NO2)4
_symmetry_space_group_name_H-M   'P 1'
_cell_length_a   8.39144000
_cell_length_b   10.24430000
_cell_length_c   14.87010000
_cell_angle_alpha   100.99500000
_cell_angle_beta   90.00220000
_cell_angle_gamma   114.17300000
_symmetry_Int_Tables_number   1
_chemical_formula_structural   ZrH26C20(NO2)4
_chemical_formula_sum   'Zr2 H52 C40 N8 O16'
_cell_volume   1140.43671116
_cell_formula_units_Z   2
loop_
 _symmetry_equiv_pos_site_id
 _symmetry_equiv_pos_as_xyz
  1  'x, y, z'
loop_
 _atom_site_type_symbol
 _atom_site_label
 _atom_site_symmetry_multiplicity
 _atom_site_fract_x
 _atom_site_fract_y
 _atom_site_fract_z
 _atom_site_occupancy
  Zr  Zr0  1  0.28503000  0.99999000  0.74998000  1.0
  Zr  Zr1  1  0.71497000  0.00001000  0.25002000  1.0
  H  H2  1  0.08605000  0.79509000  0.99614000  1.0
  H  H3  1  0.29091000  0.20494000  0.50384000  1.0
  H  H4  1  0.91395000  0.20491000  0.00386000  1.0
  H  H5  1  0.70909000  0.79506000  0.49616000  1.0
  H  H6  1  0.70048000  0.64311000  0.75577000  1.0
  H  H7  1  0.05719000  0.35675000  0.74420000  1.0
  H  H8  1  0.29952000  0.35688000  0.24423000  1.0
  H  H9  1  0.94281000  0.64325000  0.25580000  1.0
  H  H10  1  0.58277000  0.59260000  0.85280000  1.0
  H  H11  1  0.99005000  0.40736000  0.64718000  1.0
  H  H12  1  0.41723000  0.40740000  0.14720000  1.0
  H  H13  1  0.00995000  0.59264000  0.35282000  1.0
  H  H14  1  0.31938000  0.42259000  0.75632000  1.0
  H  H15  1  0.89672000  0.57738000  0.74374000  1.0
  H  H16  1  0.68062000  0.57741000  0.24368000  1.0
  H  H17  1  0.10328000  0.42262000  0.25626000  1.0
  H  H18  1  0.49269000  0.38372000  0.71138000  1.0
  H  H19  1  0.10894000  0.61621000  0.78861000  1.0
  H  H20  1  0.50732000  0.61629000  0.28862000  1.0
  H  H21  1  0.89106000  0.38379000  0.21139000  1.0
  H  H22  1  0.51495000  0.51066000  0.58757000  1.0
  H  H23  1  0.00432000  0.48919000  0.91242000  1.0
  H  H24  1  0.48505000  0.48934000  0.41243000  1.0
  H  H25  1  0.99568000  0.51081000  0.08758000  1.0
  H  H26  1  0.28805000  0.39818000  0.58977000  1.0
  H  H27  1  0.88993000  0.60171000  0.91026000  1.0
  H  H28  1  0.71196000  0.60182000  0.41023000  1.0
  H  H29  1  0.11008000  0.39829000  0.08974000  1.0
  H  H30  1  0.23860000  0.54057000  0.50560000  1.0
  H  H31  1  0.69801000  0.45937000  0.99440000  1.0
  H  H32  1  0.76140000  0.45943000  0.49440000  1.0
  H  H33  1  0.30199000  0.54062000  0.00560000  1.0
  H  H34  1  0.35995000  0.73528000  0.53411000  1.0
  H  H35  1  0.62463000  0.26467000  0.96591000  1.0
  H  H36  1  0.64005000  0.26472000  0.46589000  1.0
  H  H37  1  0.37537000  0.73533000  0.03409000  1.0
  H  H38  1  0.15351000  0.65271000  0.57884000  1.0
  H  H39  1  0.50079000  0.34726000  0.92116000  1.0
  H  H40  1  0.84649000  0.34728000  0.42117000  1.0
  H  H41  1  0.49921000  0.65274000  0.07884000  1.0
  H  H42  1  0.64813000  0.82534000  0.91514000  1.0
  H  H43  1  0.82257000  0.17464000  0.58482000  1.0
  H  H44  1  0.35187000  0.17466000  0.08486000  1.0
  H  H45  1  0.17743000  0.82536000  0.41518000  1.0
  H  H46  1  0.48522000  0.88682000  0.89035000  1.0
  H  H47  1  0.59820000  0.11316000  0.60961000  1.0
  H  H48  1  0.51478000  0.11318000  0.10965000  1.0
  H  H49  1  0.40180000  0.88684000  0.39039000  1.0
  H  H50  1  0.68736000  0.94525000  0.83772000  1.0
  H  H51  1  0.74196000  0.05476000  0.66223000  1.0
  H  H52  1  0.31265000  0.05475000  0.16228000  1.0
  H  H53  1  0.25804000  0.94524000  0.33777000  1.0
  C  C54  1  0.11613000  0.97719000  0.93536000  1.0
  C  C55  1  0.13897000  0.02280000  0.56459000  1.0
  C  C56  1  0.88387000  0.02281000  0.06463000  1.0
  C  C57  1  0.86103000  0.97720000  0.43541000  1.0
  C  C58  1  0.06734000  0.09567000  0.93897000  1.0
  C  C59  1  0.97174000  0.90433000  0.56102000  1.0
  C  C60  1  0.93266000  0.90433000  0.06103000  1.0
  C  C61  1  0.02826000  0.09567000  0.43898000  1.0
  C  C62  1  0.13625000  0.20275000  0.87765000  1.0
  C  C63  1  0.93360000  0.79726000  0.62235000  1.0
  C  C64  1  0.86375000  0.79725000  0.12235000  1.0
  C  C65  1  0.06640000  0.20274000  0.37765000  1.0
  C  C66  1  0.04716000  0.88457000  0.99705000  1.0
  C  C67  1  0.16258000  0.11545000  0.50292000  1.0
  C  C68  1  0.95284000  0.11543000  0.00294000  1.0
  C  C69  1  0.83742000  0.88455000  0.49708000  1.0
  C  C70  1  0.41895000  0.72957000  0.71394000  1.0
  C  C71  1  0.68926000  0.27041000  0.78604000  1.0
  C  C72  1  0.58105000  0.27043000  0.28606000  1.0
  C  C73  1  0.31074000  0.72959000  0.21396000  1.0
  C  C74  1  0.57020000  0.60752000  0.78235000  1.0
  C  C75  1  0.96256000  0.39243000  0.71763000  1.0
  C  C76  1  0.42980000  0.39248000  0.21765000  1.0
  C  C77  1  0.03744000  0.60757000  0.28237000  1.0
  C  C78  1  0.43968000  0.46659000  0.72165000  1.0
  C  C79  1  0.97306000  0.53335000  0.77837000  1.0
  C  C80  1  0.56032000  0.53341000  0.27835000  1.0
  C  C81  1  0.02694000  0.46664000  0.22163000  1.0
  C  C82  1  0.40126000  0.49253000  0.62843000  1.0
  C  C83  1  0.90875000  0.50735000  0.87159000  1.0
  C  C84  1  0.59875000  0.50747000  0.37157000  1.0
  C  C85  1  0.09125000  0.49265000  0.12841000  1.0
  C  C86  1  0.27312000  0.63887000  0.55999000  1.0
  C  C87  1  0.63422000  0.36108000  0.94001000  1.0
  C  C88  1  0.72688000  0.36113000  0.44001000  1.0
  C  C89  1  0.36578000  0.63892000  0.05999000  1.0
  C  C90  1  0.58604000  0.85296000  0.86136000  1.0
  C  C91  1  0.73287000  0.14704000  0.63859000  1.0
  C  C92  1  0.41396000  0.14705000  0.13864000  1.0
  C  C93  1  0.26713000  0.85296000  0.36140000  1.0
  N  N94  1  0.36015000  0.62037000  0.63883000  1.0
  N  N95  1  0.73977000  0.37955000  0.86119000  1.0
  N  N96  1  0.63985000  0.37964000  0.36117000  1.0
  N  N97  1  0.26023000  0.62045000  0.13881000  1.0
  N  N98  1  0.50930000  0.72355000  0.78694000  1.0
  N  N99  1  0.78559000  0.27645000  0.71302000  1.0
  N  N100  1  0.49070000  0.27645000  0.21306000  1.0
  N  N101  1  0.21441000  0.72355000  0.28698000  1.0
  O  O102  1  0.38745000  0.84285000  0.71583000  1.0
  O  O103  1  0.54443000  0.15719000  0.78412000  1.0
  O  O104  1  0.61255000  0.15715000  0.28417000  1.0
  O  O105  1  0.45557000  0.84281000  0.21588000  1.0
  O  O106  1  0.19245000  0.15960000  0.80015000  1.0
  O  O107  1  0.03290000  0.84049000  0.69987000  1.0
  O  O108  1  0.80755000  0.84040000  0.19985000  1.0
  O  O109  1  0.96710000  0.15951000  0.30013000  1.0
  O  O110  1  0.22828000  0.95421000  0.87708000  1.0
  O  O111  1  0.27411000  0.04578000  0.62286000  1.0
  O  O112  1  0.77172000  0.04579000  0.12291000  1.0
  O  O113  1  0.72589000  0.95422000  0.37714000  1.0
  O  O114  1  0.13835000  0.32720000  0.89972000  1.0
  O  O115  1  0.81128000  0.67280000  0.60031000  1.0
  O  O116  1  0.86165000  0.67280000  0.10029000  1.0
  O  O117  1  0.18872000  0.32720000  0.39969000  1.0
