# generated using pymatgen
data_CuH10C6N3ClO2
_symmetry_space_group_name_H-M   'P 1'
_cell_length_a   3.95292000
_cell_length_b   9.07750000
_cell_length_c   24.88870000
_cell_angle_alpha   89.99980000
_cell_angle_beta   90.00010000
_cell_angle_gamma   89.99940000
_symmetry_Int_Tables_number   1
_chemical_formula_structural   CuH10C6N3ClO2
_chemical_formula_sum   'Cu4 H40 C24 N12 Cl4 O8'
_cell_volume   893.07204558
_cell_formula_units_Z   4
loop_
 _symmetry_equiv_pos_site_id
 _symmetry_equiv_pos_as_xyz
  1  'x, y, z'
loop_
 _atom_site_type_symbol
 _atom_site_label
 _atom_site_symmetry_multiplicity
 _atom_site_fract_x
 _atom_site_fract_y
 _atom_site_fract_z
 _atom_site_occupancy
  Cu  Cu0  1  0.07072000  0.50076000  0.89694000  1.0
  Cu  Cu1  1  0.07071000  0.00076000  0.60306000  1.0
  Cu  Cu2  1  0.92929000  0.50076000  0.39694000  1.0
  Cu  Cu3  1  0.92930000  0.00076000  0.10306000  1.0
  H  H4  1  0.38238000  0.82570000  0.90185000  1.0
  H  H5  1  0.38237000  0.32570000  0.59815000  1.0
  H  H6  1  0.61763000  0.82571000  0.40186000  1.0
  H  H7  1  0.61764000  0.32571000  0.09815000  1.0
  H  H8  1  0.78825000  0.61599000  0.78403000  1.0
  H  H9  1  0.78822000  0.11599000  0.71597000  1.0
  H  H10  1  0.21176000  0.61599000  0.28403000  1.0
  H  H11  1  0.21178000  0.11599000  0.21597000  1.0
  H  H12  1  0.97244000  0.89301000  0.74657000  1.0
  H  H13  1  0.97243000  0.39300000  0.75343000  1.0
  H  H14  1  0.02756000  0.89300000  0.24657000  1.0
  H  H15  1  0.02756000  0.39300000  0.25343000  1.0
  H  H16  1  0.49098000  0.06802000  0.86266000  1.0
  H  H17  1  0.49097000  0.56802000  0.63734000  1.0
  H  H18  1  0.50901000  0.06802000  0.36266000  1.0
  H  H19  1  0.50900000  0.56802000  0.13734000  1.0
  H  H20  1  0.51902000  0.06710000  0.79093000  1.0
  H  H21  1  0.51902000  0.56709000  0.70907000  1.0
  H  H22  1  0.48097000  0.06709000  0.29093000  1.0
  H  H23  1  0.48097000  0.56709000  0.20907000  1.0
  H  H24  1  0.14611000  0.13359000  0.82315000  1.0
  H  H25  1  0.14611000  0.63359000  0.67685000  1.0
  H  H26  1  0.85388000  0.13359000  0.32315000  1.0
  H  H27  1  0.85388000  0.63359000  0.17685000  1.0
  H  H28  1  0.86783000  0.26924000  0.94651000  1.0
  H  H29  1  0.86781000  0.76924000  0.55349000  1.0
  H  H30  1  0.13218000  0.26923000  0.44651000  1.0
  H  H31  1  0.13218000  0.76924000  0.05349000  1.0
  H  H32  1  0.27565000  0.26070000  0.93687000  1.0
  H  H33  1  0.27563000  0.76070000  0.56313000  1.0
  H  H34  1  0.72436000  0.26070000  0.43687000  1.0
  H  H35  1  0.72436000  0.76071000  0.06313000  1.0
  H  H36  1  0.91544000  0.39354000  0.02555000  1.0
  H  H37  1  0.91544000  0.89354000  0.47445000  1.0
  H  H38  1  0.08455000  0.39353000  0.52555000  1.0
  H  H39  1  0.08457000  0.89353000  0.97445000  1.0
  H  H40  1  0.31268000  0.30476000  0.02496000  1.0
  H  H41  1  0.31266000  0.80475000  0.47504000  1.0
  H  H42  1  0.68733000  0.30475000  0.52496000  1.0
  H  H43  1  0.68734000  0.80475000  0.97504000  1.0
  C  C44  1  0.24145000  0.80472000  0.86544000  1.0
  C  C45  1  0.24144000  0.30472000  0.63455000  1.0
  C  C46  1  0.75856000  0.80472000  0.36545000  1.0
  C  C47  1  0.75856000  0.30472000  0.13455000  1.0
  C  C48  1  0.94282000  0.70033000  0.80243000  1.0
  C  C49  1  0.94281000  0.20033000  0.69757000  1.0
  C  C50  1  0.05719000  0.70033000  0.30243000  1.0
  C  C51  1  0.05720000  0.20033000  0.19757000  1.0
  C  C52  1  0.02673000  0.83843000  0.78435000  1.0
  C  C53  1  0.02672000  0.33843000  0.71565000  1.0
  C  C54  1  0.97327000  0.83843000  0.28435000  1.0
  C  C55  1  0.97327000  0.33843000  0.21566000  1.0
  C  C56  1  0.35009000  0.05190000  0.82532000  1.0
  C  C57  1  0.35008000  0.55189000  0.67468000  1.0
  C  C58  1  0.64991000  0.05189000  0.32532000  1.0
  C  C59  1  0.64991000  0.55189000  0.17468000  1.0
  C  C60  1  0.15272000  0.38364000  0.00305000  1.0
  C  C61  1  0.15271000  0.88363000  0.49695000  1.0
  C  C62  1  0.84728000  0.38363000  0.50305000  1.0
  C  C63  1  0.84729000  0.88363000  0.99695000  1.0
  C  C64  1  0.31369000  0.53565000  0.00265000  1.0
  C  C65  1  0.31369000  0.03564000  0.49735000  1.0
  C  C66  1  0.68631000  0.53564000  0.50265000  1.0
  C  C67  1  0.68632000  0.03564000  0.99734000  1.0
  N  N68  1  0.07891000  0.68021000  0.85301000  1.0
  N  N69  1  0.07890000  0.18021000  0.64699000  1.0
  N  N70  1  0.92109000  0.68021000  0.35301000  1.0
  N  N71  1  0.92111000  0.18021000  0.14699000  1.0
  N  N72  1  0.21252000  0.90320000  0.82495000  1.0
  N  N73  1  0.21251000  0.40319000  0.67505000  1.0
  N  N74  1  0.78748000  0.90319000  0.32495000  1.0
  N  N75  1  0.78748000  0.40319000  0.17505000  1.0
  N  N76  1  0.08473000  0.33168000  0.94809000  1.0
  N  N77  1  0.08472000  0.83167000  0.55191000  1.0
  N  N78  1  0.91528000  0.33167000  0.44809000  1.0
  N  N79  1  0.91528000  0.83167000  0.05191000  1.0
  Cl  Cl80  1  0.65865000  0.38678000  0.84674000  1.0
  Cl  Cl81  1  0.65865000  0.88677000  0.65326000  1.0
  Cl  Cl82  1  0.34134000  0.38677000  0.34675000  1.0
  Cl  Cl83  1  0.34135000  0.88678000  0.15325000  1.0
  O  O84  1  0.32030000  0.60464000  0.95737000  1.0
  O  O85  1  0.32032000  0.10463000  0.54263000  1.0
  O  O86  1  0.67969000  0.60463000  0.45738000  1.0
  O  O87  1  0.67970000  0.10464000  0.04262000  1.0
  O  O88  1  0.42322000  0.58838000  0.04604000  1.0
  O  O89  1  0.42322000  0.08837000  0.45396000  1.0
  O  O90  1  0.57678000  0.58838000  0.54604000  1.0
  O  O91  1  0.57678000  0.08838000  0.95396000  1.0
