# generated using pymatgen
data_KH11(C2O3)3
_symmetry_space_group_name_H-M   'P 1'
_cell_length_a   6.10118000
_cell_length_b   8.82688000
_cell_length_c   10.02830000
_cell_angle_alpha   100.88600000
_cell_angle_beta   101.56500000
_cell_angle_gamma   90.11470000
_symmetry_Int_Tables_number   1
_chemical_formula_structural   KH11(C2O3)3
_chemical_formula_sum   'K2 H22 C12 O18'
_cell_volume   519.13590560
_cell_formula_units_Z   2
loop_
 _symmetry_equiv_pos_site_id
 _symmetry_equiv_pos_as_xyz
  1  'x, y, z'
loop_
 _atom_site_type_symbol
 _atom_site_label
 _atom_site_symmetry_multiplicity
 _atom_site_fract_x
 _atom_site_fract_y
 _atom_site_fract_z
 _atom_site_occupancy
  K  K0  1  0.60972000  0.72548000  0.97233000  1.0
  K  K1  1  0.39030000  0.27452000  0.02768000  1.0
  H  H2  1  0.40484000  0.58370000  0.65778000  1.0
  H  H3  1  0.59516000  0.41630000  0.34222000  1.0
  H  H4  1  0.75036000  0.70435000  0.56324000  1.0
  H  H5  1  0.24963000  0.29565000  0.43676000  1.0
  H  H6  1  0.96117000  0.80094000  0.50637000  1.0
  H  H7  1  0.03883000  0.19906000  0.49363000  1.0
  H  H8  1  0.35735000  0.12164000  0.70326000  1.0
  H  H9  1  0.64265000  0.87835000  0.29674000  1.0
  H  H10  1  0.03855000  0.86122000  0.90860000  1.0
  H  H11  1  0.96145000  0.13878000  0.09140000  1.0
  H  H12  1  0.74897000  0.02686000  0.57903000  1.0
  H  H13  1  0.25104000  0.97314000  0.42097000  1.0
  H  H14  1  0.58225000  0.93025000  0.66443000  1.0
  H  H15  1  0.41774000  0.06975000  0.33557000  1.0
  H  H16  1  0.57084000  0.39705000  0.73826000  1.0
  H  H17  1  0.42916000  0.60295000  0.26174000  1.0
  H  H18  1  0.74345000  0.50550000  0.69306000  1.0
  H  H19  1  0.25655000  0.49450000  0.30694000  1.0
  H  H20  1  0.86674000  0.47360000  0.14185000  1.0
  H  H21  1  0.13326000  0.52640000  0.85814000  1.0
  H  H22  1  0.84245000  0.37854000  0.98898000  1.0
  H  H23  1  0.15755000  0.62145000  0.01101000  1.0
  C  C24  1  0.08093000  0.63295000  0.63027000  1.0
  C  C25  1  0.91907000  0.36705000  0.36973000  1.0
  C  C26  1  0.92162000  0.75513000  0.59339000  1.0
  C  C27  1  0.07838000  0.24487000  0.40661000  1.0
  C  C28  1  0.93085000  0.89011000  0.71939000  1.0
  C  C29  1  0.06915000  0.10989000  0.28061000  1.0
  C  C30  1  0.16159000  0.97455000  0.75618000  1.0
  C  C31  1  0.83842000  0.02545000  0.24383000  1.0
  C  C32  1  0.74122000  0.99632000  0.67956000  1.0
  C  C33  1  0.25878000  0.00368000  0.32044000  1.0
  C  C34  1  0.73610000  0.14640000  0.78162000  1.0
  C  C35  1  0.26390000  0.85360000  0.21839000  1.0
  O  O36  1  0.02044000  0.51615000  0.66911000  1.0
  O  O37  1  0.97955000  0.48385000  0.33088000  1.0
  O  O38  1  0.28876000  0.66343000  0.62263000  1.0
  O  O39  1  0.71124000  0.33657000  0.37737000  1.0
  O  O40  1  0.29432000  0.96240000  0.86449000  1.0
  O  O41  1  0.70568000  0.03760000  0.13550000  1.0
  O  O42  1  0.20094000  0.05356000  0.66446000  1.0
  O  O43  1  0.79906000  0.94644000  0.33555000  1.0
  O  O44  1  0.90032000  0.83158000  0.83760000  1.0
  O  O45  1  0.09967000  0.16842000  0.16240000  1.0
  O  O46  1  0.90436000  0.20094000  0.87187000  1.0
  O  O47  1  0.09564000  0.79906000  0.12813000  1.0
  O  O48  1  0.54699000  0.21595000  0.76442000  1.0
  O  O49  1  0.45300000  0.78405000  0.23557000  1.0
  O  O50  1  0.59516000  0.50249000  0.71987000  1.0
  O  O51  1  0.40484000  0.49751000  0.28013000  1.0
  O  O52  1  0.77115000  0.45705000  0.04886000  1.0
  O  O53  1  0.22885000  0.54295000  0.95114000  1.0
