# generated using pymatgen
data_Zn4H24C28S2Br2O13
_symmetry_space_group_name_H-M   'P 1'
_cell_length_a   17.88480000
_cell_length_b   18.60120000
_cell_length_c   19.37048707
_cell_angle_alpha   118.40652994
_cell_angle_beta   116.30399696
_cell_angle_gamma   90.06600000
_symmetry_Int_Tables_number   1
_chemical_formula_structural   Zn4H24C28S2Br2O13
_chemical_formula_sum   'Zn8 H48 C56 S4 Br4 O26'
_cell_volume   4894.29526760
_cell_formula_units_Z   2
loop_
 _symmetry_equiv_pos_site_id
 _symmetry_equiv_pos_as_xyz
  1  'x, y, z'
loop_
 _atom_site_type_symbol
 _atom_site_label
 _atom_site_symmetry_multiplicity
 _atom_site_fract_x
 _atom_site_fract_y
 _atom_site_fract_z
 _atom_site_occupancy
  Zn  Zn0  1  0.13036000  0.53652000  0.07858000  1.0
  Zn  Zn1  1  0.96351000  0.38044000  0.93177000  1.0
  Zn  Zn2  1  0.96852000  0.55431000  0.93503000  1.0
  Zn  Zn3  1  0.95402000  0.54710000  0.09091000  1.0
  Zn  Zn4  1  0.37762000  0.96592000  0.93490000  1.0
  Zn  Zn5  1  0.54204000  0.95665000  0.08479000  1.0
  Zn  Zn6  1  0.53809000  0.12903000  0.08730000  1.0
  Zn  Zn7  1  0.55853000  0.96853000  0.93215000  1.0
  H  H8  1  0.21532000  0.80413000  0.12063000  1.0
  H  H9  1  0.12942000  0.78581000  0.01673000  1.0
  H  H10  1  0.21929000  0.88064000  0.02042000  1.0
  H  H11  1  0.30498000  0.89743000  0.12363000  1.0
  H  H12  1  0.19790000  0.76374000  0.87078000  1.0
  H  H13  1  0.26883000  0.69803000  0.86639000  1.0
  H  H14  1  0.10909000  0.66786000  0.86746000  1.0
  H  H15  1  0.18175000  0.60383000  0.86519000  1.0
  H  H16  1  0.31919000  0.71039000  0.11796000  1.0
  H  H17  1  0.30510000  0.62838000  0.01373000  1.0
  H  H18  1  0.39400000  0.72219000  0.01544000  1.0
  H  H19  1  0.40825000  0.80399000  0.11983000  1.0
  H  H20  1  0.90867000  0.31274000  0.12984000  1.0
  H  H21  1  0.89067000  0.23134000  0.02237000  1.0
  H  H22  1  0.80172000  0.13797000  0.02123000  1.0
  H  H23  1  0.81992000  0.22007000  0.12846000  1.0
  H  H24  1  0.67868000  0.11708000  0.87792000  1.0
  H  H25  1  0.60726000  0.18243000  0.88133000  1.0
  H  H26  1  0.76610000  0.21150000  0.87854000  1.0
  H  H27  1  0.69539000  0.27743000  0.88446000  1.0
  H  H28  1  0.80904000  0.40946000  0.13895000  1.0
  H  H29  1  0.72222000  0.39584000  0.03921000  1.0
  H  H30  1  0.63263000  0.30193000  0.03655000  1.0
  H  H31  1  0.71921000  0.31598000  0.13660000  1.0
  H  H32  1  0.17563000  0.27933000  0.08566000  1.0
  H  H33  1  0.26677000  0.36433000  0.14138000  1.0
  H  H34  1  0.35565000  0.27263000  0.14563000  1.0
  H  H35  1  0.26389000  0.18782000  0.08883000  1.0
  H  H36  1  0.40263000  0.30439000  0.05603000  1.0
  H  H37  1  0.34538000  0.24187000  0.93608000  1.0
  H  H38  1  0.31272000  0.39550000  0.05059000  1.0
  H  H39  1  0.25532000  0.33162000  0.93076000  1.0
  H  H40  1  0.09147000  0.18786000  0.91239000  1.0
  H  H41  1  0.12411000  0.20957000  0.84948000  1.0
  H  H42  1  0.21360000  0.11840000  0.85358000  1.0
  H  H43  1  0.18107000  0.09682000  0.91655000  1.0
  H  H44  1  0.91326000  0.81724000  0.09862000  1.0
  H  H45  1  0.87704000  0.79304000  0.15859000  1.0
  H  H46  1  0.78991000  0.88630000  0.15511000  1.0
  H  H47  1  0.82441000  0.90791000  0.09262000  1.0
  H  H48  1  0.66065000  0.76467000  0.07403000  1.0
  H  H49  1  0.60120000  0.70156000  0.95422000  1.0
  H  H50  1  0.74826000  0.67112000  0.07521000  1.0
  H  H51  1  0.68941000  0.60975000  0.95537000  1.0
  H  H52  1  0.82996000  0.72958000  0.92558000  1.0
  H  H53  1  0.73978000  0.64370000  0.86640000  1.0
  H  H54  1  0.64875000  0.73348000  0.86313000  1.0
  H  H55  1  0.73875000  0.81878000  0.91972000  1.0
  C  C56  1  0.14195000  0.36071000  0.99653000  1.0
  C  C57  1  0.87934000  0.38493000  0.76468000  1.0
  C  C58  1  0.14522000  0.63613000  0.00018000  1.0
  C  C59  1  0.86471000  0.64689000  0.01605000  1.0
  C  C60  1  0.13058000  0.62623000  0.25324000  1.0
  C  C61  1  0.86376000  0.37044000  0.01557000  1.0
  C  C62  1  0.36183000  0.86209000  0.00503000  1.0
  C  C63  1  0.61882000  0.12543000  0.25468000  1.0
  C  C64  1  0.35880000  0.14068000  0.00515000  1.0
  C  C65  1  0.64649000  0.14545000  0.01206000  1.0
  C  C66  1  0.38710000  0.88206000  0.76473000  1.0
  C  C67  1  0.64855000  0.86866000  0.01063000  1.0
  C  C68  1  0.27259000  0.70489000  0.41037000  1.0
  C  C69  1  0.24676000  0.80319000  0.60721000  1.0
  C  C70  1  0.18313000  0.67625000  0.35321000  1.0
  C  C71  1  0.33616000  0.83221000  0.66467000  1.0
  C  C72  1  0.22367000  0.75716000  0.51470000  1.0
  C  C73  1  0.29603000  0.75153000  0.50306000  1.0
  C  C74  1  0.79937000  0.36345000  0.60444000  1.0
  C  C75  1  0.70155000  0.14665000  0.41477000  1.0
  C  C76  1  0.82951000  0.33599000  0.66486000  1.0
  C  C77  1  0.67042000  0.17420000  0.35442000  1.0
  C  C78  1  0.74861000  0.21556000  0.50597000  1.0
  C  C79  1  0.75280000  0.29449000  0.51324000  1.0
  C  C80  1  0.19743000  0.78569000  0.05113000  1.0
  C  C81  1  0.25695000  0.84817000  0.05316000  1.0
  C  C82  1  0.30472000  0.79942000  0.00293000  1.0
  C  C83  1  0.23598000  0.73175000  0.90385000  1.0
  C  C84  1  0.17737000  0.66889000  0.90232000  1.0
  C  C85  1  0.20515000  0.69440000  0.00035000  1.0
  C  C86  1  0.29987000  0.69345000  0.04872000  1.0
  C  C87  1  0.35875000  0.75547000  0.04993000  1.0
  C  C88  1  0.85798000  0.26544000  0.05974000  1.0
  C  C89  1  0.79882000  0.20348000  0.05881000  1.0
  C  C90  1  0.70399000  0.20750000  0.01357000  1.0
  C  C91  1  0.67545000  0.18238000  0.91549000  1.0
  C  C92  1  0.73397000  0.24493000  0.91673000  1.0
  C  C93  1  0.80377000  0.31215000  0.01561000  1.0
  C  C94  1  0.75945000  0.36110000  0.06896000  1.0
  C  C95  1  0.70011000  0.29904000  0.06740000  1.0
  C  C96  1  0.23166000  0.29922000  0.08284000  1.0
  C  C97  1  0.29067000  0.23854000  0.08541000  1.0
  C  C98  1  0.29870000  0.19805000  0.99910000  1.0
  C  C99  1  0.33758000  0.27001000  0.99611000  1.0
  C  C100  1  0.27803000  0.33011000  0.99284000  1.0
  C  C101  1  0.19880000  0.29973000  0.99443000  1.0
  C  C102  1  0.14868000  0.20901000  0.91223000  1.0
  C  C103  1  0.20800000  0.14869000  0.91490000  1.0
  C  C104  1  0.85511000  0.79542000  0.09717000  1.0
  C  C105  1  0.79635000  0.85652000  0.09433000  1.0
  C  C106  1  0.70512000  0.80733000  0.00902000  1.0
  C  C107  1  0.66699000  0.73586000  0.01326000  1.0
  C  C108  1  0.72555000  0.67459000  0.01441000  1.0
  C  C109  1  0.80460000  0.70482000  0.01254000  1.0
  C  C110  1  0.77339000  0.70832000  0.92656000  1.0
  C  C111  1  0.71351000  0.76794000  0.92378000  1.0
  S  S112  1  0.12757000  0.70627000  0.41301000  1.0
  S  S113  1  0.39203000  0.80308000  0.60514000  1.0
  S  S114  1  0.80125000  0.22563000  0.61014000  1.0
  S  S115  1  0.69942000  0.28452000  0.40917000  1.0
  Br  Br116  1  0.35719000  0.68741000  0.37593000  1.0
  Br  Br117  1  0.16125000  0.81968000  0.64039000  1.0
  Br  Br118  1  0.81444000  0.47601000  0.63302000  1.0
  Br  Br119  1  0.68719000  0.03403000  0.38602000  1.0
  O  O120  1  0.00319000  0.50465000  0.01028000  1.0
  O  O121  1  0.18037000  0.43967000  0.05414000  1.0
  O  O122  1  0.89502000  0.34095000  0.80168000  1.0
  O  O123  1  0.06401000  0.62288000  0.95042000  1.0
  O  O124  1  0.06054000  0.32874000  0.94272000  1.0
  O  O125  1  0.17991000  0.60635000  0.05060000  1.0
  O  O126  1  0.90204000  0.46536000  0.80495000  1.0
  O  O127  1  0.89477000  0.62718000  0.96271000  1.0
  O  O128  1  0.04832000  0.60976000  0.21982000  1.0
  O  O129  1  0.88163000  0.62345000  0.07241000  1.0
  O  O130  1  0.17110000  0.60421000  0.20963000  1.0
  O  O131  1  0.89415000  0.33360000  0.96289000  1.0
  O  O132  1  0.87982000  0.45036000  0.06776000  1.0
  O  O133  1  0.50446000  0.00495000  0.00825000  1.0
  O  O134  1  0.32364000  0.89476000  0.95826000  1.0
  O  O135  1  0.59495000  0.04506000  0.21439000  1.0
  O  O136  1  0.43869000  0.17727000  0.06557000  1.0
  O  O137  1  0.44348000  0.87793000  0.05388000  1.0
  O  O138  1  0.32520000  0.06086000  0.95060000  1.0
  O  O139  1  0.60262000  0.16944000  0.21769000  1.0
  O  O140  1  0.61515000  0.17748000  0.06428000  1.0
  O  O141  1  0.46949000  0.90441000  0.80074000  1.0
  O  O142  1  0.63438000  0.06622000  0.95895000  1.0
  O  O143  1  0.34451000  0.89800000  0.80592000  1.0
  O  O144  1  0.62754000  0.89453000  0.07187000  1.0
  O  O145  1  0.62726000  0.89039000  0.95257000  1.0
