# generated using pymatgen
data_AgH8C8(NO)3
_symmetry_space_group_name_H-M   'P 1'
_cell_length_a   6.84253000
_cell_length_b   7.97312000
_cell_length_c   9.32659000
_cell_angle_alpha   70.89360000
_cell_angle_beta   74.19590000
_cell_angle_gamma   75.21180000
_symmetry_Int_Tables_number   1
_chemical_formula_structural   AgH8C8(NO)3
_chemical_formula_sum   'Ag2 H16 C16 N6 O6'
_cell_volume   454.83406396
_cell_formula_units_Z   2
loop_
 _symmetry_equiv_pos_site_id
 _symmetry_equiv_pos_as_xyz
  1  'x, y, z'
loop_
 _atom_site_type_symbol
 _atom_site_label
 _atom_site_symmetry_multiplicity
 _atom_site_fract_x
 _atom_site_fract_y
 _atom_site_fract_z
 _atom_site_occupancy
  Ag  Ag0  1  0.50073000  0.35047000  0.69755000  1.0
  Ag  Ag1  1  0.49927000  0.64953000  0.30245000  1.0
  H  H2  1  0.40641000  0.17881000  0.99209000  1.0
  H  H3  1  0.59359000  0.82120000  0.00790000  1.0
  H  H4  1  0.31524000  0.06602000  0.92482000  1.0
  H  H5  1  0.68476000  0.93398000  0.07518000  1.0
  H  H6  1  0.65759000  0.90215000  0.72806000  1.0
  H  H7  1  0.34242000  0.09785000  0.27194000  1.0
  H  H8  1  0.81993000  0.62068000  0.65162000  1.0
  H  H9  1  0.18007000  0.37932000  0.34838000  1.0
  H  H10  1  0.98330000  0.63050000  0.37469000  1.0
  H  H11  1  0.01670000  0.36951000  0.62531000  1.0
  H  H12  1  0.98463000  0.91951000  0.16878000  1.0
  H  H13  1  0.01537000  0.08049000  0.83122000  1.0
  H  H14  1  0.98957000  0.29049000  0.04157000  1.0
  H  H15  1  0.01043000  0.70951000  0.95844000  1.0
  H  H16  1  0.80213000  0.48441000  0.07252000  1.0
  H  H17  1  0.19787000  0.51559000  0.92748000  1.0
  C  C18  1  0.72972000  0.06983000  0.49058000  1.0
  C  C19  1  0.27029000  0.93018000  0.50942000  1.0
  C  C20  1  0.73087000  0.90615000  0.60813000  1.0
  C  C21  1  0.26912000  0.09385000  0.39187000  1.0
  C  C22  1  0.82142000  0.75006000  0.56304000  1.0
  C  C23  1  0.17858000  0.24994000  0.43696000  1.0
  C  C24  1  0.91216000  0.75586000  0.40579000  1.0
  C  C25  1  0.08784000  0.24414000  0.59421000  1.0
  C  C26  1  0.91346000  0.91676000  0.28871000  1.0
  C  C27  1  0.08653000  0.08324000  0.71129000  1.0
  C  C28  1  0.81730000  0.07440000  0.33384000  1.0
  C  C29  1  0.18270000  0.92560000  0.66617000  1.0
  C  C30  1  0.82600000  0.33862000  0.08940000  1.0
  C  C31  1  0.17400000  0.66138000  0.91060000  1.0
  C  C32  1  0.69191000  0.29938000  0.00004000  1.0
  C  C33  1  0.30809000  0.70061000  0.99996000  1.0
  N  N34  1  0.78201000  0.25332000  0.25486000  1.0
  N  N35  1  0.21799000  0.74668000  0.74514000  1.0
  N  N36  1  0.68033000  0.35258000  0.35473000  1.0
  N  N37  1  0.31967000  0.64742000  0.64527000  1.0
  N  N38  1  0.64962000  0.24425000  0.49644000  1.0
  N  N39  1  0.35038000  0.75575000  0.50356000  1.0
  O  O40  1  0.69160000  0.40078000  0.86432000  1.0
  O  O41  1  0.30841000  0.59922000  0.13568000  1.0
  O  O42  1  0.29664000  0.18937000  0.93440000  1.0
  O  O43  1  0.70336000  0.81063000  0.06560000  1.0
  O  O44  1  0.59827000  0.16621000  0.06852000  1.0
  O  O45  1  0.40172000  0.83379000  0.93149000  1.0
