# generated using pymatgen
data_ZnH15C20N2O5
_symmetry_space_group_name_H-M   'P 1'
_cell_length_a   8.54831000
_cell_length_b   9.84553000
_cell_length_c   11.50050000
_cell_angle_alpha   72.01250000
_cell_angle_beta   78.21460000
_cell_angle_gamma   70.02050000
_symmetry_Int_Tables_number   1
_chemical_formula_structural   ZnH15C20N2O5
_chemical_formula_sum   'Zn2 H30 C40 N4 O10'
_cell_volume   859.90423690
_cell_formula_units_Z   2
loop_
 _symmetry_equiv_pos_site_id
 _symmetry_equiv_pos_as_xyz
  1  'x, y, z'
loop_
 _atom_site_type_symbol
 _atom_site_label
 _atom_site_symmetry_multiplicity
 _atom_site_fract_x
 _atom_site_fract_y
 _atom_site_fract_z
 _atom_site_occupancy
  Zn  Zn0  1  0.56574000  0.54952000  0.32817000  1.0
  Zn  Zn1  1  0.43426000  0.45048000  0.67183000  1.0
  H  H2  1  0.10422000  0.82814000  0.62041000  1.0
  H  H3  1  0.89578000  0.17186000  0.37959000  1.0
  H  H4  1  0.60778000  0.95672000  0.51852000  1.0
  H  H5  1  0.39222000  0.04328000  0.48148000  1.0
  H  H6  1  0.01202000  0.64810000  0.35200000  1.0
  H  H7  1  0.98798000  0.35190000  0.64800000  1.0
  H  H8  1  0.66983000  0.03713000  0.66217000  1.0
  H  H9  1  0.33016000  0.96287000  0.33783000  1.0
  H  H10  1  0.60386000  0.15645000  0.32505000  1.0
  H  H11  1  0.39614000  0.84355000  0.67495000  1.0
  H  H12  1  0.42833000  0.21512000  0.24223000  1.0
  H  H13  1  0.57167000  0.78488000  0.75777000  1.0
  H  H14  1  0.43662000  0.31862000  0.34145000  1.0
  H  H15  1  0.56338000  0.68139000  0.65854000  1.0
  H  H16  1  0.76339000  0.71898000  0.08279000  1.0
  H  H17  1  0.23659000  0.28103000  0.91720000  1.0
  H  H18  1  0.90746000  0.76417000  0.86856000  1.0
  H  H19  1  0.09253000  0.23583000  0.13144000  1.0
  H  H20  1  0.94038000  0.59565000  0.73815000  1.0
  H  H21  1  0.05962000  0.40435000  0.26184000  1.0
  H  H22  1  0.82182000  0.38107000  0.81352000  1.0
  H  H23  1  0.17818000  0.61893000  0.18648000  1.0
  H  H24  1  0.60590000  0.23333000  0.93391000  1.0
  H  H25  1  0.39411000  0.76666000  0.06609000  1.0
  H  H26  1  0.57404000  0.13582000  0.09055000  1.0
  H  H27  1  0.42596000  0.86418000  0.90945000  1.0
  H  H28  1  0.86915000  0.05140000  0.20183000  1.0
  H  H29  1  0.13086000  0.94860000  0.79818000  1.0
  H  H30  1  0.83867000  0.10737000  0.81864000  1.0
  H  H31  1  0.16134000  0.89263000  0.18136000  1.0
  C  C32  1  0.26097000  0.66251000  0.45895000  1.0
  C  C33  1  0.73903000  0.33749000  0.54105000  1.0
  C  C34  1  0.07732000  0.73479000  0.48099000  1.0
  C  C35  1  0.92268000  0.26521000  0.51902000  1.0
  C  C36  1  0.01750000  0.82037000  0.56704000  1.0
  C  C37  1  0.98250000  0.17963000  0.43296000  1.0
  C  C38  1  0.84732000  0.90046000  0.58090000  1.0
  C  C39  1  0.15268000  0.09954000  0.41910000  1.0
  C  C40  1  0.73926000  0.89298000  0.50809000  1.0
  C  C41  1  0.26074000  0.10702000  0.49191000  1.0
  C  C42  1  0.79690000  0.79974000  0.42827000  1.0
  C  C43  1  0.20309000  0.20026000  0.57173000  1.0
  C  C44  1  0.96678000  0.72038000  0.41408000  1.0
  C  C45  1  0.03322000  0.27962000  0.58592000  1.0
  C  C46  1  0.51124000  0.25492000  0.27565000  1.0
  C  C47  1  0.48876000  0.74508000  0.72435000  1.0
  C  C48  1  0.59447000  0.34953000  0.17383000  1.0
  C  C49  1  0.40553000  0.65047000  0.82617000  1.0
  C  C50  1  0.71195000  0.52452000  0.06710000  1.0
  C  C51  1  0.28805000  0.47549000  0.93290000  1.0
  C  C52  1  0.73025000  0.43014000  0.99134000  1.0
  C  C53  1  0.26974000  0.56986000  0.00866000  1.0
  C  C54  1  0.77553000  0.64665000  0.02431000  1.0
  C  C55  1  0.22446000  0.35336000  0.97568000  1.0
  C  C56  1  0.85746000  0.66949000  0.90520000  1.0
  C  C57  1  0.14254000  0.33052000  0.09479000  1.0
  C  C58  1  0.87517000  0.57415000  0.83062000  1.0
  C  C59  1  0.12482000  0.42585000  0.16938000  1.0
  C  C60  1  0.81114000  0.45291000  0.87194000  1.0
  C  C61  1  0.18886000  0.54709000  0.12805000  1.0
  C  C62  1  0.65715000  0.19280000  0.02275000  1.0
  C  C63  1  0.34286000  0.80720000  0.97725000  1.0
  C  C64  1  0.83367000  0.09006000  0.01158000  1.0
  C  C65  1  0.16634000  0.90994000  0.98842000  1.0
  C  C66  1  0.92589000  0.02948000  0.11285000  1.0
  C  C67  1  0.07412000  0.97051000  0.88716000  1.0
  C  C68  1  0.90867000  0.06008000  0.89857000  1.0
  C  C69  1  0.09134000  0.93992000  0.10143000  1.0
  C  C70  1  0.67212000  0.78282000  0.36268000  1.0
  C  C71  1  0.32788000  0.21718000  0.63732000  1.0
  N  N72  1  0.62573000  0.47161000  0.17960000  1.0
  N  N73  1  0.37427000  0.52840000  0.82040000  1.0
  N  N74  1  0.65368000  0.32205000  0.06127000  1.0
  N  N75  1  0.34632000  0.67794000  0.93873000  1.0
  O  O76  1  0.31798000  0.62790000  0.35604000  1.0
  O  O77  1  0.68202000  0.37210000  0.64396000  1.0
  O  O78  1  0.35564000  0.64200000  0.53927000  1.0
  O  O79  1  0.64437000  0.35800000  0.46073000  1.0
  O  O80  1  0.79209000  0.98314000  0.66435000  1.0
  O  O81  1  0.20791000  0.01686000  0.33565000  1.0
  O  O82  1  0.53892000  0.88707000  0.34031000  1.0
  O  O83  1  0.46107000  0.11293000  0.65969000  1.0
  O  O84  1  0.71524000  0.65582000  0.33555000  1.0
  O  O85  1  0.28475000  0.34418000  0.66445000  1.0
