# generated using pymatgen
data_AlH7C14(NO3)2
_symmetry_space_group_name_H-M   'P 1'
_cell_length_a   6.66867000
_cell_length_b   23.20170000
_cell_length_c   26.12270000
_cell_angle_alpha   100.55000000
_cell_angle_beta   89.99970000
_cell_angle_gamma   89.99950000
_symmetry_Int_Tables_number   1
_chemical_formula_structural   AlH7C14(NO3)2
_chemical_formula_sum   'Al4 H28 C56 N8 O24'
_cell_volume   3973.49623728
_cell_formula_units_Z   4
loop_
 _symmetry_equiv_pos_site_id
 _symmetry_equiv_pos_as_xyz
  1  'x, y, z'
loop_
 _atom_site_type_symbol
 _atom_site_label
 _atom_site_symmetry_multiplicity
 _atom_site_fract_x
 _atom_site_fract_y
 _atom_site_fract_z
 _atom_site_occupancy
  Al  Al0  1  0.78912000  0.25120000  0.74868000  1.0
  Al  Al1  1  0.21087000  0.74880000  0.25133000  1.0
  Al  Al2  1  0.28912000  0.24880000  0.75132000  1.0
  Al  Al3  1  0.71088000  0.75120000  0.24868000  1.0
  H  H4  1  0.69354000  0.04589000  0.54416000  1.0
  H  H5  1  0.30646000  0.95411000  0.45584000  1.0
  H  H6  1  0.19354000  0.45411000  0.95584000  1.0
  H  H7  1  0.80646000  0.54589000  0.04417000  1.0
  H  H8  1  0.66292000  0.96546000  0.46667000  1.0
  H  H9  1  0.33709000  0.03454000  0.53333000  1.0
  H  H10  1  0.16291000  0.53454000  0.03333000  1.0
  H  H11  1  0.83709000  0.46546000  0.96667000  1.0
  H  H12  1  0.28813000  0.89797000  0.05711000  1.0
  H  H13  1  0.71188000  0.10202000  0.94288000  1.0
  H  H14  1  0.78813000  0.60202000  0.44288000  1.0
  H  H15  1  0.21188000  0.39798000  0.55712000  1.0
  H  H16  1  0.67501000  0.94638000  0.09426000  1.0
  H  H17  1  0.32500000  0.05362000  0.90573000  1.0
  H  H18  1  0.17502000  0.55362000  0.40573000  1.0
  H  H19  1  0.82499000  0.44637000  0.59426000  1.0
  H  H20  1  0.67372000  0.87900000  0.15938000  1.0
  H  H21  1  0.32629000  0.12100000  0.84062000  1.0
  H  H22  1  0.17373000  0.62100000  0.34062000  1.0
  H  H23  1  0.82627000  0.37900000  0.65938000  1.0
  H  H24  1  0.42292000  0.83274000  0.09893000  1.0
  H  H25  1  0.57709000  0.16726000  0.90107000  1.0
  H  H26  1  0.92292000  0.66726000  0.40107000  1.0
  H  H27  1  0.07708000  0.33274000  0.59893000  1.0
  H  H28  1  0.54644000  0.17368000  0.74740000  1.0
  H  H29  1  0.45356000  0.82632000  0.25260000  1.0
  H  H30  1  0.04644000  0.32632000  0.75260000  1.0
  H  H31  1  0.95356000  0.67368000  0.24740000  1.0
  C  C32  1  0.53373000  0.31441000  0.68675000  1.0
  C  C33  1  0.46627000  0.68560000  0.31326000  1.0
  C  C34  1  0.03372000  0.18560000  0.81325000  1.0
  C  C35  1  0.96626000  0.81441000  0.18675000  1.0
  C  C36  1  0.53967000  0.32569000  0.82747000  1.0
  C  C37  1  0.46034000  0.67432000  0.17254000  1.0
  C  C38  1  0.03965000  0.17432000  0.67253000  1.0
  C  C39  1  0.96034000  0.82568000  0.32747000  1.0
  C  C40  1  0.80979000  0.98080000  0.48153000  1.0
  C  C41  1  0.19020000  0.01920000  0.51848000  1.0
  C  C42  1  0.30979000  0.51920000  0.01848000  1.0
  C  C43  1  0.69020000  0.48081000  0.98152000  1.0
  C  C44  1  0.98294000  0.95456000  0.45625000  1.0
  C  C45  1  0.01705000  0.04544000  0.54375000  1.0
  C  C46  1  0.48294000  0.54544000  0.04375000  1.0
  C  C47  1  0.51705000  0.45456000  0.95625000  1.0
  C  C48  1  0.17335000  0.97450000  0.47552000  1.0
  C  C49  1  0.82664000  0.02550000  0.52449000  1.0
  C  C50  1  0.67335000  0.52550000  0.02449000  1.0
  C  C51  1  0.32664000  0.47450000  0.97552000  1.0
  C  C52  1  0.96808000  0.90920000  0.41210000  1.0
  C  C53  1  0.03191000  0.09081000  0.58790000  1.0
  C  C54  1  0.46808000  0.59080000  0.08790000  1.0
  C  C55  1  0.53191000  0.40920000  0.91210000  1.0
  C  C56  1  0.03928000  0.12972000  0.62612000  1.0
  C  C57  1  0.96071000  0.87028000  0.37388000  1.0
  C  C58  1  0.53928000  0.37029000  0.87388000  1.0
  C  C59  1  0.46071000  0.62972000  0.12613000  1.0
  C  C60  1  0.15282000  0.85648000  0.11631000  1.0
  C  C61  1  0.84718000  0.14352000  0.88369000  1.0
  C  C62  1  0.65283000  0.64352000  0.38369000  1.0
  C  C63  1  0.34718000  0.35648000  0.61631000  1.0
  C  C64  1  0.15307000  0.89365000  0.07975000  1.0
  C  C65  1  0.84693000  0.10634000  0.92024000  1.0
  C  C66  1  0.65308000  0.60634000  0.42024000  1.0
  C  C67  1  0.34693000  0.39365000  0.57975000  1.0
  C  C68  1  0.98285000  0.92602000  0.07164000  1.0
  C  C69  1  0.01715000  0.07398000  0.92836000  1.0
  C  C70  1  0.48286000  0.57398000  0.42836000  1.0
  C  C71  1  0.51715000  0.42602000  0.57164000  1.0
  C  C72  1  0.80697000  0.92078000  0.10026000  1.0
  C  C73  1  0.19304000  0.07922000  0.89973000  1.0
  C  C74  1  0.30697000  0.57922000  0.39973000  1.0
  C  C75  1  0.69304000  0.42078000  0.60027000  1.0
  C  C76  1  0.80698000  0.88363000  0.13632000  1.0
  C  C77  1  0.19302000  0.11637000  0.86368000  1.0
  C  C78  1  0.30699000  0.61637000  0.36368000  1.0
  C  C79  1  0.69301000  0.38363000  0.63632000  1.0
  C  C80  1  0.97714000  0.85132000  0.14564000  1.0
  C  C81  1  0.02287000  0.14868000  0.85435000  1.0
  C  C82  1  0.47714000  0.64868000  0.35436000  1.0
  C  C83  1  0.52286000  0.35132000  0.64564000  1.0
  C  C84  1  0.00869000  0.03467000  0.96651000  1.0
  C  C85  1  0.99131000  0.96533000  0.03348000  1.0
  C  C86  1  0.50869000  0.46533000  0.53349000  1.0
  C  C87  1  0.49132000  0.53467000  0.46651000  1.0
  N  N88  1  0.82655000  0.99760000  0.02748000  1.0
  N  N89  1  0.17346000  0.00240000  0.97251000  1.0
  N  N90  1  0.32655000  0.50240000  0.47251000  1.0
  N  N91  1  0.67346000  0.49760000  0.52749000  1.0
  N  N92  1  0.83560000  0.03284000  0.99341000  1.0
  N  N93  1  0.16440000  0.96716000  0.00658000  1.0
  N  N94  1  0.33560000  0.46716000  0.50658000  1.0
  N  N95  1  0.66440000  0.53284000  0.49342000  1.0
  O  O96  1  0.36807000  0.30671000  0.81086000  1.0
  O  O97  1  0.63191000  0.69329000  0.18914000  1.0
  O  O98  1  0.86808000  0.19329000  0.68914000  1.0
  O  O99  1  0.13192000  0.80671000  0.31086000  1.0
  O  O100  1  0.70828000  0.30117000  0.70101000  1.0
  O  O101  1  0.29171000  0.69883000  0.29899000  1.0
  O  O102  1  0.20829000  0.19883000  0.79899000  1.0
  O  O103  1  0.79171000  0.80117000  0.20101000  1.0
  O  O104  1  0.70968000  0.31045000  0.80724000  1.0
  O  O105  1  0.29031000  0.68956000  0.19276000  1.0
  O  O106  1  0.20969000  0.18955000  0.69276000  1.0
  O  O107  1  0.79031000  0.81045000  0.30724000  1.0
  O  O108  1  0.86927000  0.19979000  0.79453000  1.0
  O  O109  1  0.13074000  0.80022000  0.20548000  1.0
  O  O110  1  0.36925000  0.30022000  0.70548000  1.0
  O  O111  1  0.63075000  0.69978000  0.29452000  1.0
  O  O112  1  0.54060000  0.21509000  0.74626000  1.0
  O  O113  1  0.45940000  0.78491000  0.25374000  1.0
  O  O114  1  0.04060000  0.28491000  0.75374000  1.0
  O  O115  1  0.95940000  0.71509000  0.24626000  1.0
  O  O116  1  0.31945000  0.82500000  0.12324000  1.0
  O  O117  1  0.68055000  0.17500000  0.87676000  1.0
  O  O118  1  0.81946000  0.67500000  0.37676000  1.0
  O  O119  1  0.18054000  0.32500000  0.62324000  1.0
