# generated using pymatgen
data_Zn3H25C42N5O13
_symmetry_space_group_name_H-M   'P 1'
_cell_length_a   10.15000000
_cell_length_b   22.99000000
_cell_length_c   26.80530000
_cell_angle_alpha   89.99990000
_cell_angle_beta   84.74920000
_cell_angle_gamma   89.99960000
_symmetry_Int_Tables_number   1
_chemical_formula_structural   Zn3H25C42N5O13
_chemical_formula_sum   'Zn12 H100 C168 N20 O52'
_cell_volume   6228.72847527
_cell_formula_units_Z   4
loop_
 _symmetry_equiv_pos_site_id
 _symmetry_equiv_pos_as_xyz
  1  'x, y, z'
loop_
 _atom_site_type_symbol
 _atom_site_label
 _atom_site_symmetry_multiplicity
 _atom_site_fract_x
 _atom_site_fract_y
 _atom_site_fract_z
 _atom_site_occupancy
  Zn  Zn0  1  0.34217000  0.80973000  0.72816000  1.0
  Zn  Zn1  1  0.15783000  0.30973000  0.77184000  1.0
  Zn  Zn2  1  0.65784000  0.19027000  0.27184000  1.0
  Zn  Zn3  1  0.84217000  0.69027000  0.22816000  1.0
  Zn  Zn4  1  0.03802000  0.75198000  0.81616000  1.0
  Zn  Zn5  1  0.46197000  0.25198000  0.68384000  1.0
  Zn  Zn6  1  0.96198000  0.24802000  0.18384000  1.0
  Zn  Zn7  1  0.53803000  0.74802000  0.31616000  1.0
  Zn  Zn8  1  0.37000000  0.49021000  0.99272000  1.0
  Zn  Zn9  1  0.13000000  0.99021000  0.50728000  1.0
  Zn  Zn10  1  0.63000000  0.50980000  0.00728000  1.0
  Zn  Zn11  1  0.87000000  0.00979000  0.49272000  1.0
  H  H12  1  0.13384000  0.52568000  0.99727000  1.0
  H  H13  1  0.36616000  0.02568000  0.50273000  1.0
  H  H14  1  0.86616000  0.47432000  0.00273000  1.0
  H  H15  1  0.63384000  0.97432000  0.49727000  1.0
  H  H16  1  0.15841000  0.49732000  0.94460000  1.0
  H  H17  1  0.34159000  0.99732000  0.55540000  1.0
  H  H18  1  0.84159000  0.50268000  0.05540000  1.0
  H  H19  1  0.65840000  0.00268000  0.44460000  1.0
  H  H20  1  0.30919000  0.63203000  0.88974000  1.0
  H  H21  1  0.19080000  0.13203000  0.61026000  1.0
  H  H22  1  0.69081000  0.36797000  0.11026000  1.0
  H  H23  1  0.80919000  0.86797000  0.38974000  1.0
  H  H24  1  0.72912000  0.64541000  0.89982000  1.0
  H  H25  1  0.77088000  0.14541000  0.60018000  1.0
  H  H26  1  0.27089000  0.35459000  0.10018000  1.0
  H  H27  1  0.22911000  0.85459000  0.39982000  1.0
  H  H28  1  0.53933000  0.75857000  0.80088000  1.0
  H  H29  1  0.96067000  0.25857000  0.69912000  1.0
  H  H30  1  0.46067000  0.24143000  0.19912000  1.0
  H  H31  1  0.03933000  0.74143000  0.30088000  1.0
  H  H32  1  0.78722000  0.78907000  0.73005000  1.0
  H  H33  1  0.71278000  0.28907000  0.76994000  1.0
  H  H34  1  0.21278000  0.21093000  0.26994000  1.0
  H  H35  1  0.28723000  0.71093000  0.23006000  1.0
  H  H36  1  0.67284000  0.89117000  0.60663000  1.0
  H  H37  1  0.82714000  0.39117000  0.89337000  1.0
  H  H38  1  0.32716000  0.10883000  0.39336000  1.0
  H  H39  1  0.17285000  0.60883000  0.10664000  1.0
  H  H40  1  0.08284000  0.88151000  0.63550000  1.0
  H  H41  1  0.41715000  0.38150000  0.86450000  1.0
  H  H42  1  0.91716000  0.11849000  0.36450000  1.0
  H  H43  1  0.58285000  0.61849000  0.13550000  1.0
  H  H44  1  0.47800000  0.15751000  0.18558000  1.0
  H  H45  1  0.02200000  0.65751000  0.31442000  1.0
  H  H46  1  0.52200000  0.84249000  0.81442000  1.0
  H  H47  1  0.97800000  0.34249000  0.68558000  1.0
  H  H48  1  0.73383000  0.04373000  0.25274000  1.0
  H  H49  1  0.76617000  0.54373000  0.24726000  1.0
  H  H50  1  0.26617000  0.95627000  0.74726000  1.0
  H  H51  1  0.23383000  0.45627000  0.75275000  1.0
  H  H52  1  0.61454000  0.98268000  0.17983000  1.0
  H  H53  1  0.88545000  0.48268000  0.32017000  1.0
  H  H54  1  0.38546000  0.01732000  0.82017000  1.0
  H  H55  1  0.11454000  0.51732000  0.67983000  1.0
  H  H56  1  0.33034000  0.13780000  0.14058000  1.0
  H  H57  1  0.16966000  0.63780000  0.35942000  1.0
  H  H58  1  0.66967000  0.86220000  0.85942000  1.0
  H  H59  1  0.83034000  0.36220000  0.64058000  1.0
  H  H60  1  0.21782000  0.12672000  0.06502000  1.0
  H  H61  1  0.28218000  0.62672000  0.43498000  1.0
  H  H62  1  0.78218000  0.87329000  0.93498000  1.0
  H  H63  1  0.71782000  0.37329000  0.56502000  1.0
  H  H64  1  0.41699000  0.96339000  0.03257000  1.0
  H  H65  1  0.08302000  0.46338000  0.46743000  1.0
  H  H66  1  0.58301000  0.03661000  0.96743000  1.0
  H  H67  1  0.91698000  0.53662000  0.53257000  1.0
  H  H68  1  0.53697000  0.97488000  0.10738000  1.0
  H  H69  1  0.96304000  0.47488000  0.39262000  1.0
  H  H70  1  0.46303000  0.02512000  0.89262000  1.0
  H  H71  1  0.03697000  0.52512000  0.60738000  1.0
  H  H72  1  0.21011000  0.94868000  0.99739000  1.0
  H  H73  1  0.28989000  0.44868000  0.50261000  1.0
  H  H74  1  0.78989000  0.05132000  0.00261000  1.0
  H  H75  1  0.71011000  0.55132000  0.49739000  1.0
  H  H76  1  0.27544000  0.13225000  0.97773000  1.0
  H  H77  1  0.22456000  0.63225000  0.52227000  1.0
  H  H78  1  0.72456000  0.86775000  0.02227000  1.0
  H  H79  1  0.77544000  0.36775000  0.47773000  1.0
  H  H80  1  0.17421000  0.78504000  0.90509000  1.0
  H  H81  1  0.32579000  0.28504000  0.59491000  1.0
  H  H82  1  0.82579000  0.21496000  0.09490000  1.0
  H  H83  1  0.67421000  0.71496000  0.40509000  1.0
  H  H84  1  0.23292000  0.87439000  0.94994000  1.0
  H  H85  1  0.26708000  0.37439000  0.55006000  1.0
  H  H86  1  0.76708000  0.12561000  0.05006000  1.0
  H  H87  1  0.73291000  0.62560000  0.44994000  1.0
  H  H88  1  0.00466000  0.97249000  0.85072000  1.0
  H  H89  1  0.49534000  0.47249000  0.64928000  1.0
  H  H90  1  0.99534000  0.02751000  0.14928000  1.0
  H  H91  1  0.50466000  0.52751000  0.35072000  1.0
  H  H92  1  0.95077000  0.87745000  0.81059000  1.0
  H  H93  1  0.54923000  0.37745000  0.68941000  1.0
  H  H94  1  0.04924000  0.12255000  0.18941000  1.0
  H  H95  1  0.45077000  0.62255000  0.31058000  1.0
  H  H96  1  0.13719000  0.17425000  0.76387000  1.0
  H  H97  1  0.36282000  0.67425000  0.73613000  1.0
  H  H98  1  0.86282000  0.82575000  0.23613000  1.0
  H  H99  1  0.63718000  0.32575000  0.26387000  1.0
  H  H100  1  0.14079000  0.08709000  0.81990000  1.0
  H  H101  1  0.35922000  0.58709000  0.68010000  1.0
  H  H102  1  0.85922000  0.91291000  0.18010000  1.0
  H  H103  1  0.64078000  0.41292000  0.31990000  1.0
  H  H104  1  0.21852000  0.20472000  0.93957000  1.0
  H  H105  1  0.28147000  0.70472000  0.56043000  1.0
  H  H106  1  0.78148000  0.79528000  0.06043000  1.0
  H  H107  1  0.71852000  0.29528000  0.43957000  1.0
  H  H108  1  0.21363000  0.28577000  0.87875000  1.0
  H  H109  1  0.28636000  0.78577000  0.62125000  1.0
  H  H110  1  0.78637000  0.71423000  0.12125000  1.0
  H  H111  1  0.71363000  0.21423000  0.37875000  1.0
  C  C112  1  0.28851000  0.72171000  0.82454000  1.0
  C  C113  1  0.21148000  0.22171000  0.67546000  1.0
  C  C114  1  0.71148000  0.27829000  0.17546000  1.0
  C  C115  1  0.78852000  0.77829000  0.32454000  1.0
  C  C116  1  0.51170000  0.58457000  0.93526000  1.0
  C  C117  1  0.98829000  0.08457000  0.56474000  1.0
  C  C118  1  0.48830000  0.41543000  0.06474000  1.0
  C  C119  1  0.01170000  0.91543000  0.43526000  1.0
  C  C120  1  0.77384000  0.73832000  0.83700000  1.0
  C  C121  1  0.72615000  0.23832000  0.66300000  1.0
  C  C122  1  0.22616000  0.26167000  0.16300000  1.0
  C  C123  1  0.27384000  0.76167000  0.33700000  1.0
  C  C124  1  0.41080000  0.69806000  0.84356000  1.0
  C  C125  1  0.08919000  0.19806000  0.65644000  1.0
  C  C126  1  0.58920000  0.30194000  0.15644000  1.0
  C  C127  1  0.91080000  0.80194000  0.34356000  1.0
  C  C128  1  0.40388000  0.65238000  0.87815000  1.0
  C  C129  1  0.09611000  0.15238000  0.62185000  1.0
  C  C130  1  0.59612000  0.34763000  0.12185000  1.0
  C  C131  1  0.90388000  0.84762000  0.37815000  1.0
  C  C132  1  0.51863000  0.63337000  0.89825000  1.0
  C  C133  1  0.98137000  0.13337000  0.60175000  1.0
  C  C134  1  0.48137000  0.36664000  0.10175000  1.0
  C  C135  1  0.01863000  0.86663000  0.39825000  1.0
  C  C136  1  0.63991000  0.66038000  0.88416000  1.0
  C  C137  1  0.86009000  0.16039000  0.61584000  1.0
  C  C138  1  0.36010000  0.33962000  0.11584000  1.0
  C  C139  1  0.13990000  0.83962000  0.38416000  1.0
  C  C140  1  0.64647000  0.70666000  0.85023000  1.0
  C  C141  1  0.85353000  0.20666000  0.64976000  1.0
  C  C142  1  0.35353000  0.29334000  0.14976000  1.0
  C  C143  1  0.14647000  0.79334000  0.35024000  1.0
  C  C144  1  0.53238000  0.72472000  0.82936000  1.0
  C  C145  1  0.96761000  0.22473000  0.67064000  1.0
  C  C146  1  0.46762000  0.27528000  0.17064000  1.0
  C  C147  1  0.03238000  0.77528000  0.32936000  1.0
  C  C148  1  0.05195000  0.81146000  0.71677000  1.0
  C  C149  1  0.44805000  0.31146000  0.78323000  1.0
  C  C150  1  0.94805000  0.18854000  0.28323000  1.0
  C  C151  1  0.55196000  0.68853000  0.21677000  1.0
  C  C152  1  0.57343000  0.82499000  0.68533000  1.0
  C  C153  1  0.92656000  0.32499000  0.81467000  1.0
  C  C154  1  0.42657000  0.17501000  0.31467000  1.0
  C  C155  1  0.07344000  0.67501000  0.18533000  1.0
  C  C156  1  0.92072000  0.92831000  0.57210000  1.0
  C  C157  1  0.57926000  0.42831000  0.92790000  1.0
  C  C158  1  0.07928000  0.07169000  0.42790000  1.0
  C  C159  1  0.42072000  0.57169000  0.07210000  1.0
  C  C160  1  0.94667000  0.83208000  0.68540000  1.0
  C  C161  1  0.55332000  0.33208000  0.81460000  1.0
  C  C162  1  0.05333000  0.16792000  0.31460000  1.0
  C  C163  1  0.44668000  0.66792000  0.18540000  1.0
  C  C164  1  0.81435000  0.81647000  0.69762000  1.0
  C  C165  1  0.68564000  0.31646000  0.80238000  1.0
  C  C166  1  0.18564000  0.18353000  0.30238000  1.0
  C  C167  1  0.31436000  0.68353000  0.19762000  1.0
  C  C168  1  0.71560000  0.83811000  0.66944000  1.0
  C  C169  1  0.78440000  0.33811000  0.83056000  1.0
  C  C170  1  0.28440000  0.16189000  0.33057000  1.0
  C  C171  1  0.21561000  0.66189000  0.16944000  1.0
  C  C172  1  0.74998000  0.87419000  0.62829000  1.0
  C  C173  1  0.75001000  0.37419000  0.87171000  1.0
  C  C174  1  0.25002000  0.12581000  0.37171000  1.0
  C  C175  1  0.24999000  0.62581000  0.12829000  1.0
  C  C176  1  0.88249000  0.88912000  0.61553000  1.0
  C  C177  1  0.61750000  0.38911000  0.88447000  1.0
  C  C178  1  0.11752000  0.11088000  0.38447000  1.0
  C  C179  1  0.38249000  0.61088000  0.11553000  1.0
  C  C180  1  0.98030000  0.86858000  0.64453000  1.0
  C  C181  1  0.51969000  0.36857000  0.85547000  1.0
  C  C182  1  0.01970000  0.13142000  0.35547000  1.0
  C  C183  1  0.48031000  0.63142000  0.14453000  1.0
  C  C184  1  0.53298000  0.11892000  0.19394000  1.0
  C  C185  1  0.96702000  0.61892000  0.30606000  1.0
  C  C186  1  0.46702000  0.88108000  0.80606000  1.0
  C  C187  1  0.03298000  0.38108000  0.69394000  1.0
  C  C188  1  0.66331000  0.05829000  0.22741000  1.0
  C  C189  1  0.83668000  0.55829000  0.27259000  1.0
  C  C190  1  0.33669000  0.94171000  0.77259000  1.0
  C  C191  1  0.16332000  0.44171000  0.72741000  1.0
  C  C192  1  0.60493000  0.02765000  0.19144000  1.0
  C  C193  1  0.89507000  0.52765000  0.30856000  1.0
  C  C194  1  0.39508000  0.97235000  0.80856000  1.0
  C  C195  1  0.10493000  0.47235000  0.69144000  1.0
  C  C196  1  0.44583000  0.05762000  0.12874000  1.0
  C  C197  1  0.05417000  0.55762000  0.37126000  1.0
  C  C198  1  0.55417000  0.94238000  0.87126000  1.0
  C  C199  1  0.94583000  0.44238000  0.62874000  1.0
  C  C200  1  0.35356000  0.09976000  0.11685000  1.0
  C  C201  1  0.14644000  0.59976000  0.38314000  1.0
  C  C202  1  0.64645000  0.90024000  0.88315000  1.0
  C  C203  1  0.85356000  0.40024000  0.61685000  1.0
  C  C204  1  0.28859000  0.09333000  0.07376000  1.0
  C  C205  1  0.21141000  0.59333000  0.42624000  1.0
  C  C206  1  0.71141000  0.90667000  0.92624000  1.0
  C  C207  1  0.78859000  0.40667000  0.57376000  1.0
  C  C208  1  0.31000000  0.04469000  0.04227000  1.0
  C  C209  1  0.19000000  0.54469000  0.45773000  1.0
  C  C210  1  0.69000000  0.95531000  0.95773000  1.0
  C  C211  1  0.80999000  0.45531000  0.54227000  1.0
  C  C212  1  0.39704000  0.00140000  0.05638000  1.0
  C  C213  1  0.10296000  0.50140000  0.44362000  1.0
  C  C214  1  0.60296000  0.99859000  0.94362000  1.0
  C  C215  1  0.89704000  0.49860000  0.55638000  1.0
  C  C216  1  0.46558000  0.00790000  0.09876000  1.0
  C  C217  1  0.03442000  0.50790000  0.40124000  1.0
  C  C218  1  0.53442000  0.99210000  0.90124000  1.0
  C  C219  1  0.96558000  0.49210000  0.59876000  1.0
  C  C220  1  0.16034000  0.98702000  0.92748000  1.0
  C  C221  1  0.33965000  0.48702000  0.57252000  1.0
  C  C222  1  0.83966000  0.01298000  0.07252000  1.0
  C  C223  1  0.66034000  0.51298000  0.42748000  1.0
  C  C224  1  0.20726000  0.98820000  0.97509000  1.0
  C  C225  1  0.29274000  0.48820000  0.52491000  1.0
  C  C226  1  0.79274000  0.01180000  0.02491000  1.0
  C  C227  1  0.70726000  0.51180000  0.47509000  1.0
  C  C228  1  0.24959000  0.04100000  0.99436000  1.0
  C  C229  1  0.25041000  0.54100000  0.50564000  1.0
  C  C230  1  0.75041000  0.95900000  0.00564000  1.0
  C  C231  1  0.74959000  0.45900000  0.49436000  1.0
  C  C232  1  0.23908000  0.09084000  0.96479000  1.0
  C  C233  1  0.26092000  0.59084000  0.53521000  1.0
  C  C234  1  0.76092000  0.90916000  0.03521000  1.0
  C  C235  1  0.73908000  0.40916000  0.46479000  1.0
  C  C236  1  0.18881000  0.08656000  0.91790000  1.0
  C  C237  1  0.31119000  0.58656000  0.58210000  1.0
  C  C238  1  0.81120000  0.91344000  0.08210000  1.0
  C  C239  1  0.68881000  0.41344000  0.41790000  1.0
  C  C240  1  0.13743000  0.82746000  0.89455000  1.0
  C  C241  1  0.36256000  0.32746000  0.60545000  1.0
  C  C242  1  0.86257000  0.17254000  0.10545000  1.0
  C  C243  1  0.63744000  0.67254000  0.39455000  1.0
  C  C244  1  0.16904000  0.87773000  0.91956000  1.0
  C  C245  1  0.33095000  0.37773000  0.58044000  1.0
  C  C246  1  0.83096000  0.12227000  0.08044000  1.0
  C  C247  1  0.66904000  0.62227000  0.41956000  1.0
  C  C248  1  0.12271000  0.93169000  0.90403000  1.0
  C  C249  1  0.37728000  0.43169000  0.59597000  1.0
  C  C250  1  0.87729000  0.06831000  0.09597000  1.0
  C  C251  1  0.62271000  0.56831000  0.40403000  1.0
  C  C252  1  0.04292000  0.93162000  0.86397000  1.0
  C  C253  1  0.45709000  0.43162000  0.63603000  1.0
  C  C254  1  0.95708000  0.06838000  0.13602000  1.0
  C  C255  1  0.54291000  0.56838000  0.36397000  1.0
  C  C256  1  0.01420000  0.87937000  0.84124000  1.0
  C  C257  1  0.48580000  0.37937000  0.65876000  1.0
  C  C258  1  0.98580000  0.12062000  0.15876000  1.0
  C  C259  1  0.51420000  0.62062000  0.34124000  1.0
  C  C260  1  0.15658000  0.17880000  0.80302000  1.0
  C  C261  1  0.34342000  0.67880000  0.69698000  1.0
  C  C262  1  0.84343000  0.82120000  0.19698000  1.0
  C  C263  1  0.65658000  0.32120000  0.30302000  1.0
  C  C264  1  0.15802000  0.13050000  0.83418000  1.0
  C  C265  1  0.34199000  0.63050000  0.66582000  1.0
  C  C266  1  0.84199000  0.86950000  0.16582000  1.0
  C  C267  1  0.65801000  0.36950000  0.33418000  1.0
  C  C268  1  0.18222000  0.13792000  0.88450000  1.0
  C  C269  1  0.31778000  0.63792000  0.61549000  1.0
  C  C270  1  0.81779000  0.86208000  0.11550000  1.0
  C  C271  1  0.68222000  0.36208000  0.38450000  1.0
  C  C272  1  0.20201000  0.19500000  0.90086000  1.0
  C  C273  1  0.29798000  0.69500000  0.59914000  1.0
  C  C274  1  0.79799000  0.80500000  0.09914000  1.0
  C  C275  1  0.70202000  0.30500000  0.40086000  1.0
  C  C276  1  0.19946000  0.24091000  0.86712000  1.0
  C  C277  1  0.30054000  0.74091000  0.63288000  1.0
  C  C278  1  0.80054000  0.75909000  0.13288000  1.0
  C  C279  1  0.69947000  0.25909000  0.36712000  1.0
  N  N280  1  0.52137000  0.06669000  0.17005000  1.0
  N  N281  1  0.97862000  0.56669000  0.32995000  1.0
  N  N282  1  0.47863000  0.93331000  0.82995000  1.0
  N  N283  1  0.02137000  0.43331000  0.67005000  1.0
  N  N284  1  0.61803000  0.11501000  0.22829000  1.0
  N  N285  1  0.88197000  0.61501000  0.27172000  1.0
  N  N286  1  0.38197000  0.88499000  0.77171000  1.0
  N  N287  1  0.11803000  0.38499000  0.72829000  1.0
  N  N288  1  0.15046000  0.03530000  0.89972000  1.0
  N  N289  1  0.34953000  0.53530000  0.60028000  1.0
  N  N290  1  0.84953000  0.96470000  0.10028000  1.0
  N  N291  1  0.65046000  0.46470000  0.39972000  1.0
  N  N292  1  0.06190000  0.82807000  0.85583000  1.0
  N  N293  1  0.43810000  0.32807000  0.64417000  1.0
  N  N294  1  0.93810000  0.17193000  0.14417000  1.0
  N  N295  1  0.56190000  0.67193000  0.35582000  1.0
  N  N296  1  0.17818000  0.23312000  0.81882000  1.0
  N  N297  1  0.32182000  0.73312000  0.68118000  1.0
  N  N298  1  0.82182000  0.76688000  0.18118000  1.0
  N  N299  1  0.67818000  0.26688000  0.31883000  1.0
  O  O300  1  0.29548000  0.76566000  0.79574000  1.0
  O  O301  1  0.20452000  0.26566000  0.70426000  1.0
  O  O302  1  0.70452000  0.23435000  0.20426000  1.0
  O  O303  1  0.79548000  0.73435000  0.29574000  1.0
  O  O304  1  0.17681000  0.69905000  0.84048000  1.0
  O  O305  1  0.32318000  0.19905000  0.65952000  1.0
  O  O306  1  0.82319000  0.30095000  0.15952000  1.0
  O  O307  1  0.67681000  0.80095000  0.34048000  1.0
  O  O308  1  0.40084000  0.55871000  0.94368000  1.0
  O  O309  1  0.09916000  0.05871000  0.55632000  1.0
  O  O310  1  0.59917000  0.44129000  0.05632000  1.0
  O  O311  1  0.90084000  0.94129000  0.44368000  1.0
  O  O312  1  0.61754000  0.57285000  0.95546000  1.0
  O  O313  1  0.88246000  0.07285000  0.54454000  1.0
  O  O314  1  0.38247000  0.42716000  0.04454000  1.0
  O  O315  1  0.11754000  0.92715000  0.45547000  1.0
  O  O316  1  0.87993000  0.70778000  0.83999000  1.0
  O  O317  1  0.62007000  0.20778000  0.66001000  1.0
  O  O318  1  0.12008000  0.29222000  0.16001000  1.0
  O  O319  1  0.37993000  0.79222000  0.33999000  1.0
  O  O320  1  0.77194000  0.79105000  0.82465000  1.0
  O  O321  1  0.72806000  0.29105000  0.67535000  1.0
  O  O322  1  0.22807000  0.20895000  0.17534000  1.0
  O  O323  1  0.27193000  0.70895000  0.32465000  1.0
  O  O324  1  0.16116000  0.83915000  0.71285000  1.0
  O  O325  1  0.33884000  0.33915000  0.78715000  1.0
  O  O326  1  0.83884000  0.16085000  0.28715000  1.0
  O  O327  1  0.66117000  0.66085000  0.21285000  1.0
  O  O328  1  0.02354000  0.76752000  0.74494000  1.0
  O  O329  1  0.47646000  0.26752000  0.75506000  1.0
  O  O330  1  0.97646000  0.23248000  0.25506000  1.0
  O  O331  1  0.52353000  0.73248000  0.24494000  1.0
  O  O332  1  0.54842000  0.79153000  0.72345000  1.0
  O  O333  1  0.95158000  0.29153000  0.77655000  1.0
  O  O334  1  0.45158000  0.20847000  0.27655000  1.0
  O  O335  1  0.04843000  0.70847000  0.22345000  1.0
  O  O336  1  0.48168000  0.84817000  0.66286000  1.0
  O  O337  1  0.01831000  0.34817000  0.83714000  1.0
  O  O338  1  0.51832000  0.15183000  0.33714000  1.0
  O  O339  1  0.98169000  0.65183000  0.16286000  1.0
  O  O340  1  0.04427000  0.93744000  0.56182000  1.0
  O  O341  1  0.45571000  0.43744000  0.93818000  1.0
  O  O342  1  0.95574000  0.06255000  0.43818000  1.0
  O  O343  1  0.54427000  0.56256000  0.06182000  1.0
  O  O344  1  0.82793000  0.94989000  0.54888000  1.0
  O  O345  1  0.67205000  0.44988000  0.95113000  1.0
  O  O346  1  0.17208000  0.05011000  0.45112000  1.0
  O  O347  1  0.32793000  0.55011000  0.04888000  1.0
  O  O348  1  0.16469000  0.48999000  0.98015000  1.0
  O  O349  1  0.33531000  0.98998000  0.51985000  1.0
  O  O350  1  0.83531000  0.51002000  0.01985000  1.0
  O  O351  1  0.66469000  0.01002000  0.48015000  1.0
