# generated using pymatgen
data_CdH20C26(N2O5)2
_symmetry_space_group_name_H-M   'P 1'
_cell_length_a   7.87283000
_cell_length_b   8.83574000
_cell_length_c   9.71078000
_cell_angle_alpha   78.27500000
_cell_angle_beta   77.66260000
_cell_angle_gamma   74.27620000
_symmetry_Int_Tables_number   1
_chemical_formula_structural   CdH20C26(N2O5)2
_chemical_formula_sum   'Cd1 H20 C26 N4 O10'
_cell_volume   627.58011893
_cell_formula_units_Z   1
loop_
 _symmetry_equiv_pos_site_id
 _symmetry_equiv_pos_as_xyz
  1  'x, y, z'
loop_
 _atom_site_type_symbol
 _atom_site_label
 _atom_site_symmetry_multiplicity
 _atom_site_fract_x
 _atom_site_fract_y
 _atom_site_fract_z
 _atom_site_occupancy
  Cd  Cd0  1  0.00000000  0.50000000  0.50000000  1.0
  H  H1  1  0.42959000  0.99839000  0.23912000  1.0
  H  H2  1  0.57042000  0.00163000  0.76088000  1.0
  H  H3  1  0.22542000  0.82768000  0.14066000  1.0
  H  H4  1  0.77459000  0.17232000  0.85933000  1.0
  H  H5  1  0.68667000  0.48273000  0.04235000  1.0
  H  H6  1  0.31332000  0.51727000  0.95765000  1.0
  H  H7  1  0.86901000  0.38533000  0.92193000  1.0
  H  H8  1  0.13099000  0.61466000  0.07808000  1.0
  H  H9  1  0.67246000  0.15396000  0.36633000  1.0
  H  H10  1  0.32753000  0.84604000  0.63367000  1.0
  H  H11  1  0.28496000  0.69547000  0.35542000  1.0
  H  H12  1  0.71504000  0.30454000  0.64458000  1.0
  H  H13  1  0.33717000  0.20910000  0.45344000  1.0
  H  H14  1  0.66282000  0.79090000  0.54657000  1.0
  H  H15  1  0.61150000  0.66386000  0.25432000  1.0
  H  H16  1  0.38849000  0.33614000  0.74569000  1.0
  H  H17  1  0.17272000  0.28690000  0.99712000  1.0
  H  H18  1  0.82728000  0.71309000  0.00289000  1.0
  H  H19  1  0.19228000  0.32731000  0.16486000  1.0
  H  H20  1  0.80772000  0.67269000  0.83515000  1.0
  C  C21  1  0.94350000  0.92554000  0.14131000  1.0
  C  C22  1  0.05651000  0.07446000  0.85868000  1.0
  C  C23  1  0.12420000  0.90440000  0.08007000  1.0
  C  C24  1  0.87581000  0.09560000  0.91992000  1.0
  C  C25  1  0.81684000  0.02389000  0.05813000  1.0
  C  C26  1  0.18316000  0.97611000  0.94186000  1.0
  C  C27  1  0.82996000  0.46673000  0.00114000  1.0
  C  C28  1  0.17004000  0.53326000  0.99886000  1.0
  C  C29  1  0.58894000  0.27570000  0.35756000  1.0
  C  C30  1  0.41105000  0.72431000  0.64244000  1.0
  C  C31  1  0.66541000  0.40526000  0.29954000  1.0
  C  C32  1  0.33458000  0.59474000  0.70046000  1.0
  C  C33  1  0.37519000  0.57807000  0.35027000  1.0
  C  C34  1  0.62480000  0.42194000  0.64973000  1.0
  C  C35  1  0.40525000  0.30503000  0.40613000  1.0
  C  C36  1  0.59474000  0.69497000  0.59388000  1.0
  C  C37  1  0.55654000  0.55971000  0.29547000  1.0
  C  C38  1  0.44346000  0.44029000  0.70453000  1.0
  C  C39  1  0.90091000  0.84109000  0.29273000  1.0
  C  C40  1  0.09910000  0.15891000  0.70726000  1.0
  C  C41  1  0.86482000  0.37414000  0.25641000  1.0
  C  C42  1  0.13517000  0.62586000  0.74360000  1.0
  C  C43  1  0.61923000  0.06231000  0.10549000  1.0
  C  C44  1  0.38078000  0.93769000  0.89451000  1.0
  C  C45  1  0.12712000  0.37423000  0.07118000  1.0
  C  C46  1  0.87288000  0.62577000  0.92883000  1.0
  N  N47  1  0.30066000  0.45374000  0.40288000  1.0
  N  N48  1  0.69934000  0.54626000  0.59712000  1.0
  N  N49  1  0.93369000  0.39730000  0.11663000  1.0
  N  N50  1  0.06631000  0.60269000  0.88337000  1.0
  O  O51  1  0.83104000  0.92089000  0.39107000  1.0
  O  O52  1  0.16898000  0.07912000  0.60891000  1.0
  O  O53  1  0.95168000  0.68846000  0.30145000  1.0
  O  O54  1  0.04832000  0.31154000  0.69855000  1.0
  O  O55  1  0.95968000  0.32318000  0.35251000  1.0
  O  O56  1  0.04031000  0.67682000  0.64750000  1.0
  O  O57  1  0.51711000  0.17872000  0.05008000  1.0
  O  O58  1  0.48290000  0.82129000  0.94992000  1.0
  O  O59  1  0.55930000  0.95675000  0.21470000  1.0
  O  O60  1  0.44071000  0.04326000  0.78530000  1.0
