# generated using pymatgen
data_CdH30C26N6O5
_symmetry_space_group_name_H-M   'P 1'
_cell_length_a   5.20212000
_cell_length_b   18.34530000
_cell_length_c   28.03670000
_cell_angle_alpha   90.00030000
_cell_angle_beta   89.99960000
_cell_angle_gamma   89.99930000
_symmetry_Int_Tables_number   1
_chemical_formula_structural   CdH30C26N6O5
_chemical_formula_sum   'Cd4 H120 C104 N24 O20'
_cell_volume   2675.66710110
_cell_formula_units_Z   4
loop_
 _symmetry_equiv_pos_site_id
 _symmetry_equiv_pos_as_xyz
  1  'x, y, z'
loop_
 _atom_site_type_symbol
 _atom_site_label
 _atom_site_symmetry_multiplicity
 _atom_site_fract_x
 _atom_site_fract_y
 _atom_site_fract_z
 _atom_site_occupancy
  Cd  Cd0  1  0.11912000  0.34382000  0.65970000  1.0
  Cd  Cd1  1  0.61908000  0.65618000  0.34031000  1.0
  Cd  Cd2  1  0.11911000  0.84383000  0.84031000  1.0
  Cd  Cd3  1  0.61907000  0.15617000  0.15969000  1.0
  H  H4  1  0.92668000  0.43463000  0.59347000  1.0
  H  H5  1  0.42668000  0.56537000  0.40653000  1.0
  H  H6  1  0.92667000  0.93463000  0.90654000  1.0
  H  H7  1  0.42665000  0.06537000  0.09346000  1.0
  H  H8  1  0.66613000  0.41108000  0.61957000  1.0
  H  H9  1  0.16613000  0.58892000  0.38043000  1.0
  H  H10  1  0.66613000  0.91108000  0.88043000  1.0
  H  H11  1  0.16610000  0.08892000  0.11957000  1.0
  H  H12  1  0.28101000  0.68998000  0.81173000  1.0
  H  H13  1  0.78094000  0.31002000  0.18828000  1.0
  H  H14  1  0.28102000  0.18998000  0.68828000  1.0
  H  H15  1  0.78094000  0.81003000  0.31171000  1.0
  H  H16  1  0.56287000  0.63814000  0.82485000  1.0
  H  H17  1  0.06279000  0.36186000  0.17515000  1.0
  H  H18  1  0.56288000  0.13814000  0.67515000  1.0
  H  H19  1  0.06279000  0.86186000  0.32484000  1.0
  H  H20  1  0.13910000  0.70879000  0.73041000  1.0
  H  H21  1  0.63907000  0.29121000  0.26960000  1.0
  H  H22  1  0.13911000  0.20879000  0.76959000  1.0
  H  H23  1  0.63904000  0.79122000  0.23040000  1.0
  H  H24  1  0.14163000  0.66218000  0.64739000  1.0
  H  H25  1  0.64163000  0.33783000  0.35262000  1.0
  H  H26  1  0.14164000  0.16218000  0.85261000  1.0
  H  H27  1  0.64161000  0.83782000  0.14738000  1.0
  H  H28  1  0.84904000  0.54877000  0.67528000  1.0
  H  H29  1  0.34903000  0.45123000  0.32471000  1.0
  H  H30  1  0.84904000  0.04877000  0.82472000  1.0
  H  H31  1  0.34900000  0.95123000  0.17527000  1.0
  H  H32  1  0.85115000  0.59757000  0.75767000  1.0
  H  H33  1  0.35110000  0.40243000  0.24233000  1.0
  H  H34  1  0.85115000  0.09756000  0.74233000  1.0
  H  H35  1  0.35108000  0.90244000  0.25767000  1.0
  H  H36  1  0.67437000  0.54981000  0.59525000  1.0
  H  H37  1  0.17441000  0.45020000  0.40475000  1.0
  H  H38  1  0.67437000  0.04980000  0.90475000  1.0
  H  H39  1  0.17436000  0.95020000  0.09524000  1.0
  H  H40  1  0.40508000  0.60576000  0.58031000  1.0
  H  H41  1  0.90513000  0.39424000  0.41970000  1.0
  H  H42  1  0.40510000  0.10577000  0.91970000  1.0
  H  H43  1  0.90510000  0.89423000  0.08029000  1.0
  H  H44  1  0.40756000  0.48338000  0.72212000  1.0
  H  H45  1  0.90752000  0.51663000  0.27788000  1.0
  H  H46  1  0.40753000  0.98338000  0.77789000  1.0
  H  H47  1  0.90756000  0.01663000  0.22211000  1.0
  H  H48  1  0.71186000  0.38042000  0.75680000  1.0
  H  H49  1  0.21183000  0.61959000  0.24320000  1.0
  H  H50  1  0.71186000  0.88040000  0.74320000  1.0
  H  H51  1  0.21185000  0.11958000  0.25680000  1.0
  H  H52  1  0.59272000  0.48109000  0.82724000  1.0
  H  H53  1  0.09269000  0.51892000  0.17276000  1.0
  H  H54  1  0.59270000  0.98108000  0.67276000  1.0
  H  H55  1  0.09278000  0.01890000  0.32724000  1.0
  H  H56  1  0.84869000  0.53778000  0.84463000  1.0
  H  H57  1  0.34867000  0.46223000  0.15538000  1.0
  H  H58  1  0.84867000  0.03776000  0.65538000  1.0
  H  H59  1  0.34878000  0.96223000  0.34463000  1.0
  H  H60  1  0.33794000  0.32672000  0.86747000  1.0
  H  H61  1  0.83792000  0.67329000  0.13252000  1.0
  H  H62  1  0.33793000  0.82671000  0.63252000  1.0
  H  H63  1  0.83798000  0.17328000  0.36748000  1.0
  H  H64  1  0.56780000  0.29331000  0.82698000  1.0
  H  H65  1  0.06776000  0.70670000  0.17302000  1.0
  H  H66  1  0.56777000  0.79329000  0.67302000  1.0
  H  H67  1  0.06781000  0.20669000  0.32697000  1.0
  H  H68  1  0.45785000  0.38449000  0.82276000  1.0
  H  H69  1  0.95781000  0.61553000  0.17724000  1.0
  H  H70  1  0.45783000  0.88447000  0.67724000  1.0
  H  H71  1  0.95788000  0.11551000  0.32276000  1.0
  H  H72  1  0.72192000  0.20615000  0.89237000  1.0
  H  H73  1  0.22191000  0.79386000  0.10763000  1.0
  H  H74  1  0.72192000  0.70613000  0.60763000  1.0
  H  H75  1  0.22192000  0.29385000  0.39237000  1.0
  H  H76  1  0.45071000  0.24915000  0.91611000  1.0
  H  H77  1  0.95071000  0.75086000  0.08389000  1.0
  H  H78  1  0.45073000  0.74914000  0.58389000  1.0
  H  H79  1  0.95073000  0.25085000  0.41611000  1.0
  H  H80  1  0.68794000  0.21461000  0.95517000  1.0
  H  H81  1  0.18794000  0.78540000  0.04483000  1.0
  H  H82  1  0.68796000  0.71460000  0.54483000  1.0
  H  H83  1  0.18796000  0.28540000  0.45517000  1.0
  H  H84  1  0.15944000  0.55961000  0.93225000  1.0
  H  H85  1  0.65943000  0.44039000  0.06775000  1.0
  H  H86  1  0.15942000  0.05960000  0.56775000  1.0
  H  H87  1  0.65946000  0.94039000  0.43225000  1.0
  H  H88  1  0.19949000  0.54285000  0.87017000  1.0
  H  H89  1  0.69948000  0.45715000  0.12983000  1.0
  H  H90  1  0.19948000  0.04284000  0.62984000  1.0
  H  H91  1  0.69953000  0.95715000  0.37017000  1.0
  H  H92  1  0.41472000  0.50521000  0.91204000  1.0
  H  H93  1  0.91471000  0.49479000  0.08796000  1.0
  H  H94  1  0.41471000  0.00521000  0.58796000  1.0
  H  H95  1  0.91476000  0.99479000  0.41205000  1.0
  H  H96  1  0.49235000  0.41405000  0.97740000  1.0
  H  H97  1  0.99234000  0.58595000  0.02260000  1.0
  H  H98  1  0.49235000  0.91405000  0.52260000  1.0
  H  H99  1  0.99236000  0.08594000  0.47741000  1.0
  H  H100  1  0.25286000  0.40141000  0.02131000  1.0
  H  H101  1  0.75285000  0.59859000  0.97869000  1.0
  H  H102  1  0.25288000  0.90140000  0.47869000  1.0
  H  H103  1  0.75287000  0.09859000  0.52131000  1.0
  H  H104  1  0.28149000  0.48637000  0.99243000  1.0
  H  H105  1  0.78148000  0.51363000  0.00757000  1.0
  H  H106  1  0.28148000  0.98637000  0.50757000  1.0
  H  H107  1  0.78150000  0.01363000  0.49244000  1.0
  H  H108  1  0.09100000  0.22498000  0.96992000  1.0
  H  H109  1  0.59100000  0.77502000  0.03008000  1.0
  H  H110  1  0.09099000  0.72497000  0.53008000  1.0
  H  H111  1  0.59100000  0.27503000  0.46992000  1.0
  H  H112  1  0.27525000  0.29286000  0.99869000  1.0
  H  H113  1  0.77525000  0.70714000  0.00131000  1.0
  H  H114  1  0.27526000  0.79285000  0.50131000  1.0
  H  H115  1  0.77526000  0.20715000  0.49869000  1.0
  H  H116  1  0.09953000  0.17999000  0.06667000  1.0
  H  H117  1  0.59954000  0.82001000  0.93333000  1.0
  H  H118  1  0.09953000  0.68000000  0.43333000  1.0
  H  H119  1  0.59952000  0.32002000  0.56667000  1.0
  H  H120  1  0.45631000  0.31023000  0.09776000  1.0
  H  H121  1  0.95635000  0.68976000  0.90224000  1.0
  H  H122  1  0.45632000  0.81024000  0.40224000  1.0
  H  H123  1  0.95638000  0.18975000  0.59777000  1.0
  C  C124  1  0.63631000  0.75085000  0.80857000  1.0
  C  C125  1  0.13625000  0.24915000  0.19143000  1.0
  C  C126  1  0.63631000  0.25085000  0.69144000  1.0
  C  C127  1  0.13625000  0.74916000  0.30856000  1.0
  C  C128  1  0.48181000  0.68045000  0.80158000  1.0
  C  C129  1  0.98175000  0.31955000  0.19843000  1.0
  C  C130  1  0.48182000  0.18045000  0.69843000  1.0
  C  C131  1  0.98174000  0.81955000  0.30156000  1.0
  C  C132  1  0.49132000  0.65496000  0.75035000  1.0
  C  C133  1  0.99127000  0.34504000  0.24966000  1.0
  C  C134  1  0.49132000  0.15495000  0.74965000  1.0
  C  C135  1  0.99125000  0.84505000  0.25034000  1.0
  C  C136  1  0.29647000  0.67420000  0.71820000  1.0
  C  C137  1  0.79644000  0.32580000  0.28181000  1.0
  C  C138  1  0.29649000  0.17420000  0.78181000  1.0
  C  C139  1  0.79642000  0.82580000  0.21818000  1.0
  C  C140  1  0.29803000  0.64767000  0.67158000  1.0
  C  C141  1  0.79803000  0.35233000  0.32843000  1.0
  C  C142  1  0.29803000  0.14767000  0.82843000  1.0
  C  C143  1  0.79798000  0.85233000  0.17157000  1.0
  C  C144  1  0.49336000  0.60098000  0.65558000  1.0
  C  C145  1  0.99337000  0.39902000  0.34443000  1.0
  C  C146  1  0.49338000  0.10098000  0.84442000  1.0
  C  C147  1  0.99334000  0.89902000  0.15557000  1.0
  C  C148  1  0.69292000  0.58395000  0.68728000  1.0
  C  C149  1  0.19291000  0.41605000  0.31272000  1.0
  C  C150  1  0.69292000  0.08394000  0.81273000  1.0
  C  C151  1  0.19288000  0.91606000  0.18727000  1.0
  C  C152  1  0.69250000  0.61093000  0.73382000  1.0
  C  C153  1  0.19245000  0.38907000  0.26618000  1.0
  C  C154  1  0.69250000  0.11092000  0.76618000  1.0
  C  C155  1  0.19243000  0.88907000  0.23381000  1.0
  C  C156  1  0.48137000  0.56709000  0.60657000  1.0
  C  C157  1  0.98140000  0.43291000  0.39343000  1.0
  C  C158  1  0.48137000  0.06710000  0.89343000  1.0
  C  C159  1  0.98135000  0.93291000  0.10656000  1.0
  C  C160  1  0.30230000  0.50071000  0.60712000  1.0
  C  C161  1  0.80231000  0.49930000  0.39288000  1.0
  C  C162  1  0.30229000  0.00071000  0.89289000  1.0
  C  C163  1  0.80227000  0.99929000  0.10711000  1.0
  C  C164  1  0.23688000  0.46724000  0.74169000  1.0
  C  C165  1  0.73685000  0.53277000  0.25831000  1.0
  C  C166  1  0.23686000  0.96723000  0.75831000  1.0
  C  C167  1  0.73689000  0.03277000  0.24168000  1.0
  C  C168  1  0.88207000  0.41454000  0.75856000  1.0
  C  C169  1  0.38204000  0.58547000  0.24144000  1.0
  C  C170  1  0.88207000  0.91453000  0.74144000  1.0
  C  C171  1  0.38208000  0.08546000  0.25856000  1.0
  C  C172  1  0.79734000  0.48132000  0.83646000  1.0
  C  C173  1  0.29731000  0.51868000  0.16354000  1.0
  C  C174  1  0.79732000  0.98131000  0.66354000  1.0
  C  C175  1  0.29740000  0.01867000  0.33646000  1.0
  C  C176  1  0.85817000  0.43069000  0.87752000  1.0
  C  C177  1  0.35816000  0.56932000  0.12248000  1.0
  C  C178  1  0.85817000  0.93067000  0.62249000  1.0
  C  C179  1  0.35822000  0.06931000  0.37752000  1.0
  C  C180  1  0.72380000  0.36414000  0.88178000  1.0
  C  C181  1  0.22378000  0.63587000  0.11822000  1.0
  C  C182  1  0.72380000  0.86413000  0.61822000  1.0
  C  C183  1  0.22384000  0.13586000  0.38178000  1.0
  C  C184  1  0.51325000  0.34170000  0.84787000  1.0
  C  C185  1  0.01323000  0.65831000  0.15213000  1.0
  C  C186  1  0.51325000  0.84169000  0.65213000  1.0
  C  C187  1  0.01328000  0.15829000  0.34787000  1.0
  C  C188  1  0.79246000  0.31523000  0.91843000  1.0
  C  C189  1  0.29246000  0.68478000  0.08157000  1.0
  C  C190  1  0.79248000  0.81522000  0.58157000  1.0
  C  C191  1  0.29249000  0.18477000  0.41843000  1.0
  C  C192  1  0.65885000  0.24275000  0.92119000  1.0
  C  C193  1  0.15884000  0.75726000  0.07881000  1.0
  C  C194  1  0.65887000  0.74274000  0.57881000  1.0
  C  C195  1  0.15887000  0.25725000  0.42119000  1.0
  C  C196  1  0.98469000  0.33461000  0.95135000  1.0
  C  C197  1  0.48469000  0.66539000  0.04865000  1.0
  C  C198  1  0.98471000  0.83460000  0.54865000  1.0
  C  C199  1  0.48472000  0.16539000  0.45135000  1.0
  C  C200  1  0.10464000  0.40324000  0.94916000  1.0
  C  C201  1  0.60463000  0.59677000  0.05085000  1.0
  C  C202  1  0.10464000  0.90323000  0.55085000  1.0
  C  C203  1  0.60466000  0.09677000  0.44916000  1.0
  C  C204  1  0.05116000  0.45001000  0.91052000  1.0
  C  C205  1  0.55114000  0.55000000  0.08948000  1.0
  C  C206  1  0.05115000  0.95000000  0.58949000  1.0
  C  C207  1  0.55119000  0.05000000  0.41052000  1.0
  C  C208  1  0.21112000  0.51814000  0.90562000  1.0
  C  C209  1  0.71111000  0.48186000  0.09439000  1.0
  C  C210  1  0.21112000  0.01813000  0.59439000  1.0
  C  C211  1  0.71115000  0.98186000  0.40562000  1.0
  C  C212  1  0.29235000  0.42731000  0.98686000  1.0
  C  C213  1  0.79235000  0.57269000  0.01314000  1.0
  C  C214  1  0.29237000  0.92730000  0.51314000  1.0
  C  C215  1  0.79238000  0.07269000  0.48686000  1.0
  C  C216  1  0.08056000  0.27897000  0.98676000  1.0
  C  C217  1  0.58056000  0.72103000  0.01324000  1.0
  C  C218  1  0.08057000  0.77896000  0.51324000  1.0
  C  C219  1  0.58058000  0.22103000  0.48676000  1.0
  C  C220  1  0.94668000  0.22076000  0.06452000  1.0
  C  C221  1  0.44669000  0.77924000  0.93548000  1.0
  C  C222  1  0.94668000  0.72076000  0.43548000  1.0
  C  C223  1  0.44668000  0.27925000  0.56452000  1.0
  C  C224  1  0.62226000  0.28796000  0.07935000  1.0
  C  C225  1  0.12228000  0.71203000  0.92065000  1.0
  C  C226  1  0.62227000  0.78797000  0.42065000  1.0
  C  C227  1  0.12230000  0.21203000  0.57936000  1.0
  N  N228  1  0.76012000  0.23067000  0.09667000  1.0
  N  N229  1  0.26015000  0.76933000  0.90333000  1.0
  N  N230  1  0.76013000  0.73068000  0.40333000  1.0
  N  N231  1  0.26014000  0.26933000  0.59668000  1.0
  N  N232  1  0.91877000  0.27056000  0.02956000  1.0
  N  N233  1  0.41878000  0.72944000  0.97044000  1.0
  N  N234  1  0.91878000  0.77056000  0.47044000  1.0
  N  N235  1  0.41879000  0.22944000  0.52956000  1.0
  N  N236  1  0.71235000  0.31407000  0.03838000  1.0
  N  N237  1  0.21237000  0.68593000  0.96162000  1.0
  N  N238  1  0.71236000  0.81407000  0.46162000  1.0
  N  N239  1  0.21240000  0.18593000  0.53838000  1.0
  N  N240  1  0.94040000  0.46277000  0.79306000  1.0
  N  N241  1  0.44036000  0.53723000  0.20694000  1.0
  N  N242  1  0.94038000  0.96276000  0.70695000  1.0
  N  N243  1  0.44044000  0.03723000  0.29306000  1.0
  N  N244  1  0.16744000  0.49678000  0.78302000  1.0
  N  N245  1  0.66740000  0.50322000  0.21698000  1.0
  N  N246  1  0.16741000  0.99678000  0.71698000  1.0
  N  N247  1  0.66748000  0.00322000  0.28302000  1.0
  N  N248  1  0.06699000  0.41625000  0.72558000  1.0
  N  N249  1  0.56696000  0.58376000  0.27442000  1.0
  N  N250  1  0.06698000  0.91624000  0.77442000  1.0
  N  N251  1  0.56697000  0.08375000  0.22557000  1.0
  O  O252  1  0.09245000  0.50511000  0.58475000  1.0
  O  O253  1  0.59246000  0.49489000  0.41525000  1.0
  O  O254  1  0.09243000  0.00513000  0.91525000  1.0
  O  O255  1  0.59241000  0.99488000  0.08474000  1.0
  O  O256  1  0.37651000  0.44526000  0.63170000  1.0
  O  O257  1  0.87652000  0.55475000  0.36830000  1.0
  O  O258  1  0.37650000  0.94526000  0.86831000  1.0
  O  O259  1  0.87648000  0.05474000  0.13168000  1.0
  O  O260  1  0.82552000  0.39012000  0.60490000  1.0
  O  O261  1  0.32552000  0.60988000  0.39510000  1.0
  O  O262  1  0.82551000  0.89013000  0.89511000  1.0
  O  O263  1  0.32550000  0.10988000  0.10489000  1.0
  O  O264  1  0.87513000  0.74315000  0.81829000  1.0
  O  O265  1  0.37506000  0.25686000  0.18171000  1.0
  O  O266  1  0.87514000  0.24315000  0.68173000  1.0
  O  O267  1  0.37507000  0.75686000  0.31827000  1.0
  O  O268  1  0.52510000  0.81192000  0.80330000  1.0
  O  O269  1  0.02507000  0.18808000  0.19671000  1.0
  O  O270  1  0.52511000  0.31192000  0.69671000  1.0
  O  O271  1  0.02506000  0.68808000  0.30329000  1.0
