# generated using pymatgen
data_CuH8C4SClO
_symmetry_space_group_name_H-M   'P 1'
_cell_length_a   6.30070000
_cell_length_b   9.45312000
_cell_length_c   11.32290000
_cell_angle_alpha   104.48000000
_cell_angle_beta   90.00000000
_cell_angle_gamma   89.99990000
_symmetry_Int_Tables_number   1
_chemical_formula_structural   CuH8C4SClO
_chemical_formula_sum   'Cu4 H32 C16 S4 Cl4 O4'
_cell_volume   652.98380959
_cell_formula_units_Z   4
loop_
 _symmetry_equiv_pos_site_id
 _symmetry_equiv_pos_as_xyz
  1  'x, y, z'
loop_
 _atom_site_type_symbol
 _atom_site_label
 _atom_site_symmetry_multiplicity
 _atom_site_fract_x
 _atom_site_fract_y
 _atom_site_fract_z
 _atom_site_occupancy
  Cu  Cu0  1  0.43910000  0.98919000  0.85938000  1.0
  Cu  Cu1  1  0.93910000  0.01081000  0.64062000  1.0
  Cu  Cu2  1  0.56090000  0.01081000  0.14063000  1.0
  Cu  Cu3  1  0.06090000  0.98919000  0.35937000  1.0
  H  H4  1  0.74274000  0.23722000  0.98798000  1.0
  H  H5  1  0.24274000  0.76278000  0.51202000  1.0
  H  H6  1  0.25726000  0.76278000  0.01202000  1.0
  H  H7  1  0.75726000  0.23722000  0.48798000  1.0
  H  H8  1  0.95243000  0.10943000  0.93489000  1.0
  H  H9  1  0.45243000  0.89056000  0.56511000  1.0
  H  H10  1  0.04757000  0.89057000  0.06511000  1.0
  H  H11  1  0.54757000  0.10943000  0.43489000  1.0
  H  H12  1  0.08850000  0.36592000  0.97122000  1.0
  H  H13  1  0.58850000  0.63407000  0.52878000  1.0
  H  H14  1  0.91149000  0.63408000  0.02878000  1.0
  H  H15  1  0.41149000  0.36592000  0.47122000  1.0
  H  H16  1  0.10373000  0.27163000  0.81278000  1.0
  H  H17  1  0.60373000  0.72837000  0.68722000  1.0
  H  H18  1  0.89627000  0.72837000  0.18722000  1.0
  H  H19  1  0.39627000  0.27163000  0.31278000  1.0
  H  H20  1  0.86372000  0.34830000  0.67627000  1.0
  H  H21  1  0.36372000  0.65170000  0.82373000  1.0
  H  H22  1  0.13628000  0.65170000  0.32373000  1.0
  H  H23  1  0.63628000  0.34830000  0.17627000  1.0
  H  H24  1  0.67896000  0.49099000  0.74053000  1.0
  H  H25  1  0.17896000  0.50901000  0.75947000  1.0
  H  H26  1  0.32104000  0.50901000  0.25947000  1.0
  H  H27  1  0.82104000  0.49099000  0.24053000  1.0
  H  H28  1  0.49102000  0.24998000  0.67353000  1.0
  H  H29  1  0.99102000  0.75002000  0.82647000  1.0
  H  H30  1  0.50898000  0.75002000  0.32647000  1.0
  H  H31  1  0.00898000  0.24998000  0.17353000  1.0
  H  H32  1  0.47534000  0.32038000  0.83508000  1.0
  H  H33  1  0.97534000  0.67962000  0.66492000  1.0
  H  H34  1  0.52466000  0.67962000  0.16492000  1.0
  H  H35  1  0.02466000  0.32038000  0.33508000  1.0
  C  C36  1  0.85602000  0.19633000  0.91354000  1.0
  C  C37  1  0.35602000  0.80367000  0.58646000  1.0
  C  C38  1  0.14398000  0.80367000  0.08646000  1.0
  C  C39  1  0.64398000  0.19633000  0.41354000  1.0
  C  C40  1  0.99481000  0.31715000  0.88949000  1.0
  C  C41  1  0.49482000  0.68285000  0.61051000  1.0
  C  C42  1  0.00518000  0.68285000  0.11051000  1.0
  C  C43  1  0.50518000  0.31715000  0.38949000  1.0
  C  C44  1  0.75495000  0.39152000  0.75347000  1.0
  C  C45  1  0.25495000  0.60848000  0.74653000  1.0
  C  C46  1  0.24505000  0.60848000  0.24653000  1.0
  C  C47  1  0.74504000  0.39151000  0.25347000  1.0
  C  C48  1  0.58399000  0.27981000  0.75811000  1.0
  C  C49  1  0.08399000  0.72019000  0.74189000  1.0
  C  C50  1  0.41601000  0.72019000  0.24189000  1.0
  C  C51  1  0.91601000  0.27981000  0.25811000  1.0
  S  S52  1  0.69836000  0.11061000  0.78006000  1.0
  S  S53  1  0.19836000  0.88939000  0.71994000  1.0
  S  S54  1  0.30164000  0.88939000  0.21994000  1.0
  S  S55  1  0.80164000  0.11061000  0.28006000  1.0
  Cl  Cl56  1  0.34511000  0.15524000  0.04335000  1.0
  Cl  Cl57  1  0.84511000  0.84477000  0.45665000  1.0
  Cl  Cl58  1  0.65489000  0.84477000  0.95665000  1.0
  Cl  Cl59  1  0.15489000  0.15524000  0.54335000  1.0
  O  O60  1  0.87353000  0.43458000  0.86441000  1.0
  O  O61  1  0.37353000  0.56541000  0.63559000  1.0
  O  O62  1  0.12646000  0.56542000  0.13559000  1.0
  O  O63  1  0.62646000  0.43458000  0.36441000  1.0
