# generated using pymatgen
data_Er2H8C10S(N2O7)2
_symmetry_space_group_name_H-M   'P 1'
_cell_length_a   6.59133000
_cell_length_b   10.97040000
_cell_length_c   12.99430000
_cell_angle_alpha   105.73000000
_cell_angle_beta   90.00430000
_cell_angle_gamma   107.48000000
_symmetry_Int_Tables_number   1
_chemical_formula_structural   Er2H8C10S(N2O7)2
_chemical_formula_sum   'Er4 H16 C20 S2 N8 O28'
_cell_volume   859.25229126
_cell_formula_units_Z   2
loop_
 _symmetry_equiv_pos_site_id
 _symmetry_equiv_pos_as_xyz
  1  'x, y, z'
loop_
 _atom_site_type_symbol
 _atom_site_label
 _atom_site_symmetry_multiplicity
 _atom_site_fract_x
 _atom_site_fract_y
 _atom_site_fract_z
 _atom_site_occupancy
  Er  Er0  1  0.77965000  0.70593000  0.71392000  1.0
  Er  Er1  1  0.07384000  0.29416000  0.78611000  1.0
  Er  Er2  1  0.22035000  0.29407000  0.28609000  1.0
  Er  Er3  1  0.92617000  0.70584000  0.21388000  1.0
  H  H4  1  0.36818000  0.88707000  0.86301000  1.0
  H  H5  1  0.48107000  0.11282000  0.63697000  1.0
  H  H6  1  0.63182000  0.11293000  0.13699000  1.0
  H  H7  1  0.51893000  0.88718000  0.36303000  1.0
  H  H8  1  0.25001000  0.84893000  0.04327000  1.0
  H  H9  1  0.40103000  0.15091000  0.45670000  1.0
  H  H10  1  0.74999000  0.15108000  0.95673000  1.0
  H  H11  1  0.59896000  0.84909000  0.54330000  1.0
  H  H12  1  0.48379000  0.43519000  0.64596000  1.0
  H  H13  1  0.04873000  0.56488000  0.85403000  1.0
  H  H14  1  0.51621000  0.56481000  0.35404000  1.0
  H  H15  1  0.95129000  0.43513000  0.14597000  1.0
  H  H16  1  0.62731000  0.44013000  0.74080000  1.0
  H  H17  1  0.18736000  0.55984000  0.75921000  1.0
  H  H18  1  0.37268000  0.55987000  0.25921000  1.0
  H  H19  1  0.81265000  0.44017000  0.24079000  1.0
  C  C20  1  0.63587000  0.73894000  0.96538000  1.0
  C  C21  1  0.89684000  0.26100000  0.53466000  1.0
  C  C22  1  0.36412000  0.26105000  0.03462000  1.0
  C  C23  1  0.10315000  0.73900000  0.46534000  1.0
  C  C24  1  0.80250000  0.67319000  0.95590000  1.0
  C  C25  1  0.12919000  0.32671000  0.54412000  1.0
  C  C26  1  0.19749000  0.32680000  0.04410000  1.0
  C  C27  1  0.87080000  0.67329000  0.45588000  1.0
  C  C28  1  0.43948000  0.83897000  0.90917000  1.0
  C  C29  1  0.60044000  0.16096000  0.59083000  1.0
  C  C30  1  0.56052000  0.16103000  0.09083000  1.0
  C  C31  1  0.39955000  0.83905000  0.40917000  1.0
  C  C32  1  0.42925000  0.69808000  0.13211000  1.0
  C  C33  1  0.73116000  0.30177000  0.36786000  1.0
  C  C34  1  0.57075000  0.30192000  0.86790000  1.0
  C  C35  1  0.26884000  0.69823000  0.63214000  1.0
  C  C36  1  0.48862000  0.75435000  0.04082000  1.0
  C  C37  1  0.73422000  0.24554000  0.45917000  1.0
  C  C38  1  0.51138000  0.24565000  0.95918000  1.0
  C  C39  1  0.26577000  0.75447000  0.54083000  1.0
  S  S40  1  0.97609000  0.00007000  0.75003000  1.0
  S  S41  1  0.02392000  0.99993000  0.24997000  1.0
  N  N42  1  0.60083000  0.79004000  0.88331000  1.0
  N  N43  1  0.81072000  0.20993000  0.61673000  1.0
  N  N44  1  0.39917000  0.20996000  0.11669000  1.0
  N  N45  1  0.18927000  0.79007000  0.38327000  1.0
  N  N46  1  0.36808000  0.81850000  0.00274000  1.0
  N  N47  1  0.54952000  0.18140000  0.49725000  1.0
  N  N48  1  0.63192000  0.18150000  0.99726000  1.0
  N  N49  1  0.45047000  0.81860000  0.50276000  1.0
  O  O50  1  0.87958000  0.65379000  0.86409000  1.0
  O  O51  1  0.22568000  0.34627000  0.63595000  1.0
  O  O52  1  0.12041000  0.34621000  0.13591000  1.0
  O  O53  1  0.77432000  0.65373000  0.36404000  1.0
  O  O54  1  0.05716000  0.91519000  0.80034000  1.0
  O  O55  1  0.14211000  0.08491000  0.69973000  1.0
  O  O56  1  0.94284000  0.08481000  0.19966000  1.0
  O  O57  1  0.85790000  0.91508000  0.30027000  1.0
  O  O58  1  0.79816000  0.90410000  0.66900000  1.0
  O  O59  1  0.89420000  0.09609000  0.83104000  1.0
  O  O60  1  0.20185000  0.09591000  0.33100000  1.0
  O  O61  1  0.10582000  0.90391000  0.16896000  1.0
  O  O62  1  0.86629000  0.63931000  0.03177000  1.0
  O  O63  1  0.22686000  0.36046000  0.46821000  1.0
  O  O64  1  0.13369000  0.36068000  0.96823000  1.0
  O  O65  1  0.77313000  0.63953000  0.53179000  1.0
  O  O66  1  0.24100000  0.68225000  0.15939000  1.0
  O  O67  1  0.55877000  0.31761000  0.34052000  1.0
  O  O68  1  0.75900000  0.31775000  0.84061000  1.0
  O  O69  1  0.44122000  0.68239000  0.65948000  1.0
  O  O70  1  0.56445000  0.66310000  0.17760000  1.0
  O  O71  1  0.90137000  0.33673000  0.32242000  1.0
  O  O72  1  0.43556000  0.33690000  0.82241000  1.0
  O  O73  1  0.09862000  0.66326000  0.67757000  1.0
  O  O74  1  0.63288000  0.48035000  0.68118000  1.0
  O  O75  1  0.15266000  0.51969000  0.81886000  1.0
  O  O76  1  0.36711000  0.51965000  0.31883000  1.0
  O  O77  1  0.84736000  0.48031000  0.18114000  1.0
