# generated using pymatgen
data_Cu3H32C36N12O13
_symmetry_space_group_name_H-M   'P 1'
_cell_length_a   10.15740000
_cell_length_b   14.28160000
_cell_length_c   18.27450000
_cell_angle_alpha   73.89620000
_cell_angle_beta   76.90920000
_cell_angle_gamma   76.50770000
_symmetry_Int_Tables_number   1
_chemical_formula_structural   Cu3H32C36N12O13
_chemical_formula_sum   'Cu6 H64 C72 N24 O26'
_cell_volume   2439.24085431
_cell_formula_units_Z   2
loop_
 _symmetry_equiv_pos_site_id
 _symmetry_equiv_pos_as_xyz
  1  'x, y, z'
loop_
 _atom_site_type_symbol
 _atom_site_label
 _atom_site_symmetry_multiplicity
 _atom_site_fract_x
 _atom_site_fract_y
 _atom_site_fract_z
 _atom_site_occupancy
  Cu  Cu0  1  0.92199000  0.42103000  0.96060000  1.0
  Cu  Cu1  1  0.07794000  0.57892000  0.03940000  1.0
  Cu  Cu2  1  0.61229000  0.99106000  0.74062000  1.0
  Cu  Cu3  1  0.38776000  0.00894000  0.25938000  1.0
  Cu  Cu4  1  0.09543000  0.57952000  0.55109000  1.0
  Cu  Cu5  1  0.90457000  0.42052000  0.44891000  1.0
  H  H6  1  0.72862000  0.17367000  0.19168000  1.0
  H  H7  1  0.27141000  0.82627000  0.80835000  1.0
  H  H8  1  0.05592000  0.67496000  0.71573000  1.0
  H  H9  1  0.94411000  0.32496000  0.28429000  1.0
  H  H10  1  0.68659000  0.33967000  0.08969000  1.0
  H  H11  1  0.31337000  0.66026000  0.91032000  1.0
  H  H12  1  0.98471000  0.09432000  0.17421000  1.0
  H  H13  1  0.01529000  0.90566000  0.82581000  1.0
  H  H14  1  0.10938000  0.22423000  0.04631000  1.0
  H  H15  1  0.89061000  0.77576000  0.95370000  1.0
  H  H16  1  0.13869000  0.51798000  0.81238000  1.0
  H  H17  1  0.86126000  0.48193000  0.18765000  1.0
  H  H18  1  0.79980000  0.74783000  0.76183000  1.0
  H  H19  1  0.20022000  0.25211000  0.23814000  1.0
  H  H20  1  0.72037000  0.61150000  0.89762000  1.0
  H  H21  1  0.27954000  0.38845000  0.10234000  1.0
  H  H22  1  0.27373000  0.27142000  0.85921000  1.0
  H  H23  1  0.72628000  0.72855000  0.14077000  1.0
  H  H24  1  0.71732000  0.22160000  0.81883000  1.0
  H  H25  1  0.28265000  0.77844000  0.18115000  1.0
  H  H26  1  0.48316000  0.43754000  0.94401000  1.0
  H  H27  1  0.51675000  0.56245000  0.05602000  1.0
  H  H28  1  0.67413000  0.91620000  0.01834000  1.0
  H  H29  1  0.32586000  0.08380000  0.98168000  1.0
  H  H30  1  0.63548000  0.08661000  0.45116000  1.0
  H  H31  1  0.36471000  0.91349000  0.54881000  1.0
  H  H32  1  0.76073000  0.00209000  0.87762000  1.0
  H  H33  1  0.23925000  0.99793000  0.12240000  1.0
  H  H34  1  0.48532000  0.82095000  0.02796000  1.0
  H  H35  1  0.51464000  0.17907000  0.97205000  1.0
  H  H36  1  0.45284000  0.85007000  0.87527000  1.0
  H  H37  1  0.54709000  0.15000000  0.12474000  1.0
  H  H38  1  0.74697000  0.97255000  0.56604000  1.0
  H  H39  1  0.25317000  0.02752000  0.43394000  1.0
  H  H40  1  0.41856000  0.20131000  0.49472000  1.0
  H  H41  1  0.58152000  0.79871000  0.50525000  1.0
  H  H42  1  0.39554000  0.15760000  0.65601000  1.0
  H  H43  1  0.60445000  0.84233000  0.34398000  1.0
  H  H44  1  0.74364000  0.72516000  0.65123000  1.0
  H  H45  1  0.25641000  0.27486000  0.34875000  1.0
  H  H46  1  0.53570000  0.56693000  0.55847000  1.0
  H  H47  1  0.46432000  0.43306000  0.44153000  1.0
  H  H48  1  0.30021000  0.77843000  0.68844000  1.0
  H  H49  1  0.69988000  0.22156000  0.31159000  1.0
  H  H50  1  0.26872000  0.81333000  0.30444000  1.0
  H  H51  1  0.73134000  0.18666000  0.69554000  1.0
  H  H52  1  0.97566000  0.33041000  0.80217000  1.0
  H  H53  1  0.02419000  0.66961000  0.19780000  1.0
  H  H54  1  0.31677000  0.69711000  0.43468000  1.0
  H  H55  1  0.68326000  0.30295000  0.56531000  1.0
  H  H56  1  0.01865000  0.82489000  0.28906000  1.0
  H  H57  1  0.98145000  0.17508000  0.71090000  1.0
  H  H58  1  0.90334000  0.70536000  0.42564000  1.0
  H  H59  1  0.09673000  0.29463000  0.57433000  1.0
  H  H60  1  0.89423000  0.49175000  0.70849000  1.0
  H  H61  1  0.10565000  0.50826000  0.29146000  1.0
  H  H62  1  0.22884000  0.25576000  0.75256000  1.0
  H  H63  1  0.77102000  0.74427000  0.24745000  1.0
  H  H64  1  0.30563000  0.39260000  0.61468000  1.0
  H  H65  1  0.69431000  0.60744000  0.38536000  1.0
  H  H66  1  0.93338000  0.01864000  0.67089000  1.0
  H  H67  1  0.06663000  0.98135000  0.32914000  1.0
  H  H68  1  0.93677000  0.90528000  0.70212000  1.0
  H  H69  1  0.06318000  0.09473000  0.29796000  1.0
  C  C70  1  0.78430000  0.28998000  0.09475000  1.0
  C  C71  1  0.21567000  0.70995000  0.90526000  1.0
  C  C72  1  0.94247000  0.16318000  0.13721000  1.0
  C  C73  1  0.05752000  0.83679000  0.86281000  1.0
  C  C74  1  0.00313000  0.22719000  0.07444000  1.0
  C  C75  1  0.99686000  0.77278000  0.92557000  1.0
  C  C76  1  0.03602000  0.56162000  0.81860000  1.0
  C  C77  1  0.96394000  0.43830000  0.18141000  1.0
  C  C78  1  0.85814000  0.68062000  0.79275000  1.0
  C  C79  1  0.14186000  0.31931000  0.20722000  1.0
  C  C80  1  0.81914000  0.61326000  0.85983000  1.0
  C  C81  1  0.18081000  0.38668000  0.14015000  1.0
  C  C82  1  0.22694000  0.41338000  0.93779000  1.0
  C  C83  1  0.77300000  0.58658000  0.06222000  1.0
  C  C84  1  0.36442000  0.36178000  0.90286000  1.0
  C  C85  1  0.63551000  0.63820000  0.09714000  1.0
  C  C86  1  0.36926000  0.29005000  0.86326000  1.0
  C  C87  1  0.63072000  0.70995000  0.13672000  1.0
  C  C88  1  0.49542000  0.24038000  0.83109000  1.0
  C  C89  1  0.50457000  0.75966000  0.16888000  1.0
  C  C90  1  0.49595000  0.15923000  0.79389000  1.0
  C  C91  1  0.50409000  0.84080000  0.20605000  1.0
  C  C92  1  0.61750000  0.26144000  0.84068000  1.0
  C  C93  1  0.38248000  0.73860000  0.15930000  1.0
  C  C94  1  0.61381000  0.33112000  0.88226000  1.0
  C  C95  1  0.38615000  0.66889000  0.11775000  1.0
  C  C96  1  0.74748000  0.34548000  0.89684000  1.0
  C  C97  1  0.25244000  0.65453000  0.10319000  1.0
  C  C98  1  0.48690000  0.38277000  0.91197000  1.0
  C  C99  1  0.51303000  0.61722000  0.08804000  1.0
  C  C100  1  0.68280000  0.95596000  0.89680000  1.0
  C  C101  1  0.31718000  0.04407000  0.10321000  1.0
  C  C102  1  0.53717000  0.86147000  0.97427000  1.0
  C  C103  1  0.46278000  0.13858000  0.02574000  1.0
  C  C104  1  0.52273000  0.87548000  0.89902000  1.0
  C  C105  1  0.47723000  0.12457000  0.10099000  1.0
  C  C106  1  0.65576000  0.02954000  0.56916000  1.0
  C  C107  1  0.34437000  0.97050000  0.43083000  1.0
  C  C108  1  0.48147000  0.14841000  0.53384000  1.0
  C  C109  1  0.51862000  0.85160000  0.46614000  1.0
  C  C110  1  0.47206000  0.12712000  0.61268000  1.0
  C  C111  1  0.52799000  0.87284000  0.38731000  1.0
  C  C112  1  0.51510000  0.83809000  0.71734000  1.0
  C  C113  1  0.48499000  0.16188000  0.28270000  1.0
  C  C114  1  0.52140000  0.75902000  0.67650000  1.0
  C  C115  1  0.47866000  0.24097000  0.32349000  1.0
  C  C116  1  0.64792000  0.70906000  0.64489000  1.0
  C  C117  1  0.35213000  0.29095000  0.35510000  1.0
  C  C118  1  0.65311000  0.63941000  0.60307000  1.0
  C  C119  1  0.34694000  0.36061000  0.39691000  1.0
  C  C120  1  0.79074000  0.59086000  0.56507000  1.0
  C  C121  1  0.20928000  0.40915000  0.43491000  1.0
  C  C122  1  0.53091000  0.61984000  0.59239000  1.0
  C  C123  1  0.46911000  0.38019000  0.40761000  1.0
  C  C124  1  0.40382000  0.67074000  0.62262000  1.0
  C  C125  1  0.59618000  0.32930000  0.37738000  1.0
  C  C126  1  0.27109000  0.65786000  0.60624000  1.0
  C  C127  1  0.72893000  0.34216000  0.39378000  1.0
  C  C128  1  0.39970000  0.73916000  0.66538000  1.0
  C  C129  1  0.60034000  0.26086000  0.33464000  1.0
  C  C130  1  0.21912000  0.71674000  0.41471000  1.0
  C  C131  1  0.78092000  0.28330000  0.58528000  1.0
  C  C132  1  0.06072000  0.78370000  0.34062000  1.0
  C  C133  1  0.93934000  0.21630000  0.65935000  1.0
  C  C134  1  0.00500000  0.72409000  0.40822000  1.0
  C  C135  1  0.99506000  0.27592000  0.59175000  1.0
  C  C136  1  0.99563000  0.44644000  0.70087000  1.0
  C  C137  1  0.00427000  0.55358000  0.29911000  1.0
  C  C138  1  0.17215000  0.32479000  0.72273000  1.0
  C  C139  1  0.82773000  0.67523000  0.27728000  1.0
  C  C140  1  0.20919000  0.39199000  0.65489000  1.0
  C  C141  1  0.79074000  0.60804000  0.34513000  1.0
  N  N142  1  0.90323000  0.30555000  0.04865000  1.0
  N  N143  1  0.09673000  0.69439000  0.95136000  1.0
  N  N144  1  0.80450000  0.20418000  0.14907000  1.0
  N  N145  1  0.19549000  0.79577000  0.85094000  1.0
  N  N146  1  0.93136000  0.53936000  0.87527000  1.0
  N  N147  1  0.06858000  0.46057000  0.12472000  1.0
  N  N148  1  0.99523000  0.64667000  0.76788000  1.0
  N  N149  1  0.00477000  0.35325000  0.23213000  1.0
  N  N150  1  0.61382000  0.93432000  0.85160000  1.0
  N  N151  1  0.38616000  0.06572000  0.14840000  1.0
  N  N152  1  0.63874000  0.91240000  0.97167000  1.0
  N  N153  1  0.36124000  0.08762000  0.02835000  1.0
  N  N154  1  0.58118000  0.05317000  0.63356000  1.0
  N  N155  1  0.41889000  0.94681000  0.36643000  1.0
  N  N156  1  0.59786000  0.08629000  0.50763000  1.0
  N  N157  1  0.40229000  0.91376000  0.49235000  1.0
  N  N158  1  0.10492000  0.68308000  0.45377000  1.0
  N  N159  1  0.89512000  0.31695000  0.54621000  1.0
  N  N160  1  0.19581000  0.77808000  0.34610000  1.0
  N  N161  1  0.80424000  0.22194000  0.65388000  1.0
  N  N162  1  0.09758000  0.46729000  0.64193000  1.0
  N  N163  1  0.90235000  0.53273000  0.35807000  1.0
  N  N164  1  0.03765000  0.36100000  0.75072000  1.0
  N  N165  1  0.96222000  0.63901000  0.24926000  1.0
  O  O166  1  0.12532000  0.37215000  0.94108000  1.0
  O  O167  1  0.87462000  0.62783000  0.05890000  1.0
  O  O168  1  0.22402000  0.49009000  0.95922000  1.0
  O  O169  1  0.77590000  0.50987000  0.04080000  1.0
  O  O170  1  0.61591000  0.12267000  0.75791000  1.0
  O  O171  1  0.38417000  0.87737000  0.24206000  1.0
  O  O172  1  0.38869000  0.12734000  0.79988000  1.0
  O  O173  1  0.61135000  0.87270000  0.20006000  1.0
  O  O174  1  0.73756000  0.41136000  0.93394000  1.0
  O  O175  1  0.26234000  0.58862000  0.06612000  1.0
  O  O176  1  0.85732000  0.29110000  0.87293000  1.0
  O  O177  1  0.14263000  0.70893000  0.12709000  1.0
  O  O178  1  0.88671000  0.96971000  0.71008000  1.0
  O  O179  1  0.11335000  0.03032000  0.29001000  1.0
  O  O180  1  0.63179000  0.86046000  0.71660000  1.0
  O  O181  1  0.36833000  0.13953000  0.28339000  1.0
  O  O182  1  0.40100000  0.88099000  0.74748000  1.0
  O  O183  1  0.59909000  0.11894000  0.25259000  1.0
  O  O184  1  0.89359000  0.61847000  0.57794000  1.0
  O  O185  1  0.10643000  0.38159000  0.42202000  1.0
  O  O186  1  0.79213000  0.53270000  0.52474000  1.0
  O  O187  1  0.20789000  0.46729000  0.47526000  1.0
  O  O188  1  0.28262000  0.59589000  0.56506000  1.0
  O  O189  1  0.71736000  0.40412000  0.43496000  1.0
  O  O190  1  0.15965000  0.70944000  0.63165000  1.0
  O  O191  1  0.84037000  0.29056000  0.36839000  1.0
