# generated using pymatgen
data_Cu3P2H18C22(NO4)2
_symmetry_space_group_name_H-M   'P 1'
_cell_length_a   5.50754000
_cell_length_b   8.79852000
_cell_length_c   12.17630000
_cell_angle_alpha   76.69900000
_cell_angle_beta   86.82020000
_cell_angle_gamma   82.08690000
_symmetry_Int_Tables_number   1
_chemical_formula_structural   Cu3P2H18C22(NO4)2
_chemical_formula_sum   'Cu3 P2 H18 C22 N2 O8'
_cell_volume   568.57264935
_cell_formula_units_Z   1
loop_
 _symmetry_equiv_pos_site_id
 _symmetry_equiv_pos_as_xyz
  1  'x, y, z'
loop_
 _atom_site_type_symbol
 _atom_site_label
 _atom_site_symmetry_multiplicity
 _atom_site_fract_x
 _atom_site_fract_y
 _atom_site_fract_z
 _atom_site_occupancy
  Cu  Cu0  1  0.00006000  0.00165000  0.99946000  1.0
  Cu  Cu1  1  0.73144000  0.38268000  0.94904000  1.0
  Cu  Cu2  1  0.27288000  0.61534000  0.05075000  1.0
  P  P3  1  0.80680000  0.74032000  0.92535000  1.0
  P  P4  1  0.19318000  0.25744000  0.07598000  1.0
  H  H5  1  0.40421000  0.86510000  0.05511000  1.0
  H  H6  1  0.59502000  0.13546000  0.94389000  1.0
  H  H7  1  0.04377000  0.76499000  0.70595000  1.0
  H  H8  1  0.95525000  0.23446000  0.29541000  1.0
  H  H9  1  0.90592000  0.87041000  0.51151000  1.0
  H  H10  1  0.09351000  0.12971000  0.48991000  1.0
  H  H11  1  0.21220000  0.05675000  0.64322000  1.0
  H  H12  1  0.78676000  0.94233000  0.35833000  1.0
  H  H13  1  0.34955000  0.94474000  0.83479000  1.0
  H  H14  1  0.64913000  0.05351000  0.16671000  1.0
  H  H15  1  0.32506000  0.57270000  0.81122000  1.0
  H  H16  1  0.67698000  0.42948000  0.18830000  1.0
  H  H17  1  0.19668000  0.61105000  0.61398000  1.0
  H  H18  1  0.80263000  0.38958000  0.38598000  1.0
  H  H19  1  0.89823000  0.35856000  0.54351000  1.0
  H  H20  1  0.10154000  0.64310000  0.45536000  1.0
  H  H21  1  0.98896000  0.32009000  0.74542000  1.0
  H  H22  1  0.01292000  0.68260000  0.25291000  1.0
  C  C23  1  0.70658000  0.84202000  0.78457000  1.0
  C  C24  1  0.29248000  0.15709000  0.21694000  1.0
  C  C25  1  0.85916000  0.82593000  0.69096000  1.0
  C  C26  1  0.13999000  0.17373000  0.31044000  1.0
  C  C27  1  0.77967000  0.88683000  0.58115000  1.0
  C  C28  1  0.21969000  0.11317000  0.42024000  1.0
  C  C29  1  0.54347000  0.96962000  0.55929000  1.0
  C  C30  1  0.45587000  0.03021000  0.44215000  1.0
  C  C31  1  0.39556000  0.99175000  0.65422000  1.0
  C  C32  1  0.60354000  0.00755000  0.34722000  1.0
  C  C33  1  0.47350000  0.92865000  0.76419000  1.0
  C  C34  1  0.52548000  0.07031000  0.23726000  1.0
  C  C35  1  0.44545000  0.52644000  0.74886000  1.0
  C  C36  1  0.55614000  0.47567000  0.25048000  1.0
  C  C37  1  0.37646000  0.54792000  0.63777000  1.0
  C  C38  1  0.62355000  0.45340000  0.36178000  1.0
  C  C39  1  0.53504000  0.48921000  0.55896000  1.0
  C  C40  1  0.46453000  0.51221000  0.44041000  1.0
  C  C41  1  0.76267000  0.40764000  0.59868000  1.0
  C  C42  1  0.23752000  0.59420000  0.40028000  1.0
  C  C43  1  0.81753000  0.38677000  0.71139000  1.0
  C  C44  1  0.18389000  0.61573000  0.28733000  1.0
  N  N45  1  0.66238000  0.44602000  0.78496000  1.0
  N  N46  1  0.33992000  0.55682000  0.21389000  1.0
  O  O47  1  0.64900000  0.60500000  0.96713000  1.0
  O  O48  1  0.35034000  0.39217000  0.03337000  1.0
  O  O49  1  0.07862000  0.67968000  0.91063000  1.0
  O  O50  1  0.91933000  0.31521000  0.08943000  1.0
  O  O51  1  0.75404000  0.85379000  0.00660000  1.0
  O  O52  1  0.24732000  0.14300000  0.99529000  1.0
  O  O53  1  0.23817000  0.83288000  0.06505000  1.0
  O  O54  1  0.76041000  0.16733000  0.92695000  1.0
