# generated using pymatgen
data_ZnH14C20N4O5
_symmetry_space_group_name_H-M   'P 1'
_cell_length_a   14.79130000
_cell_length_b   20.02887218
_cell_length_c   20.02817306
_cell_angle_alpha   61.11395597
_cell_angle_beta   68.32831410
_cell_angle_gamma   68.32899942
_symmetry_Int_Tables_number   1
_chemical_formula_structural   ZnH14C20N4O5
_chemical_formula_sum   'Zn8 H112 C160 N32 O40'
_cell_volume   4693.23653162
_cell_formula_units_Z   8
loop_
 _symmetry_equiv_pos_site_id
 _symmetry_equiv_pos_as_xyz
  1  'x, y, z'
loop_
 _atom_site_type_symbol
 _atom_site_label
 _atom_site_symmetry_multiplicity
 _atom_site_fract_x
 _atom_site_fract_y
 _atom_site_fract_z
 _atom_site_occupancy
  Zn  Zn0  1  0.03070000  0.05752000  0.65852000  1.0
  Zn  Zn1  1  0.25321000  0.15867000  0.55758000  1.0
  Zn  Zn2  1  0.53072000  0.65858000  0.05747000  1.0
  Zn  Zn3  1  0.75316000  0.55763000  0.15865000  1.0
  Zn  Zn4  1  0.46928000  0.34142000  0.94253000  1.0
  Zn  Zn5  1  0.24684000  0.44237000  0.84135000  1.0
  Zn  Zn6  1  0.96930000  0.94248000  0.34148000  1.0
  Zn  Zn7  1  0.74679000  0.84133000  0.44242000  1.0
  H  H8  1  0.05540000  0.06543000  0.49614000  1.0
  H  H9  1  0.13887000  0.98576000  0.41728000  1.0
  H  H10  1  0.26615000  0.80430000  0.61293000  1.0
  H  H11  1  0.17342000  0.89344000  0.68501000  1.0
  H  H12  1  0.29131000  0.91802000  0.24573000  1.0
  H  H13  1  0.37611000  0.90933000  0.11585000  1.0
  H  H14  1  0.45725000  0.82706000  0.03701000  1.0
  H  H15  1  0.43465000  0.62245000  0.23690000  1.0
  H  H16  1  0.35685000  0.69502000  0.32411000  1.0
  H  H17  1  0.91604000  0.73456000  0.98570000  1.0
  H  H18  1  0.98506000  0.84528000  0.87138000  1.0
  H  H19  1  0.72183000  0.92382000  0.78375000  1.0
  H  H20  1  0.65229000  0.81379000  0.90003000  1.0
  H  H21  1  0.22041000  0.91897000  0.36386000  1.0
  H  H22  1  0.38303000  0.99630000  0.56540000  1.0
  H  H23  1  0.45803000  0.91746000  0.48573000  1.0
  H  H24  1  0.31608000  0.11302000  0.30445000  1.0
  H  H25  1  0.24769000  0.18507000  0.39360000  1.0
  H  H26  1  0.54452000  0.74572000  0.41823000  1.0
  H  H27  1  0.59853000  0.61581000  0.40955000  1.0
  H  H28  1  0.67857000  0.53707000  0.32716000  1.0
  H  H29  1  0.70538000  0.73708000  0.12256000  1.0
  H  H30  1  0.62326000  0.82423000  0.19521000  1.0
  H  H31  1  0.36404000  0.48559000  0.23437000  1.0
  H  H32  1  0.29854000  0.37129000  0.34504000  1.0
  H  H33  1  0.57067000  0.28371000  0.42379000  1.0
  H  H34  1  0.63398000  0.39997000  0.31377000  1.0
  H  H35  1  0.49627000  0.86395000  0.41915000  1.0
  H  H36  1  0.55540000  0.49614000  0.06540000  1.0
  H  H37  1  0.63886000  0.41729000  0.98573000  1.0
  H  H38  1  0.76611000  0.61300000  0.80425000  1.0
  H  H39  1  0.67340000  0.68503000  0.89344000  1.0
  H  H40  1  0.79135000  0.24574000  0.91795000  1.0
  H  H41  1  0.87613000  0.11590000  0.90932000  1.0
  H  H42  1  0.95723000  0.03706000  0.82703000  1.0
  H  H43  1  0.93462000  0.23693000  0.62235000  1.0
  H  H44  1  0.85684000  0.32416000  0.69491000  1.0
  H  H45  1  0.41591000  0.98581000  0.73461000  1.0
  H  H46  1  0.48498000  0.87150000  0.84531000  1.0
  H  H47  1  0.22191000  0.78370000  0.92385000  1.0
  H  H48  1  0.15237000  0.89997000  0.81380000  1.0
  H  H49  1  0.72040000  0.36389000  0.91896000  1.0
  H  H50  1  0.88296000  0.56546000  0.99628000  1.0
  H  H51  1  0.95793000  0.48579000  0.91743000  1.0
  H  H52  1  0.81609000  0.30450000  0.11303000  1.0
  H  H53  1  0.74774000  0.39365000  0.18508000  1.0
  H  H54  1  0.04446000  0.41828000  0.74577000  1.0
  H  H55  1  0.09849000  0.40958000  0.61576000  1.0
  H  H56  1  0.17853000  0.32721000  0.53703000  1.0
  H  H57  1  0.20529000  0.12264000  0.73704000  1.0
  H  H58  1  0.12322000  0.19530000  0.82418000  1.0
  H  H59  1  0.86404000  0.23441000  0.48545000  1.0
  H  H60  1  0.79862000  0.34513000  0.37114000  1.0
  H  H61  1  0.07078000  0.42384000  0.28366000  1.0
  H  H62  1  0.13407000  0.31383000  0.39991000  1.0
  H  H63  1  0.99626000  0.41914000  0.86395000  1.0
  H  H64  1  0.44459000  0.50386000  0.93459000  1.0
  H  H65  1  0.36113000  0.58271000  0.01426000  1.0
  H  H66  1  0.23389000  0.38699000  0.19576000  1.0
  H  H67  1  0.32660000  0.31496000  0.10657000  1.0
  H  H68  1  0.20865000  0.75426000  0.08204000  1.0
  H  H69  1  0.12387000  0.88410000  0.09068000  1.0
  H  H70  1  0.04276000  0.96293000  0.17298000  1.0
  H  H71  1  0.06538000  0.76307000  0.37764000  1.0
  H  H72  1  0.14317000  0.67584000  0.30508000  1.0
  H  H73  1  0.58409000  0.01419000  0.26540000  1.0
  H  H74  1  0.51501000  0.12850000  0.15470000  1.0
  H  H75  1  0.77808000  0.21630000  0.07616000  1.0
  H  H76  1  0.84762000  0.10003000  0.18621000  1.0
  H  H77  1  0.27959000  0.63611000  0.08104000  1.0
  H  H78  1  0.11704000  0.43454000  0.00372000  1.0
  H  H79  1  0.04207000  0.51422000  0.08256000  1.0
  H  H80  1  0.18390000  0.69551000  0.88697000  1.0
  H  H81  1  0.25225000  0.60636000  0.81492000  1.0
  H  H82  1  0.95553000  0.58172000  0.25423000  1.0
  H  H83  1  0.90149000  0.59042000  0.38424000  1.0
  H  H84  1  0.82145000  0.67279000  0.46297000  1.0
  H  H85  1  0.79474000  0.87736000  0.26295000  1.0
  H  H86  1  0.87680000  0.80469000  0.17582000  1.0
  H  H87  1  0.13597000  0.76558000  0.51456000  1.0
  H  H88  1  0.20139000  0.65486000  0.62886000  1.0
  H  H89  1  0.92922000  0.57617000  0.71633000  1.0
  H  H90  1  0.86594000  0.68617000  0.60009000  1.0
  H  H91  1  0.00375000  0.58086000  0.13604000  1.0
  H  H92  1  0.94460000  0.93458000  0.50385000  1.0
  H  H93  1  0.86113000  0.01424000  0.58272000  1.0
  H  H94  1  0.73383000  0.19570000  0.38708000  1.0
  H  H95  1  0.82657000  0.10656000  0.31500000  1.0
  H  H96  1  0.70871000  0.08197000  0.75427000  1.0
  H  H97  1  0.62390000  0.09066000  0.88416000  1.0
  H  H98  1  0.54276000  0.17294000  0.96298000  1.0
  H  H99  1  0.56535000  0.37755000  0.76310000  1.0
  H  H100  1  0.64316000  0.30498000  0.67589000  1.0
  H  H101  1  0.08396000  0.26544000  0.01429000  1.0
  H  H102  1  0.01495000  0.15472000  0.12861000  1.0
  H  H103  1  0.27817000  0.07617000  0.21625000  1.0
  H  H104  1  0.34770000  0.18620000  0.09998000  1.0
  H  H105  1  0.77959000  0.08103000  0.63614000  1.0
  H  H106  1  0.61696000  0.00371000  0.43459000  1.0
  H  H107  1  0.54197000  0.08254000  0.51427000  1.0
  H  H108  1  0.68394000  0.88698000  0.69554000  1.0
  H  H109  1  0.75232000  0.81494000  0.60638000  1.0
  H  H110  1  0.45549000  0.25427000  0.58178000  1.0
  H  H111  1  0.40148000  0.38418000  0.59046000  1.0
  H  H112  1  0.32144000  0.46293000  0.67284000  1.0
  H  H113  1  0.29463000  0.26292000  0.87744000  1.0
  H  H114  1  0.37674000  0.17577000  0.80479000  1.0
  H  H115  1  0.63597000  0.51441000  0.76564000  1.0
  H  H116  1  0.70146000  0.62872000  0.65497000  1.0
  H  H117  1  0.42932000  0.71630000  0.57622000  1.0
  H  H118  1  0.36602000  0.60003000  0.68624000  1.0
  H  H119  1  0.50374000  0.13606000  0.58084000  1.0
  C  C120  1  0.10308000  0.00725000  0.51975000  1.0
  C  C121  1  0.15068000  0.96176000  0.47604000  1.0
  C  C122  1  0.21137000  0.88747000  0.50907000  1.0
  C  C123  1  0.21958000  0.86193000  0.58570000  1.0
  C  C124  1  0.16895000  0.91111000  0.62535000  1.0
  C  C125  1  0.26917000  0.83340000  0.46738000  1.0
  C  C126  1  0.31526000  0.85398000  0.27486000  1.0
  C  C127  1  0.36044000  0.80843000  0.22708000  1.0
  C  C128  1  0.38832000  0.84563000  0.14498000  1.0
  C  C129  1  0.43335000  0.80052000  0.10083000  1.0
  C  C130  1  0.42177000  0.68594000  0.21231000  1.0
  C  C131  1  0.37802000  0.72621000  0.26070000  1.0
  C  C132  1  0.78202000  0.76635000  0.94831000  1.0
  C  C133  1  0.87515000  0.77573000  0.94054000  1.0
  C  C134  1  0.91316000  0.83745000  0.87695000  1.0
  C  C135  1  0.85870000  0.89013000  0.81952000  1.0
  C  C136  1  0.76471000  0.88157000  0.82768000  1.0
  C  C137  1  0.72608000  0.82035000  0.89214000  1.0
  C  C138  1  0.90025000  0.95600000  0.75009000  1.0
  C  C139  1  0.74252000  0.69939000  0.01695000  1.0
  C  C140  1  0.36980000  0.01989000  0.50727000  1.0
  C  C141  1  0.41134000  0.97618000  0.46179000  1.0
  C  C142  1  0.39178000  0.00920000  0.38754000  1.0
  C  C143  1  0.33240000  0.08581000  0.36203000  1.0
  C  C144  1  0.29424000  0.12544000  0.41123000  1.0
  C  C145  1  0.42966000  0.96746000  0.33354000  1.0
  C  C146  1  0.55543000  0.77489000  0.35418000  1.0
  C  C147  1  0.60359000  0.72712000  0.30862000  1.0
  C  C148  1  0.62078000  0.64499000  0.34582000  1.0
  C  C149  1  0.66511000  0.60088000  0.30065000  1.0
  C  C150  1  0.67943000  0.71245000  0.18607000  1.0
  C  C151  1  0.63443000  0.76080000  0.22639000  1.0
  C  C152  1  0.50349000  0.44821000  0.26626000  1.0
  C  C153  1  0.40882000  0.44039000  0.27558000  1.0
  C  C154  1  0.37264000  0.37683000  0.33730000  1.0
  C  C155  1  0.43181000  0.31946000  0.39001000  1.0
  C  C156  1  0.52617000  0.32762000  0.38150000  1.0
  C  C157  1  0.56156000  0.39210000  0.32030000  1.0
  C  C158  1  0.39381000  0.25002000  0.45595000  1.0
  C  C159  1  0.54128000  0.51691000  0.19932000  1.0
  C  C160  1  0.60307000  0.51975000  0.00723000  1.0
  C  C161  1  0.65065000  0.47606000  0.96172000  1.0
  C  C162  1  0.71132000  0.50913000  0.88742000  1.0
  C  C163  1  0.71956000  0.58575000  0.86189000  1.0
  C  C164  1  0.66895000  0.62538000  0.91108000  1.0
  C  C165  1  0.76912000  0.46742000  0.83338000  1.0
  C  C166  1  0.81527000  0.27490000  0.85391000  1.0
  C  C167  1  0.86044000  0.22713000  0.80836000  1.0
  C  C168  1  0.88832000  0.14502000  0.84559000  1.0
  C  C169  1  0.93334000  0.10087000  0.80047000  1.0
  C  C170  1  0.92176000  0.21236000  0.68586000  1.0
  C  C171  1  0.87802000  0.26074000  0.72614000  1.0
  C  C172  1  0.28201000  0.94836000  0.76637000  1.0
  C  C173  1  0.37511000  0.94059000  0.77577000  1.0
  C  C174  1  0.41312000  0.87702000  0.83749000  1.0
  C  C175  1  0.35869000  0.81957000  0.89016000  1.0
  C  C176  1  0.26473000  0.82770000  0.88159000  1.0
  C  C177  1  0.22608000  0.89217000  0.82038000  1.0
  C  C178  1  0.40027000  0.75007000  0.95598000  1.0
  C  C179  1  0.24255000  0.01697000  0.69936000  1.0
  C  C180  1  0.86976000  0.50732000  0.01988000  1.0
  C  C181  1  0.91129000  0.46183000  0.97617000  1.0
  C  C182  1  0.89173000  0.38758000  0.00918000  1.0
  C  C183  1  0.83236000  0.36210000  0.08579000  1.0
  C  C184  1  0.79423000  0.41128000  0.12543000  1.0
  C  C185  1  0.92961000  0.33355000  0.96746000  1.0
  C  C186  1  0.05536000  0.35423000  0.77488000  1.0
  C  C187  1  0.10353000  0.30869000  0.72708000  1.0
  C  C188  1  0.12074000  0.34587000  0.64495000  1.0
  C  C189  1  0.16506000  0.30070000  0.60085000  1.0
  C  C190  1  0.17938000  0.18614000  0.71240000  1.0
  C  C191  1  0.13439000  0.22646000  0.76075000  1.0
  C  C192  1  0.00357000  0.26629000  0.44810000  1.0
  C  C193  1  0.90889000  0.27561000  0.44028000  1.0
  C  C194  1  0.87273000  0.33734000  0.37672000  1.0
  C  C195  1  0.93193000  0.39007000  0.31936000  1.0
  C  C196  1  0.02627000  0.38153000  0.32755000  1.0
  C  C197  1  0.06167000  0.32032000  0.39202000  1.0
  C  C198  1  0.89386000  0.45603000  0.24998000  1.0
  C  C199  1  0.04131000  0.19935000  0.51683000  1.0
  C  C200  1  0.39691000  0.48025000  0.99277000  1.0
  C  C201  1  0.34933000  0.52394000  0.03827000  1.0
  C  C202  1  0.28867000  0.49087000  0.11258000  1.0
  C  C203  1  0.28044000  0.41425000  0.13811000  1.0
  C  C204  1  0.33106000  0.37462000  0.08891000  1.0
  C  C205  1  0.23089000  0.53258000  0.16661000  1.0
  C  C206  1  0.18474000  0.72510000  0.14608000  1.0
  C  C207  1  0.13956000  0.77287000  0.19164000  1.0
  C  C208  1  0.11169000  0.85499000  0.15439000  1.0
  C  C209  1  0.06665000  0.89913000  0.19953000  1.0
  C  C210  1  0.07823000  0.78764000  0.31414000  1.0
  C  C211  1  0.12198000  0.73925000  0.27386000  1.0
  C  C212  1  0.71799000  0.05165000  0.23362000  1.0
  C  C213  1  0.62488000  0.05942000  0.22423000  1.0
  C  C214  1  0.58687000  0.12299000  0.16251000  1.0
  C  C215  1  0.64130000  0.18043000  0.10985000  1.0
  C  C216  1  0.73527000  0.17230000  0.11841000  1.0
  C  C217  1  0.77391000  0.10784000  0.17962000  1.0
  C  C218  1  0.59973000  0.24992000  0.04402000  1.0
  C  C219  1  0.75744000  0.98303000  0.30065000  1.0
  C  C220  1  0.13024000  0.49268000  0.98012000  1.0
  C  C221  1  0.08870000  0.53818000  0.02383000  1.0
  C  C222  1  0.10827000  0.61242000  0.99082000  1.0
  C  C223  1  0.16764000  0.63791000  0.91420000  1.0
  C  C224  1  0.20577000  0.58873000  0.87456000  1.0
  C  C225  1  0.07039000  0.66646000  0.03253000  1.0
  C  C226  1  0.94463000  0.64576000  0.22513000  1.0
  C  C227  1  0.89647000  0.69131000  0.27292000  1.0
  C  C228  1  0.87925000  0.65413000  0.35505000  1.0
  C  C229  1  0.83493000  0.69929000  0.39916000  1.0
  C  C230  1  0.82064000  0.81385000  0.28760000  1.0
  C  C231  1  0.86562000  0.77354000  0.23924000  1.0
  C  C232  1  0.99644000  0.73372000  0.55189000  1.0
  C  C233  1  0.09112000  0.72439000  0.55972000  1.0
  C  C234  1  0.12727000  0.66266000  0.62328000  1.0
  C  C235  1  0.06807000  0.60993000  0.68064000  1.0
  C  C236  1  0.97372000  0.61847000  0.67246000  1.0
  C  C237  1  0.93834000  0.67968000  0.60798000  1.0
  C  C238  1  0.10615000  0.54397000  0.75002000  1.0
  C  C239  1  0.95869000  0.80066000  0.48317000  1.0
  C  C240  1  0.89693000  0.99275000  0.48025000  1.0
  C  C241  1  0.84932000  0.03824000  0.52396000  1.0
  C  C242  1  0.78862000  0.11254000  0.49093000  1.0
  C  C243  1  0.78042000  0.13807000  0.41430000  1.0
  C  C244  1  0.83104000  0.08889000  0.37465000  1.0
  C  C245  1  0.73083000  0.16660000  0.53262000  1.0
  C  C246  1  0.68475000  0.14602000  0.72514000  1.0
  C  C247  1  0.63958000  0.19156000  0.77292000  1.0
  C  C248  1  0.61169000  0.15436000  0.85503000  1.0
  C  C249  1  0.56665000  0.19947000  0.89918000  1.0
  C  C250  1  0.57823000  0.31405000  0.78770000  1.0
  C  C251  1  0.62198000  0.27378000  0.73931000  1.0
  C  C252  1  0.21797000  0.23365000  0.05169000  1.0
  C  C253  1  0.12484000  0.22427000  0.05946000  1.0
  C  C254  1  0.08684000  0.16255000  0.12304000  1.0
  C  C255  1  0.14131000  0.10987000  0.18047000  1.0
  C  C256  1  0.23528000  0.11843000  0.17232000  1.0
  C  C257  1  0.27392000  0.17965000  0.10786000  1.0
  C  C258  1  0.09975000  0.04400000  0.24991000  1.0
  C  C259  1  0.25747000  0.30061000  0.98305000  1.0
  C  C260  1  0.63019000  0.98011000  0.49273000  1.0
  C  C261  1  0.58866000  0.02382000  0.53821000  1.0
  C  C262  1  0.60822000  0.99080000  0.61246000  1.0
  C  C263  1  0.66762000  0.91419000  0.63796000  1.0
  C  C264  1  0.70576000  0.87456000  0.58877000  1.0
  C  C265  1  0.57034000  0.03253000  0.66647000  1.0
  C  C266  1  0.44458000  0.22511000  0.64582000  1.0
  C  C267  1  0.39642000  0.27288000  0.69138000  1.0
  C  C268  1  0.37923000  0.35501000  0.65418000  1.0
  C  C269  1  0.33490000  0.39912000  0.69935000  1.0
  C  C270  1  0.32057000  0.28755000  0.81394000  1.0
  C  C271  1  0.36558000  0.23920000  0.77361000  1.0
  C  C272  1  0.49651000  0.55180000  0.73374000  1.0
  C  C273  1  0.59117000  0.55961000  0.72444000  1.0
  C  C274  1  0.62736000  0.62317000  0.66272000  1.0
  C  C275  1  0.56819000  0.68055000  0.60999000  1.0
  C  C276  1  0.47384000  0.67238000  0.61851000  1.0
  C  C277  1  0.43844000  0.60791000  0.67970000  1.0
  C  C278  1  0.60620000  0.74998000  0.54405000  1.0
  C  C279  1  0.45873000  0.48309000  0.80068000  1.0
  N  N280  1  0.11207000  0.98320000  0.59279000  1.0
  N  N281  1  0.26239000  0.86339000  0.39102000  1.0
  N  N282  1  0.30752000  0.81793000  0.34989000  1.0
  N  N283  1  0.44991000  0.72170000  0.13352000  1.0
  N  N284  1  0.31171000  0.09289000  0.48327000  1.0
  N  N285  1  0.48267000  0.89106000  0.36360000  1.0
  N  N286  1  0.52409000  0.84991000  0.31816000  1.0
  N  N287  1  0.69452000  0.63365000  0.22181000  1.0
  N  N288  1  0.61206000  0.59279000  0.98318000  1.0
  N  N289  1  0.76237000  0.39104000  0.86338000  1.0
  N  N290  1  0.80752000  0.34993000  0.81789000  1.0
  N  N291  1  0.94989000  0.13357000  0.72165000  1.0
  N  N292  1  0.81169000  0.48333000  0.09288000  1.0
  N  N293  1  0.98264000  0.36359000  0.89107000  1.0
  N  N294  1  0.02406000  0.31817000  0.84990000  1.0
  N  N295  1  0.19446000  0.22187000  0.63360000  1.0
  N  N296  1  0.38793000  0.40721000  0.01682000  1.0
  N  N297  1  0.23763000  0.60896000  0.13661000  1.0
  N  N298  1  0.19249000  0.65007000  0.18210000  1.0
  N  N299  1  0.05010000  0.86642000  0.27836000  1.0
  N  N300  1  0.18831000  0.51667000  0.90713000  1.0
  N  N301  1  0.01735000  0.63641000  0.10893000  1.0
  N  N302  1  0.97594000  0.68182000  0.15011000  1.0
  N  N303  1  0.80554000  0.77813000  0.36640000  1.0
  N  N304  1  0.88793000  0.01680000  0.40721000  1.0
  N  N305  1  0.73762000  0.13661000  0.60898000  1.0
  N  N306  1  0.69248000  0.18207000  0.65011000  1.0
  N  N307  1  0.55010000  0.27830000  0.86647000  1.0
  N  N308  1  0.68830000  0.90711000  0.51672000  1.0
  N  N309  1  0.51733000  0.10894000  0.63640000  1.0
  N  N310  1  0.47592000  0.15009000  0.68184000  1.0
  N  N311  1  0.30550000  0.36635000  0.77818000  1.0
  O  O312  1  0.31973000  0.76752000  0.50007000  1.0
  O  O313  1  0.98077000  0.96538000  0.75163000  1.0
  O  O314  1  0.85622000  0.99858000  0.69459000  1.0
  O  O315  1  0.65178000  0.70033000  0.03000000  1.0
  O  O316  1  0.80320000  0.64597000  0.05932000  1.0
  O  O317  1  0.41237000  0.00013000  0.26764000  1.0
  O  O318  1  0.30228000  0.25163000  0.46548000  1.0
  O  O319  1  0.45085000  0.19449000  0.49844000  1.0
  O  O320  1  0.61784000  0.53006000  0.20046000  1.0
  O  O321  1  0.49182000  0.55921000  0.14579000  1.0
  O  O322  1  0.81967000  0.50009000  0.76751000  1.0
  O  O323  1  0.48080000  0.75157000  0.96539000  1.0
  O  O324  1  0.35622000  0.69458000  0.99850000  1.0
  O  O325  1  0.15184000  0.02993000  0.70029000  1.0
  O  O326  1  0.30320000  0.05937000  0.64592000  1.0
  O  O327  1  0.91226000  0.26765000  0.00018000  1.0
  O  O328  1  0.80234000  0.46551000  0.25161000  1.0
  O  O329  1  0.95080000  0.49860000  0.19444000  1.0
  O  O330  1  0.11786000  0.20041000  0.53004000  1.0
  O  O331  1  0.99176000  0.14587000  0.55912000  1.0
  O  O332  1  0.18033000  0.49991000  0.23249000  1.0
  O  O333  1  0.51919000  0.24842000  0.03462000  1.0
  O  O334  1  0.64378000  0.30542000  0.00149000  1.0
  O  O335  1  0.84815000  0.97008000  0.29972000  1.0
  O  O336  1  0.69679000  0.94063000  0.35408000  1.0
  O  O337  1  0.08773000  0.73235000  0.99983000  1.0
  O  O338  1  0.19765000  0.53449000  0.74840000  1.0
  O  O339  1  0.04919000  0.50140000  0.80557000  1.0
  O  O340  1  0.88214000  0.79960000  0.46996000  1.0
  O  O341  1  0.00825000  0.85413000  0.44088000  1.0
  O  O342  1  0.68026000  0.23248000  0.49994000  1.0
  O  O343  1  0.01923000  0.03461000  0.24838000  1.0
  O  O344  1  0.14379000  0.00141000  0.30541000  1.0
  O  O345  1  0.34821000  0.29967000  0.97000000  1.0
  O  O346  1  0.19679000  0.35403000  0.94069000  1.0
  O  O347  1  0.58763000  0.99986000  0.73237000  1.0
  O  O348  1  0.69772000  0.74836000  0.53453000  1.0
  O  O349  1  0.54916000  0.80551000  0.50157000  1.0
  O  O350  1  0.38217000  0.46994000  0.79954000  1.0
  O  O351  1  0.50818000  0.44078000  0.85422000  1.0
