# generated using pymatgen
data_Zn2H11C18S2N3O4
_symmetry_space_group_name_H-M   'P 1'
_cell_length_a   7.23235000
_cell_length_b   10.64510000
_cell_length_c   12.39810000
_cell_angle_alpha   86.44640000
_cell_angle_beta   89.14790000
_cell_angle_gamma   80.77020000
_symmetry_Int_Tables_number   1
_chemical_formula_structural   Zn2H11C18S2N3O4
_chemical_formula_sum   'Zn4 H22 C36 S4 N6 O8'
_cell_volume   940.33693998
_cell_formula_units_Z   2
loop_
 _symmetry_equiv_pos_site_id
 _symmetry_equiv_pos_as_xyz
  1  'x, y, z'
loop_
 _atom_site_type_symbol
 _atom_site_label
 _atom_site_symmetry_multiplicity
 _atom_site_fract_x
 _atom_site_fract_y
 _atom_site_fract_z
 _atom_site_occupancy
  Zn  Zn0  1  0.07905000  0.17125000  0.37671000  1.0
  Zn  Zn1  1  0.92096000  0.82875000  0.62329000  1.0
  Zn  Zn2  1  0.43211000  0.17091000  0.69383000  1.0
  Zn  Zn3  1  0.56789000  0.82909000  0.30617000  1.0
  H  H4  1  0.96202000  0.26861000  0.15552000  1.0
  H  H5  1  0.03798000  0.73140000  0.84448000  1.0
  H  H6  1  0.46578000  0.22010000  0.31869000  1.0
  H  H7  1  0.53422000  0.77989000  0.68132000  1.0
  H  H8  1  0.09226000  0.39009000  0.99934000  1.0
  H  H9  1  0.90775000  0.60991000  0.00066000  1.0
  H  H10  1  0.60848000  0.35237000  0.17985000  1.0
  H  H11  1  0.39152000  0.64763000  0.82016000  1.0
  H  H12  1  0.33867000  0.49005000  0.92123000  1.0
  H  H13  1  0.66134000  0.50996000  0.07877000  1.0
  H  H14  1  0.69878000  0.32006000  0.43949000  1.0
  H  H15  1  0.30123000  0.67994000  0.56051000  1.0
  H  H16  1  0.58201000  0.44919000  0.59707000  1.0
  H  H17  1  0.41799000  0.55081000  0.40293000  1.0
  H  H18  1  0.81894000  0.49148000  0.73180000  1.0
  H  H19  1  0.18106000  0.50853000  0.26819000  1.0
  H  H20  1  0.42092000  0.73483000  0.10895000  1.0
  H  H21  1  0.57907000  0.26516000  0.89105000  1.0
  H  H22  1  0.11231000  0.76731000  0.01102000  1.0
  H  H23  1  0.88769000  0.23268000  0.98899000  1.0
  H  H24  1  0.83484000  0.89976000  0.09666000  1.0
  H  H25  1  0.16516000  0.10024000  0.90334000  1.0
  C  C26  1  0.10562000  0.28727000  0.15500000  1.0
  C  C27  1  0.89437000  0.71273000  0.84500000  1.0
  C  C28  1  0.38639000  0.26298000  0.24823000  1.0
  C  C29  1  0.61361000  0.73702000  0.75177000  1.0
  C  C30  1  0.17765000  0.35572000  0.07004000  1.0
  C  C31  1  0.82235000  0.64429000  0.92996000  1.0
  C  C32  1  0.46600000  0.33451000  0.16875000  1.0
  C  C33  1  0.53400000  0.66549000  0.83125000  1.0
  C  C34  1  0.35875000  0.38649000  0.07792000  1.0
  C  C35  1  0.64126000  0.61351000  0.92208000  1.0
  C  C36  1  0.42342000  0.47185000  0.99478000  1.0
  C  C37  1  0.57660000  0.52816000  0.00522000  1.0
  C  C38  1  0.79330000  0.34257000  0.50036000  1.0
  C  C39  1  0.20670000  0.65743000  0.49964000  1.0
  C  C40  1  0.73063000  0.41373000  0.58750000  1.0
  C  C41  1  0.26937000  0.58627000  0.41249000  1.0
  C  C42  1  0.86221000  0.43550000  0.66251000  1.0
  C  C43  1  0.13780000  0.56450000  0.33749000  1.0
  C  C44  1  0.05151000  0.38577000  0.65082000  1.0
  C  C45  1  0.94850000  0.61424000  0.34917000  1.0
  C  C46  1  0.10616000  0.31475000  0.55965000  1.0
  C  C47  1  0.89385000  0.68526000  0.44034000  1.0
  C  C48  1  0.18600000  0.41070000  0.73637000  1.0
  C  C49  1  0.81399000  0.58930000  0.26363000  1.0
  C  C50  1  0.29505000  0.79174000  0.14030000  1.0
  C  C51  1  0.70495000  0.20825000  0.85970000  1.0
  C  C52  1  0.12447000  0.80961000  0.08759000  1.0
  C  C53  1  0.87553000  0.19039000  0.91241000  1.0
  C  C54  1  0.97187000  0.88390000  0.13501000  1.0
  C  C55  1  0.02813000  0.11609000  0.86499000  1.0
  C  C56  1  0.99131000  0.93949000  0.23251000  1.0
  C  C57  1  0.00868000  0.06051000  0.76749000  1.0
  C  C58  1  0.16951000  0.91604000  0.28390000  1.0
  C  C59  1  0.83049000  0.08396000  0.71609000  1.0
  C  C60  1  0.82178000  0.02503000  0.27351000  1.0
  C  C61  1  0.17822000  0.97497000  0.72649000  1.0
  S  S62  1  0.22327000  0.96514000  0.40842000  1.0
  S  S63  1  0.77673000  0.03486000  0.59158000  1.0
  S  S64  1  0.33456000  0.24979000  0.52620000  1.0
  S  S65  1  0.66544000  0.75021000  0.47379000  1.0
  N  N66  1  0.31597000  0.84371000  0.23454000  1.0
  N  N67  1  0.68402000  0.15628000  0.76546000  1.0
  N  N68  1  0.97563000  0.29497000  0.48720000  1.0
  N  N69  1  0.02437000  0.70503000  0.51279000  1.0
  N  N70  1  0.20647000  0.24374000  0.24382000  1.0
  N  N71  1  0.79353000  0.75626000  0.75618000  1.0
  O  O72  1  0.83874000  0.13178000  0.31000000  1.0
  O  O73  1  0.16126000  0.86821000  0.69001000  1.0
  O  O74  1  0.66157000  0.99229000  0.26213000  1.0
  O  O75  1  0.33843000  0.00770000  0.73788000  1.0
  O  O76  1  0.30034000  0.31475000  0.77861000  1.0
  O  O77  1  0.69966000  0.68525000  0.22139000  1.0
  O  O78  1  0.17319000  0.52197000  0.76573000  1.0
  O  O79  1  0.82680000  0.47803000  0.23428000  1.0
