# generated using pymatgen
data_CuH9C7SN3O
_symmetry_space_group_name_H-M   'P 1'
_cell_length_a   9.16791000
_cell_length_b   9.93560000
_cell_length_c   11.06150000
_cell_angle_alpha   89.99950000
_cell_angle_beta   90.00000000
_cell_angle_gamma   112.13300000
_symmetry_Int_Tables_number   1
_chemical_formula_structural   CuH9C7SN3O
_chemical_formula_sum   'Cu4 H36 C28 S4 N12 O4'
_cell_volume   933.33092140
_cell_formula_units_Z   4
loop_
 _symmetry_equiv_pos_site_id
 _symmetry_equiv_pos_as_xyz
  1  'x, y, z'
loop_
 _atom_site_type_symbol
 _atom_site_label
 _atom_site_symmetry_multiplicity
 _atom_site_fract_x
 _atom_site_fract_y
 _atom_site_fract_z
 _atom_site_occupancy
  Cu  Cu0  1  0.46582000  0.45569000  0.63586000  1.0
  Cu  Cu1  1  0.03418000  0.04432000  0.13587000  1.0
  Cu  Cu2  1  0.53418000  0.54432000  0.36413000  1.0
  Cu  Cu3  1  0.96582000  0.95569000  0.86414000  1.0
  H  H4  1  0.22525000  0.50459000  0.57945000  1.0
  H  H5  1  0.27474000  0.99541000  0.07944000  1.0
  H  H6  1  0.77475000  0.49541000  0.42055000  1.0
  H  H7  1  0.72525000  0.00459000  0.92056000  1.0
  H  H8  1  0.06288000  0.52273000  0.65045000  1.0
  H  H9  1  0.43711000  0.97727000  0.15044000  1.0
  H  H10  1  0.93711000  0.47727000  0.34955000  1.0
  H  H11  1  0.56289000  0.02273000  0.84955000  1.0
  H  H12  1  0.08470000  0.63129000  0.84968000  1.0
  H  H13  1  0.41530000  0.86871000  0.34968000  1.0
  H  H14  1  0.91530000  0.36871000  0.15032000  1.0
  H  H15  1  0.58470000  0.13129000  0.65032000  1.0
  H  H16  1  0.24257000  0.70539000  0.03923000  1.0
  H  H17  1  0.25743000  0.79461000  0.53922000  1.0
  H  H18  1  0.75743000  0.29461000  0.96078000  1.0
  H  H19  1  0.74257000  0.20538000  0.46078000  1.0
  H  H20  1  0.51037000  0.68902000  0.04839000  1.0
  H  H21  1  0.98964000  0.81098000  0.54840000  1.0
  H  H22  1  0.48963000  0.31098000  0.95160000  1.0
  H  H23  1  0.01036000  0.18901000  0.45160000  1.0
  H  H24  1  0.60270000  0.59186000  0.86758000  1.0
  H  H25  1  0.89730000  0.90814000  0.36759000  1.0
  H  H26  1  0.39730000  0.40814000  0.13242000  1.0
  H  H27  1  0.10270000  0.09185000  0.63242000  1.0
  H  H28  1  0.57062000  0.83784000  0.48703000  1.0
  H  H29  1  0.92940000  0.66218000  0.98703000  1.0
  H  H30  1  0.42939000  0.16218000  0.51297000  1.0
  H  H31  1  0.07059000  0.33783000  0.01297000  1.0
  H  H32  1  0.70871000  0.80216000  0.58266000  1.0
  H  H33  1  0.79129000  0.69783000  0.08267000  1.0
  H  H34  1  0.29128000  0.19783000  0.41734000  1.0
  H  H35  1  0.20870000  0.30218000  0.91734000  1.0
  H  H36  1  0.52148000  0.78850000  0.64037000  1.0
  H  H37  1  0.97852000  0.71149000  0.14039000  1.0
  H  H38  1  0.47851000  0.21149000  0.35962000  1.0
  H  H39  1  0.02147000  0.28850000  0.85963000  1.0
  C  C40  1  0.35565000  0.15924000  0.76339000  1.0
  C  C41  1  0.14435000  0.34077000  0.26340000  1.0
  C  C42  1  0.64436000  0.84077000  0.23660000  1.0
  C  C43  1  0.85565000  0.65925000  0.73661000  1.0
  C  C44  1  0.25919000  0.57040000  0.75852000  1.0
  C  C45  1  0.24081000  0.92960000  0.25852000  1.0
  C  C46  1  0.74081000  0.42960000  0.24148000  1.0
  C  C47  1  0.75919000  0.07039000  0.74148000  1.0
  C  C48  1  0.19923000  0.62293000  0.85809000  1.0
  C  C49  1  0.30077000  0.87707000  0.35809000  1.0
  C  C50  1  0.80077000  0.37707000  0.14191000  1.0
  C  C51  1  0.69924000  0.12293000  0.64191000  1.0
  C  C52  1  0.28798000  0.66478000  0.96222000  1.0
  C  C53  1  0.21203000  0.83522000  0.46222000  1.0
  C  C54  1  0.71202000  0.33522000  0.03778000  1.0
  C  C55  1  0.78798000  0.16477000  0.53778000  1.0
  C  C56  1  0.43733000  0.65639000  0.96801000  1.0
  C  C57  1  0.06268000  0.84361000  0.46802000  1.0
  C  C58  1  0.56267000  0.34361000  0.03199000  1.0
  C  C59  1  0.93733000  0.15639000  0.53199000  1.0
  C  C60  1  0.48904000  0.60315000  0.86830000  1.0
  C  C61  1  0.01096000  0.89685000  0.36832000  1.0
  C  C62  1  0.51096000  0.39685000  0.13169000  1.0
  C  C63  1  0.98904000  0.10315000  0.63169000  1.0
  C  C64  1  0.58264000  0.76882000  0.56082000  1.0
  C  C65  1  0.91736000  0.73117000  0.06083000  1.0
  C  C66  1  0.41736000  0.23117000  0.43917000  1.0
  C  C67  1  0.08263000  0.26883000  0.93918000  1.0
  S  S68  1  0.29216000  0.99927000  0.82461000  1.0
  S  S69  1  0.20785000  0.50074000  0.32461000  1.0
  S  S70  1  0.70785000  0.00075000  0.17539000  1.0
  S  S71  1  0.79215000  0.49928000  0.67537000  1.0
  N  N72  1  0.40353000  0.27474000  0.71619000  1.0
  N  N73  1  0.09648000  0.22527000  0.21620000  1.0
  N  N74  1  0.59648000  0.72528000  0.28380000  1.0
  N  N75  1  0.90353000  0.77473000  0.78382000  1.0
  N  N76  1  0.40262000  0.55984000  0.76645000  1.0
  N  N77  1  0.09737000  0.94016000  0.26645000  1.0
  N  N78  1  0.59738000  0.44016000  0.23355000  1.0
  N  N79  1  0.90263000  0.05984000  0.73355000  1.0
  N  N80  1  0.17658000  0.52937000  0.65456000  1.0
  N  N81  1  0.32341000  0.97063000  0.15456000  1.0
  N  N82  1  0.82342000  0.47063000  0.34544000  1.0
  N  N83  1  0.67659000  0.02937000  0.84544000  1.0
  O  O84  1  0.51424000  0.62046000  0.52574000  1.0
  O  O85  1  0.98576000  0.87954000  0.02575000  1.0
  O  O86  1  0.48576000  0.37954000  0.47426000  1.0
  O  O87  1  0.01424000  0.12046000  0.97426000  1.0
