# generated using pymatgen
data_Zn4H61C80N33
_symmetry_space_group_name_H-M   'P 1'
_cell_length_a   19.39080000
_cell_length_b   19.59600000
_cell_length_c   20.67300000
_cell_angle_alpha   105.51200000
_cell_angle_beta   107.14800000
_cell_angle_gamma   112.18200000
_symmetry_Int_Tables_number   1
_chemical_formula_structural   Zn4H61C80N33
_chemical_formula_sum   'Zn4 H61 C80 N33'
_cell_volume   6281.64088564
_cell_formula_units_Z   1
loop_
 _symmetry_equiv_pos_site_id
 _symmetry_equiv_pos_as_xyz
  1  'x, y, z'
loop_
 _atom_site_type_symbol
 _atom_site_label
 _atom_site_symmetry_multiplicity
 _atom_site_fract_x
 _atom_site_fract_y
 _atom_site_fract_z
 _atom_site_occupancy
  Zn  Zn0  1  0.88620000  0.89518000  0.49459000  1.0
  Zn  Zn1  1  0.08685000  0.12059000  0.47898000  1.0
  Zn  Zn2  1  0.08250000  0.00671000  0.60029000  1.0
  Zn  Zn3  1  0.88430000  0.00837000  0.38045000  1.0
  H  H4  1  0.83586000  0.82956000  0.62950000  1.0
  H  H5  1  0.32427000  0.89336000  0.33283000  1.0
  H  H6  1  0.85496000  0.63116000  0.55187000  1.0
  H  H7  1  0.77518000  0.49026000  0.53721000  1.0
  H  H8  1  0.84465000  0.27890000  0.51864000  1.0
  H  H9  1  0.27262000  0.10907000  0.72257000  1.0
  H  H10  1  0.11200000  0.40318000  0.62166000  1.0
  H  H11  1  0.73936000  0.61900000  0.01594000  1.0
  H  H12  1  0.93346000  0.86910000  0.99571000  1.0
  H  H13  1  0.11443000  0.91312000  0.24643000  1.0
  H  H14  1  0.13028000  0.84684000  0.13497000  1.0
  H  H15  1  0.24526000  0.30474000  0.68093000  1.0
  H  H16  1  0.79423000  0.95575000  0.57456000  1.0
  H  H17  1  0.83698000  0.73482000  0.36437000  1.0
  H  H18  1  0.34741000  0.17720000  0.52632000  1.0
  H  H19  1  0.30339000  0.22596000  0.56215000  1.0
  H  H20  1  0.12580000  0.86439000  0.63563000  1.0
  H  H21  1  0.87330000  0.92370000  0.21547000  1.0
  H  H22  1  0.14055000  0.05539000  0.34677000  1.0
  H  H23  1  0.83000000  0.65306000  0.46294000  1.0
  H  H24  1  0.80668000  0.72279000  0.49837000  1.0
  H  H25  1  0.76228000  0.83947000  0.21602000  1.0
  H  H26  1  0.15498000  0.92045000  0.51626000  1.0
  H  H27  1  0.25743000  0.94366000  0.40369000  1.0
  H  H28  1  0.34940000  0.12604000  0.64717000  1.0
  H  H29  1  0.45365000  0.16621000  0.69238000  1.0
  H  H30  1  0.54931000  0.14530000  0.70609000  1.0
  H  H31  1  0.08845000  0.25758000  0.60361000  1.0
  H  H32  1  0.74234000  0.16913000  0.71280000  1.0
  H  H33  1  0.69135000  0.19107000  0.76107000  1.0
  H  H34  1  0.74269000  0.09520000  0.62693000  1.0
  H  H35  1  0.54321000  0.87734000  0.34005000  1.0
  H  H36  1  0.64757000  0.91686000  0.38272000  1.0
  H  H37  1  0.44832000  0.89350000  0.32735000  1.0
  H  H38  1  0.12223000  0.74899000  0.64081000  1.0
  H  H39  1  0.77109000  0.35997000  0.52632000  1.0
  H  H40  1  0.25978000  0.61178000  0.74122000  1.0
  H  H41  1  0.20382000  0.51467000  0.72657000  1.0
  H  H42  1  0.19667000  0.68566000  0.69987000  1.0
  H  H43  1  0.40263000  0.20977000  0.82159000  1.0
  H  H44  1  0.54429000  0.31700000  0.92026000  1.0
  H  H45  1  0.62809000  0.45421000  0.16890000  1.0
  H  H46  1  0.61315000  0.41201000  0.07841000  1.0
  H  H47  1  0.71805000  0.60268000  0.24558000  1.0
  H  H48  1  0.39787000  0.37150000  0.71566000  1.0
  H  H49  1  0.51784000  0.51012000  0.78140000  1.0
  H  H50  1  0.60241000  0.53520000  0.85960000  1.0
  H  H51  1  0.77115000  0.07127000  0.42410000  1.0
  H  H52  1  0.83867000  0.76140000  0.09259000  1.0
  H  H53  1  0.86999000  0.80488000  0.18479000  1.0
  H  H54  1  0.88777000  0.94983000  0.05482000  1.0
  H  H55  1  0.92023000  0.99297000  0.14828000  1.0
  H  H56  1  0.80183000  0.66997000  0.75228000  1.0
  H  H57  1  0.86422000  0.68257000  0.83846000  1.0
  H  H58  1  0.86188000  0.76004000  0.69608000  1.0
  H  H59  1  0.13460000  0.89215000  0.98639000  1.0
  H  H60  1  0.18235000  0.96997000  0.96059000  1.0
  H  H61  1  0.10857000  0.96749000  0.84571000  1.0
  H  H62  1  0.87036000  0.19635000  0.41188000  1.0
  H  H63  1  0.14214000  0.01402000  0.79511000  1.0
  H  H64  1  0.14190000  0.07662000  0.75185000  1.0
  C  C65  1  0.89818000  0.87817000  0.64733000  1.0
  C  C66  1  0.97792000  0.25779000  0.52662000  1.0
  C  C67  1  0.29916000  0.22986000  0.71770000  1.0
  C  C68  1  0.75306000  0.01646000  0.50459000  1.0
  C  C69  1  0.82331000  0.77216000  0.33791000  1.0
  C  C70  1  0.23923000  0.10332000  0.52172000  1.0
  C  C71  1  0.06236000  0.83955000  0.59474000  1.0
  C  C72  1  0.93707000  0.96305000  0.25808000  1.0
  C  C73  1  0.07359000  0.02944000  0.32479000  1.0
  C  C74  1  0.92780000  0.76768000  0.51841000  1.0
  C  C75  1  0.78558000  0.82648000  0.26315000  1.0
  C  C76  1  0.03654000  0.23357000  0.54966000  1.0
  C  C77  1  0.17363000  0.98016000  0.51638000  1.0
  C  C78  1  0.79074000  0.75637000  0.26183000  1.0
  C  C79  1  0.24781000  0.03442000  0.51937000  1.0
  C  C80  1  0.99200000  0.76334000  0.56876000  1.0
  C  C81  1  0.01038000  0.97277000  0.25216000  1.0
  C  C82  1  0.31621000  0.97766000  0.45447000  1.0
  C  C83  1  0.32064000  0.02643000  0.52027000  1.0
  C  C84  1  0.39626000  0.07167000  0.58709000  1.0
  C  C85  1  0.46804000  0.06767000  0.58673000  1.0
  C  C86  1  0.46294000  0.01987000  0.51811000  1.0
  C  C87  1  0.25233000  0.14898000  0.70583000  1.0
  C  C88  1  0.38600000  0.97378000  0.45151000  1.0
  C  C89  1  0.54512000  0.11091000  0.65257000  1.0
  C  C90  1  0.61551000  0.10958000  0.65178000  1.0
  C  C91  1  0.61273000  0.06381000  0.58253000  1.0
  C  C92  1  0.53555000  0.01874000  0.51607000  1.0
  C  C93  1  0.53077000  0.97232000  0.44684000  1.0
  C  C94  1  0.45272000  0.92735000  0.38109000  1.0
  C  C95  1  0.38317000  0.92763000  0.38355000  1.0
  C  C96  1  0.68281000  0.06201000  0.57753000  1.0
  C  C97  1  0.67956000  0.01815000  0.51020000  1.0
  C  C98  1  0.78691000  0.04064000  0.45790000  1.0
  C  C99  1  0.60297000  0.97174000  0.44445000  1.0
  C  C100  1  0.06272000  0.69693000  0.62511000  1.0
  C  C101  1  0.98855000  0.69674000  0.58945000  1.0
  C  C102  1  0.91303000  0.63031000  0.57284000  1.0
  C  C103  1  0.90969000  0.56031000  0.58069000  1.0
  C  C104  1  0.98488000  0.55839000  0.60990000  1.0
  C  C105  1  0.06281000  0.63001000  0.63737000  1.0
  C  C106  1  0.83273000  0.48772000  0.55519000  1.0
  C  C107  1  0.83042000  0.41561000  0.54922000  1.0
  C  C108  1  0.90511000  0.41031000  0.56961000  1.0
  C  C109  1  0.23715000  0.24724000  0.68262000  1.0
  C  C110  1  0.98300000  0.48437000  0.60599000  1.0
  C  C111  1  0.05843000  0.48166000  0.63153000  1.0
  C  C112  1  0.13648000  0.55814000  0.67239000  1.0
  C  C113  1  0.13745000  0.62883000  0.67284000  1.0
  C  C114  1  0.90427000  0.33555000  0.54974000  1.0
  C  C115  1  0.97832000  0.33272000  0.56484000  1.0
  C  C116  1  0.05461000  0.40574000  0.61000000  1.0
  C  C117  1  0.76342000  0.68282000  0.19640000  1.0
  C  C118  1  0.77454000  0.68780000  0.13196000  1.0
  C  C119  1  0.73558000  0.61656000  0.06697000  1.0
  C  C120  1  0.79800000  0.98151000  0.53452000  1.0
  C  C121  1  0.68897000  0.53971000  0.06419000  1.0
  C  C122  1  0.68855000  0.53356000  0.13133000  1.0
  C  C123  1  0.72439000  0.60612000  0.19560000  1.0
  C  C124  1  0.51181000  0.32752000  0.87442000  1.0
  C  C125  1  0.43289000  0.26812000  0.81950000  1.0
  C  C126  1  0.55021000  0.40525000  0.87574000  1.0
  C  C127  1  0.38806000  0.28511000  0.76413000  1.0
  C  C128  1  0.42992000  0.35857000  0.75989000  1.0
  C  C129  1  0.51120000  0.41861000  0.81380000  1.0
  C  C130  1  0.98292000  0.86992000  0.76413000  1.0
  C  C131  1  0.92417000  0.19960000  0.45151000  1.0
  C  C132  1  0.05708000  0.90832000  0.83021000  1.0
  C  C133  1  0.06701000  0.87584000  0.88272000  1.0
  C  C134  1  0.99575000  0.80679000  0.87349000  1.0
  C  C135  1  0.92262000  0.76284000  0.80248000  1.0
  C  C136  1  0.91770000  0.79417000  0.74935000  1.0
  C  C137  1  0.97074000  0.87650000  0.05087000  1.0
  C  C138  1  0.96397000  0.91717000  0.11336000  1.0
  C  C139  1  0.03086000  0.85199000  0.05779000  1.0
  C  C140  1  0.01647000  0.93077000  0.18559000  1.0
  C  C141  1  0.07483000  0.90365000  0.19114000  1.0
  C  C142  1  0.03114000  0.97191000  0.70647000  1.0
  C  C143  1  0.08352000  0.86577000  0.12920000  1.0
  C  C144  1  0.97213000  0.90537000  0.71093000  1.0
  N  N145  1  0.91143000  0.92265000  0.60860000  1.0
  N  N146  1  0.16515000  0.08944000  0.52004000  1.0
  N  N147  1  0.04165000  0.88521000  0.56360000  1.0
  N  N148  1  0.95554000  0.00991000  0.32825000  1.0
  N  N149  1  0.03978000  0.05160000  0.36923000  1.0
  N  N150  1  0.95886000  0.84059000  0.51515000  1.0
  N  N151  1  0.81275000  0.87965000  0.33377000  1.0
  N  N152  1  0.12356000  0.01313000  0.51733000  1.0
  N  N153  1  0.63438000  0.46801000  0.99952000  1.0
  N  N154  1  0.61792000  0.47491000  0.93744000  1.0
  N  N155  1  0.98401000  0.79394000  0.93185000  1.0
  N  N156  1  0.01870000  0.16690000  0.49182000  1.0
  N  N157  1  0.04755000  0.82794000  0.99666000  1.0
  N  N158  1  0.17036000  0.12262000  0.66771000  1.0
  N  N159  1  0.84596000  0.01989000  0.45917000  1.0
  N  N160  1  0.16041000  0.18320000  0.65285000  1.0
  N  N161  1  0.85291000  0.98308000  0.50595000  1.0
  N  N162  1  0.94881000  0.14557000  0.43029000  1.0
  N  N163  1  0.99484000  0.98179000  0.64534000  1.0
  N  N164  1  0.83665000  0.84557000  0.38049000  1.0
  N  N165  1  0.29269000  0.17470000  0.52183000  1.0
  N  N166  1  0.84238000  0.71136000  0.47406000  1.0
  N  N167  1  0.39862000  0.11683000  0.65281000  1.0
  N  N168  1  0.68859000  0.14886000  0.71782000  1.0
  N  N169  1  0.59904000  0.92713000  0.37737000  1.0
  N  N170  1  0.20934000  0.55624000  0.70496000  1.0
  N  N171  1  0.65096000  0.45783000  0.13099000  1.0
  N  N172  1  0.55292000  0.49108000  0.81011000  1.0
  N  N173  1  0.82056000  0.76399000  0.13420000  1.0
  N  N174  1  0.90597000  0.94391000  0.10339000  1.0
  N  N175  1  0.85994000  0.69093000  0.79121000  1.0
  N  N176  1  0.14011000  0.91144000  0.94524000  1.0
  N  N177  1  0.11680000  0.01867000  0.74741000  1.0
