# generated using pymatgen
data_CdH18C20S2(N4O)2
_symmetry_space_group_name_H-M   'P 1'
_cell_length_a   5.91933000
_cell_length_b   7.97562000
_cell_length_c   12.77600000
_cell_angle_alpha   72.67620000
_cell_angle_beta   87.46460000
_cell_angle_gamma   82.41220000
_symmetry_Int_Tables_number   1
_chemical_formula_structural   CdH18C20S2(N4O)2
_chemical_formula_sum   'Cd1 H18 C20 S2 N8 O2'
_cell_volume   570.74856231
_cell_formula_units_Z   1
loop_
 _symmetry_equiv_pos_site_id
 _symmetry_equiv_pos_as_xyz
  1  'x, y, z'
loop_
 _atom_site_type_symbol
 _atom_site_label
 _atom_site_symmetry_multiplicity
 _atom_site_fract_x
 _atom_site_fract_y
 _atom_site_fract_z
 _atom_site_occupancy
  Cd  Cd0  1  0.50001000  0.00000000  0.00000000  1.0
  H  H1  1  0.48981000  0.24054000  0.50141000  1.0
  H  H2  1  0.51017000  0.75946000  0.49859000  1.0
  H  H3  1  0.72608000  0.31828000  0.60947000  1.0
  H  H4  1  0.27391000  0.68171000  0.39054000  1.0
  H  H5  1  0.86382000  0.09770000  0.64953000  1.0
  H  H6  1  0.13618000  0.90231000  0.35047000  1.0
  H  H7  1  0.38270000  0.13540000  0.36043000  1.0
  H  H8  1  0.61730000  0.86459000  0.63957000  1.0
  H  H9  1  0.67488000  0.09411000  0.32250000  1.0
  H  H10  1  0.32512000  0.90589000  0.67751000  1.0
  H  H11  1  0.86966000  0.33684000  0.19781000  1.0
  H  H12  1  0.13034000  0.66314000  0.80219000  1.0
  H  H13  1  0.82320000  0.63803000  0.06163000  1.0
  H  H14  1  0.17680000  0.36196000  0.93836000  1.0
  H  H15  1  0.15240000  0.73758000  0.15536000  1.0
  H  H16  1  0.84762000  0.26242000  0.84464000  1.0
  H  H17  1  0.16948000  0.43814000  0.29419000  1.0
  H  H18  1  0.83053000  0.56187000  0.70582000  1.0
  C  C19  1  0.97752000  0.05424000  0.12124000  1.0
  C  C20  1  0.02249000  0.94575000  0.87875000  1.0
  C  C21  1  0.08307000  0.29022000  0.59486000  1.0
  C  C22  1  0.91692000  0.70979000  0.40515000  1.0
  C  C23  1  0.86642000  0.22891000  0.58820000  1.0
  C  C24  1  0.13357000  0.77110000  0.41180000  1.0
  C  C25  1  0.83364000  0.20901000  0.47393000  1.0
  C  C26  1  0.16635000  0.79102000  0.52607000  1.0
  C  C27  1  0.54668000  0.18818000  0.34687000  1.0
  C  C28  1  0.45332000  0.81182000  0.65314000  1.0
  C  C29  1  0.52361000  0.36485000  0.25888000  1.0
  C  C30  1  0.47640000  0.63514000  0.74112000  1.0
  C  C31  1  0.70760000  0.42159000  0.19129000  1.0
  C  C32  1  0.29239000  0.57841000  0.80871000  1.0
  C  C33  1  0.68323000  0.58927000  0.11589000  1.0
  C  C34  1  0.31677000  0.41073000  0.88411000  1.0
  C  C35  1  0.30874000  0.64493000  0.16764000  1.0
  C  C36  1  0.69127000  0.35507000  0.83235000  1.0
  C  C37  1  0.31904000  0.47911000  0.24505000  1.0
  C  C38  1  0.68095000  0.52089000  0.75495000  1.0
  S  S39  1  0.21560000  0.11639000  0.14706000  1.0
  S  S40  1  0.78442000  0.88360000  0.85293000  1.0
  N  N41  1  0.80384000  0.00695000  0.10610000  1.0
  N  N42  1  0.19618000  0.99304000  0.89389000  1.0
  N  N43  1  0.48843000  0.70054000  0.10470000  1.0
  N  N44  1  0.51158000  0.29945000  0.89529000  1.0
  N  N45  1  0.61476000  0.20588000  0.45112000  1.0
  N  N46  1  0.38523000  0.79412000  0.54889000  1.0
  N  N47  1  0.26054000  0.33691000  0.59782000  1.0
  N  N48  1  0.73944000  0.66310000  0.40219000  1.0
  O  O49  1  0.99680000  0.19065000  0.41239000  1.0
  O  O50  1  0.00318000  0.80936000  0.58761000  1.0
