# generated using pymatgen
data_AlH9C21N(ClO2)3
_symmetry_space_group_name_H-M   'P 1'
_cell_length_a   4.11494000
_cell_length_b   13.48200000
_cell_length_c   13.48225378
_cell_angle_alpha   59.99986803
_cell_angle_beta   90.00000001
_cell_angle_gamma   89.99920000
_symmetry_Int_Tables_number   1
_chemical_formula_structural   AlH9C21N(ClO2)3
_chemical_formula_sum   'Al1 H9 C21 N1 Cl3 O6'
_cell_volume   647.75441509
_cell_formula_units_Z   1
loop_
 _symmetry_equiv_pos_site_id
 _symmetry_equiv_pos_as_xyz
  1  'x, y, z'
loop_
 _atom_site_type_symbol
 _atom_site_label
 _atom_site_symmetry_multiplicity
 _atom_site_fract_x
 _atom_site_fract_y
 _atom_site_fract_z
 _atom_site_occupancy
  Al  Al0  1  0.02400000  0.00000000  0.50000000  1.0
  H  H1  1  0.22512000  0.97175000  0.21646000  1.0
  H  H2  1  0.20790000  0.87123000  0.10608000  1.0
  H  H3  1  0.76656000  0.59472000  0.37060000  1.0
  H  H4  1  0.76657000  0.87061000  0.03467000  1.0
  H  H5  1  0.22510000  0.71645000  0.81181000  1.0
  H  H6  1  0.20787000  0.60608000  0.02270000  1.0
  H  H7  1  0.76656000  0.53467000  0.09472000  1.0
  H  H8  1  0.22511000  0.31181000  0.47174000  1.0
  H  H9  1  0.20788000  0.52270000  0.37122000  1.0
  C  C10  1  0.52176000  0.91962000  0.67463000  1.0
  C  C11  1  0.52174000  0.17462000  0.40576000  1.0
  C  C12  1  0.52176000  0.90575000  0.41963000  1.0
  C  C13  1  0.34723000  0.88944000  0.24949000  1.0
  C  C14  1  0.33490000  0.83232000  0.18768000  1.0
  C  C15  1  0.48789000  0.72554000  0.22930000  1.0
  C  C16  1  0.64774000  0.67749000  0.33519000  1.0
  C  C17  1  0.65160000  0.73424000  0.39753000  1.0
  C  C18  1  0.50731000  0.84191000  0.35513000  1.0
  C  C19  1  0.64773000  0.83520000  0.98732000  1.0
  C  C20  1  0.65160000  0.89753000  0.86823000  1.0
  C  C21  1  0.50732000  0.85512000  0.80298000  1.0
  C  C22  1  0.34719000  0.74950000  0.86107000  1.0
  C  C23  1  0.33491000  0.68769000  0.98001000  1.0
  C  C24  1  0.48789000  0.72931000  0.04516000  1.0
  C  C25  1  0.64772000  0.48732000  0.17749000  1.0
  C  C26  1  0.65161000  0.36822000  0.23425000  1.0
  C  C27  1  0.50733000  0.30297000  0.34191000  1.0
  C  C28  1  0.34722000  0.36108000  0.38943000  1.0
  C  C29  1  0.33491000  0.48003000  0.33230000  1.0
  C  C30  1  0.48789000  0.54517000  0.22553000  1.0
  N  N31  1  0.48030000  0.66667000  0.16667000  1.0
  Cl  Cl32  1  0.83674000  0.66812000  0.53059000  1.0
  Cl  Cl33  1  0.83674000  0.03058000  0.80129000  1.0
  Cl  Cl34  1  0.83675000  0.30128000  0.16814000  1.0
  O  O35  1  0.76345000  0.97237000  0.39842000  1.0
  O  O36  1  0.76344000  0.89841000  0.62922000  1.0
  O  O37  1  0.76343000  0.12921000  0.47238000  1.0
  O  O38  1  0.29131000  0.89009000  0.48865000  1.0
  O  O39  1  0.29129000  0.12127000  0.39009000  1.0
  O  O40  1  0.29128000  0.98864000  0.62127000  1.0
