# generated using pymatgen
data_ZnH14C24N4(ClO2)2
_symmetry_space_group_name_H-M   'P 1'
_cell_length_a   7.72021000
_cell_length_b   12.28410000
_cell_length_c   12.73430000
_cell_angle_alpha   75.06200000
_cell_angle_beta   88.90010000
_cell_angle_gamma   88.58860000
_symmetry_Int_Tables_number   1
_chemical_formula_structural   ZnH14C24N4(ClO2)2
_chemical_formula_sum   'Zn2 H28 C48 N8 Cl4 O8'
_cell_volume   1166.39800527
_cell_formula_units_Z   2
loop_
 _symmetry_equiv_pos_site_id
 _symmetry_equiv_pos_as_xyz
  1  'x, y, z'
loop_
 _atom_site_type_symbol
 _atom_site_label
 _atom_site_symmetry_multiplicity
 _atom_site_fract_x
 _atom_site_fract_y
 _atom_site_fract_z
 _atom_site_occupancy
  Zn  Zn0  1  0.61072000  0.04027000  0.29229000  1.0
  Zn  Zn1  1  0.38928000  0.95973000  0.70772000  1.0
  H  H2  1  0.00597000  0.05686000  0.29159000  1.0
  H  H3  1  0.99403000  0.94315000  0.70840000  1.0
  H  H4  1  0.66084000  0.89728000  0.13775000  1.0
  H  H5  1  0.33916000  0.10272000  0.86224000  1.0
  H  H6  1  0.21257000  0.85760000  0.08422000  1.0
  H  H7  1  0.78742000  0.14241000  0.91577000  1.0
  H  H8  1  0.61358000  0.58695000  0.44343000  1.0
  H  H9  1  0.38644000  0.41305000  0.55657000  1.0
  H  H10  1  0.79371000  0.46900000  0.75929000  1.0
  H  H11  1  0.20630000  0.53099000  0.24072000  1.0
  H  H12  1  0.73697000  0.82855000  0.62114000  1.0
  H  H13  1  0.26301000  0.17144000  0.37889000  1.0
  H  H14  1  0.53171000  0.13557000  0.02884000  1.0
  H  H15  1  0.46830000  0.86442000  0.97116000  1.0
  H  H16  1  0.56341000  0.32033000  0.88762000  1.0
  H  H17  1  0.43658000  0.67967000  0.11238000  1.0
  H  H18  1  0.66783000  0.48800000  0.94607000  1.0
  H  H19  1  0.33216000  0.51200000  0.05393000  1.0
  H  H20  1  0.75536000  0.56980000  0.10034000  1.0
  H  H21  1  0.24465000  0.43020000  0.89966000  1.0
  H  H22  1  0.81714000  0.54132000  0.29512000  1.0
  H  H23  1  0.18286000  0.45868000  0.70487000  1.0
  H  H24  1  0.84342000  0.40805000  0.48438000  1.0
  H  H25  1  0.15658000  0.59195000  0.51562000  1.0
  H  H26  1  0.82089000  0.21193000  0.60202000  1.0
  H  H27  1  0.17912000  0.78808000  0.39797000  1.0
  H  H28  1  0.72595000  0.05835000  0.52033000  1.0
  H  H29  1  0.27405000  0.94165000  0.47967000  1.0
  C  C30  1  0.31521000  0.99011000  0.20534000  1.0
  C  C31  1  0.68480000  0.00988000  0.79464000  1.0
  C  C32  1  0.13146000  0.95985000  0.19072000  1.0
  C  C33  1  0.86853000  0.04016000  0.80927000  1.0
  C  C34  1  0.98878000  0.00218000  0.23753000  1.0
  C  C35  1  0.01123000  0.99782000  0.76246000  1.0
  C  C36  1  0.79593000  0.91189000  0.15151000  1.0
  C  C37  1  0.20408000  0.08812000  0.84849000  1.0
  C  C38  1  0.93330000  0.86491000  0.10448000  1.0
  C  C39  1  0.06670000  0.13509000  0.89551000  1.0
  C  C40  1  0.10257000  0.88969000  0.12250000  1.0
  C  C41  1  0.89744000  0.11032000  0.87749000  1.0
  C  C42  1  0.62994000  0.81183000  0.41957000  1.0
  C  C43  1  0.37007000  0.18817000  0.58043000  1.0
  C  C44  1  0.67360000  0.71870000  0.51939000  1.0
  C  C45  1  0.32640000  0.28130000  0.48062000  1.0
  C  C46  1  0.66103000  0.60582000  0.51693000  1.0
  C  C47  1  0.33899000  0.39418000  0.48307000  1.0
  C  C48  1  0.75781000  0.54066000  0.69193000  1.0
  C  C49  1  0.24220000  0.45934000  0.30807000  1.0
  C  C50  1  0.77075000  0.65086000  0.70183000  1.0
  C  C51  1  0.22924000  0.34913000  0.29819000  1.0
  C  C52  1  0.72877000  0.74196000  0.61502000  1.0
  C  C53  1  0.27121000  0.25804000  0.38499000  1.0
  C  C54  1  0.57728000  0.21048000  0.05020000  1.0
  C  C55  1  0.42273000  0.78952000  0.94981000  1.0
  C  C56  1  0.59536000  0.31424000  0.97203000  1.0
  C  C57  1  0.40464000  0.68575000  0.02797000  1.0
  C  C58  1  0.65220000  0.40639000  0.00428000  1.0
  C  C59  1  0.34779000  0.59360000  0.99572000  1.0
  C  C60  1  0.68987000  0.39520000  0.11478000  1.0
  C  C61  1  0.31013000  0.60479000  0.88522000  1.0
  C  C62  1  0.67103000  0.28676000  0.18701000  1.0
  C  C63  1  0.32896000  0.71324000  0.81299000  1.0
  C  C64  1  0.74347000  0.48662000  0.15634000  1.0
  C  C65  1  0.25652000  0.51338000  0.84365000  1.0
  C  C66  1  0.77851000  0.47070000  0.26414000  1.0
  C  C67  1  0.22149000  0.52930000  0.73586000  1.0
  C  C68  1  0.76697000  0.36145000  0.33859000  1.0
  C  C69  1  0.23303000  0.63855000  0.66140000  1.0
  C  C70  1  0.71364000  0.26920000  0.29999000  1.0
  C  C71  1  0.28635000  0.73081000  0.70001000  1.0
  C  C72  1  0.80676000  0.33943000  0.45004000  1.0
  C  C73  1  0.19325000  0.66057000  0.54996000  1.0
  C  C74  1  0.79381000  0.23105000  0.51560000  1.0
  C  C75  1  0.20620000  0.76895000  0.48440000  1.0
  C  C76  1  0.74047000  0.14436000  0.47066000  1.0
  C  C77  1  0.25953000  0.85565000  0.52934000  1.0
  N  N78  1  0.82535000  0.97971000  0.21655000  1.0
  N  N79  1  0.17464000  0.02029000  0.78345000  1.0
  N  N80  1  0.70297000  0.51834000  0.60062000  1.0
  N  N81  1  0.29705000  0.48166000  0.39938000  1.0
  N  N82  1  0.61508000  0.19740000  0.15429000  1.0
  N  N83  1  0.38492000  0.80260000  0.84571000  1.0
  N  N84  1  0.70099000  0.16333000  0.36580000  1.0
  N  N85  1  0.29900000  0.83668000  0.63420000  1.0
  Cl  Cl86  1  0.89023000  0.77844000  0.02100000  1.0
  Cl  Cl87  1  0.10977000  0.22157000  0.97899000  1.0
  Cl  Cl88  1  0.84355000  0.67382000  0.82214000  1.0
  Cl  Cl89  1  0.15643000  0.32616000  0.17788000  1.0
  O  O90  1  0.34703000  0.02870000  0.28792000  1.0
  O  O91  1  0.65297000  0.97130000  0.71207000  1.0
  O  O92  1  0.42473000  0.97608000  0.13597000  1.0
  O  O93  1  0.57526000  0.02392000  0.86403000  1.0
  O  O94  1  0.64691000  0.91277000  0.43070000  1.0
  O  O95  1  0.35309000  0.08723000  0.56931000  1.0
  O  O96  1  0.58333000  0.78569000  0.33604000  1.0
  O  O97  1  0.41668000  0.21432000  0.66397000  1.0
