# generated using pymatgen
data_CuH17C23(N3O2)2
_symmetry_space_group_name_H-M   'P 1'
_cell_length_a   11.50950000
_cell_length_b   15.37730000
_cell_length_c   17.58995661
_cell_angle_alpha   64.67838393
_cell_angle_beta   70.90421063
_cell_angle_gamma   68.04800000
_symmetry_Int_Tables_number   1
_chemical_formula_structural   CuH17C23(N3O2)2
_chemical_formula_sum   'Cu4 H68 C92 N24 O16'
_cell_volume   2557.55474401
_cell_formula_units_Z   4
loop_
 _symmetry_equiv_pos_site_id
 _symmetry_equiv_pos_as_xyz
  1  'x, y, z'
loop_
 _atom_site_type_symbol
 _atom_site_label
 _atom_site_symmetry_multiplicity
 _atom_site_fract_x
 _atom_site_fract_y
 _atom_site_fract_z
 _atom_site_occupancy
  Cu  Cu0  1  0.84011000  0.16954000  0.22873000  1.0
  Cu  Cu1  1  0.23844000  0.33023000  0.27124000  1.0
  Cu  Cu2  1  0.15989000  0.83046000  0.77127000  1.0
  Cu  Cu3  1  0.76156000  0.66975000  0.72877000  1.0
  H  H4  1  0.88385000  0.04649000  0.43177000  1.0
  H  H5  1  0.13912000  0.13328000  0.19622000  1.0
  H  H6  1  0.34100000  0.06530000  0.25526000  1.0
  H  H7  1  0.31901000  0.05231000  0.36357000  1.0
  H  H8  1  0.21674000  0.88885000  0.30358000  1.0
  H  H9  1  0.32318000  0.71058000  0.32998000  1.0
  H  H10  1  0.61121000  0.73181000  0.42332000  1.0
  H  H11  1  0.50680000  0.91030000  0.39429000  1.0
  H  H12  1  0.38542000  0.55331000  0.40072000  1.0
  H  H13  1  0.50506000  0.37731000  0.42237000  1.0
  H  H14  1  0.85009000  0.44599000  0.39592000  1.0
  H  H15  1  0.73236000  0.62097000  0.37133000  1.0
  H  H16  1  0.74188000  0.26081000  0.38441000  1.0
  H  H17  1  0.72650000  0.24249000  0.49346000  1.0
  H  H18  1  0.95852000  0.31189000  0.27874000  1.0
  H  H19  1  0.13276000  0.25630000  0.47787000  1.0
  H  H20  1  0.72950000  0.92183000  0.45320000  1.0
  H  H21  1  0.36241000  0.45329000  0.06827000  1.0
  H  H22  1  0.46888000  0.36658000  0.30378000  1.0
  H  H23  1  0.66184000  0.43453000  0.24478000  1.0
  H  H24  1  0.73516000  0.44759000  0.13645000  1.0
  H  H25  1  0.40962000  0.61071000  0.19669000  1.0
  H  H26  1  0.36408000  0.78901000  0.17023000  1.0
  H  H27  1  0.76649000  0.76832000  0.07645000  1.0
  H  H28  1  0.81163000  0.58975000  0.10556000  1.0
  H  H29  1  0.33985000  0.94645000  0.09925000  1.0
  H  H30  1  0.30514000  0.12251000  0.07766000  1.0
  H  H31  1  0.69236000  0.05394000  0.10406000  1.0
  H  H32  1  0.72493000  0.87899000  0.12861000  1.0
  H  H33  1  0.38754000  0.23911000  0.11551000  1.0
  H  H34  1  0.46292000  0.25740000  0.00645000  1.0
  H  H35  1  0.54941000  0.18803000  0.22118000  1.0
  H  H36  1  0.86740000  0.24351000  0.02213000  1.0
  H  H37  1  0.10522000  0.57797000  0.04660000  1.0
  H  H38  1  0.11615000  0.95351000  0.56823000  1.0
  H  H39  1  0.86088000  0.86672000  0.80378000  1.0
  H  H40  1  0.65900000  0.93471000  0.74474000  1.0
  H  H41  1  0.68099000  0.94770000  0.63643000  1.0
  H  H42  1  0.78325000  0.11115000  0.69642000  1.0
  H  H43  1  0.67681000  0.28944000  0.67001000  1.0
  H  H44  1  0.38878000  0.26819000  0.57668000  1.0
  H  H45  1  0.49320000  0.08970000  0.60571000  1.0
  H  H46  1  0.61457000  0.44669000  0.59928000  1.0
  H  H47  1  0.49493000  0.62271000  0.57762000  1.0
  H  H48  1  0.14991000  0.55401000  0.60408000  1.0
  H  H49  1  0.26764000  0.37903000  0.62867000  1.0
  H  H50  1  0.25812000  0.73919000  0.61559000  1.0
  H  H51  1  0.27350000  0.75752000  0.50653000  1.0
  H  H52  1  0.04148000  0.68811000  0.72126000  1.0
  H  H53  1  0.86723000  0.74370000  0.52213000  1.0
  H  H54  1  0.27050000  0.07816000  0.54680000  1.0
  H  H55  1  0.63759000  0.54671000  0.93174000  1.0
  H  H56  1  0.53112000  0.63342000  0.69622000  1.0
  H  H57  1  0.33816000  0.56547000  0.75522000  1.0
  H  H58  1  0.26485000  0.55240000  0.86356000  1.0
  H  H59  1  0.59038000  0.38929000  0.80331000  1.0
  H  H60  1  0.63592000  0.21099000  0.82977000  1.0
  H  H61  1  0.23351000  0.23168000  0.92354000  1.0
  H  H62  1  0.18837000  0.41025000  0.89444000  1.0
  H  H63  1  0.66015000  0.05355000  0.90075000  1.0
  H  H64  1  0.69486000  0.87750000  0.92233000  1.0
  H  H65  1  0.30764000  0.94606000  0.89594000  1.0
  H  H66  1  0.27507000  0.12101000  0.87139000  1.0
  H  H67  1  0.61246000  0.76089000  0.88449000  1.0
  H  H68  1  0.53709000  0.74260000  0.99355000  1.0
  H  H69  1  0.45058000  0.81198000  0.77882000  1.0
  H  H70  1  0.13261000  0.75649000  0.97787000  1.0
  H  H71  1  0.89479000  0.42202000  0.95340000  1.0
  C  C72  1  0.96984000  0.05729000  0.38395000  1.0
  C  C73  1  0.09825000  0.10134000  0.26349000  1.0
  C  C74  1  0.30015000  0.02501000  0.32170000  1.0
  C  C75  1  0.35713000  0.91360000  0.34365000  1.0
  C  C76  1  0.30515000  0.85528000  0.32802000  1.0
  C  C77  1  0.36529000  0.75389000  0.34340000  1.0
  C  C78  1  0.48006000  0.70755000  0.37387000  1.0
  C  C79  1  0.52794000  0.76587000  0.39344000  1.0
  C  C80  1  0.46753000  0.86714000  0.37838000  1.0
  C  C81  1  0.54913000  0.60172000  0.38476000  1.0
  C  C82  1  0.48824000  0.53106000  0.39732000  1.0
  C  C83  1  0.55566000  0.43110000  0.40997000  1.0
  C  C84  1  0.68677000  0.39818000  0.41049000  1.0
  C  C85  1  0.74825000  0.46835000  0.39650000  1.0
  C  C86  1  0.68090000  0.56812000  0.38338000  1.0
  C  C87  1  0.75815000  0.28866000  0.42712000  1.0
  C  C88  1  0.97858000  0.29442000  0.34064000  1.0
  C  C89  1  0.06363000  0.26427000  0.44407000  1.0
  C  C90  1  0.65712000  0.11442000  0.35559000  1.0
  C  C91  1  0.57434000  0.05565000  0.42891000  1.0
  C  C92  1  0.44445000  0.10085000  0.45462000  1.0
  C  C93  1  0.62849000  0.95540000  0.47429000  1.0
  C  C94  1  0.37725000  0.20567000  0.40454000  1.0
  C  C95  1  0.41136000  0.44252000  0.11607000  1.0
  C  C96  1  0.46332000  0.39849000  0.23652000  1.0
  C  C97  1  0.64717000  0.47483000  0.17834000  1.0
  C  C98  1  0.61476000  0.58621000  0.15641000  1.0
  C  C99  1  0.48885000  0.64437000  0.17214000  1.0
  C  C100  1  0.46290000  0.74579000  0.15673000  1.0
  C  C101  1  0.56172000  0.79231000  0.12615000  1.0
  C  C102  1  0.68745000  0.73414000  0.10644000  1.0
  C  C103  1  0.71333000  0.63284000  0.12154000  1.0
  C  C104  1  0.53586000  0.89813000  0.11529000  1.0
  C  C105  1  0.41694000  0.96874000  0.10272000  1.0
  C  C106  1  0.39706000  0.06872000  0.09011000  1.0
  C  C107  1  0.49578000  0.10170000  0.08955000  1.0
  C  C108  1  0.61339000  0.03153000  0.10356000  1.0
  C  C109  1  0.63266000  0.93176000  0.11667000  1.0
  C  C110  1  0.47435000  0.21126000  0.07281000  1.0
  C  C111  1  0.61399000  0.20545000  0.15930000  1.0
  C  C112  1  0.77243000  0.23554000  0.05593000  1.0
  C  C113  1  0.12736000  0.38536000  0.14432000  1.0
  C  C114  1  0.05913000  0.44424000  0.07097000  1.0
  C  C115  1  0.99976000  0.39917000  0.04536000  1.0
  C  C116  1  0.05858000  0.54448000  0.02562000  1.0
  C  C117  1  0.98744000  0.29432000  0.09547000  1.0
  C  C118  1  0.03016000  0.94271000  0.61605000  1.0
  C  C119  1  0.90175000  0.89867000  0.73650000  1.0
  C  C120  1  0.69985000  0.97500000  0.67830000  1.0
  C  C121  1  0.64286000  0.08640000  0.65635000  1.0
  C  C122  1  0.69485000  0.14473000  0.67197000  1.0
  C  C123  1  0.63471000  0.24611000  0.65660000  1.0
  C  C124  1  0.51994000  0.29246000  0.62613000  1.0
  C  C125  1  0.47206000  0.23414000  0.60656000  1.0
  C  C126  1  0.53246000  0.13286000  0.62162000  1.0
  C  C127  1  0.45087000  0.39829000  0.61524000  1.0
  C  C128  1  0.51176000  0.46894000  0.60268000  1.0
  C  C129  1  0.44435000  0.56891000  0.59002000  1.0
  C  C130  1  0.31323000  0.60183000  0.58950000  1.0
  C  C131  1  0.25174000  0.53165000  0.60350000  1.0
  C  C132  1  0.31909000  0.43187000  0.61663000  1.0
  C  C133  1  0.24185000  0.71134000  0.57288000  1.0
  C  C134  1  0.02142000  0.70558000  0.65936000  1.0
  C  C135  1  0.93637000  0.73573000  0.55593000  1.0
  C  C136  1  0.34288000  0.88557000  0.64442000  1.0
  C  C137  1  0.42565000  0.94435000  0.57109000  1.0
  C  C138  1  0.55555000  0.89915000  0.54538000  1.0
  C  C139  1  0.37151000  0.04460000  0.52571000  1.0
  C  C140  1  0.62275000  0.79432000  0.59547000  1.0
  C  C141  1  0.58863000  0.55748000  0.88393000  1.0
  C  C142  1  0.53668000  0.60151000  0.76348000  1.0
  C  C143  1  0.35283000  0.52517000  0.82166000  1.0
  C  C144  1  0.38524000  0.41378000  0.84359000  1.0
  C  C145  1  0.51116000  0.35562000  0.82787000  1.0
  C  C146  1  0.53710000  0.25422000  0.84326000  1.0
  C  C147  1  0.43828000  0.20769000  0.87385000  1.0
  C  C148  1  0.31255000  0.26586000  0.89356000  1.0
  C  C149  1  0.28667000  0.36716000  0.87846000  1.0
  C  C150  1  0.46414000  0.10187000  0.88471000  1.0
  C  C151  1  0.58306000  0.03126000  0.89728000  1.0
  C  C152  1  0.60295000  0.93127000  0.90989000  1.0
  C  C153  1  0.50422000  0.89830000  0.91044000  1.0
  C  C154  1  0.38661000  0.96847000  0.89644000  1.0
  C  C155  1  0.36734000  0.06824000  0.88333000  1.0
  C  C156  1  0.52565000  0.78874000  0.92719000  1.0
  C  C157  1  0.38601000  0.79455000  0.84070000  1.0
  C  C158  1  0.22757000  0.76445000  0.94408000  1.0
  C  C159  1  0.87265000  0.61463000  0.85569000  1.0
  C  C160  1  0.94087000  0.55576000  0.92903000  1.0
  C  C161  1  0.00025000  0.60083000  0.95464000  1.0
  C  C162  1  0.94143000  0.45552000  0.97438000  1.0
  C  C163  1  0.01256000  0.70567000  0.90454000  1.0
  N  N164  1  0.97474000  0.10456000  0.29735000  1.0
  N  N165  1  0.08307000  0.02594000  0.40468000  1.0
  N  N166  1  0.16288000  0.05453000  0.32746000  1.0
  N  N167  1  0.08742000  0.28952000  0.35661000  1.0
  N  N168  1  0.94692000  0.25417000  0.48192000  1.0
  N  N169  1  0.89492000  0.27253000  0.41533000  1.0
  N  N170  1  0.37688000  0.39527000  0.20267000  1.0
  N  N171  1  0.51400000  0.47389000  0.09533000  1.0
  N  N172  1  0.54518000  0.44530000  0.17254000  1.0
  N  N173  1  0.73391000  0.21027000  0.14338000  1.0
  N  N174  1  0.68347000  0.24575000  0.01803000  1.0
  N  N175  1  0.58319000  0.22743000  0.08459000  1.0
  N  N176  1  0.02527000  0.89544000  0.70265000  1.0
  N  N177  1  0.91694000  0.97407000  0.59532000  1.0
  N  N178  1  0.83713000  0.94548000  0.67254000  1.0
  N  N179  1  0.91258000  0.71048000  0.64339000  1.0
  N  N180  1  0.05307000  0.74583000  0.51808000  1.0
  N  N181  1  0.10507000  0.72747000  0.58467000  1.0
  N  N182  1  0.62312000  0.60474000  0.79733000  1.0
  N  N183  1  0.48600000  0.52610000  0.90468000  1.0
  N  N184  1  0.45482000  0.55470000  0.82746000  1.0
  N  N185  1  0.26609000  0.78972000  0.85663000  1.0
  N  N186  1  0.31654000  0.75425000  0.98197000  1.0
  N  N187  1  0.41682000  0.77256000  0.91541000  1.0
  O  O188  1  0.75008000  0.06508000  0.31168000  1.0
  O  O189  1  0.63614000  0.20643000  0.33980000  1.0
  O  O190  1  0.36110000  0.21103000  0.33257000  1.0
  O  O191  1  0.33494000  0.27443000  0.43421000  1.0
  O  O192  1  0.12723000  0.43471000  0.18819000  1.0
  O  O193  1  0.18244000  0.29335000  0.16012000  1.0
  O  O194  1  0.90490000  0.28884000  0.16752000  1.0
  O  O195  1  0.04350000  0.22559000  0.06576000  1.0
  O  O196  1  0.24992000  0.93491000  0.68833000  1.0
  O  O197  1  0.36386000  0.79357000  0.66020000  1.0
  O  O198  1  0.63891000  0.78896000  0.66743000  1.0
  O  O199  1  0.66506000  0.72557000  0.56579000  1.0
  O  O200  1  0.87277000  0.56529000  0.81181000  1.0
  O  O201  1  0.81757000  0.70665000  0.83988000  1.0
  O  O202  1  0.09510000  0.71116000  0.83249000  1.0
  O  O203  1  0.95649000  0.77441000  0.93424000  1.0
