# generated using pymatgen
data_CdH26C34Br2(N5O2)2
_symmetry_space_group_name_H-M   'P 1'
_cell_length_a   8.39353000
_cell_length_b   9.16449000
_cell_length_c   11.91160000
_cell_angle_alpha   78.35420000
_cell_angle_beta   75.34790000
_cell_angle_gamma   87.02500000
_symmetry_Int_Tables_number   1
_chemical_formula_structural   CdH26C34Br2(N5O2)2
_chemical_formula_sum   'Cd1 H26 C34 Br2 N10 O4'
_cell_volume   868.22257733
_cell_formula_units_Z   1
loop_
 _symmetry_equiv_pos_site_id
 _symmetry_equiv_pos_as_xyz
  1  'x, y, z'
loop_
 _atom_site_type_symbol
 _atom_site_label
 _atom_site_symmetry_multiplicity
 _atom_site_fract_x
 _atom_site_fract_y
 _atom_site_fract_z
 _atom_site_occupancy
  Cd  Cd0  1  0.50000000  0.50000000  0.00000000  1.0
  H  H1  1  0.18981000  0.79214000  0.63617000  1.0
  H  H2  1  0.81019000  0.20786000  0.36383000  1.0
  H  H3  1  0.94809000  0.69512000  0.57960000  1.0
  H  H4  1  0.05191000  0.30487000  0.42040000  1.0
  H  H5  1  0.32796000  0.64118000  0.78334000  1.0
  H  H6  1  0.67204000  0.35882000  0.21666000  1.0
  H  H7  1  0.24485000  0.11542000  0.75883000  1.0
  H  H8  1  0.75514000  0.88458000  0.24117000  1.0
  H  H9  1  0.31689000  0.08944000  0.95278000  1.0
  H  H10  1  0.68310000  0.91056000  0.04722000  1.0
  H  H11  1  0.40883000  0.83754000  0.04757000  1.0
  H  H12  1  0.59117000  0.16246000  0.95243000  1.0
  H  H13  1  0.36020000  0.13981000  0.31915000  1.0
  H  H14  1  0.63980000  0.86019000  0.68085000  1.0
  H  H15  1  0.25665000  0.08093000  0.15336000  1.0
  H  H16  1  0.74335000  0.91907000  0.84664000  1.0
  H  H17  1  0.06684000  0.85787000  0.19739000  1.0
  H  H18  1  0.93316000  0.14213000  0.80262000  1.0
  H  H19  1  0.78574000  0.59978000  0.76537000  1.0
  H  H20  1  0.21426000  0.40022000  0.23462000  1.0
  H  H21  1  0.40293000  0.31067000  0.81063000  1.0
  H  H22  1  0.59707000  0.68933000  0.18937000  1.0
  H  H23  1  0.47800000  0.29698000  0.59487000  1.0
  H  H24  1  0.52200000  0.70302000  0.40513000  1.0
  H  H25  1  0.70917000  0.46019000  0.45694000  1.0
  H  H26  1  0.29083000  0.53981000  0.54306000  1.0
  C  C27  1  0.32763000  0.74362000  0.81709000  1.0
  C  C28  1  0.67236000  0.25638000  0.18291000  1.0
  C  C29  1  0.28399000  0.88041000  0.75488000  1.0
  C  C30  1  0.71601000  0.11959000  0.24513000  1.0
  C  C31  1  0.28119000  0.00783000  0.80340000  1.0
  C  C32  1  0.71880000  0.99217000  0.19660000  1.0
  C  C33  1  0.32336000  0.99271000  0.91105000  1.0
  C  C34  1  0.67663000  0.00730000  0.08895000  1.0
  C  C35  1  0.37049000  0.85356000  0.96503000  1.0
  C  C36  1  0.62950000  0.14644000  0.03497000  1.0
  C  C37  1  0.28278000  0.99319000  0.54813000  1.0
  C  C38  1  0.71722000  0.00681000  0.45187000  1.0
  C  C39  1  0.22394000  0.95989000  0.44666000  1.0
  C  C40  1  0.77606000  0.04011000  0.55334000  1.0
  C  C41  1  0.27680000  0.04706000  0.33344000  1.0
  C  C42  1  0.72320000  0.95294000  0.66656000  1.0
  C  C43  1  0.22063000  0.01157000  0.24166000  1.0
  C  C44  1  0.77937000  0.98843000  0.75834000  1.0
  C  C45  1  0.11363000  0.89132000  0.26574000  1.0
  C  C46  1  0.88637000  0.10868000  0.73426000  1.0
  C  C47  1  0.06344000  0.81338000  0.38226000  1.0
  C  C48  1  0.93656000  0.18662000  0.61774000  1.0
  C  C49  1  0.93832000  0.68988000  0.41465000  1.0
  C  C50  1  0.06169000  0.31012000  0.58535000  1.0
  C  C51  1  0.76318000  0.54405000  0.59997000  1.0
  C  C52  1  0.23682000  0.45594000  0.40003000  1.0
  C  C53  1  0.71913000  0.53631000  0.72292000  1.0
  C  C54  1  0.28087000  0.46369000  0.27708000  1.0
  C  C55  1  0.50823000  0.37102000  0.74845000  1.0
  C  C56  1  0.49177000  0.62898000  0.25155000  1.0
  C  C57  1  0.54831000  0.36767000  0.62819000  1.0
  C  C58  1  0.45169000  0.63233000  0.37181000  1.0
  C  C59  1  0.67648000  0.45623000  0.55181000  1.0
  C  C60  1  0.32352000  0.54376000  0.44819000  1.0
  Br  Br61  1  0.78070000  0.65036000  0.97593000  1.0
  Br  Br62  1  0.21929000  0.34965000  0.02407000  1.0
  N  N63  1  0.37246000  0.73131000  0.91857000  1.0
  N  N64  1  0.62754000  0.26869000  0.08143000  1.0
  N  N65  1  0.24394000  0.88353000  0.64716000  1.0
  N  N66  1  0.75606000  0.11647000  0.35284000  1.0
  N  N67  1  0.11833000  0.84666000  0.47067000  1.0
  N  N68  1  0.88167000  0.15334000  0.52933000  1.0
  N  N69  1  0.89079000  0.64004000  0.53426000  1.0
  N  N70  1  0.10921000  0.35996000  0.46574000  1.0
  N  N71  1  0.59353000  0.45371000  0.79485000  1.0
  N  N72  1  0.40647000  0.54629000  0.20515000  1.0
  O  O73  1  0.35775000  0.10908000  0.53972000  1.0
  O  O74  1  0.64225000  0.89092000  0.46028000  1.0
  O  O75  1  0.88632000  0.64409000  0.33977000  1.0
  O  O76  1  0.11368000  0.35591000  0.66023000  1.0
