# generated using pymatgen
data_CuMoH15C12NO6
_symmetry_space_group_name_H-M   'P 1'
_cell_length_a   11.87950000
_cell_length_b   13.86350000
_cell_length_c   19.70450000
_cell_angle_alpha   89.99940000
_cell_angle_beta   82.61360000
_cell_angle_gamma   89.99980000
_symmetry_Int_Tables_number   1
_chemical_formula_structural   CuMoH15C12NO6
_chemical_formula_sum   'Cu8 Mo8 H120 C96 N8 O48'
_cell_volume   3218.23332813
_cell_formula_units_Z   8
loop_
 _symmetry_equiv_pos_site_id
 _symmetry_equiv_pos_as_xyz
  1  'x, y, z'
loop_
 _atom_site_type_symbol
 _atom_site_label
 _atom_site_symmetry_multiplicity
 _atom_site_fract_x
 _atom_site_fract_y
 _atom_site_fract_z
 _atom_site_occupancy
  Cu  Cu0  1  0.26595000  0.16600000  0.15553000  1.0
  Cu  Cu1  1  0.23424000  0.66515000  0.34372000  1.0
  Cu  Cu2  1  0.73424000  0.83484000  0.84371000  1.0
  Cu  Cu3  1  0.76596000  0.33401000  0.65552000  1.0
  Cu  Cu4  1  0.33556000  0.15825000  0.29393000  1.0
  Cu  Cu5  1  0.16440000  0.65751000  0.20674000  1.0
  Cu  Cu6  1  0.66440000  0.84248000  0.70673000  1.0
  Cu  Cu7  1  0.83557000  0.34174000  0.79393000  1.0
  Mo  Mo8  1  0.47098000  0.33907000  0.17963000  1.0
  Mo  Mo9  1  0.02891000  0.83921000  0.32049000  1.0
  Mo  Mo10  1  0.52892000  0.66079000  0.82049000  1.0
  Mo  Mo11  1  0.97098000  0.16093000  0.67962000  1.0
  Mo  Mo12  1  0.18340000  0.37210000  0.25382000  1.0
  Mo  Mo13  1  0.31652000  0.87221000  0.24637000  1.0
  Mo  Mo14  1  0.81656000  0.62778000  0.74637000  1.0
  Mo  Mo15  1  0.68344000  0.12793000  0.75382000  1.0
  H  H16  1  0.45408000  0.35437000  0.34984000  1.0
  H  H17  1  0.04589000  0.85392000  0.15031000  1.0
  H  H18  1  0.54587000  0.64606000  0.65032000  1.0
  H  H19  1  0.95408000  0.14565000  0.84984000  1.0
  H  H20  1  0.30713000  0.34687000  0.38515000  1.0
  H  H21  1  0.19281000  0.84628000  0.11500000  1.0
  H  H22  1  0.69281000  0.65371000  0.61499000  1.0
  H  H23  1  0.80715000  0.15312000  0.88514000  1.0
  H  H24  1  0.36272000  0.45744000  0.34727000  1.0
  H  H25  1  0.13721000  0.95705000  0.15251000  1.0
  H  H26  1  0.63723000  0.54292000  0.65253000  1.0
  H  H27  1  0.86275000  0.04258000  0.84726000  1.0
  H  H28  1  0.30663000  0.46661000  0.09686000  1.0
  H  H29  1  0.19346000  0.96638000  0.40334000  1.0
  H  H30  1  0.69346000  0.53361000  0.90334000  1.0
  H  H31  1  0.80663000  0.03338000  0.59687000  1.0
  H  H32  1  0.19609000  0.38063000  0.08886000  1.0
  H  H33  1  0.30389000  0.88026000  0.41121000  1.0
  H  H34  1  0.80389000  0.61973000  0.91121000  1.0
  H  H35  1  0.69609000  0.11935000  0.58887000  1.0
  H  H36  1  0.33899000  0.35564000  0.05070000  1.0
  H  H37  1  0.16097000  0.85536000  0.44941000  1.0
  H  H38  1  0.66097000  0.64463000  0.94941000  1.0
  H  H39  1  0.83898000  0.14435000  0.55070000  1.0
  H  H40  1  0.16358000  0.14171000  0.50758000  1.0
  H  H41  1  0.33670000  0.64128000  0.99296000  1.0
  H  H42  1  0.83669000  0.85870000  0.49295000  1.0
  H  H43  1  0.66362000  0.35829000  0.00759000  1.0
  H  H44  1  0.25367000  0.11474000  0.61174000  1.0
  H  H45  1  0.24689000  0.61468000  0.88867000  1.0
  H  H46  1  0.74688000  0.88531000  0.38867000  1.0
  H  H47  1  0.75370000  0.38526000  0.11174000  1.0
  H  H48  1  0.46666000  0.09502000  0.60403000  1.0
  H  H49  1  0.03386000  0.59530000  0.89613000  1.0
  H  H50  1  0.53385000  0.90471000  0.39613000  1.0
  H  H51  1  0.96671000  0.40498000  0.10402000  1.0
  H  H52  1  0.58269000  0.10482000  0.49098000  1.0
  H  H53  1  0.91755000  0.60515000  0.00910000  1.0
  H  H54  1  0.41755000  0.89486000  0.50911000  1.0
  H  H55  1  0.08272000  0.39518000  0.99096000  1.0
  H  H56  1  0.60608000  0.11117000  0.37690000  1.0
  H  H57  1  0.89382000  0.61175000  0.12321000  1.0
  H  H58  1  0.39383000  0.88825000  0.62321000  1.0
  H  H59  1  0.10609000  0.38884000  0.87689000  1.0
  H  H60  1  0.55612000  0.12683000  0.13878000  1.0
  H  H61  1  0.94328000  0.62683000  0.36144000  1.0
  H  H62  1  0.44329000  0.87318000  0.86144000  1.0
  H  H63  1  0.05613000  0.37317000  0.63876000  1.0
  H  H64  1  0.46715000  0.03852000  0.18464000  1.0
  H  H65  1  0.03248000  0.53860000  0.31567000  1.0
  H  H66  1  0.53248000  0.96139000  0.81567000  1.0
  H  H67  1  0.96715000  0.46148000  0.68463000  1.0
  H  H68  1  0.70246000  0.20783000  0.19380000  1.0
  H  H69  1  0.79737000  0.70797000  0.30621000  1.0
  H  H70  1  0.29737000  0.79202000  0.80620000  1.0
  H  H71  1  0.20247000  0.29217000  0.69378000  1.0
  H  H72  1  0.69049000  0.21897000  0.28517000  1.0
  H  H73  1  0.80953000  0.71904000  0.21482000  1.0
  H  H74  1  0.30954000  0.78096000  0.71482000  1.0
  H  H75  1  0.19049000  0.28103000  0.78517000  1.0
  H  H76  1  0.59362000  0.96792000  0.26093000  1.0
  H  H77  1  0.90609000  0.46789000  0.23933000  1.0
  H  H78  1  0.40610000  0.03211000  0.73933000  1.0
  H  H79  1  0.09361000  0.53208000  0.76092000  1.0
  H  H80  1  0.70023000  0.02307000  0.20144000  1.0
  H  H81  1  0.79933000  0.52317000  0.29864000  1.0
  H  H82  1  0.29933000  0.97682000  0.79864000  1.0
  H  H83  1  0.20023000  0.47693000  0.70143000  1.0
  H  H84  1  0.70275000  0.03831000  0.29062000  1.0
  H  H85  1  0.79722000  0.53831000  0.20940000  1.0
  H  H86  1  0.29722000  0.96169000  0.70940000  1.0
  H  H87  1  0.20275000  0.46168000  0.79061000  1.0
  H  H88  1  0.43458000  0.12764000  0.94496000  1.0
  H  H89  1  0.06522000  0.62692000  0.55439000  1.0
  H  H90  1  0.56523000  0.87308000  0.05439000  1.0
  H  H91  1  0.93461000  0.37234000  0.44495000  1.0
  H  H92  1  0.34315000  0.12901000  0.83956000  1.0
  H  H93  1  0.15629000  0.62870000  0.65990000  1.0
  H  H94  1  0.65630000  0.87131000  0.15991000  1.0
  H  H95  1  0.84318000  0.37098000  0.33955000  1.0
  H  H96  1  0.13151000  0.13206000  0.84469000  1.0
  H  H97  1  0.36794000  0.63226000  0.65502000  1.0
  H  H98  1  0.86795000  0.86774000  0.15501000  1.0
  H  H99  1  0.63153000  0.36796000  0.34468000  1.0
  H  H100  1  0.01308000  0.13939000  0.95889000  1.0
  H  H101  1  0.48664000  0.63971000  0.54092000  1.0
  H  H102  1  0.98666000  0.86029000  0.04092000  1.0
  H  H103  1  0.51310000  0.36064000  0.45888000  1.0
  H  H104  1  0.98940000  0.14878000  0.07403000  1.0
  H  H105  1  0.51055000  0.64928000  0.42578000  1.0
  H  H106  1  0.01056000  0.85072000  0.92578000  1.0
  H  H107  1  0.48943000  0.35124000  0.57401000  1.0
  H  H108  1  0.11399000  0.07619000  0.26868000  1.0
  H  H109  1  0.38648000  0.57635000  0.23081000  1.0
  H  H110  1  0.88649000  0.92366000  0.73082000  1.0
  H  H111  1  0.61400000  0.42383000  0.76867000  1.0
  H  H112  1  0.04533000  0.17748000  0.31123000  1.0
  H  H113  1  0.45520000  0.67778000  0.18851000  1.0
  H  H114  1  0.95522000  0.82222000  0.68850000  1.0
  H  H115  1  0.54534000  0.32254000  0.81121000  1.0
  H  H116  1  0.92407000  0.28072000  0.25212000  1.0
  H  H117  1  0.57612000  0.78086000  0.24797000  1.0
  H  H118  1  0.07611000  0.71913000  0.74797000  1.0
  H  H119  1  0.42407000  0.21931000  0.75211000  1.0
  H  H120  1  0.93218000  0.28134000  0.16064000  1.0
  H  H121  1  0.56785000  0.78108000  0.33945000  1.0
  H  H122  1  0.06784000  0.71891000  0.83945000  1.0
  H  H123  1  0.43218000  0.21868000  0.66063000  1.0
  H  H124  1  0.87428000  0.11348000  0.16616000  1.0
  H  H125  1  0.62575000  0.61328000  0.33375000  1.0
  H  H126  1  0.12575000  0.88671000  0.83375000  1.0
  H  H127  1  0.37429000  0.38653000  0.66614000  1.0
  H  H128  1  0.95820000  0.02395000  0.20105000  1.0
  H  H129  1  0.54203000  0.52381000  0.29861000  1.0
  H  H130  1  0.04204000  0.97618000  0.79860000  1.0
  H  H131  1  0.45821000  0.47607000  0.70103000  1.0
  H  H132  1  0.87661000  0.10522000  0.25611000  1.0
  H  H133  1  0.62380000  0.60523000  0.24374000  1.0
  H  H134  1  0.12380000  0.89476000  0.74374000  1.0
  H  H135  1  0.37662000  0.39480000  0.75609000  1.0
  C  C136  1  0.28643000  0.38940000  0.09426000  1.0
  C  C137  1  0.21355000  0.88914000  0.40586000  1.0
  C  C138  1  0.71355000  0.61086000  0.90587000  1.0
  C  C139  1  0.78642000  0.11060000  0.59427000  1.0
  C  C140  1  0.36776000  0.37825000  0.34420000  1.0
  C  C141  1  0.13221000  0.87788000  0.15586000  1.0
  C  C142  1  0.63222000  0.62210000  0.65586000  1.0
  C  C143  1  0.86777000  0.12176000  0.84419000  1.0
  C  C144  1  0.31970000  0.13745000  0.43816000  1.0
  C  C145  1  0.18042000  0.63705000  0.06225000  1.0
  C  C146  1  0.68041000  0.86295000  0.56225000  1.0
  C  C147  1  0.81972000  0.36254000  0.93816000  1.0
  C  C148  1  0.25523000  0.13276000  0.50413000  1.0
  C  C149  1  0.24504000  0.63250000  0.99631000  1.0
  C  C150  1  0.74503000  0.86748000  0.49631000  1.0
  C  C151  1  0.75526000  0.36724000  0.00413000  1.0
  C  C152  1  0.30702000  0.11857000  0.56236000  1.0
  C  C153  1  0.19341000  0.61852000  0.93802000  1.0
  C  C154  1  0.69340000  0.88147000  0.43802000  1.0
  C  C155  1  0.80706000  0.38142000  0.06235000  1.0
  C  C156  1  0.42591000  0.10901000  0.55861000  1.0
  C  C157  1  0.07451000  0.60916000  0.94163000  1.0
  C  C158  1  0.57451000  0.89084000  0.44163000  1.0
  C  C159  1  0.92594000  0.39099000  0.05859000  1.0
  C  C160  1  0.49072000  0.11387000  0.49537000  1.0
  C  C161  1  0.00953000  0.61403000  0.00481000  1.0
  C  C162  1  0.50953000  0.88598000  0.50481000  1.0
  C  C163  1  0.99076000  0.38613000  0.99535000  1.0
  C  C164  1  0.44112000  0.12659000  0.43435000  1.0
  C  C165  1  0.05898000  0.62651000  0.06591000  1.0
  C  C166  1  0.55897000  0.87350000  0.56591000  1.0
  C  C167  1  0.94114000  0.37341000  0.93434000  1.0
  C  C168  1  0.51596000  0.12206000  0.37144000  1.0
  C  C169  1  0.98400000  0.62213000  0.12875000  1.0
  C  C170  1  0.48400000  0.87787000  0.62876000  1.0
  C  C171  1  0.01597000  0.37794000  0.87143000  1.0
  C  C172  1  0.57021000  0.12048000  0.24829000  1.0
  C  C173  1  0.92960000  0.62044000  0.25184000  1.0
  C  C174  1  0.42960000  0.87955000  0.75184000  1.0
  C  C175  1  0.07021000  0.37952000  0.74827000  1.0
  C  C176  1  0.50180000  0.11170000  0.18719000  1.0
  C  C177  1  0.99776000  0.61175000  0.31307000  1.0
  C  C178  1  0.49776000  0.88824000  0.81307000  1.0
  C  C179  1  0.00180000  0.38830000  0.68718000  1.0
  C  C180  1  0.64199000  0.21334000  0.24116000  1.0
  C  C181  1  0.85794000  0.71340000  0.25888000  1.0
  C  C182  1  0.35795000  0.78660000  0.75888000  1.0
  C  C183  1  0.14200000  0.28666000  0.74115000  1.0
  C  C184  1  0.64672000  0.03236000  0.25065000  1.0
  C  C185  1  0.85303000  0.53237000  0.24948000  1.0
  C  C186  1  0.35304000  0.96763000  0.74949000  1.0
  C  C187  1  0.14672000  0.46764000  0.75064000  1.0
  C  C188  1  0.27756000  0.13340000  0.01350000  1.0
  C  C189  1  0.22243000  0.63284000  0.48597000  1.0
  C  C190  1  0.72242000  0.86716000  0.98597000  1.0
  C  C191  1  0.77757000  0.36660000  0.51349000  1.0
  C  C192  1  0.34238000  0.12950000  0.94759000  1.0
  C  C193  1  0.15740000  0.62900000  0.55184000  1.0
  C  C194  1  0.65741000  0.87101000  0.05185000  1.0
  C  C195  1  0.84240000  0.37050000  0.44759000  1.0
  C  C196  1  0.29005000  0.13014000  0.88896000  1.0
  C  C197  1  0.20952000  0.62988000  0.61056000  1.0
  C  C198  1  0.70953000  0.87012000  0.11056000  1.0
  C  C199  1  0.79009000  0.36985000  0.38896000  1.0
  C  C200  1  0.17073000  0.13230000  0.89175000  1.0
  C  C201  1  0.32880000  0.63233000  0.60793000  1.0
  C  C202  1  0.82881000  0.86767000  0.10793000  1.0
  C  C203  1  0.67077000  0.36772000  0.39173000  1.0
  C  C204  1  0.10558000  0.13593000  0.95502000  1.0
  C  C205  1  0.39415000  0.63602000  0.54472000  1.0
  C  C206  1  0.89416000  0.86398000  0.04471000  1.0
  C  C207  1  0.60560000  0.36408000  0.45500000  1.0
  C  C208  1  0.15548000  0.13776000  0.01671000  1.0
  C  C209  1  0.34447000  0.63752000  0.48294000  1.0
  C  C210  1  0.84446000  0.86248000  0.98294000  1.0
  C  C211  1  0.65549000  0.36225000  0.51670000  1.0
  C  C212  1  0.08046000  0.14674000  0.07936000  1.0
  C  C213  1  0.41958000  0.64671000  0.42035000  1.0
  C  C214  1  0.91957000  0.85331000  0.92036000  1.0
  C  C215  1  0.58047000  0.35327000  0.57935000  1.0
  C  C216  1  0.02830000  0.16839000  0.20237000  1.0
  C  C217  1  0.47193000  0.66826000  0.29742000  1.0
  C  C218  1  0.97191000  0.83175000  0.79742000  1.0
  C  C219  1  0.52830000  0.33161000  0.70236000  1.0
  C  C220  1  0.09482000  0.15294000  0.26327000  1.0
  C  C221  1  0.40563000  0.65307000  0.23639000  1.0
  C  C222  1  0.90561000  0.84693000  0.73638000  1.0
  C  C223  1  0.59482000  0.34707000  0.76325000  1.0
  C  C224  1  0.98164000  0.27196000  0.20377000  1.0
  C  C225  1  0.51845000  0.77190000  0.29626000  1.0
  C  C226  1  0.01845000  0.72813000  0.79626000  1.0
  C  C227  1  0.48165000  0.22802000  0.70376000  1.0
  C  C228  1  0.92842000  0.09863000  0.20611000  1.0
  C  C229  1  0.57181000  0.59851000  0.29367000  1.0
  C  C230  1  0.07181000  0.90148000  0.79367000  1.0
  C  C231  1  0.42843000  0.40138000  0.70609000  1.0
  N  N232  1  0.48600000  0.12745000  0.31052000  1.0
  N  N233  1  0.01391000  0.62714000  0.18970000  1.0
  N  N234  1  0.51391000  0.87286000  0.68971000  1.0
  N  N235  1  0.98600000  0.37255000  0.81051000  1.0
  N  N236  1  0.11135000  0.15407000  0.14013000  1.0
  N  N237  1  0.38882000  0.65361000  0.35953000  1.0
  N  N238  1  0.88882000  0.84639000  0.85953000  1.0
  N  N239  1  0.61136000  0.34594000  0.64012000  1.0
  O  O240  1  0.49421000  0.46105000  0.17989000  1.0
  O  O241  1  0.00571000  0.96118000  0.32009000  1.0
  O  O242  1  0.50572000  0.53882000  0.82009000  1.0
  O  O243  1  0.99421000  0.03895000  0.67989000  1.0
  O  O244  1  0.53337000  0.30144000  0.10120000  1.0
  O  O245  1  0.96629000  0.80178000  0.39892000  1.0
  O  O246  1  0.46629000  0.69821000  0.89892000  1.0
  O  O247  1  0.03337000  0.19856000  0.60119000  1.0
  O  O248  1  0.20252000  0.49477000  0.24006000  1.0
  O  O249  1  0.29759000  0.99472000  0.26062000  1.0
  O  O250  1  0.79758000  0.50527000  0.76061000  1.0
  O  O251  1  0.70250000  0.00525000  0.74007000  1.0
  O  O252  1  0.11148000  0.36278000  0.33444000  1.0
  O  O253  1  0.38849000  0.86354000  0.16572000  1.0
  O  O254  1  0.88852000  0.63648000  0.66571000  1.0
  O  O255  1  0.61150000  0.13722000  0.83443000  1.0
  O  O256  1  0.34135000  0.34523000  0.27905000  1.0
  O  O257  1  0.15870000  0.84537000  0.22109000  1.0
  O  O258  1  0.65866000  0.65465000  0.72110000  1.0
  O  O259  1  0.84131000  0.15476000  0.77906000  1.0
  O  O260  1  0.30735000  0.34175000  0.15657000  1.0
  O  O261  1  0.19250000  0.84165000  0.34352000  1.0
  O  O262  1  0.69248000  0.65835000  0.84354000  1.0
  O  O263  1  0.80734000  0.15824000  0.65658000  1.0
  O  O264  1  0.26475000  0.15117000  0.38548000  1.0
  O  O265  1  0.23519000  0.65040000  0.11504000  1.0
  O  O266  1  0.73519000  0.84959000  0.61504000  1.0
  O  O267  1  0.76476000  0.34881000  0.88548000  1.0
  O  O268  1  0.41050000  0.17972000  0.19660000  1.0
  O  O269  1  0.08883000  0.67990000  0.30382000  1.0
  O  O270  1  0.58883000  0.82010000  0.80382000  1.0
  O  O271  1  0.91050000  0.32027000  0.69659000  1.0
  O  O272  1  0.57779000  0.29880000  0.23927000  1.0
  O  O273  1  0.92222000  0.79882000  0.26076000  1.0
  O  O274  1  0.42223000  0.70118000  0.76076000  1.0
  O  O275  1  0.07780000  0.20119000  0.73926000  1.0
  O  O276  1  0.33304000  0.13400000  0.06664000  1.0
  O  O277  1  0.16720000  0.63304000  0.43272000  1.0
  O  O278  1  0.66721000  0.86695000  0.93272000  1.0
  O  O279  1  0.83306000  0.36600000  0.56663000  1.0
  O  O280  1  0.19926000  0.20580000  0.25126000  1.0
  O  O281  1  0.30127000  0.70601000  0.24833000  1.0
  O  O282  1  0.80125000  0.79401000  0.74835000  1.0
  O  O283  1  0.69925000  0.29420000  0.75127000  1.0
  O  O284  1  0.06538000  0.34501000  0.19874000  1.0
  O  O285  1  0.43461000  0.84483000  0.30140000  1.0
  O  O286  1  0.93462000  0.65517000  0.80141000  1.0
  O  O287  1  0.56540000  0.15500000  0.69875000  1.0
