# generated using pymatgen
data_TbH16C27N2O7
_symmetry_space_group_name_H-M   'P 1'
_cell_length_a   10.52400000
_cell_length_b   10.72280000
_cell_length_c   11.79070000
_cell_angle_alpha   76.98120000
_cell_angle_beta   83.06770000
_cell_angle_gamma   65.94330000
_symmetry_Int_Tables_number   1
_chemical_formula_structural   TbH16C27N2O7
_chemical_formula_sum   'Tb2 H32 C54 N4 O14'
_cell_volume   1183.12183479
_cell_formula_units_Z   2
loop_
 _symmetry_equiv_pos_site_id
 _symmetry_equiv_pos_as_xyz
  1  'x, y, z'
loop_
 _atom_site_type_symbol
 _atom_site_label
 _atom_site_symmetry_multiplicity
 _atom_site_fract_x
 _atom_site_fract_y
 _atom_site_fract_z
 _atom_site_occupancy
  Tb  Tb0  1  0.98961000  0.25098000  0.09911000  1.0
  Tb  Tb1  1  0.01039000  0.74902000  0.90089000  1.0
  H  H2  1  0.21157000  0.40618000  0.96659000  1.0
  H  H3  1  0.78843000  0.59382000  0.03341000  1.0
  H  H4  1  0.46012000  0.36173000  0.92829000  1.0
  H  H5  1  0.53988000  0.63827000  0.07171000  1.0
  H  H6  1  0.64166000  0.14054000  0.03637000  1.0
  H  H7  1  0.35834000  0.85946000  0.96363000  1.0
  H  H8  1  0.69261000  0.91538000  0.17391000  1.0
  H  H9  1  0.30739000  0.08462000  0.82609000  1.0
  H  H10  1  0.60843000  0.75018000  0.31140000  1.0
  H  H11  1  0.39157000  0.24982000  0.68860000  1.0
  H  H12  1  0.40753000  0.69439000  0.41152000  1.0
  H  H13  1  0.59247000  0.30561000  0.58848000  1.0
  H  H14  1  0.14884000  0.77000000  0.44523000  1.0
  H  H15  1  0.85116000  0.23000000  0.55477000  1.0
  H  H16  1  0.99121000  0.00010000  0.33099000  1.0
  H  H17  1  0.00880000  0.99990000  0.66901000  1.0
  H  H18  1  0.69979000  0.13297000  0.40304000  1.0
  H  H19  1  0.30021000  0.86703000  0.59696000  1.0
  H  H20  1  0.47423000  0.11653000  0.48667000  1.0
  H  H21  1  0.52576000  0.88347000  0.51333000  1.0
  H  H22  1  0.25094000  0.46575000  0.22331000  1.0
  H  H23  1  0.74906000  0.53425000  0.77669000  1.0
  H  H24  1  0.47536000  0.47913000  0.13968000  1.0
  H  H25  1  0.52464000  0.52087000  0.86032000  1.0
  H  H26  1  0.23130000  0.49963000  0.46843000  1.0
  H  H27  1  0.76870000  0.50038000  0.53157000  1.0
  H  H28  1  0.12813000  0.57567000  0.65645000  1.0
  H  H29  1  0.87187000  0.42433000  0.34355000  1.0
  H  H30  1  0.01610000  0.22222000  0.75939000  1.0
  H  H31  1  0.98390000  0.77778000  0.24061000  1.0
  H  H32  1  0.11661000  0.14758000  0.56865000  1.0
  H  H33  1  0.88338000  0.85242000  0.43135000  1.0
  C  C34  1  0.29002000  0.30954000  0.01029000  1.0
  C  C35  1  0.70998000  0.69046000  0.98971000  1.0
  C  C36  1  0.43200000  0.28393000  0.98938000  1.0
  C  C37  1  0.56800000  0.71607000  0.01062000  1.0
  C  C38  1  0.53059000  0.16336000  0.04797000  1.0
  C  C39  1  0.46941000  0.83664000  0.95203000  1.0
  C  C40  1  0.48592000  0.06788000  0.12721000  1.0
  C  C41  1  0.51408000  0.93212000  0.87278000  1.0
  C  C42  1  0.58167000  0.93950000  0.19001000  1.0
  C  C43  1  0.41833000  0.06050000  0.80998000  1.0
  C  C44  1  0.53498000  0.84889000  0.26512000  1.0
  C  C45  1  0.46502000  0.15111000  0.73488000  1.0
  C  C46  1  0.38891000  0.88144000  0.28494000  1.0
  C  C47  1  0.61109000  0.11856000  0.71506000  1.0
  C  C48  1  0.33539000  0.79310000  0.36415000  1.0
  C  C49  1  0.66462000  0.20689000  0.63585000  1.0
  C  C50  1  0.19306000  0.83418000  0.38250000  1.0
  C  C51  1  0.80694000  0.16582000  0.61750000  1.0
  C  C52  1  0.10426000  0.96239000  0.31928000  1.0
  C  C53  1  0.89574000  0.03760000  0.68072000  1.0
  C  C54  1  0.29099000  0.00868000  0.22441000  1.0
  C  C55  1  0.70901000  0.99132000  0.77559000  1.0
  C  C56  1  0.34043000  0.10217000  0.14270000  1.0
  C  C57  1  0.65957000  0.89782000  0.85730000  1.0
  C  C58  1  0.92675000  0.00988000  0.02726000  1.0
  C  C59  1  0.07325000  0.99012000  0.97274000  1.0
  C  C60  1  0.73592000  0.31351000  0.21682000  1.0
  C  C61  1  0.26408000  0.68648000  0.78318000  1.0
  C  C62  1  0.60091000  0.30909000  0.26829000  1.0
  C  C63  1  0.39909000  0.69091000  0.73171000  1.0
  C  C64  1  0.60080000  0.20584000  0.36537000  1.0
  C  C65  1  0.39920000  0.79416000  0.63463000  1.0
  C  C66  1  0.47648000  0.19605000  0.41129000  1.0
  C  C67  1  0.52351000  0.80395000  0.58871000  1.0
  C  C68  1  0.35166000  0.29050000  0.35966000  1.0
  C  C69  1  0.64834000  0.70950000  0.64034000  1.0
  C  C70  1  0.34911000  0.39382000  0.26288000  1.0
  C  C71  1  0.65089000  0.60618000  0.73712000  1.0
  C  C72  1  0.47464000  0.40184000  0.21726000  1.0
  C  C73  1  0.52536000  0.59816000  0.78274000  1.0
  C  C74  1  0.17812000  0.31972000  0.50883000  1.0
  C  C75  1  0.82188000  0.68028000  0.49117000  1.0
  C  C76  1  0.18402000  0.43949000  0.53263000  1.0
  C  C77  1  0.81598000  0.56051000  0.46737000  1.0
  C  C78  1  0.12660000  0.48148000  0.63709000  1.0
  C  C79  1  0.87340000  0.51853000  0.36291000  1.0
  C  C80  1  0.06544000  0.40349000  0.71916000  1.0
  C  C81  1  0.93455000  0.59651000  0.28084000  1.0
  C  C82  1  0.06155000  0.28319000  0.69427000  1.0
  C  C83  1  0.93845000  0.71682000  0.30573000  1.0
  C  C84  1  0.11696000  0.24146000  0.58936000  1.0
  C  C85  1  0.88304000  0.75854000  0.41064000  1.0
  C  C86  1  0.00893000  0.44659000  0.83275000  1.0
  C  C87  1  0.99107000  0.55341000  0.16724000  1.0
  N  N88  1  0.24461000  0.22149000  0.08403000  1.0
  N  N89  1  0.75539000  0.77851000  0.91597000  1.0
  N  N90  1  0.15100000  0.04658000  0.24157000  1.0
  N  N91  1  0.84900000  0.95342000  0.75843000  1.0
  O  O92  1  0.84790000  0.23796000  0.27319000  1.0
  O  O93  1  0.15210000  0.76204000  0.72681000  1.0
  O  O94  1  0.73978000  0.38695000  0.11596000  1.0
  O  O95  1  0.26022000  0.61305000  0.88404000  1.0
  O  O96  1  0.22849000  0.27589000  0.40474000  1.0
  O  O97  1  0.77151000  0.72411000  0.59525000  1.0
  O  O98  1  0.00895000  0.55987000  0.84844000  1.0
  O  O99  1  0.99104000  0.44013000  0.15156000  1.0
  O  O100  1  0.96413000  0.36784000  0.90939000  1.0
  O  O101  1  0.03587000  0.63216000  0.09061000  1.0
  O  O102  1  0.87489000  0.92811000  0.01070000  1.0
  O  O103  1  0.12512000  0.07189000  0.98930000  1.0
  O  O104  1  0.87050000  0.10700000  0.08427000  1.0
  O  O105  1  0.12949000  0.89302000  0.91572000  1.0
