# generated using pymatgen
data_CdH22C24(NO)4
_symmetry_space_group_name_H-M   'P 1'
_cell_length_a   9.27774000
_cell_length_b   9.57713000
_cell_length_c   13.78140000
_cell_angle_alpha   87.55290000
_cell_angle_beta   72.05470000
_cell_angle_gamma   71.71280000
_symmetry_Int_Tables_number   1
_chemical_formula_structural   CdH22C24(NO)4
_chemical_formula_sum   'Cd2 H44 C48 N8 O8'
_cell_volume   1104.14934625
_cell_formula_units_Z   2
loop_
 _symmetry_equiv_pos_site_id
 _symmetry_equiv_pos_as_xyz
  1  'x, y, z'
loop_
 _atom_site_type_symbol
 _atom_site_label
 _atom_site_symmetry_multiplicity
 _atom_site_fract_x
 _atom_site_fract_y
 _atom_site_fract_z
 _atom_site_occupancy
  Cd  Cd0  1  0.54167000  0.32784000  0.08303000  1.0
  Cd  Cd1  1  0.45833000  0.67216000  0.91697000  1.0
  H  H2  1  0.35978000  0.96188000  0.27571000  1.0
  H  H3  1  0.64022000  0.03812000  0.72429000  1.0
  H  H4  1  0.45788000  0.86235000  0.15725000  1.0
  H  H5  1  0.54212000  0.13765000  0.84275000  1.0
  H  H6  1  0.48316000  0.94553000  0.40730000  1.0
  H  H7  1  0.51684000  0.05447000  0.59270000  1.0
  H  H8  1  0.67194000  0.78621000  0.49097000  1.0
  H  H9  1  0.32806000  0.21379000  0.50903000  1.0
  H  H10  1  0.90310000  0.57541000  0.38847000  1.0
  H  H11  1  0.09690000  0.42459000  0.61153000  1.0
  H  H12  1  0.93881000  0.53101000  0.20599000  1.0
  H  H13  1  0.06119000  0.46899000  0.79401000  1.0
  H  H14  1  0.88276000  0.63927000  0.04933000  1.0
  H  H15  1  0.11724000  0.36073000  0.95067000  1.0
  H  H16  1  0.69680000  0.76899000  0.05483000  1.0
  H  H17  1  0.30320000  0.23101000  0.94517000  1.0
  H  H18  1  0.48479000  0.31072000  0.33308000  1.0
  H  H19  1  0.51521000  0.68928000  0.66692000  1.0
  H  H20  1  0.29961000  0.54217000  0.47976000  1.0
  H  H21  1  0.70039000  0.45783000  0.52024000  1.0
  H  H22  1  0.23171000  0.66090000  0.19348000  1.0
  H  H23  1  0.76829000  0.33910000  0.80652000  1.0
  H  H24  1  0.01296000  0.80757000  0.37325000  1.0
  H  H25  1  0.98704000  0.19243000  0.62675000  1.0
  H  H26  1  0.17755000  0.87246000  0.35803000  1.0
  H  H27  1  0.82245000  0.12754000  0.64197000  1.0
  H  H28  1  0.87929000  0.72790000  0.54158000  1.0
  H  H29  1  0.12070000  0.27210000  0.45842000  1.0
  H  H30  1  0.82455000  0.74259000  0.72947000  1.0
  H  H31  1  0.17545000  0.25741000  0.27053000  1.0
  H  H32  1  0.23731000  0.88253000  0.68758000  1.0
  H  H33  1  0.76269000  0.11747000  0.31242000  1.0
  H  H34  1  0.28763000  0.87302000  0.50001000  1.0
  H  H35  1  0.71237000  0.12698000  0.49999000  1.0
  H  H36  1  0.90346000  0.76906000  0.87228000  1.0
  H  H37  1  0.09654000  0.23094000  0.12772000  1.0
  H  H38  1  0.10308000  0.76426000  0.85431000  1.0
  H  H39  1  0.89692000  0.23574000  0.14569000  1.0
  H  H40  1  0.68386000  0.99198000  0.94484000  1.0
  H  H41  1  0.31614000  0.00802000  0.05516000  1.0
  H  H42  1  0.92538000  0.30070000  0.94052000  1.0
  H  H43  1  0.07463000  0.69930000  0.05948000  1.0
  H  H44  1  0.14595000  0.03685000  0.83747000  1.0
  H  H45  1  0.85405000  0.96315000  0.16253000  1.0
  C  C46  1  0.50964000  0.06331000  0.17194000  1.0
  C  C47  1  0.49035000  0.93669000  0.82806000  1.0
  C  C48  1  0.47654000  0.92248000  0.21586000  1.0
  C  C49  1  0.52346000  0.07752000  0.78414000  1.0
  C  C50  1  0.59914000  0.82611000  0.26093000  1.0
  C  C51  1  0.40086000  0.17389000  0.73907000  1.0
  C  C52  1  0.58294000  0.85293000  0.36360000  1.0
  C  C53  1  0.41706000  0.14707000  0.63640000  1.0
  C  C54  1  0.69011000  0.76461000  0.41028000  1.0
  C  C55  1  0.30989000  0.23540000  0.58972000  1.0
  C  C56  1  0.81881000  0.64767000  0.35329000  1.0
  C  C57  1  0.18119000  0.35234000  0.64671000  1.0
  C  C58  1  0.83876000  0.62246000  0.25046000  1.0
  C  C59  1  0.16124000  0.37754000  0.74954000  1.0
  C  C60  1  0.73086000  0.71038000  0.20291000  1.0
  C  C61  1  0.26914000  0.28962000  0.79709000  1.0
  C  C62  1  0.75441000  0.67449000  0.09238000  1.0
  C  C63  1  0.24559000  0.32551000  0.90762000  1.0
  C  C64  1  0.69684000  0.54484000  0.08013000  1.0
  C  C65  1  0.30316000  0.45516000  0.91987000  1.0
  C  C66  1  0.40271000  0.41727000  0.32680000  1.0
  C  C67  1  0.59729000  0.58273000  0.67320000  1.0
  C  C68  1  0.31279000  0.53079000  0.39943000  1.0
  C  C69  1  0.68721000  0.46921000  0.60058000  1.0
  C  C70  1  0.27570000  0.59462000  0.25040000  1.0
  C  C71  1  0.72429000  0.40538000  0.74960000  1.0
  C  C72  1  0.12238000  0.78927000  0.39402000  1.0
  C  C73  1  0.87762000  0.21073000  0.60598000  1.0
  C  C74  1  0.08582000  0.80176000  0.50805000  1.0
  C  C75  1  0.91417000  0.19824000  0.49195000  1.0
  C  C76  1  0.95657000  0.76405000  0.57337000  1.0
  C  C77  1  0.04343000  0.23595000  0.42663000  1.0
  C  C78  1  0.92629000  0.77134000  0.67904000  1.0
  C  C79  1  0.07371000  0.22866000  0.32096000  1.0
  C  C80  1  0.02623000  0.81475000  0.72099000  1.0
  C  C81  1  0.97377000  0.18525000  0.27901000  1.0
  C  C82  1  0.15696000  0.85103000  0.65574000  1.0
  C  C83  1  0.84304000  0.14897000  0.34426000  1.0
  C  C84  1  0.18522000  0.84558000  0.55045000  1.0
  C  C85  1  0.81478000  0.15442000  0.44955000  1.0
  C  C86  1  0.99391000  0.82193000  0.83511000  1.0
  C  C87  1  0.00609000  0.17807000  0.16489000  1.0
  C  C88  1  0.77688000  0.04338000  0.93232000  1.0
  C  C89  1  0.22312000  0.95662000  0.06768000  1.0
  C  C90  1  0.90817000  0.19804000  0.92558000  1.0
  C  C91  1  0.09184000  0.80196000  0.07442000  1.0
  C  C92  1  0.01759000  0.06980000  0.87408000  1.0
  C  C93  1  0.98241000  0.93020000  0.12592000  1.0
  N  N94  1  0.37813000  0.45830000  0.23445000  1.0
  N  N95  1  0.62187000  0.54170000  0.76555000  1.0
  N  N96  1  0.23275000  0.64252000  0.34981000  1.0
  N  N97  1  0.76725000  0.35748000  0.65019000  1.0
  N  N98  1  0.75898000  0.18033000  0.96141000  1.0
  N  N99  1  0.24102000  0.81967000  0.03859000  1.0
  N  N100  1  0.93179000  0.97344000  0.87944000  1.0
  N  N101  1  0.06821000  0.02656000  0.12055000  1.0
  O  O102  1  0.43337000  0.12874000  0.11097000  1.0
  O  O103  1  0.56663000  0.87126000  0.88903000  1.0
  O  O104  1  0.60450000  0.11096000  0.19951000  1.0
  O  O105  1  0.39550000  0.88904000  0.80049000  1.0
  O  O106  1  0.61875000  0.55123000  0.01685000  1.0
  O  O107  1  0.38125000  0.44877000  0.98315000  1.0
  O  O108  1  0.72965000  0.43460000  0.13193000  1.0
  O  O109  1  0.27035000  0.56540000  0.86807000  1.0
