# generated using pymatgen
data_ZnH28C32NO16
_symmetry_space_group_name_H-M   'P 1'
_cell_length_a   17.58460000
_cell_length_b   18.24210000
_cell_length_c   19.51340000
_cell_angle_alpha   90.44840000
_cell_angle_beta   90.07900000
_cell_angle_gamma   89.97020000
_symmetry_Int_Tables_number   1
_chemical_formula_structural   ZnH28C32NO16
_chemical_formula_sum   'Zn2 H56 C64 N2 O32'
_cell_volume   6259.31062046
_cell_formula_units_Z   2
loop_
 _symmetry_equiv_pos_site_id
 _symmetry_equiv_pos_as_xyz
  1  'x, y, z'
loop_
 _atom_site_type_symbol
 _atom_site_label
 _atom_site_symmetry_multiplicity
 _atom_site_fract_x
 _atom_site_fract_y
 _atom_site_fract_z
 _atom_site_occupancy
  Zn  Zn0  1  0.50256000  0.42044000  0.49290000  1.0
  Zn  Zn1  1  0.49432000  0.57665000  0.48890000  1.0
  H  H2  1  0.60594000  0.41256000  0.03923000  1.0
  H  H3  1  0.82735000  0.66804000  0.61611000  1.0
  H  H4  1  0.86446000  0.35407000  0.49530000  1.0
  H  H5  1  0.14346000  0.66309000  0.48509000  1.0
  H  H6  1  0.32209000  0.38434000  0.54802000  1.0
  H  H7  1  0.66695000  0.62030000  0.56296000  1.0
  H  H8  1  0.69376000  0.39447000  0.47875000  1.0
  H  H9  1  0.30914000  0.60706000  0.46013000  1.0
  H  H10  1  0.62910000  0.62076000  0.24502000  1.0
  H  H11  1  0.37726000  0.37501000  0.73955000  1.0
  H  H12  1  0.61337000  0.62366000  0.73073000  1.0
  H  H13  1  0.41486000  0.58339000  0.94177000  1.0
  H  H14  1  0.40292000  0.36580000  0.23756000  1.0
  H  H15  1  0.66559000  0.54059000  0.06706000  1.0
  H  H16  1  0.71470000  0.54091000  0.14804000  1.0
  H  H17  1  0.70753000  0.62365000  0.09891000  1.0
  H  H18  1  0.29843000  0.45719000  0.83508000  1.0
  H  H19  1  0.34754000  0.46343000  0.91587000  1.0
  H  H20  1  0.30473000  0.37853000  0.88982000  1.0
  H  H21  1  0.52052000  0.65965000  0.90550000  1.0
  H  H22  1  0.52357000  0.69823000  0.82104000  1.0
  H  H23  1  0.60518000  0.70445000  0.87658000  1.0
  H  H24  1  0.58936000  0.42076000  0.91312000  1.0
  H  H25  1  0.50120000  0.29410000  0.16207000  1.0
  H  H26  1  0.51145000  0.33080000  0.07735000  1.0
  H  H27  1  0.42595000  0.28348000  0.10018000  1.0
  H  H28  1  0.61948000  0.22791000  0.33267000  1.0
  H  H29  1  0.52150000  0.22287000  0.30641000  1.0
  H  H30  1  0.58503000  0.14794000  0.28839000  1.0
  H  H31  1  0.69669000  0.76562000  0.41845000  1.0
  H  H32  1  0.70546000  0.76428000  0.51022000  1.0
  H  H33  1  0.74067000  0.84108000  0.46268000  1.0
  H  H34  1  0.38010000  0.24019000  0.65761000  1.0
  H  H35  1  0.43118000  0.57500000  0.06793000  1.0
  H  H36  1  0.47535000  0.23351000  0.69069000  1.0
  H  H37  1  0.40806000  0.16165000  0.70665000  1.0
  H  H38  1  0.29469000  0.76504000  0.57358000  1.0
  H  H39  1  0.28148000  0.77257000  0.48281000  1.0
  H  H40  1  0.25120000  0.84564000  0.53878000  1.0
  H  H41  1  0.68174000  0.09209000  0.53173000  1.0
  H  H42  1  0.68530000  0.01052000  0.58312000  1.0
  H  H43  1  0.69507000  0.09951000  0.62268000  1.0
  H  H44  1  0.50085000  0.90120000  0.33113000  1.0
  H  H45  1  0.44787000  0.98408000  0.31593000  1.0
  H  H46  1  0.54252000  0.30410000  0.39699000  1.0
  H  H47  1  0.40489000  0.89606000  0.30001000  1.0
  H  H48  1  0.31511000  0.09572000  0.46634000  1.0
  H  H49  1  0.31068000  0.01450000  0.41334000  1.0
  H  H50  1  0.30357000  0.10385000  0.37536000  1.0
  H  H51  1  0.49278000  0.90561000  0.66924000  1.0
  H  H52  1  0.55111000  0.98566000  0.68258000  1.0
  H  H53  1  0.58933000  0.89574000  0.69775000  1.0
  H  H54  1  0.60751000  0.69023000  0.46784000  1.0
  H  H55  1  0.46446000  0.31059000  0.59656000  1.0
  H  H56  1  0.37799000  0.69220000  0.51509000  1.0
  H  H57  1  0.16192000  0.35086000  0.60829000  1.0
  C  C58  1  0.48886000  0.50107000  0.62091000  1.0
  C  C59  1  0.46597000  0.54129000  0.03385000  1.0
  C  C60  1  0.50100000  0.50237000  0.91880000  1.0
  C  C61  1  0.51906000  0.49292000  0.06223000  1.0
  C  C62  1  0.52632000  0.27156000  0.44112000  1.0
  C  C63  1  0.55819000  0.72394000  0.47973000  1.0
  C  C64  1  0.48055000  0.27534000  0.55364000  1.0
  C  C65  1  0.42854000  0.72489000  0.50559000  1.0
  C  C66  1  0.52663000  0.19485000  0.44089000  1.0
  C  C67  1  0.56173000  0.80058000  0.48311000  1.0
  C  C68  1  0.47694000  0.19867000  0.55592000  1.0
  C  C69  1  0.51269000  0.49212000  0.36124000  1.0
  C  C70  1  0.42779000  0.80163000  0.50909000  1.0
  C  C71  1  0.50099000  0.15691000  0.49895000  1.0
  C  C72  1  0.49535000  0.84082000  0.49747000  1.0
  C  C73  1  0.54217000  0.03683000  0.54747000  1.0
  C  C74  1  0.45474000  0.96091000  0.44985000  1.0
  C  C75  1  0.45382000  0.03784000  0.45155000  1.0
  C  C76  1  0.53869000  0.95990000  0.54879000  1.0
  C  C77  1  0.49620000  0.92173000  0.49908000  1.0
  C  C78  1  0.49882000  0.07606000  0.49954000  1.0
  C  C79  1  0.64899000  0.50723000  0.51086000  1.0
  C  C80  1  0.52492000  0.48833000  0.13812000  1.0
  C  C81  1  0.34736000  0.49493000  0.49592000  1.0
  C  C82  1  0.15688000  0.44699000  0.57342000  1.0
  C  C83  1  0.83894000  0.57276000  0.57886000  1.0
  C  C84  1  0.85349000  0.44902000  0.53288000  1.0
  C  C85  1  0.15006000  0.57008000  0.52633000  1.0
  C  C86  1  0.23268000  0.44153000  0.55264000  1.0
  C  C87  1  0.76182000  0.57128000  0.56211000  1.0
  C  C88  1  0.77622000  0.44725000  0.51656000  1.0
  C  C89  1  0.22571000  0.56474000  0.50575000  1.0
  C  C90  1  0.26813000  0.50013000  0.51785000  1.0
  C  C91  1  0.49275000  0.50583000  0.84299000  1.0
  C  C92  1  0.72933000  0.50875000  0.53008000  1.0
  C  C93  1  0.11394000  0.51064000  0.55919000  1.0
  C  C94  1  0.88626000  0.51219000  0.56327000  1.0
  C  C95  1  0.03502000  0.51293000  0.57117000  1.0
  C  C96  1  0.96566000  0.51483000  0.57245000  1.0
  C  C97  1  0.56458000  0.53994000  0.24877000  1.0
  C  C98  1  0.44459000  0.45455000  0.73543000  1.0
  C  C99  1  0.53353000  0.55487000  0.73275000  1.0
  C  C100  1  0.47883000  0.43679000  0.24597000  1.0
  C  C101  1  0.56714000  0.53901000  0.17660000  1.0
  C  C102  1  0.51962000  0.48920000  0.28494000  1.0
  C  C103  1  0.44595000  0.45624000  0.80741000  1.0
  C  C104  1  0.53602000  0.55541000  0.80473000  1.0
  C  C105  1  0.48217000  0.43655000  0.17397000  1.0
  C  C106  1  0.67839000  0.57298000  0.11334000  1.0
  C  C107  1  0.33441000  0.42760000  0.87192000  1.0
  C  C108  1  0.55690000  0.67019000  0.86088000  1.0
  C  C109  1  0.47105000  0.31994000  0.11897000  1.0
  C  C110  1  0.57044000  0.19116000  0.32531000  1.0
  C  C111  1  0.69603000  0.79941000  0.46543000  1.0
  C  C112  1  0.42704000  0.20236000  0.66950000  1.0
  C  C113  1  0.48786000  0.50416000  0.69750000  1.0
  C  C114  1  0.29422000  0.80320000  0.53020000  1.0
  C  C115  1  0.66714000  0.06818000  0.58166000  1.0
  C  C116  1  0.44416000  0.92687000  0.33300000  1.0
  C  C117  1  0.33007000  0.07174000  0.41617000  1.0
  C  C118  1  0.55080000  0.92801000  0.66570000  1.0
  C  C119  1  0.56354000  0.44983000  0.01804000  1.0
  C  C120  1  0.45701000  0.54592000  0.96302000  1.0
  C  C121  1  0.55454000  0.45447000  0.94719000  1.0
  N  N122  1  0.50429000  0.30938000  0.49685000  1.0
  N  N123  1  0.49272000  0.68824000  0.49085000  1.0
  O  O124  1  0.51275000  0.44155000  0.59416000  1.0
  O  O125  1  0.86952000  0.63369000  0.60983000  1.0
  O  O126  1  0.89821000  0.38991000  0.51721000  1.0
  O  O127  1  0.10942000  0.63222000  0.51198000  1.0
  O  O128  1  0.26943000  0.37751000  0.56715000  1.0
  O  O129  1  0.72017000  0.63256000  0.57827000  1.0
  O  O130  1  0.74981000  0.38476000  0.48579000  1.0
  O  O131  1  0.25562000  0.62357000  0.47192000  1.0
  O  O132  1  0.60665000  0.59166000  0.28209000  1.0
  O  O133  1  0.40072000  0.40332000  0.70260000  1.0
  O  O134  1  0.57898000  0.60140000  0.69689000  1.0
  O  O135  1  0.51906000  0.55436000  0.39046000  1.0
  O  O136  1  0.43168000  0.38726000  0.27606000  1.0
  O  O137  1  0.60929000  0.59542000  0.14742000  1.0
  O  O138  1  0.40340000  0.40195000  0.83955000  1.0
  O  O139  1  0.58883000  0.60278000  0.83471000  1.0
  O  O140  1  0.43410000  0.38673000  0.14078000  1.0
  O  O141  1  0.55189000  0.15375000  0.38727000  1.0
  O  O142  1  0.62607000  0.83949000  0.47154000  1.0
  O  O143  1  0.44918000  0.16106000  0.61008000  1.0
  O  O144  1  0.36511000  0.84161000  0.52478000  1.0
  O  O145  1  0.58658000  0.07487000  0.59395000  1.0
  O  O146  1  0.49998000  0.43159000  0.39132000  1.0
  O  O147  1  0.41332000  0.92271000  0.40123000  1.0
  O  O148  1  0.41096000  0.07681000  0.40510000  1.0
  O  O149  1  0.57906000  0.92059000  0.59673000  1.0
  O  O150  1  0.46679000  0.55758000  0.58906000  1.0
  O  O151  1  0.62110000  0.44782000  0.48528000  1.0
  O  O152  1  0.37837000  0.55099000  0.46703000  1.0
  O  O153  1  0.38381000  0.43495000  0.50665000  1.0
  O  O154  1  0.60887000  0.56564000  0.52023000  1.0
  O  O155  1  0.12337000  0.38947000  0.60638000  1.0
