# generated using pymatgen
data_CdH7C8NO5
_symmetry_space_group_name_H-M   'P 1'
_cell_length_a   6.94795000
_cell_length_b   10.43420000
_cell_length_c   12.78220000
_cell_angle_alpha   90.34080000
_cell_angle_beta   90.00010000
_cell_angle_gamma   89.99840000
_symmetry_Int_Tables_number   1
_chemical_formula_structural   CdH7C8NO5
_chemical_formula_sum   'Cd4 H28 C32 N4 O20'
_cell_volume   926.64581163
_cell_formula_units_Z   4
loop_
 _symmetry_equiv_pos_site_id
 _symmetry_equiv_pos_as_xyz
  1  'x, y, z'
loop_
 _atom_site_type_symbol
 _atom_site_label
 _atom_site_symmetry_multiplicity
 _atom_site_fract_x
 _atom_site_fract_y
 _atom_site_fract_z
 _atom_site_occupancy
  Cd  Cd0  1  0.19674000  0.54424000  0.61471000  1.0
  Cd  Cd1  1  0.69673000  0.95577000  0.88529000  1.0
  Cd  Cd2  1  0.80327000  0.45576000  0.38529000  1.0
  Cd  Cd3  1  0.30327000  0.04423000  0.11471000  1.0
  H  H4  1  0.36486000  0.82851000  0.37992000  1.0
  H  H5  1  0.86487000  0.67149000  0.12008000  1.0
  H  H6  1  0.63512000  0.17149000  0.62008000  1.0
  H  H7  1  0.13515000  0.32851000  0.87993000  1.0
  H  H8  1  0.38156000  0.23791000  0.34434000  1.0
  H  H9  1  0.88157000  0.26209000  0.15566000  1.0
  H  H10  1  0.61843000  0.76209000  0.65566000  1.0
  H  H11  1  0.11844000  0.73791000  0.84434000  1.0
  H  H12  1  0.13695000  0.07385000  0.62256000  1.0
  H  H13  1  0.63698000  0.42615000  0.87744000  1.0
  H  H14  1  0.86303000  0.92615000  0.37744000  1.0
  H  H15  1  0.36305000  0.57385000  0.12256000  1.0
  H  H16  1  0.54651000  0.92903000  0.24847000  1.0
  H  H17  1  0.04651000  0.57096000  0.25154000  1.0
  H  H18  1  0.45349000  0.07098000  0.75153000  1.0
  H  H19  1  0.95351000  0.42903000  0.74847000  1.0
  H  H20  1  0.61046000  0.08263000  0.25956000  1.0
  H  H21  1  0.11046000  0.41736000  0.24045000  1.0
  H  H22  1  0.38953000  0.91738000  0.74045000  1.0
  H  H23  1  0.88955000  0.58263000  0.75956000  1.0
  H  H24  1  0.54721000  0.58115000  0.74165000  1.0
  H  H25  1  0.04720000  0.91885000  0.75834000  1.0
  H  H26  1  0.45280000  0.41885000  0.25835000  1.0
  H  H27  1  0.95279000  0.08115000  0.24166000  1.0
  H  H28  1  0.60344000  0.56165000  0.62196000  1.0
  H  H29  1  0.10343000  0.93834000  0.87804000  1.0
  H  H30  1  0.39656000  0.43835000  0.37805000  1.0
  H  H31  1  0.89657000  0.06165000  0.12196000  1.0
  C  C32  1  0.20368000  0.81985000  0.56816000  1.0
  C  C33  1  0.70369000  0.68015000  0.93184000  1.0
  C  C34  1  0.79631000  0.18015000  0.43184000  1.0
  C  C35  1  0.29633000  0.31985000  0.06816000  1.0
  C  C36  1  0.24216000  0.93874000  0.50619000  1.0
  C  C37  1  0.74218000  0.56126000  0.99381000  1.0
  C  C38  1  0.75782000  0.06125000  0.49381000  1.0
  C  C39  1  0.25784000  0.43875000  0.00619000  1.0
  C  C40  1  0.33210000  0.92452000  0.40883000  1.0
  C  C41  1  0.83211000  0.57548000  0.09117000  1.0
  C  C42  1  0.66788000  0.07548000  0.59117000  1.0
  C  C43  1  0.16790000  0.42452000  0.90883000  1.0
  C  C44  1  0.38721000  0.03258000  0.35279000  1.0
  C  C45  1  0.88722000  0.46742000  0.14721000  1.0
  C  C46  1  0.61278000  0.96742000  0.64721000  1.0
  C  C47  1  0.11279000  0.53258000  0.85279000  1.0
  C  C48  1  0.34096000  0.15467000  0.38993000  1.0
  C  C49  1  0.84097000  0.34533000  0.11007000  1.0
  C  C50  1  0.65903000  0.84533000  0.61007000  1.0
  C  C51  1  0.15904000  0.65467000  0.88993000  1.0
  C  C52  1  0.25138000  0.16931000  0.48721000  1.0
  C  C53  1  0.75141000  0.33070000  0.01279000  1.0
  C  C54  1  0.74860000  0.83069000  0.51279000  1.0
  C  C55  1  0.24861000  0.66930000  0.98721000  1.0
  C  C56  1  0.21836000  0.29998000  0.53182000  1.0
  C  C57  1  0.71837000  0.20003000  0.96818000  1.0
  C  C58  1  0.78163000  0.70002000  0.46818000  1.0
  C  C59  1  0.28164000  0.79998000  0.03182000  1.0
  C  C60  1  0.20408000  0.06116000  0.54623000  1.0
  C  C61  1  0.70410000  0.43884000  0.95377000  1.0
  C  C62  1  0.79590000  0.93884000  0.45377000  1.0
  C  C63  1  0.29592000  0.56116000  0.04623000  1.0
  N  N64  1  0.49545000  0.02031000  0.25807000  1.0
  N  N65  1  0.99545000  0.47968000  0.24193000  1.0
  N  N66  1  0.50454000  0.97969000  0.74193000  1.0
  N  N67  1  0.00456000  0.52031000  0.75807000  1.0
  O  O68  1  0.17046000  0.82559000  0.66583000  1.0
  O  O69  1  0.67046000  0.67441000  0.83416000  1.0
  O  O70  1  0.82954000  0.17441000  0.33417000  1.0
  O  O71  1  0.32956000  0.32559000  0.16584000  1.0
  O  O72  1  0.21492000  0.71431000  0.51644000  1.0
  O  O73  1  0.71492000  0.78569000  0.98356000  1.0
  O  O74  1  0.78507000  0.28569000  0.48356000  1.0
  O  O75  1  0.28507000  0.21431000  0.01645000  1.0
  O  O76  1  0.23192000  0.39939000  0.47120000  1.0
  O  O77  1  0.73194000  0.10061000  0.02879000  1.0
  O  O78  1  0.76807000  0.60061000  0.52879000  1.0
  O  O79  1  0.26807000  0.89939000  0.97120000  1.0
  O  O80  1  0.18183000  0.31187000  0.62805000  1.0
  O  O81  1  0.68182000  0.18813000  0.87195000  1.0
  O  O82  1  0.81816000  0.68813000  0.37195000  1.0
  O  O83  1  0.31819000  0.81188000  0.12804000  1.0
  O  O84  1  0.50778000  0.53599000  0.67643000  1.0
  O  O85  1  0.00777000  0.96401000  0.82357000  1.0
  O  O86  1  0.49222000  0.46401000  0.32358000  1.0
  O  O87  1  0.99222000  0.03599000  0.17643000  1.0
