# generated using pymatgen
data_Cu2Mo4H16C16N8O13
_symmetry_space_group_name_H-M   'P 1'
_cell_length_a   10.62040000
_cell_length_b   11.60330000
_cell_length_c   12.06640000
_cell_angle_alpha   93.90940000
_cell_angle_beta   115.91000000
_cell_angle_gamma   97.59550000
_symmetry_Int_Tables_number   1
_chemical_formula_structural   Cu2Mo4H16C16N8O13
_chemical_formula_sum   'Cu4 Mo8 H32 C32 N16 O26'
_cell_volume   1312.46849525
_cell_formula_units_Z   2
loop_
 _symmetry_equiv_pos_site_id
 _symmetry_equiv_pos_as_xyz
  1  'x, y, z'
loop_
 _atom_site_type_symbol
 _atom_site_label
 _atom_site_symmetry_multiplicity
 _atom_site_fract_x
 _atom_site_fract_y
 _atom_site_fract_z
 _atom_site_occupancy
  Cu  Cu0  1  0.16494000  0.25325000  0.13533000  1.0
  Cu  Cu1  1  0.83506000  0.74675000  0.86467000  1.0
  Cu  Cu2  1  0.12324000  0.51152000  0.30874000  1.0
  Cu  Cu3  1  0.87676000  0.48848000  0.69126000  1.0
  Mo  Mo4  1  0.37873000  0.75117000  0.97354000  1.0
  Mo  Mo5  1  0.62127000  0.24884000  0.02646000  1.0
  Mo  Mo6  1  0.64150000  0.96577000  0.13416000  1.0
  Mo  Mo7  1  0.35851000  0.03423000  0.86584000  1.0
  Mo  Mo8  1  0.28522000  0.98077000  0.09244000  1.0
  Mo  Mo9  1  0.71478000  0.01923000  0.90756000  1.0
  Mo  Mo10  1  0.54673000  0.19977000  0.26282000  1.0
  Mo  Mo11  1  0.45328000  0.80023000  0.73718000  1.0
  H  H12  1  0.22999000  0.54064000  0.57349000  1.0
  H  H13  1  0.77001000  0.45936000  0.42650000  1.0
  H  H14  1  0.94695000  0.28379000  0.28175000  1.0
  H  H15  1  0.05305000  0.71621000  0.71825000  1.0
  H  H16  1  0.89586000  0.16521000  0.42509000  1.0
  H  H17  1  0.10414000  0.83478000  0.57491000  1.0
  H  H18  1  0.02003000  0.23945000  0.65591000  1.0
  H  H19  1  0.97997000  0.76055000  0.34409000  1.0
  H  H20  1  0.32434000  0.42647000  0.80752000  1.0
  H  H21  1  0.67566000  0.57353000  0.19248000  1.0
  H  H22  1  0.22949000  0.54458000  0.77533000  1.0
  H  H23  1  0.77051000  0.45542000  0.22467000  1.0
  H  H24  1  0.90879000  0.36904000  0.93256000  1.0
  H  H25  1  0.09121000  0.63096000  0.06744000  1.0
  H  H26  1  0.32451000  0.34325000  0.98733000  1.0
  H  H27  1  0.67549000  0.65675000  0.01267000  1.0
  H  H28  1  0.34704000  0.29219000  0.40600000  1.0
  H  H29  1  0.65296000  0.70781000  0.59400000  1.0
  H  H30  1  0.99588000  0.05158000  0.14910000  1.0
  H  H31  1  0.00412000  0.94842000  0.85089000  1.0
  H  H32  1  0.00904000  0.92393000  0.30731000  1.0
  H  H33  1  0.99096000  0.07606000  0.69269000  1.0
  H  H34  1  0.21152000  0.98013000  0.52697000  1.0
  H  H35  1  0.78848000  0.01987000  0.47303000  1.0
  H  H36  1  0.36087000  0.18138000  0.67671000  1.0
  H  H37  1  0.63913000  0.81862000  0.32329000  1.0
  H  H38  1  0.47398000  0.10416000  0.64118000  1.0
  H  H39  1  0.52602000  0.89585000  0.35882000  1.0
  H  H40  1  0.70079000  0.23079000  0.65764000  1.0
  H  H41  1  0.29921000  0.76921000  0.34236000  1.0
  H  H42  1  0.58463000  0.56009000  0.69312000  1.0
  H  H43  1  0.41537000  0.43991000  0.30688000  1.0
  C  C44  1  0.15712000  0.45664000  0.54480000  1.0
  C  C45  1  0.84288000  0.54336000  0.45520000  1.0
  C  C46  1  0.99965000  0.31281000  0.38161000  1.0
  C  C47  1  0.00035000  0.68719000  0.61839000  1.0
  C  C48  1  0.97220000  0.24707000  0.46298000  1.0
  C  C49  1  0.02780000  0.75292000  0.53702000  1.0
  C  C50  1  0.04012000  0.28878000  0.59003000  1.0
  C  C51  1  0.95988000  0.71121000  0.40997000  1.0
  C  C52  1  0.13437000  0.39590000  0.63223000  1.0
  C  C53  1  0.86562000  0.60410000  0.36777000  1.0
  C  C54  1  0.21687000  0.44847000  0.76723000  1.0
  C  C55  1  0.78313000  0.55153000  0.23277000  1.0
  C  C56  1  0.00507000  0.37599000  0.92067000  1.0
  C  C57  1  0.99493000  0.62401000  0.07933000  1.0
  C  C58  1  0.21681000  0.36111000  0.95102000  1.0
  C  C59  1  0.78319000  0.63889000  0.04898000  1.0
  C  C60  1  0.27594000  0.20917000  0.38842000  1.0
  C  C61  1  0.72406000  0.79083000  0.61158000  1.0
  C  C62  1  0.07792000  0.07572000  0.24466000  1.0
  C  C63  1  0.92208000  0.92428000  0.75534000  1.0
  C  C64  1  0.08841000  0.00336000  0.33419000  1.0
  C  C65  1  0.91159000  0.99664000  0.66581000  1.0
  C  C66  1  0.19815000  0.03504000  0.45412000  1.0
  C  C67  1  0.80185000  0.96496000  0.54588000  1.0
  C  C68  1  0.29420000  0.14045000  0.48227000  1.0
  C  C69  1  0.70580000  0.85955000  0.51773000  1.0
  C  C70  1  0.40996000  0.17364000  0.61390000  1.0
  C  C71  1  0.59004000  0.82637000  0.38610000  1.0
  C  C72  1  0.64283000  0.30066000  0.65875000  1.0
  C  C73  1  0.35717000  0.69934000  0.34125000  1.0
  C  C74  1  0.57989000  0.46628000  0.67432000  1.0
  C  C75  1  0.42011000  0.53372000  0.32569000  1.0
  N  N76  1  0.09161000  0.41667000  0.42157000  1.0
  N  N77  1  0.90839000  0.58333000  0.57843000  1.0
  N  N78  1  0.15382000  0.40783000  0.84644000  1.0
  N  N79  1  0.84618000  0.59217000  0.15356000  1.0
  N  N80  1  0.01835000  0.41884000  0.82582000  1.0
  N  N81  1  0.98165000  0.58116000  0.17418000  1.0
  N  N82  1  0.12580000  0.34034000  0.00017000  1.0
  N  N83  1  0.87420000  0.65966000  0.99983000  1.0
  N  N84  1  0.17042000  0.17721000  0.27103000  1.0
  N  N85  1  0.82958000  0.82279000  0.72897000  1.0
  N  N86  1  0.50654000  0.28335000  0.63861000  1.0
  N  N87  1  0.49346000  0.71665000  0.36139000  1.0
  N  N88  1  0.46470000  0.38813000  0.64895000  1.0
  N  N89  1  0.53530000  0.61187000  0.35105000  1.0
  N  N90  1  0.69286000  0.41646000  0.68124000  1.0
  N  N91  1  0.30714000  0.58354000  0.31877000  1.0
  O  O92  1  0.22643000  0.67980000  0.97343000  1.0
  O  O93  1  0.77357000  0.32020000  0.02657000  1.0
  O  O94  1  0.49721000  0.65694000  0.02812000  1.0
  O  O95  1  0.50278000  0.34306000  0.97188000  1.0
  O  O96  1  0.46358000  0.87154000  0.12288000  1.0
  O  O97  1  0.53643000  0.12846000  0.87712000  1.0
  O  O98  1  0.26079000  0.91812000  0.92424000  1.0
  O  O99  1  0.73921000  0.08188000  0.07576000  1.0
  O  O100  1  0.46630000  0.09474000  0.05190000  1.0
  O  O101  1  0.53370000  0.90527000  0.94810000  1.0
  O  O102  1  0.32768000  0.72875000  0.80051000  1.0
  O  O103  1  0.67232000  0.27125000  0.19949000  1.0
  O  O104  1  0.67356000  0.05987000  0.27071000  1.0
  O  O105  1  0.32644000  0.94013000  0.72929000  1.0
  O  O106  1  0.19408000  0.87046000  0.13023000  1.0
  O  O107  1  0.80591000  0.12955000  0.86976000  1.0
  O  O108  1  0.41927000  0.05968000  0.25276000  1.0
  O  O109  1  0.58073000  0.94032000  0.74724000  1.0
  O  O110  1  0.17302000  0.08195000  0.04036000  1.0
  O  O111  1  0.82698000  0.91805000  0.95964000  1.0
  O  O112  1  0.41626000  0.28630000  0.20337000  1.0
  O  O113  1  0.58374000  0.71370000  0.79663000  1.0
  O  O114  1  0.63916000  0.24982000  0.41899000  1.0
  O  O115  1  0.36085000  0.75018000  0.58101000  1.0
  O  O116  1  0.75656000  0.86980000  0.18835000  1.0
  O  O117  1  0.24344000  0.13020000  0.81164000  1.0
