# generated using pymatgen
data_Cd3H62C64S2(N4O3)6
_symmetry_space_group_name_H-M   'P 1'
_cell_length_a   9.87641000
_cell_length_b   13.88180000
_cell_length_c   16.19240000
_cell_angle_alpha   105.08900000
_cell_angle_beta   105.94900000
_cell_angle_gamma   92.05330000
_symmetry_Int_Tables_number   1
_chemical_formula_structural   Cd3H62C64S2(N4O3)6
_chemical_formula_sum   'Cd3 H62 C64 S2 N24 O18'
_cell_volume   2047.13830376
_cell_formula_units_Z   1
loop_
 _symmetry_equiv_pos_site_id
 _symmetry_equiv_pos_as_xyz
  1  'x, y, z'
loop_
 _atom_site_type_symbol
 _atom_site_label
 _atom_site_symmetry_multiplicity
 _atom_site_fract_x
 _atom_site_fract_y
 _atom_site_fract_z
 _atom_site_occupancy
  Cd  Cd0  1  0.71155000  0.92281000  0.85411000  1.0
  Cd  Cd1  1  0.28845000  0.07718000  0.14588000  1.0
  Cd  Cd2  1  0.50004000  0.50002000  0.50001000  1.0
  H  H3  1  0.82856000  0.12337000  0.32054000  1.0
  H  H4  1  0.75997000  0.96808000  0.35493000  1.0
  H  H5  1  0.90705000  0.12282000  0.63698000  1.0
  H  H6  1  0.97705000  0.27644000  0.60270000  1.0
  H  H7  1  0.87940000  0.30684000  0.37197000  1.0
  H  H8  1  0.93613000  0.37180000  0.48870000  1.0
  H  H9  1  0.72279000  0.88337000  0.45679000  1.0
  H  H10  1  0.88988000  0.90314000  0.53904000  1.0
  H  H11  1  0.34664000  0.25673000  0.35567000  1.0
  H  H12  1  0.17247000  0.46450000  0.52679000  1.0
  H  H13  1  0.45218000  0.92270000  0.65122000  1.0
  H  H14  1  0.89412000  0.97097000  0.70893000  1.0
  H  H15  1  0.02906000  0.43482000  0.13152000  1.0
  H  H16  1  0.21888000  0.55417000  0.12907000  1.0
  H  H17  1  0.77299000  0.37214000  0.07320000  1.0
  H  H18  1  0.67375000  0.36849000  0.96249000  1.0
  H  H19  1  0.00139000  0.08231000  0.94875000  1.0
  H  H20  1  0.59380000  0.17372000  0.92321000  1.0
  H  H21  1  0.61130000  0.55083000  0.16492000  1.0
  H  H22  1  0.42004000  0.40896000  0.09465000  1.0
  H  H23  1  0.75449000  0.68542000  0.15709000  1.0
  H  H24  1  0.82819000  0.63707000  0.06932000  1.0
  H  H25  1  0.60722000  0.96968000  0.06919000  1.0
  H  H26  1  0.80099000  0.73155000  0.94533000  1.0
  H  H27  1  0.22019000  0.89425000  0.84196000  1.0
  H  H28  1  0.92306000  0.63032000  0.75877000  1.0
  H  H29  1  0.35627000  0.60367000  0.75818000  1.0
  H  H30  1  0.21516000  0.58010000  0.41400000  1.0
  H  H31  1  0.32419000  0.67775000  0.45716000  1.0
  H  H32  1  0.61420000  0.48624000  0.34833000  1.0
  H  H33  1  0.52290000  0.37883000  0.31963000  1.0
  H  H34  1  0.17143000  0.87663000  0.67945000  1.0
  H  H35  1  0.24002000  0.03192000  0.64507000  1.0
  H  H36  1  0.09296000  0.87717000  0.36302000  1.0
  H  H37  1  0.02296000  0.72355000  0.39729000  1.0
  H  H38  1  0.12061000  0.69316000  0.62803000  1.0
  H  H39  1  0.06388000  0.62820000  0.51130000  1.0
  H  H40  1  0.27720000  0.11663000  0.54320000  1.0
  H  H41  1  0.11011000  0.09684000  0.46094000  1.0
  H  H42  1  0.65338000  0.74328000  0.64435000  1.0
  H  H43  1  0.82754000  0.53549000  0.47321000  1.0
  H  H44  1  0.54782000  0.07729000  0.34878000  1.0
  H  H45  1  0.10588000  0.02903000  0.29106000  1.0
  H  H46  1  0.97093000  0.56518000  0.86848000  1.0
  H  H47  1  0.78111000  0.44584000  0.87093000  1.0
  H  H48  1  0.22701000  0.62785000  0.92679000  1.0
  H  H49  1  0.32624000  0.63151000  0.03750000  1.0
  H  H50  1  0.99861000  0.91770000  0.05125000  1.0
  H  H51  1  0.40620000  0.82629000  0.07678000  1.0
  H  H52  1  0.38870000  0.44920000  0.83509000  1.0
  H  H53  1  0.57996000  0.59107000  0.90537000  1.0
  H  H54  1  0.24552000  0.31461000  0.84292000  1.0
  H  H55  1  0.17181000  0.36295000  0.93070000  1.0
  H  H56  1  0.39279000  0.03034000  0.93081000  1.0
  H  H57  1  0.19901000  0.26845000  0.05467000  1.0
  H  H58  1  0.77981000  0.10575000  0.15804000  1.0
  H  H59  1  0.07693000  0.36968000  0.24124000  1.0
  H  H60  1  0.64373000  0.39632000  0.24182000  1.0
  H  H61  1  0.78484000  0.41989000  0.58598000  1.0
  H  H62  1  0.67581000  0.32224000  0.54284000  1.0
  H  H63  1  0.38581000  0.51376000  0.65168000  1.0
  H  H64  1  0.47710000  0.62117000  0.68037000  1.0
  C  C65  1  0.90744000  0.21077000  0.45900000  1.0
  C  C66  1  0.84638000  0.12311000  0.39001000  1.0
  C  C67  1  0.80742000  0.03580000  0.40954000  1.0
  C  C68  1  0.82792000  0.03438000  0.49823000  1.0
  C  C69  1  0.88953000  0.12190000  0.56719000  1.0
  C  C70  1  0.92906000  0.20917000  0.54796000  1.0
  C  C71  1  0.94717000  0.30554000  0.43775000  1.0
  C  C72  1  0.79230000  0.93715000  0.51729000  1.0
  C  C73  1  0.27610000  0.29101000  0.39291000  1.0
  C  C74  1  0.18988000  0.39927000  0.47898000  1.0
  C  C75  1  0.55664000  0.93399000  0.64346000  1.0
  C  C76  1  0.78111000  0.96057000  0.67503000  1.0
  C  C77  1  0.89251000  0.43233000  0.00180000  1.0
  C  C78  1  0.01646000  0.46318000  0.07372000  1.0
  C  C79  1  0.12311000  0.53043000  0.07222000  1.0
  C  C80  1  0.77804000  0.35980000  0.00443000  1.0
  C  C81  1  0.91666000  0.12934000  0.95228000  1.0
  C  C82  1  0.70788000  0.17230000  0.93790000  1.0
  C  C83  1  0.60894000  0.58116000  0.04029000  1.0
  C  C84  1  0.56227000  0.52882000  0.09251000  1.0
  C  C85  1  0.45470000  0.44852000  0.05256000  1.0
  C  C86  1  0.73167000  0.66378000  0.08420000  1.0
  C  C87  1  0.64911000  0.89814000  0.05166000  1.0
  C  C88  1  0.74624000  0.77787000  0.98778000  1.0
  C  C89  1  0.30320000  0.75410000  0.79779000  1.0
  C  C90  1  0.19931000  0.81269000  0.81971000  1.0
  C  C91  1  0.06456000  0.76750000  0.80916000  1.0
  C  C92  1  0.03189000  0.66319000  0.77381000  1.0
  C  C93  1  0.13767000  0.60439000  0.75541000  1.0
  C  C94  1  0.27372000  0.64960000  0.77067000  1.0
  C  C95  1  0.43873000  0.80074000  0.79254000  1.0
  C  C96  1  0.95291000  0.83216000  0.82980000  1.0
  C  C97  1  0.09257000  0.78922000  0.54099000  1.0
  C  C98  1  0.15363000  0.87689000  0.60998000  1.0
  C  C99  1  0.19257000  0.96420000  0.59046000  1.0
  C  C100  1  0.17207000  0.96561000  0.50176000  1.0
  C  C101  1  0.11047000  0.87809000  0.43280000  1.0
  C  C102  1  0.07096000  0.79082000  0.45203000  1.0
  C  C103  1  0.05283000  0.69446000  0.56225000  1.0
  C  C104  1  0.20770000  0.06284000  0.48270000  1.0
  C  C105  1  0.72390000  0.70899000  0.60710000  1.0
  C  C106  1  0.81012000  0.60072000  0.52102000  1.0
  C  C107  1  0.44336000  0.06600000  0.35653000  1.0
  C  C108  1  0.21888000  0.03942000  0.32497000  1.0
  C  C109  1  0.10748000  0.56768000  0.99820000  1.0
  C  C110  1  0.98353000  0.53683000  0.92628000  1.0
  C  C111  1  0.87688000  0.46958000  0.92779000  1.0
  C  C112  1  0.22195000  0.64021000  0.99557000  1.0
  C  C113  1  0.08334000  0.87066000  0.04772000  1.0
  C  C114  1  0.29212000  0.82770000  0.06209000  1.0
  C  C115  1  0.39107000  0.41886000  0.95973000  1.0
  C  C116  1  0.43773000  0.47120000  0.90750000  1.0
  C  C117  1  0.54531000  0.55149000  0.94745000  1.0
  C  C118  1  0.26834000  0.33624000  0.91581000  1.0
  C  C119  1  0.35091000  0.10188000  0.94834000  1.0
  C  C120  1  0.25376000  0.22214000  0.01222000  1.0
  C  C121  1  0.69680000  0.24590000  0.20221000  1.0
  C  C122  1  0.80068000  0.18731000  0.18029000  1.0
  C  C123  1  0.93543000  0.23250000  0.19085000  1.0
  C  C124  1  0.96810000  0.33680000  0.22619000  1.0
  C  C125  1  0.86233000  0.39561000  0.24459000  1.0
  C  C126  1  0.72628000  0.35040000  0.22933000  1.0
  C  C127  1  0.56126000  0.19926000  0.20746000  1.0
  C  C128  1  0.04708000  0.16783000  0.17020000  1.0
  S  S129  1  0.09941000  0.47220000  0.70128000  1.0
  S  S130  1  0.90059000  0.52780000  0.29872000  1.0
  N  N131  1  0.09466000  0.31813000  0.43666000  1.0
  N  N132  1  0.14748000  0.24827000  0.38124000  1.0
  N  N133  1  0.30727000  0.38437000  0.45341000  1.0
  N  N134  1  0.72187000  0.94606000  0.58659000  1.0
  N  N135  1  0.57790000  0.92829000  0.56497000  1.0
  N  N136  1  0.67860000  0.95381000  0.71317000  1.0
  N  N137  1  0.80312000  0.25474000  0.97181000  1.0
  N  N138  1  0.93678000  0.22877000  0.98172000  1.0
  N  N139  1  0.77718000  0.09119000  0.92486000  1.0
  N  N140  1  0.70932000  0.75432000  0.05469000  1.0
  N  N141  1  0.64605000  0.83036000  0.09633000  1.0
  N  N142  1  0.71000000  0.86894000  0.98423000  1.0
  N  N143  1  0.90534000  0.68186000  0.56335000  1.0
  N  N144  1  0.85251000  0.75172000  0.61876000  1.0
  N  N145  1  0.69274000  0.61562000  0.54661000  1.0
  N  N146  1  0.27812000  0.05393000  0.41340000  1.0
  N  N147  1  0.42210000  0.07170000  0.43502000  1.0
  N  N148  1  0.32140000  0.04618000  0.28682000  1.0
  N  N149  1  0.19688000  0.74527000  0.02818000  1.0
  N  N150  1  0.06321000  0.77124000  0.01828000  1.0
  N  N151  1  0.22282000  0.90881000  0.07513000  1.0
  N  N152  1  0.29069000  0.24570000  0.94532000  1.0
  N  N153  1  0.35397000  0.16966000  0.90367000  1.0
  N  N154  1  0.29000000  0.13107000  0.01577000  1.0
  O  O155  1  0.51020000  0.74589000  0.74888000  1.0
  O  O156  1  0.47226000  0.89507000  0.83133000  1.0
  O  O157  1  0.97899000  0.92671000  0.84910000  1.0
  O  O158  1  0.83506000  0.78706000  0.82598000  1.0
  O  O159  1  0.22559000  0.44436000  0.67249000  1.0
  O  O160  1  0.97220000  0.46529000  0.62446000  1.0
  O  O161  1  0.07332000  0.42113000  0.76444000  1.0
  O  O162  1  0.31438000  0.60601000  0.45042000  1.0
  O  O163  1  0.53328000  0.45039000  0.35650000  1.0
  O  O164  1  0.48979000  0.25410000  0.25111000  1.0
  O  O165  1  0.52773000  0.10493000  0.16866000  1.0
  O  O166  1  0.02101000  0.07329000  0.15091000  1.0
  O  O167  1  0.16493000  0.21293000  0.17402000  1.0
  O  O168  1  0.77441000  0.55563000  0.32752000  1.0
  O  O169  1  0.02780000  0.53470000  0.37554000  1.0
  O  O170  1  0.92666000  0.57887000  0.23556000  1.0
  O  O171  1  0.68563000  0.39398000  0.54954000  1.0
  O  O172  1  0.46672000  0.54961000  0.64350000  1.0
