# generated using pymatgen
data_Zn2H11C12N7O3
_symmetry_space_group_name_H-M   'P 1'
_cell_length_a   7.97684000
_cell_length_b   11.06250000
_cell_length_c   20.20960000
_cell_angle_alpha   90.00010000
_cell_angle_beta   90.00080000
_cell_angle_gamma   87.93690000
_symmetry_Int_Tables_number   1
_chemical_formula_structural   Zn2H11C12N7O3
_chemical_formula_sum   'Zn8 H44 C48 N28 O12'
_cell_volume   1782.21574229
_cell_formula_units_Z   4
loop_
 _symmetry_equiv_pos_site_id
 _symmetry_equiv_pos_as_xyz
  1  'x, y, z'
loop_
 _atom_site_type_symbol
 _atom_site_label
 _atom_site_symmetry_multiplicity
 _atom_site_fract_x
 _atom_site_fract_y
 _atom_site_fract_z
 _atom_site_occupancy
  Zn  Zn0  1  0.09444000  0.72693000  0.61113000  1.0
  Zn  Zn1  1  0.90555000  0.77307000  0.11113000  1.0
  Zn  Zn2  1  0.90555000  0.27307000  0.38886000  1.0
  Zn  Zn3  1  0.09446000  0.22693000  0.88886000  1.0
  Zn  Zn4  1  0.80141000  0.87277000  0.68993000  1.0
  Zn  Zn5  1  0.19859000  0.62723000  0.18993000  1.0
  Zn  Zn6  1  0.19858000  0.12723000  0.31007000  1.0
  Zn  Zn7  1  0.80142000  0.37277000  0.81007000  1.0
  H  H8  1  0.99433000  0.94178000  0.60053000  1.0
  H  H9  1  0.00567000  0.55821000  0.10053000  1.0
  H  H10  1  0.00566000  0.05822000  0.39947000  1.0
  H  H11  1  0.99435000  0.44178000  0.89947000  1.0
  H  H12  1  0.54122000  0.36325000  0.60158000  1.0
  H  H13  1  0.45879000  0.13675000  0.10158000  1.0
  H  H14  1  0.45878000  0.63675000  0.39843000  1.0
  H  H15  1  0.54122000  0.86325000  0.89843000  1.0
  H  H16  1  0.83118000  0.60786000  0.48841000  1.0
  H  H17  1  0.16882000  0.89214000  0.98841000  1.0
  H  H18  1  0.16881000  0.39214000  0.51159000  1.0
  H  H19  1  0.83120000  0.10786000  0.01159000  1.0
  H  H20  1  0.41059000  0.53725000  0.66470000  1.0
  H  H21  1  0.58942000  0.96275000  0.16470000  1.0
  H  H22  1  0.58940000  0.46276000  0.33530000  1.0
  H  H23  1  0.41060000  0.03725000  0.83530000  1.0
  H  H24  1  0.69741000  0.78292000  0.54802000  1.0
  H  H25  1  0.30258000  0.71708000  0.04803000  1.0
  H  H26  1  0.30258000  0.21708000  0.45197000  1.0
  H  H27  1  0.69744000  0.28292000  0.95197000  1.0
  H  H28  1  0.73786000  0.66337000  0.86960000  1.0
  H  H29  1  0.26214000  0.83664000  0.36961000  1.0
  H  H30  1  0.26212000  0.33663000  0.13040000  1.0
  H  H31  1  0.73787000  0.16337000  0.63039000  1.0
  H  H32  1  0.56745000  0.62056000  0.81844000  1.0
  H  H33  1  0.43255000  0.87944000  0.31844000  1.0
  H  H34  1  0.43254000  0.37943000  0.18156000  1.0
  H  H35  1  0.56746000  0.12057000  0.68156000  1.0
  H  H36  1  0.64811000  0.76862000  0.81265000  1.0
  H  H37  1  0.35189000  0.73139000  0.31265000  1.0
  H  H38  1  0.35187000  0.23138000  0.18735000  1.0
  H  H39  1  0.64813000  0.26862000  0.68735000  1.0
  H  H40  1  0.11861000  0.44722000  0.62774000  1.0
  H  H41  1  0.88138000  0.05278000  0.12774000  1.0
  H  H42  1  0.88138000  0.55279000  0.37226000  1.0
  H  H43  1  0.11862000  0.94721000  0.87226000  1.0
  H  H44  1  0.95056000  0.35388000  0.64984000  1.0
  H  H45  1  0.04943000  0.14612000  0.14984000  1.0
  H  H46  1  0.04944000  0.64612000  0.35017000  1.0
  H  H47  1  0.95056000  0.85388000  0.85016000  1.0
  H  H48  1  0.12383000  0.36624000  0.70487000  1.0
  H  H49  1  0.87617000  0.13377000  0.20487000  1.0
  H  H50  1  0.87617000  0.63377000  0.29513000  1.0
  H  H51  1  0.12383000  0.86622000  0.79513000  1.0
  C  C52  1  0.77048000  0.36910000  0.50452000  1.0
  C  C53  1  0.22952000  0.13090000  0.00451000  1.0
  C  C54  1  0.22950000  0.63090000  0.49548000  1.0
  C  C55  1  0.77051000  0.86910000  0.99549000  1.0
  C  C56  1  0.69545000  0.47496000  0.54217000  1.0
  C  C57  1  0.30455000  0.02504000  0.04217000  1.0
  C  C58  1  0.30454000  0.52504000  0.45783000  1.0
  C  C59  1  0.69545000  0.97496000  0.95783000  1.0
  C  C60  1  0.57621000  0.45565000  0.59151000  1.0
  C  C61  1  0.42379000  0.04435000  0.09151000  1.0
  C  C62  1  0.42378000  0.54435000  0.40849000  1.0
  C  C63  1  0.57621000  0.95566000  0.90849000  1.0
  C  C64  1  0.73844000  0.59338000  0.52676000  1.0
  C  C65  1  0.26156000  0.90663000  0.02677000  1.0
  C  C66  1  0.26155000  0.40663000  0.47323000  1.0
  C  C67  1  0.73846000  0.09338000  0.97323000  1.0
  C  C68  1  0.50115000  0.55267000  0.62548000  1.0
  C  C69  1  0.49886000  0.94733000  0.12548000  1.0
  C  C70  1  0.49883000  0.44733000  0.37452000  1.0
  C  C71  1  0.50116000  0.05269000  0.87452000  1.0
  C  C72  1  0.66375000  0.69102000  0.56019000  1.0
  C  C73  1  0.33625000  0.80898000  0.06019000  1.0
  C  C74  1  0.33624000  0.30898000  0.43981000  1.0
  C  C75  1  0.66377000  0.19102000  0.93981000  1.0
  C  C76  1  0.54485000  0.67108000  0.60982000  1.0
  C  C77  1  0.45515000  0.82892000  0.10982000  1.0
  C  C78  1  0.45515000  0.32892000  0.39018000  1.0
  C  C79  1  0.54487000  0.17109000  0.89018000  1.0
  C  C80  1  0.46740000  0.77412000  0.64513000  1.0
  C  C81  1  0.53260000  0.72588000  0.14513000  1.0
  C  C82  1  0.53258000  0.22589000  0.35487000  1.0
  C  C83  1  0.46742000  0.27411000  0.85487000  1.0
  C  C84  1  0.68205000  0.67268000  0.81994000  1.0
  C  C85  1  0.31795000  0.82732000  0.31995000  1.0
  C  C86  1  0.31793000  0.32732000  0.18005000  1.0
  C  C87  1  0.68207000  0.17268000  0.68005000  1.0
  C  C88  1  0.79907000  0.63160000  0.76705000  1.0
  C  C89  1  0.20093000  0.86840000  0.26705000  1.0
  C  C90  1  0.20091000  0.36839000  0.23295000  1.0
  C  C91  1  0.79907000  0.13160000  0.73296000  1.0
  C  C92  1  0.95739000  0.52100000  0.70190000  1.0
  C  C93  1  0.04261000  0.97900000  0.20190000  1.0
  C  C94  1  0.04259000  0.47900000  0.29809000  1.0
  C  C95  1  0.95739000  0.02100000  0.79810000  1.0
  C  C96  1  0.04330000  0.41584000  0.66929000  1.0
  C  C97  1  0.95669000  0.08416000  0.16928000  1.0
  C  C98  1  0.95669000  0.58416000  0.33071000  1.0
  C  C99  1  0.04331000  0.91584000  0.83071000  1.0
  N  N100  1  0.85293000  0.51542000  0.75533000  1.0
  N  N101  1  0.14706000  0.98458000  0.25533000  1.0
  N  N102  1  0.14707000  0.48458000  0.24468000  1.0
  N  N103  1  0.85294000  0.01542000  0.74467000  1.0
  N  N104  1  0.96819000  0.63527000  0.68224000  1.0
  N  N105  1  0.03180000  0.86472000  0.18224000  1.0
  N  N106  1  0.03180000  0.36473000  0.31776000  1.0
  N  N107  1  0.96821000  0.13527000  0.81776000  1.0
  N  N108  1  0.86734000  0.70530000  0.72328000  1.0
  N  N109  1  0.13265000  0.79470000  0.22329000  1.0
  N  N110  1  0.13264000  0.29470000  0.27671000  1.0
  N  N111  1  0.86736000  0.20530000  0.77671000  1.0
  N  N112  1  0.30218000  0.79723000  0.65326000  1.0
  N  N113  1  0.69782000  0.70276000  0.15326000  1.0
  N  N114  1  0.69781000  0.20277000  0.34674000  1.0
  N  N115  1  0.30219000  0.29724000  0.84674000  1.0
  N  N116  1  0.55125000  0.86186000  0.67561000  1.0
  N  N117  1  0.44875000  0.63814000  0.17562000  1.0
  N  N118  1  0.44874000  0.13814000  0.32438000  1.0
  N  N119  1  0.55126000  0.36186000  0.82439000  1.0
  N  N120  1  0.43421000  0.93875000  0.70316000  1.0
  N  N121  1  0.56579000  0.56125000  0.20316000  1.0
  N  N122  1  0.56578000  0.06126000  0.29684000  1.0
  N  N123  1  0.43422000  0.43874000  0.79684000  1.0
  N  N124  1  0.28570000  0.90054000  0.68949000  1.0
  N  N125  1  0.71430000  0.59945000  0.18949000  1.0
  N  N126  1  0.71428000  0.09947000  0.31051000  1.0
  N  N127  1  0.28572000  0.40054000  0.81051000  1.0
  O  O128  1  0.85376000  0.39972000  0.45180000  1.0
  O  O129  1  0.14624000  0.10028000  0.95180000  1.0
  O  O130  1  0.14621000  0.60029000  0.54820000  1.0
  O  O131  1  0.85379000  0.89971000  0.04820000  1.0
  O  O132  1  0.75027000  0.26289000  0.52259000  1.0
  O  O133  1  0.24974000  0.23711000  0.02260000  1.0
  O  O134  1  0.24972000  0.73711000  0.47741000  1.0
  O  O135  1  0.75026000  0.76290000  0.97741000  1.0
  O  O136  1  0.93478000  0.86788000  0.60782000  1.0
  O  O137  1  0.06521000  0.63211000  0.10782000  1.0
  O  O138  1  0.06520000  0.13212000  0.39218000  1.0
  O  O139  1  0.93481000  0.36788000  0.89218000  1.0
