# generated using pymatgen
data_CdH10C16(NO)4
_symmetry_space_group_name_H-M   'P 1'
_cell_length_a   11.74420000
_cell_length_b   11.75970000
_cell_length_c   14.89300000
_cell_angle_alpha   79.17990000
_cell_angle_beta   79.16550000
_cell_angle_gamma   60.39750000
_symmetry_Int_Tables_number   1
_chemical_formula_structural   CdH10C16(NO)4
_chemical_formula_sum   'Cd4 H40 C64 N16 O16'
_cell_volume   1745.62131134
_cell_formula_units_Z   4
loop_
 _symmetry_equiv_pos_site_id
 _symmetry_equiv_pos_as_xyz
  1  'x, y, z'
loop_
 _atom_site_type_symbol
 _atom_site_label
 _atom_site_symmetry_multiplicity
 _atom_site_fract_x
 _atom_site_fract_y
 _atom_site_fract_z
 _atom_site_occupancy
  Cd  Cd0  1  0.63794000  0.29323000  0.93648000  1.0
  Cd  Cd1  1  0.29319000  0.63794000  0.43655000  1.0
  Cd  Cd2  1  0.25162000  0.86830000  0.16901000  1.0
  Cd  Cd3  1  0.86847000  0.25169000  0.66888000  1.0
  H  H4  1  0.41192000  0.30789000  0.48635000  1.0
  H  H5  1  0.30781000  0.41191000  0.98638000  1.0
  H  H6  1  0.50096000  0.10363000  0.40337000  1.0
  H  H7  1  0.10318000  0.50113000  0.90345000  1.0
  H  H8  1  0.32157000  0.67939000  0.99317000  1.0
  H  H9  1  0.67908000  0.32175000  0.49310000  1.0
  H  H10  1  0.21503000  0.72218000  0.84639000  1.0
  H  H11  1  0.72186000  0.21526000  0.34636000  1.0
  H  H12  1  0.44245000  0.16709000  0.95225000  1.0
  H  H13  1  0.16747000  0.44267000  0.45233000  1.0
  H  H14  1  0.44365000  0.96012000  0.93705000  1.0
  H  H15  1  0.96014000  0.44397000  0.43701000  1.0
  H  H16  1  0.86967000  0.77719000  0.89314000  1.0
  H  H17  1  0.77715000  0.86937000  0.39310000  1.0
  H  H18  1  0.84972000  0.99284000  0.91070000  1.0
  H  H19  1  0.99316000  0.84936000  0.41077000  1.0
  H  H20  1  0.48268000  0.81102000  0.84086000  1.0
  H  H21  1  0.81114000  0.48283000  0.34086000  1.0
  H  H22  1  0.48639000  0.59695000  0.84612000  1.0
  H  H23  1  0.59666000  0.48661000  0.34622000  1.0
  H  H24  1  0.83395000  0.39208000  0.96809000  1.0
  H  H25  1  0.39159000  0.83389000  0.46811000  1.0
  H  H26  1  0.84503000  0.59798000  0.96845000  1.0
  H  H27  1  0.59791000  0.84487000  0.46834000  1.0
  H  H28  1  0.94377000  0.05765000  0.17051000  1.0
  H  H29  1  0.05802000  0.94343000  0.67047000  1.0
  H  H30  1  0.73650000  0.06324000  0.15453000  1.0
  H  H31  1  0.06352000  0.73653000  0.65455000  1.0
  H  H32  1  0.95045000  0.63643000  0.17271000  1.0
  H  H33  1  0.63614000  0.95040000  0.67272000  1.0
  H  H34  1  0.15018000  0.65102000  0.18245000  1.0
  H  H35  1  0.65086000  0.14974000  0.68244000  1.0
  H  H36  1  0.56883000  0.05300000  0.18189000  1.0
  H  H37  1  0.05317000  0.56896000  0.68190000  1.0
  H  H38  1  0.36525000  0.04517000  0.17271000  1.0
  H  H39  1  0.04528000  0.36577000  0.67274000  1.0
  H  H40  1  0.57149000  0.65083000  0.13213000  1.0
  H  H41  1  0.65048000  0.57180000  0.63210000  1.0
  H  H42  1  0.78643000  0.64057000  0.13706000  1.0
  H  H43  1  0.64025000  0.78635000  0.63705000  1.0
  C  C44  1  0.53110000  0.31709000  0.12421000  1.0
  C  C45  1  0.31708000  0.53106000  0.62426000  1.0
  C  C46  1  0.48937000  0.32139000  0.22659000  1.0
  C  C47  1  0.32132000  0.48939000  0.72663000  1.0
  C  C48  1  0.42777000  0.43616000  0.27157000  1.0
  C  C49  1  0.43624000  0.42771000  0.77157000  1.0
  C  C50  1  0.43286000  0.30990000  0.41170000  1.0
  C  C51  1  0.30979000  0.43288000  0.91173000  1.0
  C  C52  1  0.48504000  0.19850000  0.36562000  1.0
  C  C53  1  0.19821000  0.48517000  0.86568000  1.0
  C  C54  1  0.38312000  0.57196000  0.21934000  1.0
  C  C55  1  0.57222000  0.38296000  0.71931000  1.0
  C  C56  1  0.95975000  0.15187000  0.87659000  1.0
  C  C57  1  0.15195000  0.95964000  0.37665000  1.0
  C  C58  1  0.07971000  0.02274000  0.90063000  1.0
  C  C59  1  0.02279000  0.07961000  0.40070000  1.0
  C  C60  1  0.14940000  0.00181000  0.97496000  1.0
  C  C61  1  0.00194000  0.14925000  0.47499000  1.0
  C  C62  1  0.25586000  0.77788000  0.96297000  1.0
  C  C63  1  0.77770000  0.25597000  0.46294000  1.0
  C  C64  1  0.19435000  0.80189000  0.88507000  1.0
  C  C65  1  0.80167000  0.19448000  0.38507000  1.0
  C  C66  1  0.12929000  0.11551000  0.02334000  1.0
  C  C67  1  0.11585000  0.12909000  0.52336000  1.0
  C  C68  1  0.94073000  0.96654000  0.17035000  1.0
  C  C69  1  0.96674000  0.94051000  0.67029000  1.0
  C  C70  1  0.82396000  0.96807000  0.16229000  1.0
  C  C71  1  0.96821000  0.82389000  0.66231000  1.0
  C  C72  1  0.82230000  0.84921000  0.16348000  1.0
  C  C73  1  0.84918000  0.82226000  0.66349000  1.0
  C  C74  1  0.94289000  0.73293000  0.17078000  1.0
  C  C75  1  0.73282000  0.94275000  0.67080000  1.0
  C  C76  1  0.05558000  0.73992000  0.17738000  1.0
  C  C77  1  0.73989000  0.05527000  0.67737000  1.0
  C  C78  1  0.69858000  0.84737000  0.15850000  1.0
  C  C79  1  0.84730000  0.69868000  0.65851000  1.0
  C  C80  1  0.57680000  0.96158000  0.16812000  1.0
  C  C81  1  0.96159000  0.57702000  0.66812000  1.0
  C  C82  1  0.46135000  0.95796000  0.16497000  1.0
  C  C83  1  0.95794000  0.46173000  0.66496000  1.0
  C  C84  1  0.57666000  0.73745000  0.14282000  1.0
  C  C85  1  0.73725000  0.57686000  0.64282000  1.0
  C  C86  1  0.69635000  0.73326000  0.14549000  1.0
  C  C87  1  0.73307000  0.69640000  0.64549000  1.0
  C  C88  1  0.53515000  0.07904000  0.93742000  1.0
  C  C89  1  0.07932000  0.53522000  0.43745000  1.0
  C  C90  1  0.53651000  0.96287000  0.92836000  1.0
  C  C91  1  0.96301000  0.53663000  0.42830000  1.0
  C  C92  1  0.65770000  0.84964000  0.91299000  1.0
  C  C93  1  0.84972000  0.65771000  0.41290000  1.0
  C  C94  1  0.77255000  0.86058000  0.90677000  1.0
  C  C95  1  0.86065000  0.77240000  0.40673000  1.0
  C  C96  1  0.76255000  0.98078000  0.91556000  1.0
  C  C97  1  0.98098000  0.76237000  0.41557000  1.0
  C  C98  1  0.66243000  0.72371000  0.90674000  1.0
  C  C99  1  0.72364000  0.66247000  0.40664000  1.0
  C  C100  1  0.56200000  0.72114000  0.87052000  1.0
  C  C101  1  0.72111000  0.56211000  0.37048000  1.0
  C  C102  1  0.56373000  0.60169000  0.87329000  1.0
  C  C103  1  0.60149000  0.56386000  0.37331000  1.0
  C  C104  1  0.75762000  0.48723000  0.94101000  1.0
  C  C105  1  0.48687000  0.75765000  0.44100000  1.0
  C  C106  1  0.76380000  0.60268000  0.93985000  1.0
  C  C107  1  0.60250000  0.76377000  0.43977000  1.0
  N  N108  1  0.51610000  0.20350000  0.27451000  1.0
  N  N109  1  0.20325000  0.51625000  0.77459000  1.0
  N  N110  1  0.40379000  0.42767000  0.36387000  1.0
  N  N111  1  0.42773000  0.40373000  0.86386000  1.0
  N  N112  1  0.10414000  0.92317000  0.85519000  1.0
  N  N113  1  0.92305000  0.10418000  0.35523000  1.0
  N  N114  1  0.23336000  0.87866000  0.00634000  1.0
  N  N115  1  0.87865000  0.23330000  0.50635000  1.0
  N  N116  1  0.05509000  0.85434000  0.17808000  1.0
  N  N117  1  0.85447000  0.05480000  0.67802000  1.0
  N  N118  1  0.46097000  0.84780000  0.15250000  1.0
  N  N119  1  0.84769000  0.46126000  0.65249000  1.0
  N  N120  1  0.64590000  0.08866000  0.93079000  1.0
  N  N121  1  0.08892000  0.64583000  0.43084000  1.0
  N  N122  1  0.65721000  0.48748000  0.90973000  1.0
  N  N123  1  0.48717000  0.65731000  0.40977000  1.0
  O  O124  1  0.64650000  0.30132000  0.09674000  1.0
  O  O125  1  0.30139000  0.64627000  0.59682000  1.0
  O  O126  1  0.45371000  0.31736000  0.07561000  1.0
  O  O127  1  0.31730000  0.45381000  0.57565000  1.0
  O  O128  1  0.40912000  0.58197000  0.13365000  1.0
  O  O129  1  0.58229000  0.40899000  0.63364000  1.0
  O  O130  1  0.31771000  0.66916000  0.26792000  1.0
  O  O131  1  0.66951000  0.31746000  0.76788000  1.0
  O  O132  1  0.86227000  0.16972000  0.93775000  1.0
  O  O133  1  0.16973000  0.86230000  0.43777000  1.0
  O  O134  1  0.96286000  0.21971000  0.80132000  1.0
  O  O135  1  0.21989000  0.96266000  0.30136000  1.0
  O  O136  1  0.08315000  0.22682000  0.97812000  1.0
  O  O137  1  0.22734000  0.08282000  0.47816000  1.0
  O  O138  1  0.16255000  0.08550000  0.10509000  1.0
  O  O139  1  0.08580000  0.16253000  0.60506000  1.0
