# generated using pymatgen
data_CdH11C12N2ClO4
_symmetry_space_group_name_H-M   'P 1'
_cell_length_a   7.23568000
_cell_length_b   12.92990000
_cell_length_c   13.49220000
_cell_angle_alpha   90.00010000
_cell_angle_beta   90.00050000
_cell_angle_gamma   90.67350000
_symmetry_Int_Tables_number   1
_chemical_formula_structural   CdH11C12N2ClO4
_chemical_formula_sum   'Cd4 H44 C48 N8 Cl4 O16'
_cell_volume   1262.19740538
_cell_formula_units_Z   4
loop_
 _symmetry_equiv_pos_site_id
 _symmetry_equiv_pos_as_xyz
  1  'x, y, z'
loop_
 _atom_site_type_symbol
 _atom_site_label
 _atom_site_symmetry_multiplicity
 _atom_site_fract_x
 _atom_site_fract_y
 _atom_site_fract_z
 _atom_site_occupancy
  Cd  Cd0  1  0.86234000  0.41306000  0.05301000  1.0
  Cd  Cd1  1  0.63766000  0.08694000  0.55301000  1.0
  Cd  Cd2  1  0.13766000  0.58694000  0.94699000  1.0
  Cd  Cd3  1  0.36234000  0.91306000  0.44699000  1.0
  H  H4  1  0.10510000  0.84342000  0.93286000  1.0
  H  H5  1  0.39490000  0.65658000  0.43286000  1.0
  H  H6  1  0.89490000  0.15659000  0.06714000  1.0
  H  H7  1  0.60510000  0.34341000  0.56714000  1.0
  H  H8  1  0.16813000  0.82110000  0.11250000  1.0
  H  H9  1  0.33187000  0.67891000  0.61250000  1.0
  H  H10  1  0.83187000  0.17891000  0.88750000  1.0
  H  H11  1  0.66812000  0.32109000  0.38750000  1.0
  H  H12  1  0.32027000  0.95867000  0.21017000  1.0
  H  H13  1  0.17973000  0.54134000  0.71017000  1.0
  H  H14  1  0.67973000  0.04134000  0.78983000  1.0
  H  H15  1  0.82027000  0.45866000  0.28983000  1.0
  H  H16  1  0.40896000  0.12808000  0.13298000  1.0
  H  H17  1  0.09104000  0.37192000  0.63298000  1.0
  H  H18  1  0.59105000  0.87193000  0.86702000  1.0
  H  H19  1  0.90895000  0.62807000  0.36702000  1.0
  H  H20  1  0.19624000  0.17734000  0.68667000  1.0
  H  H21  1  0.30376000  0.32266000  0.18667000  1.0
  H  H22  1  0.80376000  0.82266000  0.31333000  1.0
  H  H23  1  0.69624000  0.67734000  0.81333000  1.0
  H  H24  1  0.20134000  0.28134000  0.77264000  1.0
  H  H25  1  0.29866000  0.21866000  0.27264000  1.0
  H  H26  1  0.79866000  0.71866000  0.22736000  1.0
  H  H27  1  0.70134000  0.78134000  0.72735000  1.0
  H  H28  1  0.41255000  0.22812000  0.72768000  1.0
  H  H29  1  0.08744000  0.27188000  0.22768000  1.0
  H  H30  1  0.58745000  0.77188000  0.27232000  1.0
  H  H31  1  0.91255000  0.72812000  0.77232000  1.0
  H  H32  1  0.48334000  0.25768000  0.01988000  1.0
  H  H33  1  0.01666000  0.24232000  0.51988000  1.0
  H  H34  1  0.51666000  0.74232000  0.98012000  1.0
  H  H35  1  0.98333000  0.75768000  0.48012000  1.0
  H  H36  1  0.50036000  0.29074000  0.89386000  1.0
  H  H37  1  0.99964000  0.20926000  0.39386000  1.0
  H  H38  1  0.49964000  0.70926000  0.10614000  1.0
  H  H39  1  0.00035000  0.79074000  0.60614000  1.0
  H  H40  1  0.09648000  0.90224000  0.77741000  1.0
  H  H41  1  0.40352000  0.59776000  0.27741000  1.0
  H  H42  1  0.90352000  0.09776000  0.22259000  1.0
  H  H43  1  0.59649000  0.40224000  0.72259000  1.0
  H  H44  1  0.02509000  0.01614000  0.71569000  1.0
  H  H45  1  0.47491000  0.48386000  0.21569000  1.0
  H  H46  1  0.97492000  0.98386000  0.28431000  1.0
  H  H47  1  0.52509000  0.51614000  0.78431000  1.0
  C  C48  1  0.22224000  0.99952000  0.93265000  1.0
  C  C49  1  0.27776000  0.50049000  0.43265000  1.0
  C  C50  1  0.77776000  0.00049000  0.06735000  1.0
  C  C51  1  0.72224000  0.49951000  0.56735000  1.0
  C  C52  1  0.17046000  0.90526000  0.97516000  1.0
  C  C53  1  0.32954000  0.59474000  0.47516000  1.0
  C  C54  1  0.82954000  0.09474000  0.02484000  1.0
  C  C55  1  0.67046000  0.40526000  0.52484000  1.0
  C  C56  1  0.20617000  0.89349000  0.07597000  1.0
  C  C57  1  0.29384000  0.60651000  0.57597000  1.0
  C  C58  1  0.79383000  0.10651000  0.92403000  1.0
  C  C59  1  0.70616000  0.39349000  0.42403000  1.0
  C  C60  1  0.29083000  0.97261000  0.13226000  1.0
  C  C61  1  0.20917000  0.52739000  0.63226000  1.0
  C  C62  1  0.70917000  0.02740000  0.86774000  1.0
  C  C63  1  0.79083000  0.47260000  0.36774000  1.0
  C  C64  1  0.34044000  0.06732000  0.09022000  1.0
  C  C65  1  0.15957000  0.43268000  0.59022000  1.0
  C  C66  1  0.65957000  0.93268000  0.90978000  1.0
  C  C67  1  0.84043000  0.56732000  0.40978000  1.0
  C  C68  1  0.30201000  0.07959000  0.98971000  1.0
  C  C69  1  0.19799000  0.42042000  0.48971000  1.0
  C  C70  1  0.69799000  0.92041000  0.01029000  1.0
  C  C71  1  0.80201000  0.57958000  0.51029000  1.0
  C  C72  1  0.26951000  0.13657000  0.83412000  1.0
  C  C73  1  0.23049000  0.36343000  0.33413000  1.0
  C  C74  1  0.73049000  0.86343000  0.16588000  1.0
  C  C75  1  0.76951000  0.63656000  0.66587000  1.0
  C  C76  1  0.26983000  0.20960000  0.75028000  1.0
  C  C77  1  0.23016000  0.29040000  0.25028000  1.0
  C  C78  1  0.73017000  0.79040000  0.24972000  1.0
  C  C79  1  0.76983000  0.70960000  0.74972000  1.0
  C  C80  1  0.40320000  0.26399000  0.95080000  1.0
  C  C81  1  0.09679000  0.23601000  0.45080000  1.0
  C  C82  1  0.59680000  0.73601000  0.04920000  1.0
  C  C83  1  0.90320000  0.76399000  0.54920000  1.0
  C  C84  1  0.25163000  0.34451000  0.96712000  1.0
  C  C85  1  0.24836000  0.15549000  0.46711000  1.0
  C  C86  1  0.74837000  0.65549000  0.03288000  1.0
  C  C87  1  0.75162000  0.84451000  0.53288000  1.0
  C  C88  1  0.14365000  0.97797000  0.75075000  1.0
  C  C89  1  0.35636000  0.52203000  0.25076000  1.0
  C  C90  1  0.85636000  0.02203000  0.24925000  1.0
  C  C91  1  0.64365000  0.47797000  0.74925000  1.0
  C  C92  1  0.29082000  0.96278000  0.66962000  1.0
  C  C93  1  0.20918000  0.53723000  0.16962000  1.0
  C  C94  1  0.70918000  0.03722000  0.33038000  1.0
  C  C95  1  0.79083000  0.46278000  0.83038000  1.0
  N  N96  1  0.32939000  0.16254000  0.92572000  1.0
  N  N97  1  0.17061000  0.33746000  0.42572000  1.0
  N  N98  1  0.67061000  0.83746000  0.07429000  1.0
  N  N99  1  0.82939000  0.66254000  0.57428000  1.0
  N  N100  1  0.20628000  0.03772000  0.83604000  1.0
  N  N101  1  0.29372000  0.46229000  0.33604000  1.0
  N  N102  1  0.79372000  0.96229000  0.16396000  1.0
  N  N103  1  0.70629000  0.53771000  0.66396000  1.0
  Cl  Cl104  1  0.69055000  0.29961000  0.16949000  1.0
  Cl  Cl105  1  0.80944000  0.20040000  0.66949000  1.0
  Cl  Cl106  1  0.30944000  0.70039000  0.83051000  1.0
  Cl  Cl107  1  0.19055000  0.79960000  0.33051000  1.0
  O  O108  1  0.10254000  0.31190000  0.00626000  1.0
  O  O109  1  0.39746000  0.18810000  0.50626000  1.0
  O  O110  1  0.89745000  0.68810000  0.99374000  1.0
  O  O111  1  0.60254000  0.81190000  0.49374000  1.0
  O  O112  1  0.29457000  0.43583000  0.94175000  1.0
  O  O113  1  0.20542000  0.06417000  0.44175000  1.0
  O  O114  1  0.70542000  0.56417000  0.05825000  1.0
  O  O115  1  0.79457000  0.93583000  0.55825000  1.0
  O  O116  1  0.24579000  0.89666000  0.60439000  1.0
  O  O117  1  0.25421000  0.60334000  0.10439000  1.0
  O  O118  1  0.75421000  0.10334000  0.39561000  1.0
  O  O119  1  0.74579000  0.39666000  0.89562000  1.0
  O  O120  1  0.43446000  0.01912000  0.67269000  1.0
  O  O121  1  0.06555000  0.48089000  0.17269000  1.0
  O  O122  1  0.56555000  0.98088000  0.32731000  1.0
  O  O123  1  0.93445000  0.51911000  0.82731000  1.0
