# generated using pymatgen
data_CdH5C5IN2O3
_symmetry_space_group_name_H-M   'P 1'
_cell_length_a   9.02394000
_cell_length_b   9.02395000
_cell_length_c   12.67340000
_cell_angle_alpha   102.82300000
_cell_angle_beta   102.82300000
_cell_angle_gamma   108.95700000
_symmetry_Int_Tables_number   1
_chemical_formula_structural   CdH5C5IN2O3
_chemical_formula_sum   'Cd4 H20 C20 I4 N8 O12'
_cell_volume   902.02422970
_cell_formula_units_Z   4
loop_
 _symmetry_equiv_pos_site_id
 _symmetry_equiv_pos_as_xyz
  1  'x, y, z'
loop_
 _atom_site_type_symbol
 _atom_site_label
 _atom_site_symmetry_multiplicity
 _atom_site_fract_x
 _atom_site_fract_y
 _atom_site_fract_z
 _atom_site_occupancy
  Cd  Cd0  1  0.41436000  0.16952000  0.20522000  1.0
  Cd  Cd1  1  0.83048000  0.58564000  0.29477000  1.0
  Cd  Cd2  1  0.58564000  0.83048000  0.79478000  1.0
  Cd  Cd3  1  0.16952000  0.41436000  0.70523000  1.0
  H  H4  1  0.95140000  0.30926000  0.35476000  1.0
  H  H5  1  0.69075000  0.04861000  0.14524000  1.0
  H  H6  1  0.04861000  0.69075000  0.64525000  1.0
  H  H7  1  0.30925000  0.95140000  0.85476000  1.0
  H  H8  1  0.09127000  0.59472000  0.15010000  1.0
  H  H9  1  0.40528000  0.90873000  0.34989000  1.0
  H  H10  1  0.90873000  0.40528000  0.84989000  1.0
  H  H11  1  0.59472000  0.09127000  0.65011000  1.0
  H  H12  1  0.29214000  0.45833000  0.11512000  1.0
  H  H13  1  0.54168000  0.70786000  0.38488000  1.0
  H  H14  1  0.70786000  0.54167000  0.88488000  1.0
  H  H15  1  0.45832000  0.29214000  0.61512000  1.0
  H  H16  1  0.16890000  0.98429000  0.99258000  1.0
  H  H17  1  0.01571000  0.83109000  0.50742000  1.0
  H  H18  1  0.83109000  0.01571000  0.00742000  1.0
  H  H19  1  0.98429000  0.16891000  0.49258000  1.0
  H  H20  1  0.09053000  0.93270000  0.08298000  1.0
  H  H21  1  0.06730000  0.90946000  0.41702000  1.0
  H  H22  1  0.90946000  0.06730000  0.91702000  1.0
  H  H23  1  0.93270000  0.09054000  0.58298000  1.0
  C  C24  1  0.14046000  0.27027000  0.28477000  1.0
  C  C25  1  0.72974000  0.85955000  0.21523000  1.0
  C  C26  1  0.85955000  0.72974000  0.71524000  1.0
  C  C27  1  0.27026000  0.14045000  0.78477000  1.0
  C  C28  1  0.02882000  0.34314000  0.30191000  1.0
  C  C29  1  0.65687000  0.97118000  0.19808000  1.0
  C  C30  1  0.97118000  0.65687000  0.69809000  1.0
  C  C31  1  0.34313000  0.02882000  0.80192000  1.0
  C  C32  1  0.10632000  0.50074000  0.18782000  1.0
  C  C33  1  0.49927000  0.89368000  0.31218000  1.0
  C  C34  1  0.89368000  0.49927000  0.81218000  1.0
  C  C35  1  0.50073000  0.10632000  0.68782000  1.0
  C  C36  1  0.21624000  0.42690000  0.16952000  1.0
  C  C37  1  0.57310000  0.78376000  0.33048000  1.0
  C  C38  1  0.78376000  0.57310000  0.83048000  1.0
  C  C39  1  0.42690000  0.21624000  0.66952000  1.0
  C  C40  1  0.15965000  0.14037000  0.33878000  1.0
  C  C41  1  0.85964000  0.84035000  0.16122000  1.0
  C  C42  1  0.84035000  0.85963000  0.66122000  1.0
  C  C43  1  0.14036000  0.15965000  0.83878000  1.0
  I  I44  1  0.58069000  0.32270000  0.07000000  1.0
  I  I45  1  0.67731000  0.41931000  0.43001000  1.0
  I  I46  1  0.41931000  0.67730000  0.93000000  1.0
  I  I47  1  0.32269000  0.58069000  0.57000000  1.0
  N  N48  1  0.23339000  0.31412000  0.21905000  1.0
  N  N49  1  0.68588000  0.76662000  0.28095000  1.0
  N  N50  1  0.76661000  0.68588000  0.78095000  1.0
  N  N51  1  0.31412000  0.23338000  0.71905000  1.0
  N  N52  1  0.01343000  0.45781000  0.25426000  1.0
  N  N53  1  0.54219000  0.98657000  0.24574000  1.0
  N  N54  1  0.98658000  0.54220000  0.74575000  1.0
  N  N55  1  0.45781000  0.01343000  0.75426000  1.0
  O  O56  1  0.27036000  0.08749000  0.32672000  1.0
  O  O57  1  0.91252000  0.72965000  0.17329000  1.0
  O  O58  1  0.72964000  0.91251000  0.67328000  1.0
  O  O59  1  0.08749000  0.27036000  0.82672000  1.0
  O  O60  1  0.05852000  0.08935000  0.39091000  1.0
  O  O61  1  0.91065000  0.94148000  0.10908000  1.0
  O  O62  1  0.94148000  0.91065000  0.60908000  1.0
  O  O63  1  0.08935000  0.05852000  0.89092000  1.0
  O  O64  1  0.19254000  0.94766000  0.06050000  1.0
  O  O65  1  0.05233000  0.80746000  0.43950000  1.0
  O  O66  1  0.80746000  0.05234000  0.93950000  1.0
  O  O67  1  0.94766000  0.19254000  0.56050000  1.0
