# generated using pymatgen
data_Hg2H27C24N7Cl4O3
_symmetry_space_group_name_H-M   'P 1'
_cell_length_a   8.23702000
_cell_length_b   13.53760000
_cell_length_c   14.00700000
_cell_angle_alpha   105.03700000
_cell_angle_beta   95.52430000
_cell_angle_gamma   96.90690000
_symmetry_Int_Tables_number   1
_chemical_formula_structural   Hg2H27C24N7Cl4O3
_chemical_formula_sum   'Hg4 H54 C48 N14 Cl8 O6'
_cell_volume   1484.19023668
_cell_formula_units_Z   2
loop_
 _symmetry_equiv_pos_site_id
 _symmetry_equiv_pos_as_xyz
  1  'x, y, z'
loop_
 _atom_site_type_symbol
 _atom_site_label
 _atom_site_symmetry_multiplicity
 _atom_site_fract_x
 _atom_site_fract_y
 _atom_site_fract_z
 _atom_site_occupancy
  Hg  Hg0  1  0.99025000  0.11855000  0.61668000  1.0
  Hg  Hg1  1  0.00975000  0.88145000  0.38332000  1.0
  Hg  Hg2  1  0.53148000  0.80732000  0.21106000  1.0
  Hg  Hg3  1  0.46852000  0.19268000  0.78893000  1.0
  H  H4  1  0.53729000  0.28640000  0.10886000  1.0
  H  H5  1  0.46270000  0.71360000  0.89114000  1.0
  H  H6  1  0.43836000  0.53455000  0.08104000  1.0
  H  H7  1  0.56164000  0.46545000  0.91896000  1.0
  H  H8  1  0.40491000  0.39953000  0.02527000  1.0
  H  H9  1  0.59509000  0.60047000  0.97473000  1.0
  H  H10  1  0.65739000  0.46814000  0.15598000  1.0
  H  H11  1  0.34261000  0.53186000  0.84402000  1.0
  H  H12  1  0.52313000  0.49058000  0.24877000  1.0
  H  H13  1  0.47687000  0.50942000  0.75123000  1.0
  H  H14  1  0.00903000  0.25951000  0.12061000  1.0
  H  H15  1  0.99097000  0.74050000  0.87940000  1.0
  H  H16  1  0.12162000  0.44334000  0.98003000  1.0
  H  H17  1  0.87838000  0.55666000  0.01997000  1.0
  H  H18  1  0.98900000  0.41548000  0.06531000  1.0
  H  H19  1  0.01100000  0.58452000  0.93469000  1.0
  H  H20  1  0.01400000  0.26385000  0.92897000  1.0
  H  H21  1  0.98600000  0.73614000  0.07102000  1.0
  H  H22  1  0.22590000  0.27281000  0.96791000  1.0
  H  H23  1  0.77410000  0.72719000  0.03209000  1.0
  H  H24  1  0.15449000  0.53204000  0.38701000  1.0
  H  H25  1  0.84551000  0.46796000  0.61300000  1.0
  H  H26  1  0.19704000  0.60580000  0.13820000  1.0
  H  H27  1  0.80296000  0.39420000  0.86180000  1.0
  H  H28  1  0.32577000  0.58616000  0.23731000  1.0
  H  H29  1  0.67423000  0.41384000  0.76269000  1.0
  H  H30  1  0.06084000  0.63304000  0.28233000  1.0
  H  H31  1  0.93916000  0.36695000  0.71767000  1.0
  H  H32  1  0.95113000  0.51835000  0.19725000  1.0
  H  H33  1  0.04887000  0.48164000  0.80275000  1.0
  H  H34  1  0.61559000  0.97105000  0.09382000  1.0
  H  H35  1  0.38441000  0.02895000  0.90618000  1.0
  H  H36  1  0.59444000  0.15203000  0.09558000  1.0
  H  H37  1  0.40556000  0.84797000  0.90442000  1.0
  H  H38  1  0.43236000  0.19535000  0.38681000  1.0
  H  H39  1  0.56764000  0.80465000  0.61318000  1.0
  H  H40  1  0.45568000  0.00858000  0.37181000  1.0
  H  H41  1  0.54431000  0.99142000  0.62818000  1.0
  H  H42  1  0.17421000  0.85952000  0.18734000  1.0
  H  H43  1  0.82578000  0.14048000  0.81266000  1.0
  H  H44  1  0.22845000  0.95975000  0.06379000  1.0
  H  H45  1  0.77154000  0.04025000  0.93621000  1.0
  H  H46  1  0.93870000  0.18182000  0.21733000  1.0
  H  H47  1  0.06130000  0.81818000  0.78267000  1.0
  H  H48  1  0.89319000  0.07111000  0.33249000  1.0
  H  H49  1  0.10682000  0.92889000  0.66751000  1.0
  H  H50  1  0.75155000  0.21821000  0.50317000  1.0
  H  H51  1  0.24845000  0.78180000  0.49683000  1.0
  H  H52  1  0.74738000  0.32466000  0.38110000  1.0
  H  H53  1  0.25263000  0.67534000  0.61891000  1.0
  H  H54  1  0.28214000  0.36595000  0.42344000  1.0
  H  H55  1  0.71787000  0.63404000  0.57656000  1.0
  H  H56  1  0.26245000  0.26247000  0.54879000  1.0
  H  H57  1  0.73755000  0.73753000  0.45122000  1.0
  C  C58  1  0.40343000  0.45873000  0.09556000  1.0
  C  C59  1  0.59657000  0.54127000  0.90444000  1.0
  C  C60  1  0.53380000  0.44402000  0.17354000  1.0
  C  C61  1  0.46620000  0.55599000  0.82646000  1.0
  C  C62  1  0.10981000  0.40473000  0.04052000  1.0
  C  C63  1  0.89019000  0.59526000  0.95948000  1.0
  C  C64  1  0.10889000  0.28974000  0.99484000  1.0
  C  C65  1  0.89111000  0.71025000  0.00515000  1.0
  C  C66  1  0.21291000  0.55171000  0.18482000  1.0
  C  C67  1  0.78708000  0.44829000  0.81518000  1.0
  C  C68  1  0.06858000  0.55217000  0.24497000  1.0
  C  C69  1  0.93142000  0.44782000  0.75503000  1.0
  C  C70  1  0.57312000  0.02291000  0.15675000  1.0
  C  C71  1  0.42688000  0.97709000  0.84325000  1.0
  C  C72  1  0.56116000  0.12506000  0.15909000  1.0
  C  C73  1  0.43885000  0.87494000  0.84091000  1.0
  C  C74  1  0.50991000  0.18949000  0.24256000  1.0
  C  C75  1  0.49009000  0.81052000  0.75744000  1.0
  C  C76  1  0.47153000  0.14731000  0.32044000  1.0
  C  C77  1  0.52847000  0.85269000  0.67956000  1.0
  C  C78  1  0.48546000  0.04431000  0.31304000  1.0
  C  C79  1  0.51454000  0.95569000  0.68695000  1.0
  C  C80  1  0.50295000  0.30309000  0.25537000  1.0
  C  C81  1  0.49706000  0.69691000  0.74463000  1.0
  C  C82  1  0.12379000  0.93085000  0.19034000  1.0
  C  C83  1  0.87621000  0.06915000  0.80966000  1.0
  C  C84  1  0.15472000  0.98744000  0.12278000  1.0
  C  C85  1  0.84528000  0.01256000  0.87722000  1.0
  C  C86  1  0.09254000  0.08058000  0.13158000  1.0
  C  C87  1  0.90746000  0.91942000  0.86842000  1.0
  C  C88  1  0.99490000  0.11150000  0.20731000  1.0
  C  C89  1  0.00510000  0.88850000  0.79269000  1.0
  C  C90  1  0.96817000  0.05085000  0.27223000  1.0
  C  C91  1  0.03183000  0.94915000  0.72777000  1.0
  C  C92  1  0.13494000  0.13993000  0.05755000  1.0
  C  C93  1  0.86504000  0.86007000  0.94245000  1.0
  C  C94  1  0.86492000  0.25376000  0.48364000  1.0
  C  C95  1  0.13509000  0.74624000  0.51636000  1.0
  C  C96  1  0.86421000  0.31209000  0.41583000  1.0
  C  C97  1  0.13579000  0.68791000  0.58418000  1.0
  C  C98  1  0.01465000  0.35280000  0.39195000  1.0
  C  C99  1  0.98535000  0.64720000  0.60806000  1.0
  C  C100  1  0.16183000  0.33783000  0.44121000  1.0
  C  C101  1  0.83818000  0.66217000  0.55879000  1.0
  C  C102  1  0.15251000  0.27880000  0.50936000  1.0
  C  C103  1  0.84749000  0.72119000  0.49065000  1.0
  C  C104  1  0.00429000  0.40023000  0.30628000  1.0
  C  C105  1  0.99572000  0.59977000  0.69372000  1.0
  N  N106  1  0.23791000  0.45009000  0.12559000  1.0
  N  N107  1  0.76209000  0.54991000  0.87441000  1.0
  N  N108  1  0.51947000  0.33645000  0.17421000  1.0
  N  N109  1  0.48053000  0.66355000  0.82579000  1.0
  N  N110  1  0.07495000  0.22930000  0.06455000  1.0
  N  N111  1  0.92505000  0.77070000  0.93545000  1.0
  N  N112  1  0.08370000  0.49641000  0.32066000  1.0
  N  N113  1  0.91631000  0.50359000  0.67934000  1.0
  N  N114  1  0.53653000  0.98395000  0.23255000  1.0
  N  N115  1  0.46347000  0.01605000  0.76745000  1.0
  N  N116  1  0.03332000  0.96299000  0.26426000  1.0
  N  N117  1  0.96668000  0.03701000  0.73574000  1.0
  N  N118  1  0.00705000  0.23686000  0.52852000  1.0
  N  N119  1  0.99295000  0.76314000  0.47148000  1.0
  Cl  Cl120  1  0.76914000  0.97388000  0.46922000  1.0
  Cl  Cl121  1  0.23087000  0.02612000  0.53078000  1.0
  Cl  Cl122  1  0.32264000  0.79857000  0.33674000  1.0
  Cl  Cl123  1  0.67736000  0.20143000  0.66326000  1.0
  Cl  Cl124  1  0.75744000  0.71244000  0.23859000  1.0
  Cl  Cl125  1  0.24256000  0.28756000  0.76142000  1.0
  Cl  Cl126  1  0.35392000  0.75106000  0.04137000  1.0
  Cl  Cl127  1  0.64608000  0.24894000  0.95863000  1.0
  O  O128  1  0.48881000  0.36033000  0.33917000  1.0
  O  O129  1  0.51119000  0.63967000  0.66083000  1.0
  O  O130  1  0.22232000  0.10437000  0.99262000  1.0
  O  O131  1  0.77766000  0.89562000  0.00737000  1.0
  O  O132  1  0.91605000  0.34923000  0.22697000  1.0
  O  O133  1  0.08395000  0.65076000  0.77304000  1.0
