# generated using pymatgen
data_CdH10C6(SN6)2
_symmetry_space_group_name_H-M   'P 1'
_cell_length_a   9.47566000
_cell_length_b   9.54179000
_cell_length_c   15.72950000
_cell_angle_alpha   90.00020000
_cell_angle_beta   90.00020000
_cell_angle_gamma   89.99990000
_symmetry_Int_Tables_number   1
_chemical_formula_structural   CdH10C6(SN6)2
_chemical_formula_sum   'Cd4 H40 C24 S8 N48'
_cell_volume   1422.17893329
_cell_formula_units_Z   4
loop_
 _symmetry_equiv_pos_site_id
 _symmetry_equiv_pos_as_xyz
  1  'x, y, z'
loop_
 _atom_site_type_symbol
 _atom_site_label
 _atom_site_symmetry_multiplicity
 _atom_site_fract_x
 _atom_site_fract_y
 _atom_site_fract_z
 _atom_site_occupancy
  Cd  Cd0  1  0.50000000  0.71396000  0.25000000  1.0
  Cd  Cd1  1  0.00000000  0.21396000  0.25000000  1.0
  Cd  Cd2  1  0.50000000  0.28604000  0.75000000  1.0
  Cd  Cd3  1  0.00000000  0.78604000  0.75000000  1.0
  H  H4  1  0.00061000  0.85080000  0.44185000  1.0
  H  H5  1  0.49939000  0.35080000  0.44185000  1.0
  H  H6  1  0.00061000  0.14920000  0.94185000  1.0
  H  H7  1  0.49939000  0.64920000  0.94185000  1.0
  H  H8  1  0.99939000  0.14920000  0.55815000  1.0
  H  H9  1  0.50061000  0.64920000  0.55815000  1.0
  H  H10  1  0.99938000  0.85080000  0.05815000  1.0
  H  H11  1  0.50061000  0.35080000  0.05815000  1.0
  H  H12  1  0.94560000  0.00900000  0.39960000  1.0
  H  H13  1  0.55440000  0.50900000  0.39960000  1.0
  H  H14  1  0.94561000  0.99100000  0.89960000  1.0
  H  H15  1  0.55440000  0.49100000  0.89960000  1.0
  H  H16  1  0.05440000  0.99099000  0.60040000  1.0
  H  H17  1  0.44560000  0.49100000  0.60040000  1.0
  H  H18  1  0.05439000  0.00901000  0.10040000  1.0
  H  H19  1  0.44561000  0.50901000  0.10040000  1.0
  H  H20  1  0.28574000  0.13576000  0.16117000  1.0
  H  H21  1  0.21426000  0.63576000  0.16117000  1.0
  H  H22  1  0.28574000  0.86424000  0.66117000  1.0
  H  H23  1  0.21426000  0.36424000  0.66117000  1.0
  H  H24  1  0.71426000  0.86424000  0.83883000  1.0
  H  H25  1  0.78574000  0.36424000  0.83883000  1.0
  H  H26  1  0.71426000  0.13576000  0.33884000  1.0
  H  H27  1  0.78574000  0.63576000  0.33884000  1.0
  H  H28  1  0.43481000  0.03349000  0.16966000  1.0
  H  H29  1  0.06519000  0.53349000  0.16966000  1.0
  H  H30  1  0.43482000  0.96651000  0.66966000  1.0
  H  H31  1  0.06518000  0.46651000  0.66966000  1.0
  H  H32  1  0.56519000  0.96651000  0.83034000  1.0
  H  H33  1  0.93481000  0.46651000  0.83034000  1.0
  H  H34  1  0.56518000  0.03349000  0.33034000  1.0
  H  H35  1  0.93482000  0.53349000  0.33034000  1.0
  H  H36  1  0.24389000  0.75391000  0.38888000  1.0
  H  H37  1  0.25611000  0.25391000  0.38888000  1.0
  H  H38  1  0.24389000  0.24609000  0.88888000  1.0
  H  H39  1  0.25611000  0.74609000  0.88888000  1.0
  H  H40  1  0.75611000  0.24609000  0.61112000  1.0
  H  H41  1  0.74389000  0.74609000  0.61112000  1.0
  H  H42  1  0.75611000  0.75391000  0.11112000  1.0
  H  H43  1  0.74389000  0.25391000  0.11112000  1.0
  C  C44  1  0.28320000  0.99765000  0.25819000  1.0
  C  C45  1  0.21680000  0.49765000  0.25819000  1.0
  C  C46  1  0.28320000  0.00235000  0.75819000  1.0
  C  C47  1  0.21680000  0.50235000  0.75819000  1.0
  C  C48  1  0.71680000  0.00235000  0.74181000  1.0
  C  C49  1  0.78320000  0.50235000  0.74181000  1.0
  C  C50  1  0.71680000  0.99765000  0.24181000  1.0
  C  C51  1  0.78320000  0.49765000  0.24181000  1.0
  C  C52  1  0.12431000  0.93080000  0.34790000  1.0
  C  C53  1  0.37569000  0.43080000  0.34791000  1.0
  C  C54  1  0.12431000  0.06920000  0.84790000  1.0
  C  C55  1  0.37569000  0.56920000  0.84790000  1.0
  C  C56  1  0.87569000  0.06920000  0.65210000  1.0
  C  C57  1  0.62431000  0.56920000  0.65210000  1.0
  C  C58  1  0.87569000  0.93080000  0.15209000  1.0
  C  C59  1  0.62431000  0.43080000  0.15209000  1.0
  C  C60  1  0.63596000  0.79795000  0.44234000  1.0
  C  C61  1  0.86404000  0.29795000  0.44234000  1.0
  C  C62  1  0.63596000  0.20206000  0.94233000  1.0
  C  C63  1  0.86404000  0.70206000  0.94234000  1.0
  C  C64  1  0.36404000  0.20205000  0.55766000  1.0
  C  C65  1  0.13596000  0.70206000  0.55767000  1.0
  C  C66  1  0.36404000  0.79795000  0.05766000  1.0
  C  C67  1  0.13596000  0.29794000  0.05767000  1.0
  S  S68  1  0.68134000  0.91257000  0.51267000  1.0
  S  S69  1  0.81866000  0.41257000  0.51268000  1.0
  S  S70  1  0.68134000  0.08743000  0.01267000  1.0
  S  S71  1  0.81865000  0.58743000  0.01267000  1.0
  S  S72  1  0.31866000  0.08742000  0.48733000  1.0
  S  S73  1  0.18134000  0.58743000  0.48733000  1.0
  S  S74  1  0.31866000  0.91257000  0.98733000  1.0
  S  S75  1  0.18135000  0.41257000  0.98733000  1.0
  N  N76  1  0.33727000  0.88220000  0.29405000  1.0
  N  N77  1  0.16273000  0.38220000  0.29405000  1.0
  N  N78  1  0.33727000  0.11780000  0.79405000  1.0
  N  N79  1  0.16273000  0.61780000  0.79405000  1.0
  N  N80  1  0.66273000  0.11780000  0.70595000  1.0
  N  N81  1  0.83727000  0.61780000  0.70595000  1.0
  N  N82  1  0.66273000  0.88220000  0.20595000  1.0
  N  N83  1  0.83727000  0.38220000  0.20595000  1.0
  N  N84  1  0.23390000  0.84197000  0.35161000  1.0
  N  N85  1  0.26610000  0.34197000  0.35161000  1.0
  N  N86  1  0.23390000  0.15803000  0.85161000  1.0
  N  N87  1  0.26610000  0.65803000  0.85161000  1.0
  N  N88  1  0.76610000  0.15803000  0.64839000  1.0
  N  N89  1  0.73390000  0.65803000  0.64839000  1.0
  N  N90  1  0.76610000  0.84197000  0.14839000  1.0
  N  N91  1  0.73390000  0.34197000  0.14839000  1.0
  N  N92  1  0.15337000  0.03247000  0.29043000  1.0
  N  N93  1  0.34663000  0.53247000  0.29043000  1.0
  N  N94  1  0.15337000  0.96753000  0.79043000  1.0
  N  N95  1  0.34662000  0.46753000  0.79043000  1.0
  N  N96  1  0.84663000  0.96753000  0.70957000  1.0
  N  N97  1  0.65337000  0.46753000  0.70957000  1.0
  N  N98  1  0.84662000  0.03247000  0.20957000  1.0
  N  N99  1  0.65338000  0.53247000  0.20957000  1.0
  N  N100  1  0.00332000  0.91901000  0.39243000  1.0
  N  N101  1  0.49668000  0.41901000  0.39243000  1.0
  N  N102  1  0.00332000  0.08099000  0.89243000  1.0
  N  N103  1  0.49668000  0.58099000  0.89243000  1.0
  N  N104  1  0.99668000  0.08099000  0.60757000  1.0
  N  N105  1  0.50332000  0.58100000  0.60757000  1.0
  N  N106  1  0.99668000  0.91901000  0.10757000  1.0
  N  N107  1  0.50332000  0.41901000  0.10757000  1.0
  N  N108  1  0.35002000  0.07684000  0.19913000  1.0
  N  N109  1  0.14998000  0.57684000  0.19913000  1.0
  N  N110  1  0.35002000  0.92315000  0.69913000  1.0
  N  N111  1  0.14998000  0.42315000  0.69913000  1.0
  N  N112  1  0.64998000  0.92316000  0.80087000  1.0
  N  N113  1  0.85002000  0.42316000  0.80087000  1.0
  N  N114  1  0.64998000  0.07685000  0.30087000  1.0
  N  N115  1  0.85002000  0.57685000  0.30087000  1.0
  N  N116  1  0.60228000  0.71270000  0.39052000  1.0
  N  N117  1  0.89772000  0.21270000  0.39052000  1.0
  N  N118  1  0.60228000  0.28731000  0.89051000  1.0
  N  N119  1  0.89772000  0.78730000  0.89052000  1.0
  N  N120  1  0.39772000  0.28730000  0.60948000  1.0
  N  N121  1  0.10228000  0.78731000  0.60948000  1.0
  N  N122  1  0.39772000  0.71270000  0.10948000  1.0
  N  N123  1  0.10228000  0.21269000  0.10948000  1.0
