# generated using pymatgen
data_TbH15(C4O3)4
_symmetry_space_group_name_H-M   'P 1'
_cell_length_a   6.26435000
_cell_length_b   10.83020000
_cell_length_c   12.92670000
_cell_angle_alpha   81.70410000
_cell_angle_beta   87.65530000
_cell_angle_gamma   85.70390000
_symmetry_Int_Tables_number   1
_chemical_formula_structural   TbH15(C4O3)4
_chemical_formula_sum   'Tb2 H30 C32 O24'
_cell_volume   864.98314008
_cell_formula_units_Z   2
loop_
 _symmetry_equiv_pos_site_id
 _symmetry_equiv_pos_as_xyz
  1  'x, y, z'
loop_
 _atom_site_type_symbol
 _atom_site_label
 _atom_site_symmetry_multiplicity
 _atom_site_fract_x
 _atom_site_fract_y
 _atom_site_fract_z
 _atom_site_occupancy
  Tb  Tb0  1  0.75789000  0.73949000  0.39970000  1.0
  Tb  Tb1  1  0.24210000  0.26051000  0.60030000  1.0
  H  H2  1  0.91475000  0.38921000  0.24378000  1.0
  H  H3  1  0.08526000  0.61079000  0.75623000  1.0
  H  H4  1  0.44942000  0.30435000  0.03985000  1.0
  H  H5  1  0.55057000  0.69565000  0.96015000  1.0
  H  H6  1  0.65773000  0.45832000  0.11062000  1.0
  H  H7  1  0.34226000  0.54168000  0.88938000  1.0
  H  H8  1  0.66652000  0.03664000  0.97728000  1.0
  H  H9  1  0.33349000  0.96335000  0.02272000  1.0
  H  H10  1  0.78391000  0.23003000  0.86991000  1.0
  H  H11  1  0.21608000  0.76998000  0.13009000  1.0
  H  H12  1  0.01718000  0.36579000  0.94767000  1.0
  H  H13  1  0.98281000  0.63422000  0.05233000  1.0
  H  H14  1  0.64063000  0.79127000  0.15844000  1.0
  H  H15  1  0.35938000  0.20872000  0.84155000  1.0
  H  H16  1  0.04803000  0.61484000  0.56322000  1.0
  H  H17  1  0.95196000  0.38516000  0.43677000  1.0
  H  H18  1  0.02231000  0.75901000  0.58476000  1.0
  H  H19  1  0.97769000  0.24099000  0.41523000  1.0
  H  H20  1  0.39875000  0.71451000  0.54018000  1.0
  H  H21  1  0.60126000  0.28550000  0.45983000  1.0
  H  H22  1  0.53045000  0.58800000  0.57789000  1.0
  H  H23  1  0.46956000  0.41200000  0.42211000  1.0
  H  H24  1  0.36462000  0.91783000  0.33203000  1.0
  H  H25  1  0.63539000  0.08217000  0.66797000  1.0
  H  H26  1  0.29678000  0.77842000  0.35155000  1.0
  H  H27  1  0.70321000  0.22159000  0.64846000  1.0
  H  H28  1  0.83870000  0.92547000  0.54189000  1.0
  H  H29  1  0.16132000  0.07453000  0.45810000  1.0
  H  H30  1  0.83278000  0.99890000  0.42443000  1.0
  H  H31  1  0.16724000  0.00109000  0.57556000  1.0
  C  C32  1  0.53287000  0.58595000  0.27463000  1.0
  C  C33  1  0.46714000  0.41405000  0.72537000  1.0
  C  C34  1  0.40380000  0.51028000  0.21679000  1.0
  C  C35  1  0.59619000  0.48973000  0.78321000  1.0
  C  C36  1  0.19190000  0.49231000  0.25284000  1.0
  C  C37  1  0.80810000  0.50770000  0.74716000  1.0
  C  C38  1  0.07762000  0.57620000  0.32181000  1.0
  C  C39  1  0.92237000  0.42380000  0.67819000  1.0
  C  C40  1  0.07855000  0.40322000  0.21546000  1.0
  C  C41  1  0.92144000  0.59678000  0.78455000  1.0
  C  C42  1  0.16973000  0.33459000  0.13875000  1.0
  C  C43  1  0.83027000  0.66541000  0.86125000  1.0
  C  C44  1  0.37713000  0.35715000  0.09956000  1.0
  C  C45  1  0.62286000  0.64285000  0.90044000  1.0
  C  C46  1  0.49396000  0.44404000  0.13893000  1.0
  C  C47  1  0.50604000  0.55596000  0.86106000  1.0
  C  C48  1  0.03595000  0.24739000  0.09633000  1.0
  C  C49  1  0.96404000  0.75261000  0.90368000  1.0
  C  C50  1  0.97524000  0.13626000  0.15742000  1.0
  C  C51  1  0.02476000  0.86374000  0.84258000  1.0
  C  C52  1  0.08619000  0.09157000  0.26028000  1.0
  C  C53  1  0.91382000  0.90842000  0.73972000  1.0
  C  C54  1  0.83670000  0.06214000  0.11344000  1.0
  C  C55  1  0.16331000  0.93786000  0.88656000  1.0
  C  C56  1  0.76970000  0.94326000  0.17160000  1.0
  C  C57  1  0.23030000  0.05674000  0.82841000  1.0
  C  C58  1  0.76750000  0.09691000  0.01074000  1.0
  C  C59  1  0.23251000  0.90309000  0.98926000  1.0
  C  C60  1  0.83145000  0.20539000  0.95076000  1.0
  C  C61  1  0.16854000  0.79461000  0.04924000  1.0
  C  C62  1  0.96468000  0.28047000  0.99406000  1.0
  C  C63  1  0.03531000  0.71953000  0.00594000  1.0
  O  O64  1  0.66460000  0.66227000  0.22885000  1.0
  O  O65  1  0.33540000  0.33773000  0.77115000  1.0
  O  O66  1  0.51243000  0.56898000  0.37418000  1.0
  O  O67  1  0.48757000  0.43101000  0.62582000  1.0
  O  O68  1  0.09927000  0.69372000  0.30427000  1.0
  O  O69  1  0.90072000  0.30628000  0.69573000  1.0
  O  O70  1  0.94209000  0.53215000  0.39152000  1.0
  O  O71  1  0.05791000  0.46785000  0.60848000  1.0
  O  O72  1  0.99713000  0.11645000  0.34709000  1.0
  O  O73  1  0.00289000  0.88354000  0.65291000  1.0
  O  O74  1  0.26596000  0.03444000  0.25027000  1.0
  O  O75  1  0.73403000  0.96554000  0.74972000  1.0
  O  O76  1  0.81653000  0.90695000  0.26452000  1.0
  O  O77  1  0.18346000  0.09305000  0.73547000  1.0
  O  O78  1  0.65871000  0.87730000  0.11719000  1.0
  O  O79  1  0.34130000  0.12269000  0.88280000  1.0
  O  O80  1  0.03435000  0.70441000  0.52888000  1.0
  O  O81  1  0.96564000  0.29558000  0.47112000  1.0
  O  O82  1  0.54457000  0.67934000  0.55613000  1.0
  O  O83  1  0.45545000  0.32066000  0.44388000  1.0
  O  O84  1  0.40700000  0.83170000  0.36970000  1.0
  O  O85  1  0.59299000  0.16830000  0.63031000  1.0
  O  O86  1  0.77853000  0.92686000  0.47139000  1.0
  O  O87  1  0.22148000  0.07314000  0.52861000  1.0
