# generated using pymatgen
data_ZnH22C42N3O8
_symmetry_space_group_name_H-M   'P 1'
_cell_length_a   11.02670000
_cell_length_b   14.67690000
_cell_length_c   15.76470000
_cell_angle_alpha   87.85550000
_cell_angle_beta   84.76730000
_cell_angle_gamma   88.38540000
_symmetry_Int_Tables_number   1
_chemical_formula_structural   ZnH22C42N3O8
_chemical_formula_sum   'Zn2 H44 C84 N6 O16'
_cell_volume   2538.12567948
_cell_formula_units_Z   2
loop_
 _symmetry_equiv_pos_site_id
 _symmetry_equiv_pos_as_xyz
  1  'x, y, z'
loop_
 _atom_site_type_symbol
 _atom_site_label
 _atom_site_symmetry_multiplicity
 _atom_site_fract_x
 _atom_site_fract_y
 _atom_site_fract_z
 _atom_site_occupancy
  Zn  Zn0  1  0.49127000  0.59215000  0.50328000  1.0
  Zn  Zn1  1  0.50125000  0.39805000  0.49821000  1.0
  H  H2  1  0.76838000  0.66278000  0.56365000  1.0
  H  H3  1  0.21356000  0.33107000  0.43430000  1.0
  H  H4  1  0.21088000  0.66970000  0.47564000  1.0
  H  H5  1  0.78819000  0.32345000  0.56854000  1.0
  H  H6  1  0.39532000  0.68408000  0.11906000  1.0
  H  H7  1  0.39248000  0.84340000  0.16745000  1.0
  H  H8  1  0.57997000  0.93538000  0.14360000  1.0
  H  H9  1  0.77145000  0.86530000  0.07686000  1.0
  H  H10  1  0.77301000  0.70698000  0.02639000  1.0
  H  H11  1  0.49247000  0.33982000  0.80864000  1.0
  H  H12  1  0.58399000  0.20206000  0.74376000  1.0
  H  H13  1  0.73922000  0.10836000  0.81587000  1.0
  H  H14  1  0.79987000  0.15559000  0.95660000  1.0
  H  H15  1  0.71367000  0.29815000  0.01919000  1.0
  H  H16  1  0.79658000  0.59648000  0.83340000  1.0
  H  H17  1  0.87987000  0.73068000  0.74926000  1.0
  H  H18  1  0.76432000  0.87899000  0.75181000  1.0
  H  H19  1  0.56379000  0.89135000  0.83863000  1.0
  H  H20  1  0.48291000  0.75832000  0.92424000  1.0
  H  H21  1  0.59358000  0.35252000  0.20089000  1.0
  H  H22  1  0.47779000  0.23640000  0.28710000  1.0
  H  H23  1  0.30101000  0.16350000  0.23143000  1.0
  H  H24  1  0.24308000  0.20919000  0.08561000  1.0
  H  H25  1  0.35648000  0.32965000  0.00041000  1.0
  H  H26  1  0.55469000  0.00903000  0.27020000  1.0
  H  H27  1  0.66317000  0.08668000  0.14396000  1.0
  H  H28  1  0.80972000  0.20851000  0.16343000  1.0
  H  H29  1  0.84295000  0.25484000  0.31009000  1.0
  H  H30  1  0.73466000  0.17754000  0.43554000  1.0
  H  H31  1  0.19145000  0.97592000  0.62581000  1.0
  H  H32  1  0.06594000  0.88629000  0.73443000  1.0
  H  H33  1  0.15777000  0.75428000  0.81244000  1.0
  H  H34  1  0.37871000  0.71407000  0.78074000  1.0
  H  H35  1  0.50585000  0.80681000  0.67613000  1.0
  H  H36  1  0.27267000  0.18631000  0.56026000  1.0
  H  H37  1  0.17396000  0.27657000  0.67793000  1.0
  H  H38  1  0.21758000  0.23882000  0.82805000  1.0
  H  H39  1  0.36434000  0.11198000  0.85827000  1.0
  H  H40  1  0.46370000  0.02228000  0.74014000  1.0
  H  H41  1  0.52020000  0.80062000  0.34368000  1.0
  H  H42  1  0.66543000  0.70285000  0.25888000  1.0
  H  H43  1  0.88757000  0.73484000  0.24667000  1.0
  H  H44  1  0.96171000  0.86639000  0.32272000  1.0
  H  H45  1  0.81684000  0.96188000  0.41067000  1.0
  C  C46  1  0.52626000  0.52102000  0.24769000  1.0
  C  C47  1  0.53404000  0.49811000  0.74402000  1.0
  C  C48  1  0.52416000  0.51155000  0.33893000  1.0
  C  C49  1  0.49335000  0.48952000  0.66061000  1.0
  C  C50  1  0.72918000  0.49325000  0.51549000  1.0
  C  C51  1  0.26387000  0.49344000  0.49066000  1.0
  C  C52  1  0.58153000  0.50306000  0.90370000  1.0
  C  C53  1  0.54654000  0.51566000  0.08043000  1.0
  C  C54  1  0.49485000  0.80469000  0.51151000  1.0
  C  C55  1  0.50476000  0.18370000  0.49704000  1.0
  C  C56  1  0.56763000  0.50092000  0.81549000  1.0
  C  C57  1  0.53170000  0.52185000  0.17010000  1.0
  C  C58  1  0.86460000  0.66380000  0.54192000  1.0
  C  C59  1  0.12281000  0.33050000  0.46748000  1.0
  C  C60  1  0.11488000  0.66693000  0.49758000  1.0
  C  C61  1  0.87887000  0.32665000  0.53538000  1.0
  C  C62  1  0.92440000  0.74430000  0.53997000  1.0
  C  C63  1  0.06316000  0.25007000  0.47723000  1.0
  C  C64  1  0.05056000  0.74665000  0.51201000  1.0
  C  C65  1  0.94371000  0.24734000  0.52062000  1.0
  C  C66  1  0.05837000  0.58021000  0.50548000  1.0
  C  C67  1  0.93361000  0.41332000  0.51513000  1.0
  C  C68  1  0.92697000  0.57952000  0.52155000  1.0
  C  C69  1  0.06335000  0.41437000  0.49400000  1.0
  C  C70  1  0.12616000  0.49713000  0.49362000  1.0
  C  C71  1  0.86510000  0.49605000  0.52106000  1.0
  C  C72  1  0.50100000  0.90105000  0.50963000  1.0
  C  C73  1  0.50428000  0.08703000  0.50151000  1.0
  C  C74  1  0.57498000  0.94333000  0.44203000  1.0
  C  C75  1  0.43669000  0.04428000  0.57222000  1.0
  C  C76  1  0.43218000  0.94848000  0.57503000  1.0
  C  C77  1  0.57250000  0.03929000  0.43578000  1.0
  C  C78  1  0.59509000  0.58849000  0.94057000  1.0
  C  C79  1  0.53716000  0.42915000  0.04347000  1.0
  C  C80  1  0.57818000  0.59481000  0.02957000  1.0
  C  C81  1  0.56665000  0.42141000  0.95504000  1.0
  C  C82  1  0.58397000  0.68511000  0.06868000  1.0
  C  C83  1  0.47785000  0.72391000  0.11012000  1.0
  C  C84  1  0.47622000  0.81356000  0.13676000  1.0
  C  C85  1  0.58119000  0.86514000  0.12342000  1.0
  C  C86  1  0.68856000  0.82595000  0.08550000  1.0
  C  C87  1  0.68996000  0.73662000  0.05815000  1.0
  C  C88  1  0.59819000  0.33094000  0.91814000  1.0
  C  C89  1  0.56088000  0.30114000  0.84122000  1.0
  C  C90  1  0.61208000  0.22205000  0.80473000  1.0
  C  C91  1  0.69849000  0.16943000  0.84532000  1.0
  C  C92  1  0.73274000  0.19614000  0.92380000  1.0
  C  C93  1  0.68370000  0.27601000  0.95939000  1.0
  C  C94  1  0.63408000  0.66806000  0.88468000  1.0
  C  C95  1  0.74521000  0.66115000  0.83375000  1.0
  C  C96  1  0.79192000  0.73665000  0.78666000  1.0
  C  C97  1  0.72747000  0.82006000  0.78860000  1.0
  C  C98  1  0.61548000  0.82685000  0.83737000  1.0
  C  C99  1  0.56924000  0.75171000  0.88519000  1.0
  C  C100  1  0.48232000  0.35108000  0.09474000  1.0
  C  C101  1  0.51608000  0.32260000  0.17539000  1.0
  C  C102  1  0.45071000  0.25605000  0.22411000  1.0
  C  C103  1  0.35204000  0.21514000  0.19269000  1.0
  C  C104  1  0.31960000  0.24090000  0.11129000  1.0
  C  C105  1  0.38377000  0.30826000  0.06305000  1.0
  C  C106  1  0.63729000  0.08788000  0.36155000  1.0
  C  C107  1  0.61874000  0.06247000  0.27866000  1.0
  C  C108  1  0.68024000  0.10565000  0.20798000  1.0
  C  C109  1  0.76162000  0.17467000  0.21888000  1.0
  C  C110  1  0.77986000  0.20098000  0.30079000  1.0
  C  C111  1  0.71804000  0.15800000  0.37176000  1.0
  C  C112  1  0.35744000  0.89706000  0.64258000  1.0
  C  C113  1  0.23314000  0.91946000  0.66056000  1.0
  C  C114  1  0.16227000  0.86855000  0.72168000  1.0
  C  C115  1  0.21392000  0.79443000  0.76510000  1.0
  C  C116  1  0.33724000  0.77187000  0.74777000  1.0
  C  C117  1  0.40887000  0.82347000  0.68745000  1.0
  C  C118  1  0.37542000  0.09856000  0.64204000  1.0
  C  C119  1  0.29351000  0.17054000  0.62546000  1.0
  C  C120  1  0.23708000  0.22069000  0.69207000  1.0
  C  C121  1  0.26151000  0.19945000  0.77598000  1.0
  C  C122  1  0.34301000  0.12790000  0.79310000  1.0
  C  C123  1  0.39948000  0.07766000  0.72671000  1.0
  C  C124  1  0.65813000  0.88761000  0.38418000  1.0
  C  C125  1  0.61708000  0.81458000  0.34054000  1.0
  C  C126  1  0.69936000  0.75952000  0.29179000  1.0
  C  C127  1  0.82342000  0.77764000  0.28523000  1.0
  C  C128  1  0.86509000  0.85117000  0.32743000  1.0
  C  C129  1  0.78327000  0.90578000  0.37670000  1.0
  N  N130  1  0.50509000  0.26282000  0.49358000  1.0
  N  N131  1  0.48802000  0.72604000  0.51093000  1.0
  N  N132  1  0.89755000  0.16203000  0.56151000  1.0
  N  N133  1  0.11261000  0.83247000  0.48651000  1.0
  N  N134  1  0.11485000  0.17113000  0.43047000  1.0
  N  N135  1  0.85798000  0.82241000  0.57979000  1.0
  O  O136  1  0.55242000  0.58110000  0.37836000  1.0
  O  O137  1  0.51779000  0.41324000  0.62547000  1.0
  O  O138  1  0.43851000  0.55836000  0.62842000  1.0
  O  O139  1  0.49431000  0.43374000  0.37217000  1.0
  O  O140  1  0.66425000  0.56200000  0.53917000  1.0
  O  O141  1  0.31190000  0.41894000  0.51641000  1.0
  O  O142  1  0.32182000  0.56459000  0.46610000  1.0
  O  O143  1  0.69006000  0.42273000  0.48355000  1.0
  O  O144  1  0.78559000  0.15418000  0.57534000  1.0
  O  O145  1  0.97525000  0.10505000  0.58253000  1.0
  O  O146  1  0.22543000  0.83124000  0.48143000  1.0
  O  O147  1  0.04752000  0.89926000  0.46849000  1.0
  O  O148  1  0.22739000  0.16252000  0.41894000  1.0
  O  O149  1  0.04076000  0.12096000  0.40219000  1.0
  O  O150  1  0.74773000  0.83159000  0.57150000  1.0
  O  O151  1  0.91657000  0.87086000  0.62316000  1.0
