# generated using pymatgen
data_CdH24C33(NO3)2
_symmetry_space_group_name_H-M   'P 1'
_cell_length_a   11.63400000
_cell_length_b   12.07400000
_cell_length_c   12.83500000
_cell_angle_alpha   64.40940000
_cell_angle_beta   73.90390000
_cell_angle_gamma   82.44440000
_symmetry_Int_Tables_number   1
_chemical_formula_structural   CdH24C33(NO3)2
_chemical_formula_sum   'Cd2 H48 C66 N4 O12'
_cell_volume   1562.17043319
_cell_formula_units_Z   2
loop_
 _symmetry_equiv_pos_site_id
 _symmetry_equiv_pos_as_xyz
  1  'x, y, z'
loop_
 _atom_site_type_symbol
 _atom_site_label
 _atom_site_symmetry_multiplicity
 _atom_site_fract_x
 _atom_site_fract_y
 _atom_site_fract_z
 _atom_site_occupancy
  Cd  Cd0  1  0.74929000  0.59168000  0.21098000  1.0
  Cd  Cd1  1  0.25071000  0.40832000  0.78902000  1.0
  H  H2  1  0.93442000  0.71462000  0.44675000  1.0
  H  H3  1  0.06558000  0.28538000  0.55324000  1.0
  H  H4  1  0.00536000  0.78451000  0.57090000  1.0
  H  H5  1  0.99464000  0.21549000  0.42909000  1.0
  H  H6  1  0.13218000  0.92046000  0.59104000  1.0
  H  H7  1  0.86782000  0.07954000  0.40895000  1.0
  H  H8  1  0.26765000  0.06965000  0.40814000  1.0
  H  H9  1  0.73235000  0.93035000  0.59186000  1.0
  H  H10  1  0.28249000  0.07765000  0.21190000  1.0
  H  H11  1  0.71751000  0.92235000  0.78809000  1.0
  H  H12  1  0.29012000  0.07700000  0.06237000  1.0
  H  H13  1  0.70988000  0.92299000  0.93763000  1.0
  H  H14  1  0.18981000  0.07922000  0.98147000  1.0
  H  H15  1  0.81019000  0.92079000  0.01853000  1.0
  H  H16  1  0.19413000  0.07765000  0.83152000  1.0
  H  H17  1  0.80587000  0.92235000  0.16848000  1.0
  H  H18  1  0.21602000  0.08480000  0.63413000  1.0
  H  H19  1  0.78398000  0.91520000  0.36587000  1.0
  H  H20  1  0.37513000  0.95831000  0.55520000  1.0
  H  H21  1  0.62486000  0.04170000  0.44480000  1.0
  H  H22  1  0.51016000  0.82498000  0.68046000  1.0
  H  H23  1  0.48984000  0.17503000  0.31954000  1.0
  H  H24  1  0.57687000  0.74373000  0.86507000  1.0
  H  H25  1  0.42312000  0.25627000  0.13493000  1.0
  H  H26  1  0.02635000  0.50221000  0.16508000  1.0
  H  H27  1  0.97365000  0.49779000  0.83493000  1.0
  H  H28  1  0.14989000  0.32636000  0.13390000  1.0
  H  H29  1  0.85011000  0.67364000  0.86610000  1.0
  H  H30  1  0.04599000  0.16362000  0.12282000  1.0
  H  H31  1  0.95402000  0.83639000  0.87717000  1.0
  H  H32  1  0.82642000  0.18883000  0.13144000  1.0
  H  H33  1  0.17359000  0.81117000  0.86856000  1.0
  H  H34  1  0.71712000  0.36906000  0.16220000  1.0
  H  H35  1  0.28288000  0.63093000  0.83780000  1.0
  H  H36  1  0.77852000  0.37800000  0.44474000  1.0
  H  H37  1  0.22148000  0.62200000  0.55526000  1.0
  H  H38  1  0.67016000  0.20250000  0.62357000  1.0
  H  H39  1  0.32984000  0.79750000  0.37644000  1.0
  H  H40  1  0.45118000  0.17844000  0.64865000  1.0
  H  H41  1  0.54882000  0.82155000  0.35135000  1.0
  H  H42  1  0.34895000  0.33508000  0.49793000  1.0
  H  H43  1  0.65105000  0.66492000  0.50207000  1.0
  H  H44  1  0.47176000  0.50565000  0.32202000  1.0
  H  H45  1  0.52824000  0.49435000  0.67798000  1.0
  H  H46  1  0.01576000  0.81352000  0.06015000  1.0
  H  H47  1  0.98424000  0.18648000  0.93985000  1.0
  H  H48  1  0.47951000  0.81897000  0.18583000  1.0
  H  H49  1  0.52049000  0.18103000  0.81417000  1.0
  C  C50  1  0.91142000  0.70880000  0.24877000  1.0
  C  C51  1  0.08858000  0.29120000  0.75123000  1.0
  C  C52  1  0.99679000  0.78344000  0.25760000  1.0
  C  C53  1  0.00321000  0.21656000  0.74239000  1.0
  C  C54  1  0.99578000  0.77779000  0.36789000  1.0
  C  C55  1  0.00422000  0.22221000  0.63210000  1.0
  C  C56  1  0.07030000  0.85300000  0.37903000  1.0
  C  C57  1  0.92970000  0.14700000  0.62097000  1.0
  C  C58  1  0.06665000  0.84845000  0.49249000  1.0
  C  C59  1  0.93336000  0.15155000  0.50750000  1.0
  C  C60  1  0.13636000  0.92431000  0.50372000  1.0
  C  C61  1  0.86365000  0.07570000  0.49627000  1.0
  C  C62  1  0.21251000  0.00857000  0.40016000  1.0
  C  C63  1  0.78748000  0.99144000  0.59984000  1.0
  C  C64  1  0.22011000  0.01406000  0.28880000  1.0
  C  C65  1  0.77989000  0.98594000  0.71119000  1.0
  C  C66  1  0.15025000  0.93645000  0.27314000  1.0
  C  C67  1  0.84975000  0.06354000  0.72686000  1.0
  C  C68  1  0.15580000  0.93848000  0.15987000  1.0
  C  C69  1  0.84420000  0.06152000  0.84013000  1.0
  C  C70  1  0.07811000  0.86449000  0.15290000  1.0
  C  C71  1  0.92189000  0.13551000  0.84710000  1.0
  C  C72  1  0.24141000  0.01780000  0.04474000  1.0
  C  C73  1  0.75859000  0.98220000  0.95526000  1.0
  C  C74  1  0.33272000  0.94504000  0.98819000  1.0
  C  C75  1  0.66728000  0.05497000  0.01181000  1.0
  C  C76  1  0.34147000  0.94941000  0.87352000  1.0
  C  C77  1  0.65853000  0.05059000  0.12648000  1.0
  C  C78  1  0.26499000  0.02367000  0.79900000  1.0
  C  C79  1  0.73501000  0.97633000  0.20100000  1.0
  C  C80  1  0.27725000  0.02700000  0.68756000  1.0
  C  C81  1  0.72275000  0.97300000  0.31244000  1.0
  C  C82  1  0.36646000  0.95571000  0.64297000  1.0
  C  C83  1  0.63354000  0.04430000  0.35703000  1.0
  C  C84  1  0.44142000  0.88161000  0.71259000  1.0
  C  C85  1  0.55858000  0.11839000  0.28741000  1.0
  C  C86  1  0.43167000  0.87639000  0.82754000  1.0
  C  C87  1  0.56832000  0.12361000  0.17246000  1.0
  C  C88  1  0.50941000  0.80091000  0.89751000  1.0
  C  C89  1  0.49059000  0.19909000  0.10249000  1.0
  C  C90  1  0.50334000  0.79857000  0.00757000  1.0
  C  C91  1  0.49666000  0.20143000  0.99243000  1.0
  C  C92  1  0.41509000  0.87282000  0.05208000  1.0
  C  C93  1  0.58491000  0.12719000  0.94792000  1.0
  C  C94  1  0.59028000  0.72227000  0.07633000  1.0
  C  C95  1  0.40972000  0.27773000  0.92367000  1.0
  C  C96  1  0.98605000  0.42929000  0.15889000  1.0
  C  C97  1  0.01395000  0.57071000  0.84111000  1.0
  C  C98  1  0.05372000  0.33144000  0.14245000  1.0
  C  C99  1  0.94628000  0.66856000  0.85755000  1.0
  C  C100  1  0.99619000  0.24228000  0.13405000  1.0
  C  C101  1  0.00380000  0.75772000  0.86595000  1.0
  C  C102  1  0.87391000  0.25518000  0.13987000  1.0
  C  C103  1  0.12608000  0.74482000  0.86013000  1.0
  C  C104  1  0.81287000  0.35550000  0.15665000  1.0
  C  C105  1  0.18713000  0.64450000  0.84335000  1.0
  C  C106  1  0.68368000  0.36405000  0.45908000  1.0
  C  C107  1  0.31632000  0.63595000  0.54092000  1.0
  C  C108  1  0.62305000  0.26659000  0.55836000  1.0
  C  C109  1  0.37695000  0.73341000  0.44165000  1.0
  C  C110  1  0.50163000  0.25383000  0.57221000  1.0
  C  C111  1  0.49837000  0.74616000  0.42779000  1.0
  C  C112  1  0.44464000  0.33999000  0.48734000  1.0
  C  C113  1  0.55536000  0.66000000  0.51266000  1.0
  C  C114  1  0.51182000  0.43495000  0.39036000  1.0
  C  C115  1  0.48818000  0.56504000  0.60964000  1.0
  N  N116  1  0.86756000  0.44049000  0.16697000  1.0
  N  N117  1  0.13244000  0.55950000  0.83304000  1.0
  N  N118  1  0.62946000  0.44618000  0.37610000  1.0
  N  N119  1  0.37054000  0.55383000  0.62390000  1.0
  O  O120  1  0.83833000  0.63764000  0.33975000  1.0
  O  O121  1  0.16167000  0.36236000  0.66026000  1.0
  O  O122  1  0.91214000  0.72113000  0.14233000  1.0
  O  O123  1  0.08786000  0.27887000  0.85767000  1.0
  O  O124  1  0.08094000  0.87085000  0.04461000  1.0
  O  O125  1  0.91906000  0.12915000  0.95539000  1.0
  O  O126  1  0.41091000  0.87470000  0.15740000  1.0
  O  O127  1  0.58909000  0.12530000  0.84260000  1.0
  O  O128  1  0.58570000  0.72748000  0.17660000  1.0
  O  O129  1  0.41430000  0.27252000  0.82340000  1.0
  O  O130  1  0.66792000  0.65517000  0.03876000  1.0
  O  O131  1  0.33208000  0.34483000  0.96124000  1.0
