# generated using pymatgen
data_Zn4H7C24S4NO17
_symmetry_space_group_name_H-M   'P 1'
_cell_length_a   19.63520000
_cell_length_b   19.69610000
_cell_length_c   33.31890000
_cell_angle_alpha   79.15270000
_cell_angle_beta   79.34150000
_cell_angle_gamma   64.03280000
_symmetry_Int_Tables_number   1
_chemical_formula_structural   Zn4H7C24S4NO17
_chemical_formula_sum   'Zn16 H28 C96 S16 N4 O68'
_cell_volume   11300.77878520
_cell_formula_units_Z   4
loop_
 _symmetry_equiv_pos_site_id
 _symmetry_equiv_pos_as_xyz
  1  'x, y, z'
loop_
 _atom_site_type_symbol
 _atom_site_label
 _atom_site_symmetry_multiplicity
 _atom_site_fract_x
 _atom_site_fract_y
 _atom_site_fract_z
 _atom_site_occupancy
  Zn  Zn0  1  0.05743000  0.40094000  0.47827000  1.0
  Zn  Zn1  1  0.98327000  0.48368000  0.56020000  1.0
  Zn  Zn2  1  0.06029000  0.56013000  0.48164000  1.0
  Zn  Zn3  1  0.89922000  0.55513000  0.48022000  1.0
  Zn  Zn4  1  0.69507000  0.34985000  0.27092000  1.0
  Zn  Zn5  1  0.69106000  0.18924000  0.26715000  1.0
  Zn  Zn6  1  0.76926000  0.26752000  0.18987000  1.0
  Zn  Zn7  1  0.84879000  0.19403000  0.27310000  1.0
  Zn  Zn8  1  0.26577000  0.76779000  0.68953000  1.0
  Zn  Zn9  1  0.34765000  0.69569000  0.77181000  1.0
  Zn  Zn10  1  0.19177000  0.84954000  0.77100000  1.0
  Zn  Zn11  1  0.19074000  0.68774000  0.76675000  1.0
  Zn  Zn12  1  0.56084000  0.06009000  0.98301000  1.0
  Zn  Zn13  1  0.40058000  0.05552000  0.97848000  1.0
  Zn  Zn14  1  0.55492000  0.90192000  0.97795000  1.0
  Zn  Zn15  1  0.48339000  0.98372000  0.06041000  1.0
  H  H16  1  0.95271000  0.24862000  0.35258000  1.0
  H  H17  1  0.74763000  0.45591000  0.35004000  1.0
  H  H18  1  0.99951000  0.29796000  0.40111000  1.0
  H  H19  1  0.09952000  0.59537000  0.69925000  1.0
  H  H20  1  0.20050000  0.70272000  0.59693000  1.0
  H  H21  1  0.05185000  0.54864000  0.64980000  1.0
  H  H22  1  0.46474000  0.23877000  0.34118000  1.0
  H  H23  1  0.47901000  0.70394000  0.60167000  1.0
  H  H24  1  0.20160000  0.98036000  0.60054000  1.0
  H  H25  1  0.94832000  0.96924000  0.34984000  1.0
  H  H26  1  0.54929000  0.05195000  0.15271000  1.0
  H  H27  1  0.65459000  0.15174000  0.04872000  1.0
  H  H28  1  0.59828000  0.10125000  0.20008000  1.0
  H  H29  1  0.54627000  0.77084000  0.14838000  1.0
  H  H30  1  0.16182000  0.13960000  0.04087000  1.0
  H  H31  1  0.50090000  0.79795000  0.89765000  1.0
  H  H32  1  0.29390000  0.00328000  0.89967000  1.0
  H  H33  1  0.45069000  0.75202000  0.84915000  1.0
  H  H34  1  0.30039000  0.28019000  0.90187000  1.0
  H  H35  1  0.78854000  0.00884000  0.90941000  1.0
  H  H36  1  0.32564000  0.54109000  0.39920000  1.0
  H  H37  1  0.75569000  0.53926000  0.68529000  1.0
  H  H38  1  0.04046000  0.25624000  0.68369000  1.0
  H  H39  1  0.74415000  0.81180000  0.38760000  1.0
  H  H40  1  0.70947000  0.49243000  0.06634000  1.0
  H  H41  1  0.14820000  0.07600000  0.22126000  1.0
  H  H42  1  0.50686000  0.43378000  0.86199000  1.0
  H  H43  1  0.92446000  0.70724000  0.85163000  1.0
  C  C44  1  0.06299000  0.31706000  0.56173000  1.0
  C  C45  1  0.06998000  0.56921000  0.56803000  1.0
  C  C46  1  0.18440000  0.43860000  0.43741000  1.0
  C  C47  1  0.93656000  0.68307000  0.43927000  1.0
  C  C48  1  0.93046000  0.43006000  0.43228000  1.0
  C  C49  1  0.81608000  0.56092000  0.56326000  1.0
  C  C50  1  0.56638000  0.31090000  0.31052000  1.0
  C  C51  1  0.68091000  0.18235000  0.18106000  1.0
  C  C52  1  0.69185000  0.43471000  0.18834000  1.0
  C  C53  1  0.93517000  0.18495000  0.19003000  1.0
  C  C54  1  0.81869000  0.32021000  0.31986000  1.0
  C  C55  1  0.81122000  0.06555000  0.31280000  1.0
  C  C56  1  0.43287000  0.69146000  0.68869000  1.0
  C  C57  1  0.31785000  0.82107000  0.81817000  1.0
  C  C58  1  0.18573000  0.93413000  0.68751000  1.0
  C  C59  1  0.06707000  0.80853000  0.81227000  1.0
  C  C60  1  0.18132000  0.68014000  0.68005000  1.0
  C  C61  1  0.31388000  0.56476000  0.81060000  1.0
  C  C62  1  0.43795000  0.18391000  0.93864000  1.0
  C  C63  1  0.42971000  0.93152000  0.93033000  1.0
  C  C64  1  0.68405000  0.93921000  0.93821000  1.0
  C  C65  1  0.56059000  0.81672000  0.06135000  1.0
  C  C66  1  0.57011000  0.06987000  0.06926000  1.0
  C  C67  1  0.31558000  0.06227000  0.06146000  1.0
  C  C68  1  0.90117000  0.40412000  0.40233000  1.0
  C  C69  1  0.84753000  0.34921000  0.34847000  1.0
  C  C70  1  0.83038000  0.44797000  0.38734000  1.0
  C  C71  1  0.91872000  0.30456000  0.36268000  1.0
  C  C72  1  0.80301000  0.42131000  0.36103000  1.0
  C  C73  1  0.94469000  0.33194000  0.38938000  1.0
  C  C74  1  0.09795000  0.60013000  0.59613000  1.0
  C  C75  1  0.15258000  0.65187000  0.65105000  1.0
  C  C76  1  0.13976000  0.64399000  0.58186000  1.0
  C  C77  1  0.11058000  0.60853000  0.66612000  1.0
  C  C78  1  0.16762000  0.66928000  0.60860000  1.0
  C  C79  1  0.08406000  0.58293000  0.63882000  1.0
  C  C80  1  0.30454000  0.45458000  0.40006000  1.0
  C  C81  1  0.44736000  0.29579000  0.34881000  1.0
  C  C82  1  0.25916000  0.41439000  0.41302000  1.0
  C  C83  1  0.49196000  0.33587000  0.33571000  1.0
  C  C84  1  0.37931000  0.33854000  0.37248000  1.0
  C  C85  1  0.37340000  0.41076000  0.37681000  1.0
  C  C86  1  0.72586000  0.57566000  0.63110000  1.0
  C  C87  1  0.52370000  0.67496000  0.62183000  1.0
  C  C88  1  0.74197000  0.58564000  0.58836000  1.0
  C  C89  1  0.50792000  0.66559000  0.66422000  1.0
  C  C90  1  0.60303000  0.64260000  0.60960000  1.0
  C  C91  1  0.64610000  0.60868000  0.64313000  1.0
  C  C92  1  0.07688000  0.22665000  0.62956000  1.0
  C  C93  1  0.17257000  0.02490000  0.62059000  1.0
  C  C94  1  0.08694000  0.24293000  0.58680000  1.0
  C  C95  1  0.16176000  0.00911000  0.66293000  1.0
  C  C96  1  0.14133000  0.10408000  0.60824000  1.0
  C  C97  1  0.10786000  0.14698000  0.64167000  1.0
  C  C98  1  0.84224000  0.79927000  0.39760000  1.0
  C  C99  1  0.90390000  0.94885000  0.35396000  1.0
  C  C100  1  0.91097000  0.75756000  0.41458000  1.0
  C  C101  1  0.83562000  0.99053000  0.33739000  1.0
  C  C102  1  0.90658000  0.87924000  0.37593000  1.0
  C  C103  1  0.83999000  0.86914000  0.37551000  1.0
  C  C104  1  0.65460000  0.15261000  0.15148000  1.0
  C  C105  1  0.59905000  0.09872000  0.09792000  1.0
  C  C106  1  0.67012000  0.16581000  0.10860000  1.0
  C  C107  1  0.58323000  0.08422000  0.14063000  1.0
  C  C108  1  0.64245000  0.14022000  0.08188000  1.0
  C  C109  1  0.61051000  0.11130000  0.16682000  1.0
  C  C110  1  0.67575000  0.52425000  0.12021000  1.0
  C  C111  1  0.57556000  0.72617000  0.12842000  1.0
  C  C112  1  0.66618000  0.50861000  0.16304000  1.0
  C  C113  1  0.58553000  0.74177000  0.08602000  1.0
  C  C114  1  0.60799000  0.64709000  0.14099000  1.0
  C  C115  1  0.64226000  0.60382000  0.10773000  1.0
  C  C116  1  0.08212000  0.12256000  0.17894000  1.0
  C  C117  1  0.16969000  0.12368000  0.07331000  1.0
  C  C118  1  0.00987000  0.16006000  0.16549000  1.0
  C  C119  1  0.24123000  0.08647000  0.08670000  1.0
  C  C120  1  0.11151000  0.13694000  0.10676000  1.0
  C  C121  1  0.14019000  0.10948000  0.14514000  1.0
  C  C122  1  0.34445000  0.85040000  0.84778000  1.0
  C  C123  1  0.40048000  0.90320000  0.90155000  1.0
  C  C124  1  0.30100000  0.92100000  0.86264000  1.0
  C  C125  1  0.44478000  0.83219000  0.88748000  1.0
  C  C126  1  0.32827000  0.94804000  0.88882000  1.0
  C  C127  1  0.41694000  0.80669000  0.86077000  1.0
  C  C128  1  0.40796000  0.44853000  0.85245000  1.0
  C  C129  1  0.34504000  0.30036000  0.89739000  1.0
  C  C130  1  0.33910000  0.49065000  0.83569000  1.0
  C  C131  1  0.41352000  0.25864000  0.91376000  1.0
  C  C132  1  0.34270000  0.36959000  0.87503000  1.0
  C  C133  1  0.40974000  0.37913000  0.87491000  1.0
  C  C134  1  0.94602000  0.79379000  0.84930000  1.0
  C  C135  1  0.80495000  0.95232000  0.90131000  1.0
  C  C136  1  0.99263000  0.83275000  0.83705000  1.0
  C  C137  1  0.75888000  0.91361000  0.91343000  1.0
  C  C138  1  0.87323000  0.90893000  0.87799000  1.0
  C  C139  1  0.87765000  0.83773000  0.87277000  1.0
  S  S140  1  0.30082000  0.32387000  0.39715000  1.0
  S  S141  1  0.45172000  0.42577000  0.35201000  1.0
  S  S142  1  0.66022000  0.63476000  0.56327000  1.0
  S  S143  1  0.58916000  0.61715000  0.68963000  1.0
  S  S144  1  0.13402000  0.16133000  0.56185000  1.0
  S  S145  1  0.11402000  0.09006000  0.68818000  1.0
  S  S146  1  0.97184000  0.80356000  0.40368000  1.0
  S  S147  1  0.77408000  0.94543000  0.34830000  1.0
  S  S148  1  0.61634000  0.59045000  0.18759000  1.0
  S  S149  1  0.63438000  0.66048000  0.06106000  1.0
  S  S150  1  0.01329000  0.17863000  0.11200000  1.0
  S  S151  1  0.23849000  0.06731000  0.14006000  1.0
  S  S152  1  0.27731000  0.44565000  0.84754000  1.0
  S  S153  1  0.47557000  0.30308000  0.90223000  1.0
  S  S154  1  0.95302000  0.92207000  0.85430000  1.0
  S  S155  1  0.79803000  0.82417000  0.89657000  1.0
  N  N156  1  0.78115000  0.52651000  0.39722000  1.0
  N  N157  1  0.15484000  0.66865000  0.53752000  1.0
  N  N158  1  0.71895000  0.20565000  0.08878000  1.0
  N  N159  1  0.22223000  0.97036000  0.85268000  1.0
  O  O160  1  0.00032000  0.49942000  0.49990000  1.0
  O  O161  1  0.07408000  0.31583000  0.52258000  1.0
  O  O162  1  0.02324000  0.54052000  0.58493000  1.0
  O  O163  1  0.15281000  0.50693000  0.44599000  1.0
  O  O164  1  0.03365000  0.37587000  0.58069000  1.0
  O  O165  1  0.15711000  0.38835000  0.44789000  1.0
  O  O166  1  0.09610000  0.57336000  0.53023000  1.0
  O  O167  1  0.00120000  0.65951000  0.45292000  1.0
  O  O168  1  0.88287000  0.48806000  0.44939000  1.0
  O  O169  1  0.89334000  0.64821000  0.44498000  1.0
  O  O170  1  0.00008000  0.39084000  0.43824000  1.0
  O  O171  1  0.87522000  0.52137000  0.58179000  1.0
  O  O172  1  0.81445000  0.58160000  0.52442000  1.0
  O  O173  1  0.75057000  0.25006000  0.25035000  1.0
  O  O174  1  0.59814000  0.35720000  0.30328000  1.0
  O  O175  1  0.67157000  0.15776000  0.21894000  1.0
  O  O176  1  0.73185000  0.37595000  0.16990000  1.0
  O  O177  1  0.59248000  0.24550000  0.29813000  1.0
  O  O178  1  0.67168000  0.43598000  0.22725000  1.0
  O  O179  1  0.70907000  0.22998000  0.16581000  1.0
  O  O180  1  0.87724000  0.21676000  0.16961000  1.0
  O  O181  1  0.86136000  0.25354000  0.31023000  1.0
  O  O182  1  0.93390000  0.17341000  0.22911000  1.0
  O  O183  1  0.75412000  0.36470000  0.30763000  1.0
  O  O184  1  0.74448000  0.09341000  0.30124000  1.0
  O  O185  1  0.85830000  0.09632000  0.30515000  1.0
  O  O186  1  0.24895000  0.75044000  0.74980000  1.0
  O  O187  1  0.37470000  0.72384000  0.66886000  1.0
  O  O188  1  0.35835000  0.75216000  0.81168000  1.0
  O  O189  1  0.16608000  0.93393000  0.72636000  1.0
  O  O190  1  0.43289000  0.67907000  0.72787000  1.0
  O  O191  1  0.22384000  0.87621000  0.66806000  1.0
  O  O192  1  0.25818000  0.86754000  0.80185000  1.0
  O  O193  1  0.09847000  0.85536000  0.80612000  1.0
  O  O194  1  0.16666000  0.66178000  0.71836000  1.0
  O  O195  1  0.09404000  0.74400000  0.79894000  1.0
  O  O196  1  0.21787000  0.72033000  0.66381000  1.0
  O  O197  1  0.36011000  0.59648000  0.80192000  1.0
  O  O198  1  0.24676000  0.59121000  0.79955000  1.0
  O  O199  1  0.49994000  0.00031000  0.99997000  1.0
  O  O200  1  0.50456000  0.15661000  0.95026000  1.0
  O  O201  1  0.38599000  0.99669000  0.94171000  1.0
  O  O202  1  0.65220000  0.89288000  0.94562000  1.0
  O  O203  1  0.39095000  0.15308000  0.94637000  1.0
  O  O204  1  0.65758000  0.00495000  0.95015000  1.0
  O  O205  1  0.49575000  0.88792000  0.94098000  1.0
  O  O206  1  0.57589000  0.81681000  0.02225000  1.0
  O  O207  1  0.53155000  0.03180000  0.08576000  1.0
  O  O208  1  0.52618000  0.87480000  0.08096000  1.0
  O  O209  1  0.58666000  0.08576000  0.03084000  1.0
  O  O210  1  0.31498000  0.07732000  0.02247000  1.0
  O  O211  1  0.37442000  0.02801000  0.08097000  1.0
  O  O212  1  0.80129000  0.57690000  0.37955000  1.0
  O  O213  1  0.72163000  0.53575000  0.42037000  1.0
  O  O214  1  0.10084000  0.72050000  0.52104000  1.0
  O  O215  1  0.22129000  0.63838000  0.52137000  1.0
  O  O216  1  0.78839000  0.16931000  0.08961000  1.0
  O  O217  1  0.68640000  0.27034000  0.07093000  1.0
  O  O218  1  0.17158000  0.95082000  0.87067000  1.0
  O  O219  1  0.21323000  0.02928000  0.82900000  1.0
  O  O220  1  0.28392000  0.52576000  0.40898000  1.0
  O  O221  1  0.78030000  0.53931000  0.65708000  1.0
  O  O222  1  0.04153000  0.28083000  0.65547000  1.0
  O  O223  1  0.78627000  0.77482000  0.40247000  1.0
  O  O224  1  0.71238000  0.46940000  0.09489000  1.0
  O  O225  1  0.09362000  0.10194000  0.21919000  1.0
  O  O226  1  0.46475000  0.47205000  0.84751000  1.0
  O  O227  1  0.96502000  0.72330000  0.83962000  1.0
