# generated using pymatgen
data_CoH4C6(NO5)2
_symmetry_space_group_name_H-M   'P 1'
_cell_length_a   6.94693000
_cell_length_b   8.81131000
_cell_length_c   9.61513000
_cell_angle_alpha   116.83100000
_cell_angle_beta   90.02680000
_cell_angle_gamma   113.18700000
_symmetry_Int_Tables_number   1
_chemical_formula_structural   CoH4C6(NO5)2
_chemical_formula_sum   'Co2 H8 C12 N4 O20'
_cell_volume   471.24324416
_cell_formula_units_Z   2
loop_
 _symmetry_equiv_pos_site_id
 _symmetry_equiv_pos_as_xyz
  1  'x, y, z'
loop_
 _atom_site_type_symbol
 _atom_site_label
 _atom_site_symmetry_multiplicity
 _atom_site_fract_x
 _atom_site_fract_y
 _atom_site_fract_z
 _atom_site_occupancy
  Co  Co0  1  0.00368000  0.99993000  0.75002000  1.0
  Co  Co1  1  0.99631000  0.00009000  0.24997000  1.0
  H  H2  1  0.24905000  0.01229000  0.96782000  1.0
  H  H3  1  0.23660000  0.98783000  0.53230000  1.0
  H  H4  1  0.75094000  0.98771000  0.03216000  1.0
  H  H5  1  0.76341000  0.01215000  0.46770000  1.0
  H  H6  1  0.30153000  0.22549000  0.01704000  1.0
  H  H7  1  0.07597000  0.77465000  0.48296000  1.0
  H  H8  1  0.69846000  0.77450000  0.98293000  1.0
  H  H9  1  0.92403000  0.22535000  0.51704000  1.0
  C  C10  1  0.61519000  0.69341000  0.52890000  1.0
  C  C11  1  0.92172000  0.30658000  0.97113000  1.0
  C  C12  1  0.38481000  0.30659000  0.47109000  1.0
  C  C13  1  0.07828000  0.69341000  0.02887000  1.0
  C  C14  1  0.67514000  0.62807000  0.63581000  1.0
  C  C15  1  0.04692000  0.37184000  0.86417000  1.0
  C  C16  1  0.32487000  0.37192000  0.36418000  1.0
  C  C17  1  0.95308000  0.62816000  0.13584000  1.0
  C  C18  1  0.54854000  0.44246000  0.60977000  1.0
  C  C19  1  0.10601000  0.55747000  0.89017000  1.0
  C  C20  1  0.45146000  0.55754000  0.39023000  1.0
  C  C21  1  0.89399000  0.44253000  0.10983000  1.0
  N  N22  1  0.59165000  0.39428000  0.72630000  1.0
  N  N23  1  0.19715000  0.60555000  0.77364000  1.0
  N  N24  1  0.40835000  0.60573000  0.27369000  1.0
  N  N25  1  0.80285000  0.39445000  0.22638000  1.0
  O  O26  1  0.72746000  0.86688000  0.57166000  1.0
  O  O27  1  0.86063000  0.13312000  0.92840000  1.0
  O  O28  1  0.27255000  0.13313000  0.42833000  1.0
  O  O29  1  0.13936000  0.86688000  0.07160000  1.0
  O  O30  1  0.84676000  0.74582000  0.74159000  1.0
  O  O31  1  0.10058000  0.25396000  0.75839000  1.0
  O  O32  1  0.15325000  0.25418000  0.25841000  1.0
  O  O33  1  0.89941000  0.74604000  0.24162000  1.0
  O  O34  1  0.63166000  0.51582000  0.87094000  1.0
  O  O35  1  0.11576000  0.48390000  0.62899000  1.0
  O  O36  1  0.36835000  0.48418000  0.12905000  1.0
  O  O37  1  0.88425000  0.51611000  0.37103000  1.0
  O  O38  1  0.58487000  0.23614000  0.68223000  1.0
  O  O39  1  0.34833000  0.76370000  0.81772000  1.0
  O  O40  1  0.41512000  0.76387000  0.31778000  1.0
  O  O41  1  0.65166000  0.23629000  0.18228000  1.0
  O  O42  1  0.25411000  0.09704000  0.92583000  1.0
  O  O43  1  0.15698000  0.90305000  0.57423000  1.0
  O  O44  1  0.74590000  0.90296000  0.07417000  1.0
  O  O45  1  0.84303000  0.09696000  0.42578000  1.0
