# generated using pymatgen
data_Co3H50C64N4O19
_symmetry_space_group_name_H-M   'P 1'
_cell_length_a   16.08330000
_cell_length_b   18.00780000
_cell_length_c   18.00780000
_cell_angle_alpha   64.77150000
_cell_angle_beta   73.83790000
_cell_angle_gamma   73.83800000
_symmetry_Int_Tables_number   1
_chemical_formula_structural   Co3H50C64N4O19
_chemical_formula_sum   'Co6 H100 C128 N8 O38'
_cell_volume   4454.34577488
_cell_formula_units_Z   2
loop_
 _symmetry_equiv_pos_site_id
 _symmetry_equiv_pos_as_xyz
  1  'x, y, z'
loop_
 _atom_site_type_symbol
 _atom_site_label
 _atom_site_symmetry_multiplicity
 _atom_site_fract_x
 _atom_site_fract_y
 _atom_site_fract_z
 _atom_site_occupancy
  Co  Co0  1  0.44774000  0.86232000  0.67142000  1.0
  Co  Co1  1  0.05226000  0.32858000  0.13768000  1.0
  Co  Co2  1  0.55226000  0.13769000  0.32858000  1.0
  Co  Co3  1  0.94774000  0.67141000  0.86232000  1.0
  Co  Co4  1  0.49999000  0.00000000  0.50000000  1.0
  Co  Co5  1  0.00000000  0.50000000  0.00000000  1.0
  H  H6  1  0.68605000  0.43762000  0.65769000  1.0
  H  H7  1  0.81395000  0.34230000  0.56238000  1.0
  H  H8  1  0.31395000  0.56238000  0.34230000  1.0
  H  H9  1  0.18605000  0.65770000  0.43762000  1.0
  H  H10  1  0.65513000  0.38055000  0.61171000  1.0
  H  H11  1  0.84487000  0.38829000  0.61945000  1.0
  H  H12  1  0.34487000  0.61945000  0.38829000  1.0
  H  H13  1  0.15513000  0.61171000  0.38055000  1.0
  H  H14  1  0.53343000  0.24462000  0.81756000  1.0
  H  H15  1  0.96657000  0.18244000  0.75538000  1.0
  H  H16  1  0.46658000  0.75538000  0.18244000  1.0
  H  H17  1  0.03343000  0.81756000  0.24462000  1.0
  H  H18  1  0.64873000  0.21769000  0.77807000  1.0
  H  H19  1  0.85127000  0.22194000  0.78230000  1.0
  H  H20  1  0.35127000  0.78231000  0.22194000  1.0
  H  H21  1  0.14873000  0.77807000  0.21769000  1.0
  H  H22  1  0.49909000  0.41439000  0.66607000  1.0
  H  H23  1  0.00091000  0.33393000  0.58561000  1.0
  H  H24  1  0.50092000  0.58561000  0.33393000  1.0
  H  H25  1  0.99909000  0.66607000  0.41439000  1.0
  H  H26  1  0.52432000  0.47675000  0.70987000  1.0
  H  H27  1  0.97568000  0.29012000  0.52325000  1.0
  H  H28  1  0.47568000  0.52325000  0.29012000  1.0
  H  H29  1  0.02432000  0.70987000  0.47675000  1.0
  H  H30  1  0.68909000  0.31579000  0.82837000  1.0
  H  H31  1  0.81091000  0.17163000  0.68421000  1.0
  H  H32  1  0.31091000  0.68421000  0.17163000  1.0
  H  H33  1  0.18909000  0.82837000  0.31579000  1.0
  H  H34  1  0.57486000  0.32663000  0.87735000  1.0
  H  H35  1  0.92514000  0.12265000  0.67337000  1.0
  H  H36  1  0.42514000  0.67337000  0.12265000  1.0
  H  H37  1  0.07486000  0.87735000  0.32663000  1.0
  H  H38  1  0.50611000  0.26868000  0.57368000  1.0
  H  H39  1  0.99389000  0.42633000  0.73131000  1.0
  H  H40  1  0.49388000  0.73132000  0.42632000  1.0
  H  H41  1  0.00611000  0.57369000  0.26868000  1.0
  H  H42  1  0.46256000  0.14938000  0.56589000  1.0
  H  H43  1  0.03744000  0.43412000  0.85061000  1.0
  H  H44  1  0.53744000  0.85062000  0.43411000  1.0
  H  H45  1  0.96256000  0.56589000  0.14938000  1.0
  H  H46  1  0.53367000  0.98968000  0.80505000  1.0
  H  H47  1  0.96634000  0.19496000  0.01031000  1.0
  H  H48  1  0.46634000  0.01031000  0.19495000  1.0
  H  H49  1  0.03366000  0.80505000  0.98968000  1.0
  H  H50  1  0.57736000  0.10763000  0.81367000  1.0
  H  H51  1  0.92264000  0.18634000  0.89235000  1.0
  H  H52  1  0.42265000  0.89236000  0.18633000  1.0
  H  H53  1  0.07736000  0.81367000  0.10764000  1.0
  H  H54  1  0.31528000  0.35184000  0.90898000  1.0
  H  H55  1  0.18473000  0.09101000  0.64816000  1.0
  H  H56  1  0.68473000  0.64816000  0.09101000  1.0
  H  H57  1  0.81528000  0.90899000  0.35184000  1.0
  H  H58  1  0.16819000  0.44168000  0.92287000  1.0
  H  H59  1  0.33181000  0.07713000  0.55832000  1.0
  H  H60  1  0.83181000  0.55832000  0.07713000  1.0
  H  H61  1  0.66819000  0.92287000  0.44168000  1.0
  H  H62  1  0.25512000  0.63676000  0.69354000  1.0
  H  H63  1  0.24488000  0.30646000  0.36324000  1.0
  H  H64  1  0.74488000  0.36325000  0.30646000  1.0
  H  H65  1  0.75512000  0.69354000  0.63676000  1.0
  H  H66  1  0.39998000  0.54570000  0.67570000  1.0
  H  H67  1  0.10002000  0.32429000  0.45430000  1.0
  H  H68  1  0.60002000  0.45430000  0.32429000  1.0
  H  H69  1  0.89998000  0.67571000  0.54570000  1.0
  H  H70  1  0.63955000  0.58686000  0.75600000  1.0
  H  H71  1  0.86044000  0.24400000  0.41314000  1.0
  H  H72  1  0.36044000  0.41314000  0.24400000  1.0
  H  H73  1  0.13955000  0.75600000  0.58686000  1.0
  H  H74  1  0.73449000  0.63672000  0.80645000  1.0
  H  H75  1  0.76549000  0.19356000  0.36328000  1.0
  H  H76  1  0.26550000  0.36328000  0.19356000  1.0
  H  H77  1  0.23449000  0.80645000  0.63672000  1.0
  H  H78  1  0.81332000  0.38586000  0.97425000  1.0
  H  H79  1  0.68667000  0.02576000  0.61414000  1.0
  H  H80  1  0.18668000  0.61414000  0.02575000  1.0
  H  H81  1  0.31332000  0.97424000  0.38587000  1.0
  H  H82  1  0.71582000  0.33536000  0.92790000  1.0
  H  H83  1  0.78418000  0.07210000  0.66464000  1.0
  H  H84  1  0.28418000  0.66464000  0.07210000  1.0
  H  H85  1  0.21582000  0.92789000  0.33537000  1.0
  H  H86  1  0.28712000  0.75910000  0.74910000  1.0
  H  H87  1  0.21289000  0.25089000  0.24090000  1.0
  H  H88  1  0.71288000  0.24090000  0.25090000  1.0
  H  H89  1  0.78713000  0.74909000  0.75910000  1.0
  H  H90  1  0.29845000  0.61067000  0.88785000  1.0
  H  H91  1  0.20154000  0.11215000  0.38934000  1.0
  H  H92  1  0.70154000  0.38934000  0.11215000  1.0
  H  H93  1  0.79846000  0.88785000  0.61067000  1.0
  H  H94  1  0.53809000  0.70216000  0.80975000  1.0
  H  H95  1  0.96191000  0.19025000  0.29783000  1.0
  H  H96  1  0.46191000  0.29783000  0.19025000  1.0
  H  H97  1  0.03809000  0.80975000  0.70217000  1.0
  H  H98  1  0.39873000  0.48046000  0.92988000  1.0
  H  H99  1  0.10126000  0.07013000  0.51954000  1.0
  H  H100  1  0.60127000  0.51954000  0.07013000  1.0
  H  H101  1  0.89873000  0.92987000  0.48046000  1.0
  H  H102  1  0.53684000  0.63975000  0.95558000  1.0
  H  H103  1  0.96316000  0.04442000  0.36025000  1.0
  H  H104  1  0.46315000  0.36024000  0.04442000  1.0
  H  H105  1  0.03684000  0.95558000  0.63975000  1.0
  C  C106  1  0.59933000  0.35106000  0.74381000  1.0
  C  C107  1  0.90067000  0.25619000  0.64894000  1.0
  C  C108  1  0.40067000  0.64894000  0.25619000  1.0
  C  C109  1  0.09933000  0.74381000  0.35106000  1.0
  C  C110  1  0.67372000  0.37612000  0.66829000  1.0
  C  C111  1  0.82628000  0.33170000  0.62387000  1.0
  C  C112  1  0.32628000  0.62387000  0.33170000  1.0
  C  C113  1  0.17372000  0.66830000  0.37613000  1.0
  C  C114  1  0.58730000  0.26254000  0.76385000  1.0
  C  C115  1  0.91270000  0.23615000  0.73746000  1.0
  C  C116  1  0.41270000  0.73746000  0.23615000  1.0
  C  C117  1  0.08730000  0.76386000  0.26254000  1.0
  C  C118  1  0.51507000  0.41410000  0.72185000  1.0
  C  C119  1  0.98493000  0.27815000  0.58590000  1.0
  C  C120  1  0.48493000  0.58590000  0.27815000  1.0
  C  C121  1  0.01507000  0.72185000  0.41410000  1.0
  C  C122  1  0.62270000  0.35250000  0.82036000  1.0
  C  C123  1  0.87731000  0.17964000  0.64750000  1.0
  C  C124  1  0.37730000  0.64750000  0.17964000  1.0
  C  C125  1  0.12269000  0.82036000  0.35250000  1.0
  C  C126  1  0.54367000  0.19554000  0.69374000  1.0
  C  C127  1  0.95633000  0.30627000  0.80445000  1.0
  C  C128  1  0.45633000  0.80445000  0.30626000  1.0
  C  C129  1  0.04367000  0.69374000  0.19554000  1.0
  C  C130  1  0.51143000  0.20720000  0.62390000  1.0
  C  C131  1  0.98857000  0.37611000  0.79279000  1.0
  C  C132  1  0.48857000  0.79279000  0.37610000  1.0
  C  C133  1  0.01143000  0.62390000  0.20721000  1.0
  C  C134  1  0.48713000  0.14131000  0.61997000  1.0
  C  C135  1  0.01287000  0.38004000  0.85868000  1.0
  C  C136  1  0.51286000  0.85869000  0.38003000  1.0
  C  C137  1  0.98713000  0.61997000  0.14131000  1.0
  C  C138  1  0.49463000  0.06246000  0.68566000  1.0
  C  C139  1  0.00537000  0.31435000  0.93752000  1.0
  C  C140  1  0.50537000  0.93753000  0.31434000  1.0
  C  C141  1  0.99463000  0.68566000  0.06247000  1.0
  C  C142  1  0.52723000  0.05122000  0.75492000  1.0
  C  C143  1  0.97278000  0.24508000  0.94877000  1.0
  C  C144  1  0.47278000  0.94878000  0.24508000  1.0
  C  C145  1  0.02723000  0.75492000  0.05122000  1.0
  C  C146  1  0.55185000  0.11729000  0.75958000  1.0
  C  C147  1  0.94816000  0.24042000  0.88269000  1.0
  C  C148  1  0.44816000  0.88270000  0.24042000  1.0
  C  C149  1  0.05184000  0.75959000  0.11730000  1.0
  C  C150  1  0.47017000  0.99299000  0.67905000  1.0
  C  C151  1  0.02984000  0.32096000  0.00700000  1.0
  C  C152  1  0.52983000  0.00701000  0.32095000  1.0
  C  C153  1  0.97017000  0.67905000  0.99299000  1.0
  C  C154  1  0.36706000  0.44313000  0.79269000  1.0
  C  C155  1  0.13294000  0.20731000  0.55687000  1.0
  C  C156  1  0.63294000  0.55687000  0.20731000  1.0
  C  C157  1  0.86706000  0.79269000  0.44313000  1.0
  C  C158  1  0.30111000  0.41441000  0.86198000  1.0
  C  C159  1  0.19889000  0.13802000  0.58559000  1.0
  C  C160  1  0.69889000  0.58560000  0.13802000  1.0
  C  C161  1  0.80111000  0.86198000  0.41441000  1.0
  C  C162  1  0.21919000  0.46507000  0.86962000  1.0
  C  C163  1  0.28081000  0.13037000  0.53493000  1.0
  C  C164  1  0.78081000  0.53494000  0.13037000  1.0
  C  C165  1  0.71919000  0.86963000  0.46506000  1.0
  C  C166  1  0.20218000  0.54617000  0.80946000  1.0
  C  C167  1  0.29782000  0.19053000  0.45384000  1.0
  C  C168  1  0.79782000  0.45384000  0.19053000  1.0
  C  C169  1  0.70218000  0.80947000  0.54616000  1.0
  C  C170  1  0.26838000  0.57387000  0.74021000  1.0
  C  C171  1  0.23162000  0.25979000  0.42613000  1.0
  C  C172  1  0.73162000  0.42613000  0.25979000  1.0
  C  C173  1  0.76838000  0.74021000  0.57387000  1.0
  C  C174  1  0.35016000  0.52280000  0.73055000  1.0
  C  C175  1  0.14984000  0.26945000  0.47720000  1.0
  C  C176  1  0.64984000  0.47720000  0.26945000  1.0
  C  C177  1  0.85016000  0.73055000  0.52280000  1.0
  C  C178  1  0.11738000  0.60455000  0.81798000  1.0
  C  C179  1  0.38262000  0.18201000  0.39545000  1.0
  C  C180  1  0.88262000  0.39545000  0.18202000  1.0
  C  C181  1  0.61738000  0.81799000  0.60455000  1.0
  C  C182  1  0.67256000  0.45832000  0.83785000  1.0
  C  C183  1  0.82744000  0.16215000  0.54168000  1.0
  C  C184  1  0.32744000  0.54168000  0.16215000  1.0
  C  C185  1  0.17256000  0.83785000  0.45832000  1.0
  C  C186  1  0.67706000  0.54349000  0.80463000  1.0
  C  C187  1  0.82293000  0.19537000  0.45651000  1.0
  C  C188  1  0.32293000  0.45651000  0.19537000  1.0
  C  C189  1  0.17706000  0.80463000  0.54350000  1.0
  C  C190  1  0.73015000  0.57087000  0.83278000  1.0
  C  C191  1  0.76984000  0.16722000  0.42913000  1.0
  C  C192  1  0.26985000  0.42913000  0.16722000  1.0
  C  C193  1  0.23015000  0.83278000  0.57087000  1.0
  C  C194  1  0.78009000  0.51437000  0.89396000  1.0
  C  C195  1  0.71990000  0.10604000  0.48563000  1.0
  C  C196  1  0.21991000  0.48563000  0.10604000  1.0
  C  C197  1  0.28009000  0.89396000  0.51437000  1.0
  C  C198  1  0.77393000  0.42980000  0.92745000  1.0
  C  C199  1  0.72607000  0.07255000  0.57020000  1.0
  C  C200  1  0.22607000  0.57020000  0.07255000  1.0
  C  C201  1  0.27393000  0.92745000  0.42980000  1.0
  C  C202  1  0.71996000  0.40133000  0.90051000  1.0
  C  C203  1  0.78004000  0.09949000  0.59867000  1.0
  C  C204  1  0.28004000  0.59867000  0.09949000  1.0
  C  C205  1  0.21996000  0.90050000  0.40133000  1.0
  C  C206  1  0.84250000  0.54373000  0.91846000  1.0
  C  C207  1  0.65749000  0.08155000  0.45627000  1.0
  C  C208  1  0.15750000  0.45627000  0.08154000  1.0
  C  C209  1  0.34250000  0.91846000  0.54373000  1.0
  C  C210  1  0.34082000  0.72499000  0.78280000  1.0
  C  C211  1  0.15919000  0.21720000  0.27500000  1.0
  C  C212  1  0.65918000  0.27500000  0.21720000  1.0
  C  C213  1  0.84082000  0.78279000  0.72500000  1.0
  C  C214  1  0.34548000  0.65172000  0.85122000  1.0
  C  C215  1  0.15452000  0.14878000  0.34828000  1.0
  C  C216  1  0.65452000  0.34828000  0.14878000  1.0
  C  C217  1  0.84548000  0.85121000  0.65172000  1.0
  C  C218  1  0.47083000  0.69906000  0.81311000  1.0
  C  C219  1  0.02917000  0.18689000  0.30094000  1.0
  C  C220  1  0.52917000  0.30094000  0.18689000  1.0
  C  C221  1  0.97083000  0.81311000  0.69906000  1.0
  C  C222  1  0.46390000  0.56723000  0.93614000  1.0
  C  C223  1  0.03609000  0.06386000  0.43277000  1.0
  C  C224  1  0.53609000  0.43277000  0.06386000  1.0
  C  C225  1  0.96390000  0.93614000  0.56724000  1.0
  C  C226  1  0.44217000  0.48908000  0.96129000  1.0
  C  C227  1  0.05782000  0.03871000  0.51092000  1.0
  C  C228  1  0.55782000  0.51092000  0.03871000  1.0
  C  C229  1  0.94217000  0.96129000  0.48908000  1.0
  C  C230  1  0.52147000  0.57824000  0.97473000  1.0
  C  C231  1  0.97852000  0.02528000  0.42177000  1.0
  C  C232  1  0.47852000  0.42176000  0.02528000  1.0
  C  C233  1  0.02147000  0.97472000  0.57824000  1.0
  N  N234  1  0.41941000  0.75357000  0.75949000  1.0
  N  N235  1  0.08060000  0.24051000  0.24642000  1.0
  N  N236  1  0.58060000  0.24642000  0.24051000  1.0
  N  N237  1  0.91941000  0.75949000  0.75357000  1.0
  N  N238  1  0.42827000  0.63607000  0.87018000  1.0
  N  N239  1  0.07173000  0.12982000  0.36393000  1.0
  N  N240  1  0.57173000  0.36393000  0.12983000  1.0
  N  N241  1  0.92827000  0.87017000  0.63607000  1.0
  O  O242  1  0.75000000  0.31363000  0.68636000  1.0
  O  O243  1  0.25000000  0.68637000  0.31364000  1.0
  O  O244  1  0.56574000  0.26458000  0.69106000  1.0
  O  O245  1  0.93426000  0.30895000  0.73541000  1.0
  O  O246  1  0.43426000  0.73541000  0.30895000  1.0
  O  O247  1  0.06574000  0.69106000  0.26458000  1.0
  O  O248  1  0.47351000  0.92022000  0.73679000  1.0
  O  O249  1  0.02649000  0.26321000  0.07977000  1.0
  O  O250  1  0.52649000  0.07978000  0.26321000  1.0
  O  O251  1  0.97351000  0.73679000  0.92023000  1.0
  O  O252  1  0.44349000  0.00579000  0.61247000  1.0
  O  O253  1  0.05651000  0.38753000  0.99420000  1.0
  O  O254  1  0.55650000  0.99421000  0.38753000  1.0
  O  O255  1  0.94350000  0.61247000  0.00579000  1.0
  O  O256  1  0.44579000  0.38908000  0.79179000  1.0
  O  O257  1  0.05421000  0.20821000  0.61092000  1.0
  O  O258  1  0.55421000  0.61092000  0.20821000  1.0
  O  O259  1  0.94579000  0.79179000  0.38908000  1.0
  O  O260  1  0.11165000  0.68151000  0.77735000  1.0
  O  O261  1  0.38835000  0.22265000  0.31849000  1.0
  O  O262  1  0.88835000  0.31849000  0.22265000  1.0
  O  O263  1  0.61165000  0.77736000  0.68151000  1.0
  O  O264  1  0.04781000  0.57331000  0.86801000  1.0
  O  O265  1  0.45219000  0.13199000  0.42669000  1.0
  O  O266  1  0.95219000  0.42668000  0.13199000  1.0
  O  O267  1  0.54781000  0.86801000  0.57332000  1.0
  O  O268  1  0.62010000  0.43805000  0.80400000  1.0
  O  O269  1  0.87991000  0.19600000  0.56195000  1.0
  O  O270  1  0.37990000  0.56195000  0.19600000  1.0
  O  O271  1  0.12010000  0.80400000  0.43805000  1.0
  O  O272  1  0.89101000  0.48984000  0.96953000  1.0
  O  O273  1  0.60898000  0.03047000  0.51016000  1.0
  O  O274  1  0.10899000  0.51016000  0.03047000  1.0
  O  O275  1  0.39101000  0.96953000  0.48984000  1.0
  O  O276  1  0.84391000  0.62256000  0.88355000  1.0
  O  O277  1  0.65608000  0.11646000  0.37744000  1.0
  O  O278  1  0.15609000  0.37744000  0.11645000  1.0
  O  O279  1  0.34391000  0.88355000  0.62257000  1.0
