# generated using pymatgen
data_Nd3PH19C13NO24
_symmetry_space_group_name_H-M   'P 1'
_cell_length_a   10.77970000
_cell_length_b   10.89190000
_cell_length_c   11.76250000
_cell_angle_alpha   90.00000000
_cell_angle_beta   90.00000000
_cell_angle_gamma   106.31400000
_symmetry_Int_Tables_number   1
_chemical_formula_structural   Nd3PH19C13NO24
_chemical_formula_sum   'Nd6 P2 H38 C26 N2 O48'
_cell_volume   1325.44603804
_cell_formula_units_Z   2
loop_
 _symmetry_equiv_pos_site_id
 _symmetry_equiv_pos_as_xyz
  1  'x, y, z'
loop_
 _atom_site_type_symbol
 _atom_site_label
 _atom_site_symmetry_multiplicity
 _atom_site_fract_x
 _atom_site_fract_y
 _atom_site_fract_z
 _atom_site_occupancy
  Nd  Nd0  1  0.69420000  0.03174000  0.89511000  1.0
  Nd  Nd1  1  0.30580000  0.96825000  0.39512000  1.0
  Nd  Nd2  1  0.69292000  0.81035000  0.39360000  1.0
  Nd  Nd3  1  0.30708000  0.18965000  0.89361000  1.0
  Nd  Nd4  1  0.60976000  0.57817000  0.74281000  1.0
  Nd  Nd5  1  0.39024000  0.42183000  0.24281000  1.0
  P  P6  1  0.66964000  0.47936000  0.44146000  1.0
  P  P7  1  0.33036000  0.52065000  0.94147000  1.0
  H  H8  1  0.41295000  0.92425000  0.96640000  1.0
  H  H9  1  0.58705000  0.07575000  0.46640000  1.0
  H  H10  1  0.42342000  0.91044000  0.83946000  1.0
  H  H11  1  0.57658000  0.08956000  0.33946000  1.0
  H  H12  1  0.36399000  0.39502000  0.65559000  1.0
  H  H13  1  0.63601000  0.60498000  0.15559000  1.0
  H  H14  1  0.31067000  0.51331000  0.66136000  1.0
  H  H15  1  0.68933000  0.48670000  0.16136000  1.0
  H  H16  1  0.67044000  0.56415000  0.99349000  1.0
  H  H17  1  0.32957000  0.43585000  0.49349000  1.0
  H  H18  1  0.71773000  0.70793000  0.95995000  1.0
  H  H19  1  0.28227000  0.29207000  0.45994000  1.0
  H  H20  1  0.86401000  0.80136000  0.76637000  1.0
  H  H21  1  0.13599000  0.19864000  0.26638000  1.0
  H  H22  1  0.86658000  0.76377000  0.64039000  1.0
  H  H23  1  0.13341000  0.23623000  0.14040000  1.0
  H  H24  1  0.82850000  0.42878000  0.61337000  1.0
  H  H25  1  0.17150000  0.57123000  0.11337000  1.0
  H  H26  1  0.73165000  0.28359000  0.45641000  1.0
  H  H27  1  0.26835000  0.71642000  0.95641000  1.0
  H  H28  1  0.84171000  0.39196000  0.36386000  1.0
  H  H29  1  0.15830000  0.60804000  0.86386000  1.0
  H  H30  1  0.00704000  0.31683000  0.48433000  1.0
  H  H31  1  0.99296000  0.68318000  0.98432000  1.0
  H  H32  1  0.88407000  0.23363000  0.58255000  1.0
  H  H33  1  0.11594000  0.76638000  0.08254000  1.0
  H  H34  1  0.99308000  0.36818000  0.74130000  1.0
  H  H35  1  0.00692000  0.63183000  0.24130000  1.0
  H  H36  1  0.10762000  0.30370000  0.67153000  1.0
  H  H37  1  0.89238000  0.69630000  0.17152000  1.0
  H  H38  1  0.03127000  0.54289000  0.44412000  1.0
  H  H39  1  0.96874000  0.45711000  0.94411000  1.0
  H  H40  1  0.92136000  0.61968000  0.50548000  1.0
  H  H41  1  0.07865000  0.38033000  0.00548000  1.0
  H  H42  1  0.13544000  0.67952000  0.60752000  1.0
  H  H43  1  0.86456000  0.32048000  0.10752000  1.0
  H  H44  1  0.00694000  0.59625000  0.69916000  1.0
  H  H45  1  0.99307000  0.40376000  0.19916000  1.0
  C  C46  1  0.78699000  0.38381000  0.44350000  1.0
  C  C47  1  0.21301000  0.61619000  0.94350000  1.0
  C  C48  1  0.95492000  0.32540000  0.56285000  1.0
  C  C49  1  0.04509000  0.67460000  0.06285000  1.0
  C  C50  1  0.04767000  0.36947000  0.66205000  1.0
  C  C51  1  0.95233000  0.63053000  0.16204000  1.0
  C  C52  1  0.97644000  0.55079000  0.52108000  1.0
  C  C53  1  0.02356000  0.44922000  0.02108000  1.0
  C  C54  1  0.06429000  0.58716000  0.62357000  1.0
  C  C55  1  0.93571000  0.41284000  0.12357000  1.0
  C  C56  1  0.66794000  0.98449000  0.62025000  1.0
  C  C57  1  0.33205000  0.01549000  0.12027000  1.0
  C  C58  1  0.63359000  0.84640000  0.66460000  1.0
  C  C59  1  0.36641000  0.15358000  0.16461000  1.0
  C  C60  1  0.99951000  0.11194000  0.97062000  1.0
  C  C61  1  0.00046000  0.88805000  0.47061000  1.0
  C  C62  1  0.99844000  0.04874000  0.85192000  1.0
  C  C63  1  0.00154000  0.95125000  0.35191000  1.0
  C  C64  1  0.59518000  0.29103000  0.85597000  1.0
  C  C65  1  0.40482000  0.70897000  0.35598000  1.0
  C  C66  1  0.73774000  0.33547000  0.81918000  1.0
  C  C67  1  0.26227000  0.66453000  0.31919000  1.0
  C  C68  1  0.68485000  0.85264000  0.11697000  1.0
  C  C69  1  0.31515000  0.14736000  0.61697000  1.0
  C  C70  1  0.65372000  0.97417000  0.16317000  1.0
  C  C71  1  0.34628000  0.02583000  0.66316000  1.0
  N  N72  1  0.88132000  0.42183000  0.53991000  1.0
  N  N73  1  0.11868000  0.57817000  0.03991000  1.0
  O  O74  1  0.55970000  0.40488000  0.36581000  1.0
  O  O75  1  0.44030000  0.59512000  0.86581000  1.0
  O  O76  1  0.73917000  0.61297000  0.39412000  1.0
  O  O77  1  0.26082000  0.38703000  0.89413000  1.0
  O  O78  1  0.63781000  0.48461000  0.56826000  1.0
  O  O79  1  0.36220000  0.51539000  0.06826000  1.0
  O  O80  1  0.13427000  0.49471000  0.64337000  1.0
  O  O81  1  0.86573000  0.50529000  0.14337000  1.0
  O  O82  1  0.69785000  0.99999000  0.51575000  1.0
  O  O83  1  0.30215000  1.00000000  0.01575000  1.0
  O  O84  1  0.66438000  0.07116000  0.68991000  1.0
  O  O85  1  0.33560000  0.92883000  0.18991000  1.0
  O  O86  1  0.61097000  0.75475000  0.59292000  1.0
  O  O87  1  0.38902000  0.24524000  0.09294000  1.0
  O  O88  1  0.63297000  0.82876000  0.77071000  1.0
  O  O89  1  0.36702000  0.17122000  0.27071000  1.0
  O  O90  1  0.89328000  0.11296000  0.01353000  1.0
  O  O91  1  0.10673000  0.88704000  0.51353000  1.0
  O  O92  1  0.11113000  0.16066000  0.01406000  1.0
  O  O93  1  0.88887000  0.83934000  0.51405000  1.0
  O  O94  1  0.88878000  0.98694000  0.81269000  1.0
  O  O95  1  0.11123000  0.01304000  0.31268000  1.0
  O  O96  1  0.10592000  0.06465000  0.80325000  1.0
  O  O97  1  0.89409000  0.93535000  0.30324000  1.0
  O  O98  1  0.52434000  0.36496000  0.83941000  1.0
  O  O99  1  0.47566000  0.63504000  0.33941000  1.0
  O  O100  1  0.55162000  0.18047000  0.89884000  1.0
  O  O101  1  0.44838000  0.81953000  0.39885000  1.0
  O  O102  1  0.77187000  0.44003000  0.76493000  1.0
  O  O103  1  0.22813000  0.55998000  0.26493000  1.0
  O  O104  1  0.80609000  0.26251000  0.84500000  1.0
  O  O105  1  0.19391000  0.73748000  0.34501000  1.0
  O  O106  1  0.67841000  0.76258000  0.18710000  1.0
  O  O107  1  0.32158000  0.23742000  0.68711000  1.0
  O  O108  1  0.71244000  0.85020000  0.01275000  1.0
  O  O109  1  0.28756000  0.14980000  0.51276000  1.0
  O  O110  1  0.65063000  0.98373000  0.27006000  1.0
  O  O111  1  0.34937000  0.01628000  0.77008000  1.0
  O  O112  1  0.63098000  0.05173000  0.09194000  1.0
  O  O113  1  0.36902000  0.94828000  0.59196000  1.0
  O  O114  1  0.46641000  0.89447000  0.91040000  1.0
  O  O115  1  0.53359000  0.10553000  0.41040000  1.0
  O  O116  1  0.38789000  0.48839000  0.63717000  1.0
  O  O117  1  0.61211000  0.51161000  0.13717000  1.0
  O  O118  1  0.71668000  0.62104000  0.93186000  1.0
  O  O119  1  0.28333000  0.37897000  0.43186000  1.0
  O  O120  1  0.84233000  0.72520000  0.71741000  1.0
  O  O121  1  0.15767000  0.27480000  0.21741000  1.0
