# generated using pymatgen
data_RbVH14C10(NO4)2
_symmetry_space_group_name_H-M   'P 1'
_cell_length_a   6.77479000
_cell_length_b   12.51620000
_cell_length_c   17.48270000
_cell_angle_alpha   89.99890000
_cell_angle_beta   92.96360000
_cell_angle_gamma   89.99990000
_symmetry_Int_Tables_number   1
_chemical_formula_structural   RbVH14C10(NO4)2
_chemical_formula_sum   'Rb4 V4 H56 C40 N8 O32'
_cell_volume   1480.45637789
_cell_formula_units_Z   4
loop_
 _symmetry_equiv_pos_site_id
 _symmetry_equiv_pos_as_xyz
  1  'x, y, z'
loop_
 _atom_site_type_symbol
 _atom_site_label
 _atom_site_symmetry_multiplicity
 _atom_site_fract_x
 _atom_site_fract_y
 _atom_site_fract_z
 _atom_site_occupancy
  Rb  Rb0  1  0.25125000  0.40050000  0.99563000  1.0
  Rb  Rb1  1  0.74875000  0.90050000  0.50437000  1.0
  Rb  Rb2  1  0.74875000  0.59950000  0.00437000  1.0
  Rb  Rb3  1  0.25125000  0.09949000  0.49563000  1.0
  V  V4  1  0.72604000  0.26863000  0.07289000  1.0
  V  V5  1  0.27396000  0.76862000  0.42711000  1.0
  V  V6  1  0.27396000  0.73137000  0.92711000  1.0
  V  V7  1  0.72603000  0.23138000  0.57289000  1.0
  H  H8  1  0.79094000  0.10499000  0.21725000  1.0
  H  H9  1  0.20908000  0.60499000  0.28275000  1.0
  H  H10  1  0.20908000  0.89501000  0.78275000  1.0
  H  H11  1  0.79091000  0.39501000  0.71724000  1.0
  H  H12  1  0.82523000  0.90768000  0.24138000  1.0
  H  H13  1  0.17475000  0.40768000  0.25862000  1.0
  H  H14  1  0.17477000  0.09233000  0.75863000  1.0
  H  H15  1  0.82524000  0.59232000  0.74138000  1.0
  H  H16  1  0.81445000  0.78364000  0.12945000  1.0
  H  H17  1  0.18552000  0.28364000  0.37055000  1.0
  H  H18  1  0.18552000  0.21636000  0.87056000  1.0
  H  H19  1  0.81449000  0.71636000  0.62945000  1.0
  H  H20  1  0.77463000  0.86064000  0.99664000  1.0
  H  H21  1  0.22536000  0.36064000  0.50336000  1.0
  H  H22  1  0.22535000  0.13935000  0.00337000  1.0
  H  H23  1  0.77467000  0.63936000  0.49664000  1.0
  H  H24  1  0.72463000  0.93219000  0.89449000  1.0
  H  H25  1  0.27538000  0.43218000  0.60552000  1.0
  H  H26  1  0.27536000  0.06781000  0.10552000  1.0
  H  H27  1  0.72462000  0.56782000  0.39448000  1.0
  H  H28  1  0.68870000  0.03285000  0.77180000  1.0
  H  H29  1  0.31130000  0.53284000  0.72820000  1.0
  H  H30  1  0.31128000  0.96715000  0.22820000  1.0
  H  H31  1  0.68869000  0.46716000  0.27180000  1.0
  H  H32  1  0.66717000  0.23306000  0.77495000  1.0
  H  H33  1  0.33283000  0.73306000  0.72505000  1.0
  H  H34  1  0.33282000  0.76694000  0.22505000  1.0
  H  H35  1  0.66716000  0.26695000  0.27495000  1.0
  H  H36  1  0.68830000  0.32440000  0.90406000  1.0
  H  H37  1  0.31172000  0.82440000  0.59593000  1.0
  H  H38  1  0.31171000  0.67560000  0.09593000  1.0
  H  H39  1  0.68828000  0.17560000  0.40406000  1.0
  H  H40  1  0.13849000  0.42379000  0.82603000  1.0
  H  H41  1  0.86151000  0.92379000  0.67398000  1.0
  H  H42  1  0.86151000  0.57621000  0.17398000  1.0
  H  H43  1  0.13849000  0.07621000  0.32602000  1.0
  H  H44  1  0.24280000  0.34643000  0.76686000  1.0
  H  H45  1  0.75720000  0.84643000  0.73314000  1.0
  H  H46  1  0.75720000  0.65357000  0.23314000  1.0
  H  H47  1  0.24280000  0.15357000  0.26686000  1.0
  H  H48  1  0.98468000  0.42559000  0.13917000  1.0
  H  H49  1  0.01531000  0.92558000  0.36083000  1.0
  H  H50  1  0.01531000  0.57442000  0.86083000  1.0
  H  H51  1  0.98470000  0.07442000  0.63917000  1.0
  H  H52  1  0.16828000  0.50481000  0.14608000  1.0
  H  H53  1  0.83172000  0.00481000  0.35392000  1.0
  H  H54  1  0.83172000  0.49519000  0.85392000  1.0
  H  H55  1  0.16828000  0.99519000  0.64608000  1.0
  H  H56  1  0.46528000  0.40814000  0.15489000  1.0
  H  H57  1  0.53471000  0.90814000  0.34511000  1.0
  H  H58  1  0.53472000  0.59186000  0.84511000  1.0
  H  H59  1  0.46530000  0.09186000  0.65489000  1.0
  H  H60  1  0.52657000  0.53129000  0.16705000  1.0
  H  H61  1  0.47343000  0.03129000  0.33295000  1.0
  H  H62  1  0.47343000  0.46871000  0.83295000  1.0
  H  H63  1  0.52657000  0.96871000  0.66705000  1.0
  C  C64  1  0.78748000  0.04765000  0.17026000  1.0
  C  C65  1  0.21253000  0.54765000  0.32973000  1.0
  C  C66  1  0.21253000  0.95235000  0.82974000  1.0
  C  C67  1  0.78747000  0.45235000  0.67027000  1.0
  C  C68  1  0.80679000  0.93817000  0.18325000  1.0
  C  C69  1  0.19321000  0.43816000  0.31677000  1.0
  C  C70  1  0.19322000  0.06183000  0.81676000  1.0
  C  C71  1  0.80678000  0.56184000  0.68323000  1.0
  C  C72  1  0.80124000  0.86957000  0.12041000  1.0
  C  C73  1  0.19875000  0.36958000  0.37958000  1.0
  C  C74  1  0.19875000  0.13043000  0.87960000  1.0
  C  C75  1  0.80126000  0.63042000  0.62042000  1.0
  C  C76  1  0.77730000  0.91203000  0.04697000  1.0
  C  C77  1  0.22269000  0.41202000  0.45305000  1.0
  C  C78  1  0.22268000  0.08797000  0.95304000  1.0
  C  C79  1  0.77732000  0.58798000  0.54695000  1.0
  C  C80  1  0.75742000  0.02286000  0.03875000  1.0
  C  C81  1  0.24259000  0.52286000  0.46125000  1.0
  C  C82  1  0.24258000  0.97714000  0.96126000  1.0
  C  C83  1  0.75742000  0.47714000  0.53875000  1.0
  C  C84  1  0.73086000  0.07570000  0.96369000  1.0
  C  C85  1  0.26915000  0.57568000  0.53632000  1.0
  C  C86  1  0.26914000  0.92430000  0.03632000  1.0
  C  C87  1  0.73085000  0.42432000  0.46368000  1.0
  C  C88  1  0.71957000  0.01925000  0.89441000  1.0
  C  C89  1  0.28044000  0.51925000  0.60558000  1.0
  C  C90  1  0.28043000  0.98075000  0.10559000  1.0
  C  C91  1  0.71955000  0.48076000  0.39441000  1.0
  C  C92  1  0.69777000  0.07569000  0.82603000  1.0
  C  C93  1  0.30224000  0.57568000  0.67398000  1.0
  C  C94  1  0.30222000  0.92431000  0.17397000  1.0
  C  C95  1  0.69775000  0.42433000  0.32602000  1.0
  C  C96  1  0.68709000  0.18691000  0.82767000  1.0
  C  C97  1  0.31291000  0.68691000  0.67233000  1.0
  C  C98  1  0.31291000  0.81309000  0.17234000  1.0
  C  C99  1  0.68708000  0.31309000  0.32767000  1.0
  C  C100  1  0.69759000  0.23787000  0.89839000  1.0
  C  C101  1  0.30243000  0.73785000  0.60162000  1.0
  C  C102  1  0.30242000  0.76213000  0.10161000  1.0
  C  C103  1  0.69757000  0.26215000  0.39838000  1.0
  N  N104  1  0.76284000  0.08886000  0.09984000  1.0
  N  N105  1  0.23718000  0.58885000  0.40018000  1.0
  N  N106  1  0.23717000  0.91114000  0.90016000  1.0
  N  N107  1  0.76283000  0.41114000  0.59982000  1.0
  N  N108  1  0.71842000  0.18388000  0.96494000  1.0
  N  N109  1  0.28159000  0.68387000  0.53505000  1.0
  N  N110  1  0.28158000  0.81612000  0.03505000  1.0
  N  N111  1  0.71842000  0.31613000  0.46495000  1.0
  O  O112  1  0.45646000  0.22711000  0.08152000  1.0
  O  O113  1  0.54354000  0.72711000  0.41848000  1.0
  O  O114  1  0.54354000  0.77289000  0.91848000  1.0
  O  O115  1  0.45646000  0.27288000  0.58152000  1.0
  O  O116  1  0.54119000  0.27643000  0.15121000  1.0
  O  O117  1  0.45880000  0.77642000  0.34879000  1.0
  O  O118  1  0.45881000  0.72358000  0.84879000  1.0
  O  O119  1  0.54120000  0.22357000  0.65121000  1.0
  O  O120  1  0.00622000  0.25319000  0.07399000  1.0
  O  O121  1  0.99378000  0.75317000  0.42601000  1.0
  O  O122  1  0.99378000  0.74682000  0.92601000  1.0
  O  O123  1  0.00622000  0.24682000  0.57399000  1.0
  O  O124  1  0.93871000  0.29515000  0.14586000  1.0
  O  O125  1  0.06128000  0.79514000  0.35415000  1.0
  O  O126  1  0.06129000  0.70485000  0.85414000  1.0
  O  O127  1  0.93872000  0.20485000  0.64585000  1.0
  O  O128  1  0.69379000  0.38259000  0.02703000  1.0
  O  O129  1  0.30621000  0.88258000  0.47297000  1.0
  O  O130  1  0.30622000  0.61741000  0.97296000  1.0
  O  O131  1  0.69379000  0.11742000  0.52703000  1.0
  O  O132  1  0.26363000  0.38310000  0.81568000  1.0
  O  O133  1  0.73637000  0.88310000  0.68433000  1.0
  O  O134  1  0.73637000  0.61690000  0.18432000  1.0
  O  O135  1  0.26363000  0.11690000  0.31567000  1.0
  O  O136  1  0.02307000  0.50294000  0.13318000  1.0
  O  O137  1  0.97693000  0.00293000  0.36682000  1.0
  O  O138  1  0.97693000  0.49707000  0.86682000  1.0
  O  O139  1  0.02307000  0.99706000  0.63318000  1.0
  O  O140  1  0.41442000  0.48336000  0.15290000  1.0
  O  O141  1  0.58558000  0.98336000  0.34710000  1.0
  O  O142  1  0.58558000  0.51664000  0.84710000  1.0
  O  O143  1  0.41443000  0.01664000  0.65290000  1.0
