# generated using pymatgen
data_Zr6H29C52Cl5O32
_symmetry_space_group_name_H-M   'P 1'
_cell_length_a   14.76801023
_cell_length_b   14.77420000
_cell_length_c   14.79860000
_cell_angle_alpha   119.91190000
_cell_angle_beta   90.19867052
_cell_angle_gamma   60.23481032
_symmetry_Int_Tables_number   1
_chemical_formula_structural   Zr6H29C52Cl5O32
_chemical_formula_sum   'Zr6 H29 C52 Cl5 O32'
_cell_volume   2298.09976074
_cell_formula_units_Z   1
loop_
 _symmetry_equiv_pos_site_id
 _symmetry_equiv_pos_as_xyz
  1  'x, y, z'
loop_
 _atom_site_type_symbol
 _atom_site_label
 _atom_site_symmetry_multiplicity
 _atom_site_fract_x
 _atom_site_fract_y
 _atom_site_fract_z
 _atom_site_occupancy
  Zr  Zr0  1  0.38210000  0.49289000  0.11640000  1.0
  Zr  Zr1  1  0.61796000  0.49854000  0.88135000  1.0
  Zr  Zr2  1  0.38243000  0.73043000  0.11622000  1.0
  Zr  Zr3  1  0.62167000  0.25541000  0.87732000  1.0
  Zr  Zr4  1  0.62212000  0.49211000  0.11680000  1.0
  Zr  Zr5  1  0.38236000  0.49211000  0.87630000  1.0
  H  H6  1  0.40796000  0.67895000  0.27832000  1.0
  H  H7  1  0.78256000  0.30953000  0.90527000  1.0
  H  H8  1  0.40547000  0.68387000  0.90566000  1.0
  H  H9  1  0.40774000  0.30369000  0.90159000  1.0
  H  H10  1  0.37464000  0.45869000  0.39883000  1.0
  H  H11  1  0.62471000  0.53158000  0.42625000  1.0
  H  H12  1  0.37854000  0.46480000  0.57158000  1.0
  H  H13  1  0.08437000  0.49155000  0.14143000  1.0
  H  H14  1  0.06452000  0.54815000  0.88209000  1.0
  H  H15  1  0.91207000  0.49602000  0.13685000  1.0
  H  H16  1  0.91698000  0.21590000  0.14750000  1.0
  H  H17  1  0.90572000  0.93926000  0.85563000  1.0
  H  H18  1  0.08642000  0.03820000  0.13888000  1.0
  H  H19  1  0.36789000  0.21583000  0.56594000  1.0
  H  H20  1  0.65202000  0.93920000  0.58429000  1.0
  H  H21  1  0.37523000  0.03818000  0.39737000  1.0
  H  H22  1  0.03672000  0.71170000  0.36908000  1.0
  H  H23  1  0.12243000  0.71006000  0.45411000  1.0
  H  H24  1  0.95359000  0.88029000  0.62370000  1.0
  H  H25  1  0.86770000  0.88180000  0.53884000  1.0
  H  H26  1  0.65236000  0.93043000  0.86182000  1.0
  H  H27  1  0.36285000  0.22995000  0.14813000  1.0
  H  H28  1  0.64287000  0.77014000  0.87142000  1.0
  H  H29  1  0.89396000  0.28932000  0.52602000  1.0
  H  H30  1  0.83954000  0.34041000  0.66131000  1.0
  H  H31  1  0.97689000  0.28740000  0.61154000  1.0
  H  H32  1  0.11242000  0.15160000  0.47427000  1.0
  H  H33  1  0.17333000  0.01060000  0.33902000  1.0
  H  H34  1  0.03737000  0.14298000  0.38147000  1.0
  C  C35  1  0.50363000  0.48643000  0.29757000  1.0
  C  C36  1  0.79666000  0.51134000  0.00428000  1.0
  C  C37  1  0.50259000  0.49596000  0.69451000  1.0
  C  C38  1  0.19276000  0.50420000  0.00392000  1.0
  C  C39  1  0.19555000  0.79927000  0.29797000  1.0
  C  C40  1  0.50711000  0.18911000  0.00019000  1.0
  C  C41  1  0.80092000  0.19710000  0.69325000  1.0
  C  C42  1  0.49968000  0.80410000  0.00846000  1.0
  C  C43  1  0.50995000  0.79199000  0.29748000  1.0
  C  C44  1  0.19387000  0.79201000  0.99611000  1.0
  C  C45  1  0.50658000  0.19040000  0.68785000  1.0
  C  C46  1  0.80209000  0.19045000  0.00172000  1.0
  C  C47  1  0.50320000  0.50045000  0.59563000  1.0
  C  C48  1  0.50156000  0.49190000  0.40118000  1.0
  C  C49  1  0.57153000  0.52222000  0.55501000  1.0
  C  C50  1  0.43002000  0.47531000  0.44262000  1.0
  C  C51  1  0.57111000  0.51619000  0.45792000  1.0
  C  C52  1  0.43210000  0.47902000  0.53811000  1.0
  C  C53  1  0.89237000  0.52226000  0.00684000  1.0
  C  C54  1  0.08606000  0.51611000  0.00966000  1.0
  C  C55  1  0.93464000  0.54064000  0.93645000  1.0
  C  C56  1  0.04212000  0.50466000  0.08413000  1.0
  C  C57  1  0.03120000  0.53619000  0.93772000  1.0
  C  C58  1  0.94697000  0.50728000  0.08156000  1.0
  C  C59  1  0.09142000  0.88976000  0.99396000  1.0
  C  C60  1  0.90149000  0.08782000  0.00153000  1.0
  C  C61  1  0.03907000  0.86231000  0.91355000  1.0
  C  C62  1  0.95172000  0.11679000  0.08242000  1.0
  C  C63  1  0.94532000  0.96099000  0.91801000  1.0
  C  C64  1  0.04515000  0.01852000  0.07762000  1.0
  C  C65  1  0.51584000  0.88976000  0.39631000  1.0
  C  C66  1  0.50966000  0.08779000  0.58534000  1.0
  C  C67  1  0.59513000  0.86229000  0.44974000  1.0
  C  C68  1  0.43118000  0.11674000  0.53279000  1.0
  C  C69  1  0.59130000  0.96094000  0.54310000  1.0
  C  C70  1  0.43521000  0.01848000  0.43983000  1.0
  C  C71  1  0.09675000  0.90731000  0.39898000  1.0
  C  C72  1  0.90176000  0.10361000  0.59372000  1.0
  C  C73  1  0.04419000  0.87987000  0.44978000  1.0
  C  C74  1  0.95396000  0.13567000  0.54497000  1.0
  C  C75  1  0.95092000  0.97380000  0.54315000  1.0
  C  C76  1  0.05009000  0.03920000  0.44953000  1.0
  C  C77  1  0.04850000  0.77201000  0.44331000  1.0
  C  C78  1  0.94265000  0.87865000  0.54952000  1.0
  C  C79  1  0.49872000  0.90830000  0.01352000  1.0
  C  C80  1  0.50737000  0.08994000  0.00444000  1.0
  C  C81  1  0.41945000  0.03979000  0.09299000  1.0
  C  C82  1  0.58756000  0.96012000  0.92606000  1.0
  C  C83  1  0.42443000  0.12881000  0.08754000  1.0
  C  C84  1  0.58225000  0.87172000  0.93144000  1.0
  C  C85  1  0.91285000  0.27076000  0.58937000  1.0
  C  C86  1  0.09723000  0.08673000  0.40774000  1.0
  Cl  Cl87  1  0.65723000  0.56044000  0.61962000  1.0
  Cl  Cl88  1  0.87400000  0.57025000  0.84547000  1.0
  Cl  Cl89  1  0.08313000  0.71049000  0.80490000  1.0
  Cl  Cl90  1  0.70061000  0.71050000  0.40849000  1.0
  Cl  Cl91  1  0.31172000  0.10267000  0.20057000  1.0
  O  O92  1  0.42654000  0.48612000  0.25831000  1.0
  O  O93  1  0.75703000  0.50656000  0.92659000  1.0
  O  O94  1  0.57789000  0.49609000  0.73665000  1.0
  O  O95  1  0.23466000  0.49908000  0.07838000  1.0
  O  O96  1  0.24036000  0.82587000  0.24975000  1.0
  O  O97  1  0.58230000  0.15112000  0.92199000  1.0
  O  O98  1  0.76664000  0.15330000  0.72983000  1.0
  O  O99  1  0.42383000  0.83582000  0.08162000  1.0
  O  O100  1  0.58368000  0.67529000  0.25686000  1.0
  O  O101  1  0.23650000  0.67524000  0.92035000  1.0
  O  O102  1  0.42811000  0.30541000  0.72720000  1.0
  O  O103  1  0.76527000  0.30557000  0.07783000  1.0
  O  O104  1  0.23252000  0.83243000  0.07279000  1.0
  O  O105  1  0.58196000  0.15469000  0.72942000  1.0
  O  O106  1  0.76253000  0.15468000  0.92431000  1.0
  O  O107  1  0.43047000  0.83224000  0.26165000  1.0
  O  O108  1  0.23167000  0.68545000  0.26417000  1.0
  O  O109  1  0.57552000  0.69003000  0.92989000  1.0
  O  O110  1  0.75403000  0.31584000  0.73810000  1.0
  O  O111  1  0.42975000  0.30477000  0.07477000  1.0
  O  O112  1  0.23492000  0.49747000  0.92386000  1.0
  O  O113  1  0.58137000  0.48449000  0.25725000  1.0
  O  O114  1  0.76361000  0.50310000  0.07781000  1.0
  O  O115  1  0.42684000  0.49164000  0.72971000  1.0
  O  O116  1  0.43463000  0.35730000  0.92835000  1.0
  O  O117  1  0.43278000  0.62919000  0.93125000  1.0
  O  O118  1  0.70264000  0.36138000  0.93238000  1.0
  O  O119  1  0.43530000  0.62518000  0.19844000  1.0
  O  O120  1  0.55067000  0.59348000  0.04891000  1.0
  O  O121  1  0.55124000  0.39350000  0.04625000  1.0
  O  O122  1  0.54995000  0.39606000  0.84978000  1.0
  O  O123  1  0.35337000  0.58993000  0.04517000  1.0
