# generated using pymatgen
data_H9PbC9SNO6
_symmetry_space_group_name_H-M   'P 1'
_cell_length_a   7.21619000
_cell_length_b   7.80757000
_cell_length_c   12.46630000
_cell_angle_alpha   88.63500000
_cell_angle_beta   75.53210000
_cell_angle_gamma   64.37320000
_symmetry_Int_Tables_number   1
_chemical_formula_structural   H9PbC9SNO6
_chemical_formula_sum   'H18 Pb2 C18 S2 N2 O12'
_cell_volume   610.32814522
_cell_formula_units_Z   2
loop_
 _symmetry_equiv_pos_site_id
 _symmetry_equiv_pos_as_xyz
  1  'x, y, z'
loop_
 _atom_site_type_symbol
 _atom_site_label
 _atom_site_symmetry_multiplicity
 _atom_site_fract_x
 _atom_site_fract_y
 _atom_site_fract_z
 _atom_site_occupancy
  H  H0  1  0.22902000  0.54890000  0.25748000  1.0
  H  H1  1  0.77101000  0.45112000  0.74254000  1.0
  H  H2  1  0.00131000  0.56281000  0.25606000  1.0
  H  H3  1  0.99872000  0.43724000  0.74394000  1.0
  H  H4  1  0.14219000  0.29072000  0.33008000  1.0
  H  H5  1  0.85775000  0.70929000  0.66993000  1.0
  H  H6  1  0.00479000  0.35617000  0.53724000  1.0
  H  H7  1  0.99520000  0.64380000  0.46277000  1.0
  H  H8  1  0.11781000  0.09659000  0.65802000  1.0
  H  H9  1  0.88216000  0.90337000  0.34199000  1.0
  H  H10  1  0.36527000  0.75926000  0.57516000  1.0
  H  H11  1  0.63477000  0.24072000  0.42482000  1.0
  H  H12  1  0.17031000  0.84923000  0.77113000  1.0
  H  H13  1  0.82961000  0.15073000  0.22888000  1.0
  H  H14  1  0.21010000  0.98183000  0.87015000  1.0
  H  H15  1  0.78988000  0.01814000  0.12982000  1.0
  H  H16  1  0.94997000  0.99491000  0.88159000  1.0
  H  H17  1  0.04998000  0.00510000  0.11843000  1.0
  Pb  Pb18  1  0.31287000  0.34309000  0.02597000  1.0
  Pb  Pb19  1  0.68710000  0.65692000  0.97406000  1.0
  C  C20  1  0.42988000  0.91629000  0.21798000  1.0
  C  C21  1  0.57016000  0.08370000  0.78201000  1.0
  C  C22  1  0.32882000  0.99088000  0.33798000  1.0
  C  C23  1  0.67119000  0.00913000  0.66201000  1.0
  C  C24  1  0.19115000  0.17700000  0.38383000  1.0
  C  C25  1  0.80880000  0.82300000  0.61617000  1.0
  C  C26  1  0.11548000  0.21192000  0.49963000  1.0
  C  C27  1  0.88447000  0.78804000  0.50037000  1.0
  C  C28  1  0.17847000  0.06397000  0.56795000  1.0
  C  C29  1  0.82153000  0.93599000  0.43204000  1.0
  C  C30  1  0.31601000  0.87555000  0.52265000  1.0
  C  C31  1  0.68403000  0.12443000  0.47734000  1.0
  C  C32  1  0.38672000  0.84441000  0.40749000  1.0
  C  C33  1  0.61327000  0.15560000  0.59249000  1.0
  C  C34  1  0.17411000  0.73066000  0.92450000  1.0
  C  C35  1  0.82588000  0.26934000  0.07552000  1.0
  C  C36  1  0.12183000  0.90235000  0.85940000  1.0
  C  C37  1  0.87813000  0.09765000  0.14060000  1.0
  S  S38  1  0.54962000  0.62842000  0.31951000  1.0
  S  S39  1  0.45042000  0.37159000  0.68048000  1.0
  N  N40  1  0.55146000  0.72431000  0.20265000  1.0
  N  N41  1  0.44859000  0.27570000  0.79735000  1.0
  O  O42  1  0.12978000  0.57172000  0.21085000  1.0
  O  O43  1  0.87027000  0.42833000  0.78915000  1.0
  O  O44  1  0.40851000  0.01681000  0.13768000  1.0
  O  O45  1  0.59149000  0.98319000  0.86231000  1.0
  O  O46  1  0.44061000  0.50576000  0.33046000  1.0
  O  O47  1  0.55951000  0.49417000  0.66953000  1.0
  O  O48  1  0.76361000  0.53435000  0.33574000  1.0
  O  O49  1  0.23643000  0.46580000  0.66423000  1.0
  O  O50  1  0.34771000  0.65810000  0.95358000  1.0
  O  O51  1  0.65234000  0.34185000  0.04639000  1.0
  O  O52  1  0.04842000  0.65204000  0.94728000  1.0
  O  O53  1  0.95152000  0.34800000  0.05279000  1.0
