# generated using pymatgen
data_ZnH6C7(BrN2)2
_symmetry_space_group_name_H-M   'P 1'
_cell_length_a   6.61196000
_cell_length_b   8.64139000
_cell_length_c   18.56370000
_cell_angle_alpha   89.99980000
_cell_angle_beta   89.99980000
_cell_angle_gamma   77.59500000
_symmetry_Int_Tables_number   1
_chemical_formula_structural   ZnH6C7(BrN2)2
_chemical_formula_sum   'Zn4 H24 C28 Br8 N16'
_cell_volume   1035.90252451
_cell_formula_units_Z   4
loop_
 _symmetry_equiv_pos_site_id
 _symmetry_equiv_pos_as_xyz
  1  'x, y, z'
loop_
 _atom_site_type_symbol
 _atom_site_label
 _atom_site_symmetry_multiplicity
 _atom_site_fract_x
 _atom_site_fract_y
 _atom_site_fract_z
 _atom_site_occupancy
  Zn  Zn0  1  0.40084000  0.31833000  0.63974000  1.0
  Zn  Zn1  1  0.59915000  0.18167000  0.13974000  1.0
  Zn  Zn2  1  0.59915000  0.68167000  0.36025000  1.0
  Zn  Zn3  1  0.40086000  0.81833000  0.86026000  1.0
  H  H4  1  0.73779000  0.89194000  0.58559000  1.0
  H  H5  1  0.26221000  0.60806000  0.08559000  1.0
  H  H6  1  0.26221000  0.10806000  0.41441000  1.0
  H  H7  1  0.73780000  0.39193000  0.91441000  1.0
  H  H8  1  0.68076000  0.61764000  0.55692000  1.0
  H  H9  1  0.31923000  0.88236000  0.05692000  1.0
  H  H10  1  0.31923000  0.38236000  0.44308000  1.0
  H  H11  1  0.68078000  0.11763000  0.94308000  1.0
  H  H12  1  0.96769000  0.38478000  0.58006000  1.0
  H  H13  1  0.03230000  0.11523000  0.08006000  1.0
  H  H14  1  0.03230000  0.61522000  0.41994000  1.0
  H  H15  1  0.96771000  0.88477000  0.91994000  1.0
  H  H16  1  0.34952000  0.67079000  0.66027000  1.0
  H  H17  1  0.65047000  0.82921000  0.16026000  1.0
  H  H18  1  0.65047000  0.32921000  0.33973000  1.0
  H  H19  1  0.34955000  0.17079000  0.83974000  1.0
  H  H20  1  0.86849000  0.02083000  0.73022000  1.0
  H  H21  1  0.13151000  0.47917000  0.23021000  1.0
  H  H22  1  0.13151000  0.97918000  0.26978000  1.0
  H  H23  1  0.86849000  0.52082000  0.76979000  1.0
  H  H24  1  0.32978000  0.97446000  0.56855000  1.0
  H  H25  1  0.67021000  0.52554000  0.06855000  1.0
  H  H26  1  0.67022000  0.02554000  0.43145000  1.0
  H  H27  1  0.32980000  0.47445000  0.93145000  1.0
  C  C28  1  0.85706000  0.78536000  0.59523000  1.0
  C  C29  1  0.14294000  0.71464000  0.09523000  1.0
  C  C30  1  0.14294000  0.21464000  0.40477000  1.0
  C  C31  1  0.85707000  0.28536000  0.90477000  1.0
  C  C32  1  0.82672000  0.63436000  0.57946000  1.0
  C  C33  1  0.17328000  0.86565000  0.07946000  1.0
  C  C34  1  0.17328000  0.36564000  0.42054000  1.0
  C  C35  1  0.82673000  0.13435000  0.92054000  1.0
  C  C36  1  0.98744000  0.50423000  0.59159000  1.0
  C  C37  1  0.01254000  0.99578000  0.09159000  1.0
  C  C38  1  0.01254000  0.49577000  0.40841000  1.0
  C  C39  1  0.98747000  0.00422000  0.90841000  1.0
  C  C40  1  0.20250000  0.66305000  0.63516000  1.0
  C  C41  1  0.79749000  0.83695000  0.13516000  1.0
  C  C42  1  0.79749000  0.33695000  0.36484000  1.0
  C  C43  1  0.20252000  0.16305000  0.86484000  1.0
  C  C44  1  0.04786000  0.79802000  0.62362000  1.0
  C  C45  1  0.95214000  0.70197000  0.12362000  1.0
  C  C46  1  0.95214000  0.20197000  0.37638000  1.0
  C  C47  1  0.04787000  0.29802000  0.87639000  1.0
  C  C48  1  0.99166000  0.04779000  0.69688000  1.0
  C  C49  1  0.00833000  0.45221000  0.19687000  1.0
  C  C50  1  0.00834000  0.95221000  0.30313000  1.0
  C  C51  1  0.99167000  0.54779000  0.80313000  1.0
  C  C52  1  0.23010000  0.02137000  0.61354000  1.0
  C  C53  1  0.76989000  0.47863000  0.11353000  1.0
  C  C54  1  0.76990000  0.97862000  0.38646000  1.0
  C  C55  1  0.23010000  0.52138000  0.88646000  1.0
  Br  Br56  1  0.63473000  0.23226000  0.54159000  1.0
  Br  Br57  1  0.36527000  0.26773000  0.04159000  1.0
  Br  Br58  1  0.36527000  0.76773000  0.45841000  1.0
  Br  Br59  1  0.63473000  0.73226000  0.95841000  1.0
  Br  Br60  1  0.55743000  0.36673000  0.74919000  1.0
  Br  Br61  1  0.44256000  0.13327000  0.24919000  1.0
  Br  Br62  1  0.44256000  0.63327000  0.25081000  1.0
  Br  Br63  1  0.55743000  0.86672000  0.75081000  1.0
  N  N64  1  0.22155000  0.15657000  0.64776000  1.0
  N  N65  1  0.77844000  0.34343000  0.14775000  1.0
  N  N66  1  0.77845000  0.84343000  0.35224000  1.0
  N  N67  1  0.22155000  0.65657000  0.85225000  1.0
  N  N68  1  0.07201000  0.17411000  0.70060000  1.0
  N  N69  1  0.92798000  0.32589000  0.20059000  1.0
  N  N70  1  0.92798000  0.82589000  0.29940000  1.0
  N  N71  1  0.07202000  0.67411000  0.79941000  1.0
  N  N72  1  0.08624000  0.94879000  0.64287000  1.0
  N  N73  1  0.91375000  0.55121000  0.14286000  1.0
  N  N74  1  0.91375000  0.05121000  0.35713000  1.0
  N  N75  1  0.08627000  0.44879000  0.85714000  1.0
  N  N76  1  0.17230000  0.51850000  0.61841000  1.0
  N  N77  1  0.82769000  0.98151000  0.11841000  1.0
  N  N78  1  0.82769000  0.48150000  0.38158000  1.0
  N  N79  1  0.17233000  0.01850000  0.88159000  1.0
