# generated using pymatgen
data_HoH4C8N2Cl3
_symmetry_space_group_name_H-M   'P 1'
_cell_length_a   10.97220000
_cell_length_b   11.22270000
_cell_length_c   19.09520000
_cell_angle_alpha   106.79000000
_cell_angle_beta   90.00000000
_cell_angle_gamma   90.00000000
_symmetry_Int_Tables_number   1
_chemical_formula_structural   HoH4C8N2Cl3
_chemical_formula_sum   'Ho8 H32 C64 N16 Cl24'
_cell_volume   2251.10142244
_cell_formula_units_Z   8
loop_
 _symmetry_equiv_pos_site_id
 _symmetry_equiv_pos_as_xyz
  1  'x, y, z'
loop_
 _atom_site_type_symbol
 _atom_site_label
 _atom_site_symmetry_multiplicity
 _atom_site_fract_x
 _atom_site_fract_y
 _atom_site_fract_z
 _atom_site_occupancy
  Ho  Ho0  1  0.67566000  0.31011000  0.26202000  1.0
  Ho  Ho1  1  0.17566000  0.18989000  0.73799000  1.0
  Ho  Ho2  1  0.32434000  0.68989000  0.73799000  1.0
  Ho  Ho3  1  0.82434000  0.81011000  0.26201000  1.0
  Ho  Ho4  1  0.01834000  0.44963000  0.23167000  1.0
  Ho  Ho5  1  0.51834000  0.05037000  0.76832000  1.0
  Ho  Ho6  1  0.98166000  0.55037000  0.76832000  1.0
  Ho  Ho7  1  0.48166000  0.94963000  0.23168000  1.0
  H  H8  1  0.36301000  0.64012000  0.18834000  1.0
  H  H9  1  0.86300000  0.85988000  0.81166000  1.0
  H  H10  1  0.63700000  0.35987000  0.81166000  1.0
  H  H11  1  0.13700000  0.14012000  0.18834000  1.0
  H  H12  1  0.28415000  0.65632000  0.32286000  1.0
  H  H13  1  0.78415000  0.84368000  0.67714000  1.0
  H  H14  1  0.71585000  0.34368000  0.67714000  1.0
  H  H15  1  0.21585000  0.15632000  0.32286000  1.0
  H  H16  1  0.20842000  0.72111000  0.12037000  1.0
  H  H17  1  0.70842000  0.77889000  0.87963000  1.0
  H  H18  1  0.79158000  0.27889000  0.87963000  1.0
  H  H19  1  0.29158000  0.22111000  0.12037000  1.0
  H  H20  1  0.17866000  0.84975000  0.39208000  1.0
  H  H21  1  0.67866000  0.65025000  0.60792000  1.0
  H  H22  1  0.82134000  0.15025000  0.60792000  1.0
  H  H23  1  0.32134000  0.34975000  0.39208000  1.0
  H  H24  1  0.26376000  0.97898000  0.51266000  1.0
  H  H25  1  0.76376000  0.52102000  0.48734000  1.0
  H  H26  1  0.73624000  0.02102000  0.48734000  1.0
  H  H27  1  0.23624000  0.47898000  0.51266000  1.0
  H  H28  1  0.56735000  0.72442000  0.48712000  1.0
  H  H29  1  0.06735000  0.77558000  0.51288000  1.0
  H  H30  1  0.43265000  0.27558000  0.51288000  1.0
  H  H31  1  0.93265000  0.22442000  0.48712000  1.0
  H  H32  1  0.14913000  0.59486000  0.99270000  1.0
  H  H33  1  0.64913000  0.90514000  0.00730000  1.0
  H  H34  1  0.85087000  0.40514000  0.00730000  1.0
  H  H35  1  0.35087000  0.09486000  0.99270000  1.0
  H  H36  1  0.41420000  0.31519000  0.00195000  1.0
  H  H37  1  0.91420000  0.18481000  0.99806000  1.0
  H  H38  1  0.58580000  0.68482000  0.99805000  1.0
  H  H39  1  0.08580000  0.81519000  0.00195000  1.0
  C  C40  1  0.48200000  0.75129000  0.46696000  1.0
  C  C41  1  0.98200000  0.74871000  0.53304000  1.0
  C  C42  1  0.51800000  0.24871000  0.53304000  1.0
  C  C43  1  0.01800000  0.25129000  0.46696000  1.0
  C  C44  1  0.48367000  0.42598000  0.14060000  1.0
  C  C45  1  0.98367000  0.07402000  0.85940000  1.0
  C  C46  1  0.51633000  0.57402000  0.85940000  1.0
  C  C47  1  0.01633000  0.92598000  0.14060000  1.0
  C  C48  1  0.27820000  0.44902000  0.99115000  1.0
  C  C49  1  0.77820000  0.05098000  0.00885000  1.0
  C  C50  1  0.72180000  0.55098000  0.00885000  1.0
  C  C51  1  0.22180000  0.94902000  0.99115000  1.0
  C  C52  1  0.46413000  0.92589000  0.57651000  1.0
  C  C53  1  0.96414000  0.57411000  0.42349000  1.0
  C  C54  1  0.53586000  0.07411000  0.42349000  1.0
  C  C55  1  0.03586000  0.42589000  0.57651000  1.0
  C  C56  1  0.24258000  0.37686000  0.92022000  1.0
  C  C57  1  0.74258000  0.12314000  0.07978000  1.0
  C  C58  1  0.75742000  0.62314000  0.07978000  1.0
  C  C59  1  0.25742000  0.87686000  0.92022000  1.0
  C  C60  1  0.32195000  0.71434000  0.37413000  1.0
  C  C61  1  0.82195000  0.78566000  0.62587000  1.0
  C  C62  1  0.67805000  0.28566000  0.62587000  1.0
  C  C63  1  0.17805000  0.21434000  0.37413000  1.0
  C  C64  1  0.41909000  0.85795000  0.50671000  1.0
  C  C65  1  0.91909000  0.64205000  0.49329000  1.0
  C  C66  1  0.58091000  0.14205000  0.49329000  1.0
  C  C67  1  0.08091000  0.35795000  0.50671000  1.0
  C  C68  1  0.49436000  0.57005000  0.36076000  1.0
  C  C69  1  0.99436000  0.92995000  0.63924000  1.0
  C  C70  1  0.50564000  0.42995000  0.63924000  1.0
  C  C71  1  0.00564000  0.07005000  0.36076000  1.0
  C  C72  1  0.39766000  0.47326000  0.09978000  1.0
  C  C73  1  0.89766000  0.02674000  0.90022000  1.0
  C  C74  1  0.60234000  0.52674000  0.90022000  1.0
  C  C75  1  0.10234000  0.97326000  0.09978000  1.0
  C  C76  1  0.33934000  0.58749000  0.13271000  1.0
  C  C77  1  0.83934000  0.91251000  0.86729000  1.0
  C  C78  1  0.66066000  0.41251000  0.86729000  1.0
  C  C79  1  0.16066000  0.08749000  0.13271000  1.0
  C  C80  1  0.43189000  0.67946000  0.40072000  1.0
  C  C81  1  0.93189000  0.82054000  0.59928000  1.0
  C  C82  1  0.56811000  0.32054000  0.59928000  1.0
  C  C83  1  0.06811000  0.17946000  0.40072000  1.0
  C  C84  1  0.36855000  0.40308000  0.02834000  1.0
  C  C85  1  0.86855000  0.09692000  0.97166000  1.0
  C  C86  1  0.63146000  0.59692000  0.97166000  1.0
  C  C87  1  0.13146000  0.90308000  0.02834000  1.0
  C  C88  1  0.30962000  0.89456000  0.48034000  1.0
  C  C89  1  0.80962000  0.60544000  0.51966000  1.0
  C  C90  1  0.69038000  0.10544000  0.51966000  1.0
  C  C91  1  0.19038000  0.39456000  0.48034000  1.0
  C  C92  1  0.21975000  0.56342000  0.02347000  1.0
  C  C93  1  0.71974000  0.93658000  0.97653000  1.0
  C  C94  1  0.78026000  0.43658000  0.97653000  1.0
  C  C95  1  0.28026000  0.06342000  0.02347000  1.0
  C  C96  1  0.25197000  0.63230000  0.09399000  1.0
  C  C97  1  0.75196000  0.86770000  0.90601000  1.0
  C  C98  1  0.74803000  0.36770000  0.90601000  1.0
  C  C99  1  0.24804000  0.13230000  0.09399000  1.0
  C  C100  1  0.26234000  0.82228000  0.41397000  1.0
  C  C101  1  0.76234000  0.67772000  0.58603000  1.0
  C  C102  1  0.73766000  0.17772000  0.58603000  1.0
  C  C103  1  0.23766000  0.32228000  0.41397000  1.0
  N  N104  1  0.54709000  0.48045000  0.32971000  1.0
  N  N105  1  0.04710000  0.01955000  0.67029000  1.0
  N  N106  1  0.45291000  0.51955000  0.67029000  1.0
  N  N107  1  0.95291000  0.98046000  0.32971000  1.0
  N  N108  1  0.50002000  0.97848000  0.63457000  1.0
  N  N109  1  0.00002000  0.52152000  0.36544000  1.0
  N  N110  1  0.49998000  0.02152000  0.36544000  1.0
  N  N111  1  0.99998000  0.47848000  0.63456000  1.0
  N  N112  1  0.21318000  0.31783000  0.86204000  1.0
  N  N113  1  0.71318000  0.18217000  0.13796000  1.0
  N  N114  1  0.78682000  0.68217000  0.13796000  1.0
  N  N115  1  0.28682000  0.81783000  0.86204000  1.0
  N  N116  1  0.55168000  0.38621000  0.17486000  1.0
  N  N117  1  0.05168000  0.11379000  0.82513000  1.0
  N  N118  1  0.44832000  0.61379000  0.82513000  1.0
  N  N119  1  0.94832000  0.88621000  0.17486000  1.0
  Cl  Cl120  1  0.78331000  0.51794000  0.24845000  1.0
  Cl  Cl121  1  0.28331000  0.98206000  0.75155000  1.0
  Cl  Cl122  1  0.21669000  0.48206000  0.75155000  1.0
  Cl  Cl123  1  0.71669000  0.01794000  0.24845000  1.0
  Cl  Cl124  1  0.24025000  0.41525000  0.25150000  1.0
  Cl  Cl125  1  0.74025000  0.08475000  0.74850000  1.0
  Cl  Cl126  1  0.75975000  0.58475000  0.74850000  1.0
  Cl  Cl127  1  0.25975000  0.91525000  0.25150000  1.0
  Cl  Cl128  1  0.71286000  0.31419000  0.39478000  1.0
  Cl  Cl129  1  0.21286000  0.18581000  0.60523000  1.0
  Cl  Cl130  1  0.28714000  0.68581000  0.60522000  1.0
  Cl  Cl131  1  0.78714000  0.81419000  0.39478000  1.0
  Cl  Cl132  1  0.01488000  0.37367000  0.09265000  1.0
  Cl  Cl133  1  0.51488000  0.12633000  0.90735000  1.0
  Cl  Cl134  1  0.98512000  0.62632000  0.90735000  1.0
  Cl  Cl135  1  0.48512000  0.87367000  0.09265000  1.0
  Cl  Cl136  1  0.03923000  0.69122000  0.25148000  1.0
  Cl  Cl137  1  0.53923000  0.80878000  0.74851000  1.0
  Cl  Cl138  1  0.96077000  0.30877000  0.74851000  1.0
  Cl  Cl139  1  0.46077000  0.19122000  0.25149000  1.0
  Cl  Cl140  1  0.92243000  0.24866000  0.25085000  1.0
  Cl  Cl141  1  0.42243000  0.25134000  0.74915000  1.0
  Cl  Cl142  1  0.07757000  0.75134000  0.74915000  1.0
  Cl  Cl143  1  0.57757000  0.74866000  0.25085000  1.0
