# generated using pymatgen
data_MnH3C5N2ClO2
_symmetry_space_group_name_H-M   'P 1'
_cell_length_a   6.83529000
_cell_length_b   15.28923779
_cell_length_c   15.28970000
_cell_angle_alpha   60.00100000
_cell_angle_beta   90.00010000
_cell_angle_gamma   89.99929998
_symmetry_Int_Tables_number   1
_chemical_formula_structural   MnH3C5N2ClO2
_chemical_formula_sum   'Mn6 H18 C30 N12 Cl6 O12'
_cell_volume   1383.81091625
_cell_formula_units_Z   6
loop_
 _symmetry_equiv_pos_site_id
 _symmetry_equiv_pos_as_xyz
  1  'x, y, z'
loop_
 _atom_site_type_symbol
 _atom_site_label
 _atom_site_symmetry_multiplicity
 _atom_site_fract_x
 _atom_site_fract_y
 _atom_site_fract_z
 _atom_site_occupancy
  Mn  Mn0  1  0.50000000  0.62146000  0.37854000  1.0
  Mn  Mn1  1  0.50001000  0.37853000  0.00000000  1.0
  Mn  Mn2  1  0.49999000  0.99999000  0.62147000  1.0
  Mn  Mn3  1  0.50000000  0.37853000  0.62147000  1.0
  Mn  Mn4  1  0.50000000  0.62147000  0.00000000  1.0
  Mn  Mn5  1  0.50000000  0.00001000  0.37852000  1.0
  H  H6  1  0.12401000  0.49197000  0.25401000  1.0
  H  H7  1  0.12399000  0.25401000  0.25402000  1.0
  H  H8  1  0.12399000  0.25402000  0.49196000  1.0
  H  H9  1  0.87602000  0.74599000  0.74598000  1.0
  H  H10  1  0.87600000  0.50804000  0.74598000  1.0
  H  H11  1  0.87600000  0.74599000  0.50803000  1.0
  H  H12  1  0.94708000  0.53112000  0.37580000  1.0
  H  H13  1  0.94708000  0.37580000  0.09306000  1.0
  H  H14  1  0.94708000  0.09307000  0.53113000  1.0
  H  H15  1  0.05293000  0.90693000  0.62420000  1.0
  H  H16  1  0.05291000  0.46887000  0.90693000  1.0
  H  H17  1  0.05292000  0.62420000  0.46887000  1.0
  H  H18  1  0.05292000  0.46887000  0.62421000  1.0
  H  H19  1  0.05292000  0.62421000  0.90692000  1.0
  H  H20  1  0.05292000  0.90693000  0.46887000  1.0
  H  H21  1  0.94708000  0.09307000  0.37579000  1.0
  H  H22  1  0.94708000  0.53114000  0.09307000  1.0
  H  H23  1  0.94707000  0.37579000  0.53114000  1.0
  C  C24  1  0.41325000  0.65093000  0.17454000  1.0
  C  C25  1  0.41324000  0.17455000  0.17451000  1.0
  C  C26  1  0.41324000  0.17453000  0.65093000  1.0
  C  C27  1  0.58677000  0.82548000  0.82546000  1.0
  C  C28  1  0.58676000  0.34907000  0.82547000  1.0
  C  C29  1  0.58675000  0.82545000  0.34908000  1.0
  C  C30  1  0.61699000  0.60460000  0.19770000  1.0
  C  C31  1  0.61698000  0.19769000  0.19770000  1.0
  C  C32  1  0.61698000  0.19769000  0.60461000  1.0
  C  C33  1  0.38302000  0.80231000  0.80230000  1.0
  C  C34  1  0.38301000  0.39539000  0.80230000  1.0
  C  C35  1  0.38302000  0.80230000  0.39540000  1.0
  C  C36  1  0.97715000  0.52352000  0.23824000  1.0
  C  C37  1  0.97717000  0.23824000  0.23823000  1.0
  C  C38  1  0.97715000  0.23824000  0.52352000  1.0
  C  C39  1  0.02285000  0.76176000  0.76176000  1.0
  C  C40  1  0.02284000  0.47648000  0.76176000  1.0
  C  C41  1  0.02285000  0.76176000  0.47648000  1.0
  C  C42  1  0.88030000  0.54530000  0.30512000  1.0
  C  C43  1  0.88026000  0.30511000  0.14957000  1.0
  C  C44  1  0.88027000  0.14958000  0.54530000  1.0
  C  C45  1  0.11973000  0.85043000  0.69488000  1.0
  C  C46  1  0.11972000  0.45469000  0.85042000  1.0
  C  C47  1  0.11973000  0.69488000  0.45469000  1.0
  C  C48  1  0.11973000  0.45469000  0.69489000  1.0
  C  C49  1  0.11973000  0.69489000  0.85042000  1.0
  C  C50  1  0.11973000  0.85043000  0.45469000  1.0
  C  C51  1  0.88026000  0.14957000  0.30511000  1.0
  C  C52  1  0.88030000  0.54531000  0.14958000  1.0
  C  C53  1  0.88027000  0.30512000  0.54531000  1.0
  N  N54  1  0.69962000  0.58546000  0.28490000  1.0
  N  N55  1  0.69965000  0.28490000  0.12964000  1.0
  N  N56  1  0.69964000  0.12963000  0.58547000  1.0
  N  N57  1  0.30037000  0.87036000  0.71510000  1.0
  N  N58  1  0.30036000  0.41455000  0.87035000  1.0
  N  N59  1  0.30037000  0.71510000  0.41454000  1.0
  N  N60  1  0.30036000  0.41454000  0.71510000  1.0
  N  N61  1  0.30036000  0.71510000  0.87037000  1.0
  N  N62  1  0.30037000  0.87036000  0.41455000  1.0
  N  N63  1  0.69964000  0.12963000  0.28491000  1.0
  N  N64  1  0.69962000  0.58546000  0.12964000  1.0
  N  N65  1  0.69962000  0.28490000  0.58546000  1.0
  Cl  Cl66  1  0.70473000  0.53666000  0.53665000  1.0
  Cl  Cl67  1  0.70474000  0.53666000  0.92669000  1.0
  Cl  Cl68  1  0.70473000  0.92669000  0.53665000  1.0
  Cl  Cl69  1  0.29526000  0.07332000  0.46333000  1.0
  Cl  Cl70  1  0.29527000  0.46334000  0.07332000  1.0
  Cl  Cl71  1  0.29526000  0.46334000  0.46334000  1.0
  O  O72  1  0.33709000  0.66724000  0.24046000  1.0
  O  O73  1  0.33708000  0.24046000  0.09230000  1.0
  O  O74  1  0.33708000  0.09230000  0.66724000  1.0
  O  O75  1  0.66291000  0.90769000  0.75954000  1.0
  O  O76  1  0.66293000  0.33277000  0.90769000  1.0
  O  O77  1  0.66292000  0.75954000  0.33276000  1.0
  O  O78  1  0.66292000  0.33277000  0.75954000  1.0
  O  O79  1  0.66292000  0.75955000  0.90769000  1.0
  O  O80  1  0.66293000  0.90769000  0.33277000  1.0
  O  O81  1  0.33706000  0.09230000  0.24046000  1.0
  O  O82  1  0.33709000  0.66724000  0.09231000  1.0
  O  O83  1  0.33708000  0.24046000  0.66724000  1.0
