# generated using pymatgen
data_LaH4C5O9
_symmetry_space_group_name_H-M   'P 1'
_cell_length_a   6.23169000
_cell_length_b   6.67999000
_cell_length_c   23.98380000
_cell_angle_alpha   89.99860000
_cell_angle_beta   91.06770000
_cell_angle_gamma   89.99900000
_symmetry_Int_Tables_number   1
_chemical_formula_structural   LaH4C5O9
_chemical_formula_sum   'La4 H16 C20 O36'
_cell_volume   998.21533259
_cell_formula_units_Z   4
loop_
 _symmetry_equiv_pos_site_id
 _symmetry_equiv_pos_as_xyz
  1  'x, y, z'
loop_
 _atom_site_type_symbol
 _atom_site_label
 _atom_site_symmetry_multiplicity
 _atom_site_fract_x
 _atom_site_fract_y
 _atom_site_fract_z
 _atom_site_occupancy
  La  La0  1  0.39318000  0.95574000  0.13201000  1.0
  La  La1  1  0.60684000  0.45572000  0.36799000  1.0
  La  La2  1  0.60685000  0.04426000  0.86799000  1.0
  La  La3  1  0.39313000  0.54428000  0.63201000  1.0
  H  H4  1  0.07354000  0.93575000  0.30143000  1.0
  H  H5  1  0.19053000  0.92730000  0.41067000  1.0
  H  H6  1  0.94472000  0.09531000  0.12777000  1.0
  H  H7  1  0.02250000  0.16660000  0.07020000  1.0
  H  H8  1  0.92647000  0.43570000  0.19857000  1.0
  H  H9  1  0.80953000  0.42734000  0.08933000  1.0
  H  H10  1  0.05530000  0.59529000  0.37223000  1.0
  H  H11  1  0.97751000  0.66660000  0.42980000  1.0
  H  H12  1  0.92646000  0.06429000  0.69857000  1.0
  H  H13  1  0.80944000  0.07270000  0.58934000  1.0
  H  H14  1  0.05530000  0.90470000  0.87223000  1.0
  H  H15  1  0.97753000  0.83338000  0.92981000  1.0
  H  H16  1  0.07354000  0.56429000  0.80143000  1.0
  H  H17  1  0.19051000  0.57268000  0.91067000  1.0
  H  H18  1  0.94468000  0.40471000  0.62777000  1.0
  H  H19  1  0.02247000  0.33333333  0.57020000  1.0
  C  C20  1  0.37202000  0.79102000  0.26611000  1.0
  C  C21  1  0.17514000  0.92976000  0.26400000  1.0
  C  C22  1  0.25970000  0.07261000  0.39862000  1.0
  C  C23  1  0.11180000  0.23234000  0.37218000  1.0
  C  C24  1  0.39734000  0.93856000  0.99225000  1.0
  C  C25  1  0.62799000  0.29102000  0.23389000  1.0
  C  C26  1  0.82489000  0.42974000  0.23600000  1.0
  C  C27  1  0.74034000  0.57265000  0.10139000  1.0
  C  C28  1  0.88824000  0.73236000  0.12783000  1.0
  C  C29  1  0.60264000  0.43854000  0.50775000  1.0
  C  C30  1  0.62798000  0.20900000  0.73389000  1.0
  C  C31  1  0.82488000  0.07027000  0.73600000  1.0
  C  C32  1  0.74027000  0.92738000  0.60139000  1.0
  C  C33  1  0.88816000  0.76765000  0.62783000  1.0
  C  C34  1  0.60270000  0.06145000  0.00774000  1.0
  C  C35  1  0.37202000  0.70898000  0.76610000  1.0
  C  C36  1  0.17512000  0.57027000  0.76400000  1.0
  C  C37  1  0.25970000  0.42736000  0.89861000  1.0
  C  C38  1  0.11180000  0.26764000  0.87218000  1.0
  C  C39  1  0.39729000  0.56144000  0.49225000  1.0
  O  O40  1  0.45568000  0.75174000  0.21974000  1.0
  O  O41  1  0.43129000  0.73226000  0.31407000  1.0
  O  O42  1  0.13309000  0.02985000  0.22243000  1.0
  O  O43  1  0.44964000  0.11212000  0.40731000  1.0
  O  O44  1  0.20812000  0.38825000  0.35521000  1.0
  O  O45  1  0.91275000  0.20082000  0.37145000  1.0
  O  O46  1  0.37707000  0.88447000  0.94172000  1.0
  O  O47  1  0.26706000  0.90372000  0.03086000  1.0
  O  O48  1  0.06249000  0.17209000  0.10977000  1.0
  O  O49  1  0.54433000  0.25173000  0.28026000  1.0
  O  O50  1  0.56871000  0.23228000  0.18593000  1.0
  O  O51  1  0.86695000  0.52983000  0.27757000  1.0
  O  O52  1  0.55040000  0.61216000  0.09270000  1.0
  O  O53  1  0.79192000  0.88827000  0.14480000  1.0
  O  O54  1  0.08729000  0.70083000  0.12857000  1.0
  O  O55  1  0.62291000  0.38445000  0.55829000  1.0
  O  O56  1  0.73291000  0.40368000  0.46914000  1.0
  O  O57  1  0.93752000  0.67207000  0.39023000  1.0
  O  O58  1  0.54433000  0.24828000  0.78026000  1.0
  O  O59  1  0.56870000  0.26775000  0.68593000  1.0
  O  O60  1  0.86693000  0.97017000  0.77757000  1.0
  O  O61  1  0.55031000  0.88789000  0.59270000  1.0
  O  O62  1  0.79184000  0.61172000  0.64478000  1.0
  O  O63  1  0.08721000  0.79916000  0.62856000  1.0
  O  O64  1  0.62294000  0.11553000  0.05827000  1.0
  O  O65  1  0.73291000  0.09628000  0.96914000  1.0
  O  O66  1  0.93752000  0.82791000  0.89023000  1.0
  O  O67  1  0.45567000  0.74827000  0.71974000  1.0
  O  O68  1  0.43129000  0.76774000  0.81406000  1.0
  O  O69  1  0.13304000  0.47017000  0.72243000  1.0
  O  O70  1  0.44964000  0.38786000  0.90730000  1.0
  O  O71  1  0.20812000  0.11173000  0.85521000  1.0
  O  O72  1  0.91275000  0.29917000  0.87144000  1.0
  O  O73  1  0.37705000  0.61551000  0.44172000  1.0
  O  O74  1  0.26707000  0.59629000  0.53085000  1.0
  O  O75  1  0.06247000  0.32792000  0.60977000  1.0
