# generated using pymatgen
data_Er2Cu3H30C24(NO4)6
_symmetry_space_group_name_H-M   'P 1'
_cell_length_a   13.38854763
_cell_length_b   13.38870000
_cell_length_c   14.25010000
_cell_angle_alpha   89.99900000
_cell_angle_beta   89.99979999
_cell_angle_gamma   119.99912939
_symmetry_Int_Tables_number   1
_chemical_formula_structural   Er2Cu3H30C24(NO4)6
_chemical_formula_sum   'Er4 Cu6 H60 C48 N12 O48'
_cell_volume   2212.19920494
_cell_formula_units_Z   2
loop_
 _symmetry_equiv_pos_site_id
 _symmetry_equiv_pos_as_xyz
  1  'x, y, z'
loop_
 _atom_site_type_symbol
 _atom_site_label
 _atom_site_symmetry_multiplicity
 _atom_site_fract_x
 _atom_site_fract_y
 _atom_site_fract_z
 _atom_site_occupancy
  Er  Er0  1  0.33333333  0.66666667  0.33168000  1.0
  Er  Er1  1  0.66666667  0.33333333  0.16832000  1.0
  Er  Er2  1  0.66666667  0.33333333  0.66833000  1.0
  Er  Er3  1  0.33333333  0.66666667  0.83169000  1.0
  Cu  Cu4  1  0.49999000  1.00000000  0.50000000  1.0
  Cu  Cu5  1  0.50001000  0.50000000  0.49999000  1.0
  Cu  Cu6  1  0.00001000  0.49999000  0.50000000  1.0
  Cu  Cu7  1  0.00000000  0.50001000  0.00000000  1.0
  Cu  Cu8  1  0.50000000  0.50001000  0.00001000  1.0
  Cu  Cu9  1  0.49999000  0.99997000  0.99999000  1.0
  H  H10  1  0.67630000  0.03619000  0.58366000  1.0
  H  H11  1  0.35989000  0.32369000  0.58365000  1.0
  H  H12  1  0.96379000  0.64009000  0.58365000  1.0
  H  H13  1  0.03620000  0.67632000  0.91633000  1.0
  H  H14  1  0.32368000  0.35990000  0.91635000  1.0
  H  H15  1  0.64012000  0.96379000  0.91634000  1.0
  H  H16  1  0.32370000  0.96381000  0.41635000  1.0
  H  H17  1  0.64012000  0.67631000  0.41634000  1.0
  H  H18  1  0.03619000  0.35989000  0.41634000  1.0
  H  H19  1  0.96380000  0.32369000  0.08366000  1.0
  H  H20  1  0.67630000  0.64009000  0.08367000  1.0
  H  H21  1  0.35989000  0.03619000  0.08365000  1.0
  H  H22  1  0.69557000  0.86388000  0.52552000  1.0
  H  H23  1  0.16830000  0.30444000  0.52552000  1.0
  H  H24  1  0.13612000  0.83169000  0.52553000  1.0
  H  H25  1  0.86387000  0.69558000  0.97447000  1.0
  H  H26  1  0.30443000  0.16830000  0.97448000  1.0
  H  H27  1  0.83170000  0.13613000  0.97448000  1.0
  H  H28  1  0.30443000  0.13614000  0.47447000  1.0
  H  H29  1  0.83171000  0.69557000  0.47448000  1.0
  H  H30  1  0.86386000  0.16829000  0.47447000  1.0
  H  H31  1  0.13613000  0.30443000  0.02551000  1.0
  H  H32  1  0.69557000  0.83170000  0.02553000  1.0
  H  H33  1  0.16830000  0.86386000  0.02552000  1.0
  H  H34  1  0.71214000  0.97257000  0.44451000  1.0
  H  H35  1  0.26042000  0.28787000  0.44451000  1.0
  H  H36  1  0.02743000  0.73957000  0.44451000  1.0
  H  H37  1  0.97255000  0.71214000  0.05547000  1.0
  H  H38  1  0.28786000  0.26042000  0.05550000  1.0
  H  H39  1  0.73958000  0.02745000  0.05549000  1.0
  H  H40  1  0.28786000  0.02745000  0.55548000  1.0
  H  H41  1  0.73959000  0.71215000  0.55548000  1.0
  H  H42  1  0.97257000  0.26040000  0.55547000  1.0
  H  H43  1  0.02745000  0.28787000  0.94452000  1.0
  H  H44  1  0.71214000  0.73958000  0.94452000  1.0
  H  H45  1  0.26042000  0.97256000  0.94452000  1.0
  H  H46  1  0.60402000  0.91430000  0.70654000  1.0
  H  H47  1  0.31028000  0.39596000  0.70653000  1.0
  H  H48  1  0.08567000  0.68970000  0.70653000  1.0
  H  H49  1  0.91431000  0.60404000  0.79346000  1.0
  H  H50  1  0.39594000  0.31027000  0.79347000  1.0
  H  H51  1  0.68974000  0.08569000  0.79346000  1.0
  H  H52  1  0.39596000  0.08569000  0.29347000  1.0
  H  H53  1  0.68973000  0.60404000  0.29346000  1.0
  H  H54  1  0.91430000  0.31028000  0.29346000  1.0
  H  H55  1  0.08569000  0.39596000  0.20654000  1.0
  H  H56  1  0.60404000  0.68974000  0.20654000  1.0
  H  H57  1  0.31027000  0.91430000  0.20654000  1.0
  H  H58  1  0.53714000  0.79513000  0.63155000  1.0
  H  H59  1  0.25799000  0.46285000  0.63155000  1.0
  H  H60  1  0.20486000  0.74200000  0.63155000  1.0
  H  H61  1  0.79514000  0.53714000  0.86844000  1.0
  H  H62  1  0.46283000  0.25798000  0.86845000  1.0
  H  H63  1  0.74201000  0.20486000  0.86844000  1.0
  H  H64  1  0.46286000  0.20487000  0.36844000  1.0
  H  H65  1  0.74202000  0.53715000  0.36844000  1.0
  H  H66  1  0.79513000  0.25799000  0.36845000  1.0
  H  H67  1  0.20486000  0.46285000  0.13156000  1.0
  H  H68  1  0.53713000  0.74199000  0.13155000  1.0
  H  H69  1  0.25801000  0.79514000  0.13156000  1.0
  C  C70  1  0.55407000  0.81486000  0.43008000  1.0
  C  C71  1  0.26080000  0.44595000  0.43008000  1.0
  C  C72  1  0.18514000  0.73921000  0.43008000  1.0
  C  C73  1  0.81486000  0.55407000  0.06992000  1.0
  C  C74  1  0.44594000  0.26080000  0.06992000  1.0
  C  C75  1  0.73920000  0.18515000  0.06990000  1.0
  C  C76  1  0.44593000  0.18515000  0.56993000  1.0
  C  C77  1  0.73921000  0.55408000  0.56993000  1.0
  C  C78  1  0.81487000  0.26078000  0.56993000  1.0
  C  C79  1  0.18513000  0.44595000  0.93008000  1.0
  C  C80  1  0.55406000  0.73920000  0.93009000  1.0
  C  C81  1  0.26080000  0.81486000  0.93008000  1.0
  C  C82  1  0.65082000  0.90467000  0.49176000  1.0
  C  C83  1  0.25384000  0.34918000  0.49176000  1.0
  C  C84  1  0.09533000  0.74615000  0.49176000  1.0
  C  C85  1  0.90466000  0.65083000  0.00823000  1.0
  C  C86  1  0.34917000  0.25384000  0.00825000  1.0
  C  C87  1  0.74616000  0.09534000  0.00823000  1.0
  C  C88  1  0.34918000  0.09535000  0.50824000  1.0
  C  C89  1  0.74617000  0.65083000  0.50824000  1.0
  C  C90  1  0.90466000  0.25382000  0.50824000  1.0
  C  C91  1  0.09534000  0.34919000  0.99176000  1.0
  C  C92  1  0.65082000  0.74616000  0.99177000  1.0
  C  C93  1  0.25384000  0.90465000  0.99176000  1.0
  C  C94  1  0.55119000  0.88244000  0.64266000  1.0
  C  C95  1  0.33125000  0.44879000  0.64266000  1.0
  C  C96  1  0.11754000  0.66874000  0.64266000  1.0
  C  C97  1  0.88246000  0.55120000  0.85733000  1.0
  C  C98  1  0.44878000  0.33125000  0.85734000  1.0
  C  C99  1  0.66875000  0.11754000  0.85733000  1.0
  C  C100  1  0.44879000  0.11754000  0.35734000  1.0
  C  C101  1  0.66876000  0.55121000  0.35734000  1.0
  C  C102  1  0.88245000  0.33124000  0.35734000  1.0
  C  C103  1  0.11755000  0.44879000  0.14267000  1.0
  C  C104  1  0.55121000  0.66875000  0.14267000  1.0
  C  C105  1  0.33126000  0.88246000  0.14267000  1.0
  C  C106  1  0.43426000  0.87105000  0.66195000  1.0
  C  C107  1  0.43680000  0.56572000  0.66195000  1.0
  C  C108  1  0.12894000  0.56321000  0.66194000  1.0
  C  C109  1  0.87108000  0.43428000  0.83804000  1.0
  C  C110  1  0.56571000  0.43679000  0.83805000  1.0
  C  C111  1  0.56320000  0.12891000  0.83804000  1.0
  C  C112  1  0.56572000  0.12893000  0.33804000  1.0
  C  C113  1  0.56322000  0.43428000  0.33805000  1.0
  C  C114  1  0.87107000  0.43679000  0.33805000  1.0
  C  C115  1  0.12893000  0.56571000  0.16195000  1.0
  C  C116  1  0.43429000  0.56320000  0.16197000  1.0
  C  C117  1  0.43681000  0.87109000  0.16196000  1.0
  N  N118  1  0.60970000  0.95682000  0.56111000  1.0
  N  N119  1  0.34711000  0.39030000  0.56110000  1.0
  N  N120  1  0.04318000  0.65288000  0.56110000  1.0
  N  N121  1  0.95682000  0.60972000  0.93889000  1.0
  N  N122  1  0.39028000  0.34711000  0.93890000  1.0
  N  N123  1  0.65290000  0.04318000  0.93889000  1.0
  N  N124  1  0.39030000  0.04320000  0.43890000  1.0
  N  N125  1  0.65291000  0.60972000  0.43889000  1.0
  N  N126  1  0.95681000  0.34710000  0.43889000  1.0
  N  N127  1  0.04318000  0.39029000  0.06111000  1.0
  N  N128  1  0.60971000  0.65289000  0.06111000  1.0
  N  N129  1  0.34711000  0.95681000  0.06111000  1.0
  O  O130  1  0.45457000  0.80621000  0.43694000  1.0
  O  O131  1  0.35166000  0.54544000  0.43694000  1.0
  O  O132  1  0.19381000  0.64837000  0.43694000  1.0
  O  O133  1  0.80622000  0.45457000  0.06305000  1.0
  O  O134  1  0.54544000  0.35165000  0.06306000  1.0
  O  O135  1  0.64837000  0.19383000  0.06301000  1.0
  O  O136  1  0.54543000  0.19381000  0.56306000  1.0
  O  O137  1  0.64836000  0.45457000  0.56307000  1.0
  O  O138  1  0.80622000  0.35163000  0.56309000  1.0
  O  O139  1  0.19377000  0.54544000  0.93696000  1.0
  O  O140  1  0.45456000  0.64835000  0.93696000  1.0
  O  O141  1  0.35165000  0.80620000  0.93694000  1.0
  O  O142  1  0.57576000  0.75501000  0.37438000  1.0
  O  O143  1  0.17925000  0.42430000  0.37439000  1.0
  O  O144  1  0.24502000  0.82077000  0.37438000  1.0
  O  O145  1  0.75498000  0.57573000  0.12562000  1.0
  O  O146  1  0.42428000  0.17925000  0.12562000  1.0
  O  O147  1  0.82072000  0.24501000  0.12562000  1.0
  O  O148  1  0.42423000  0.24500000  0.62564000  1.0
  O  O149  1  0.82074000  0.57575000  0.62564000  1.0
  O  O150  1  0.75500000  0.17922000  0.62563000  1.0
  O  O151  1  0.24502000  0.42431000  0.87436000  1.0
  O  O152  1  0.57572000  0.82073000  0.87438000  1.0
  O  O153  1  0.17925000  0.75499000  0.87438000  1.0
  O  O154  1  0.39732000  0.92084000  0.60698000  1.0
  O  O155  1  0.52351000  0.60268000  0.60696000  1.0
  O  O156  1  0.07920000  0.47649000  0.60695000  1.0
  O  O157  1  0.92083000  0.39733000  0.89305000  1.0
  O  O158  1  0.60265000  0.52350000  0.89303000  1.0
  O  O159  1  0.47647000  0.07910000  0.89300000  1.0
  O  O160  1  0.60267000  0.07917000  0.39304000  1.0
  O  O161  1  0.47650000  0.39733000  0.39303000  1.0
  O  O162  1  0.92082000  0.52350000  0.39304000  1.0
  O  O163  1  0.07917000  0.60267000  0.10697000  1.0
  O  O164  1  0.39734000  0.47648000  0.10699000  1.0
  O  O165  1  0.52353000  0.92087000  0.10698000  1.0
  O  O166  1  0.37651000  0.81144000  0.73126000  1.0
  O  O167  1  0.43495000  0.62345000  0.73127000  1.0
  O  O168  1  0.18850000  0.56504000  0.73127000  1.0
  O  O169  1  0.81152000  0.37656000  0.76872000  1.0
  O  O170  1  0.62345000  0.43494000  0.76873000  1.0
  O  O171  1  0.56506000  0.18853000  0.76874000  1.0
  O  O172  1  0.62346000  0.18851000  0.26873000  1.0
  O  O173  1  0.56506000  0.37653000  0.26874000  1.0
  O  O174  1  0.81149000  0.43496000  0.26873000  1.0
  O  O175  1  0.18851000  0.62345000  0.23127000  1.0
  O  O176  1  0.37655000  0.56505000  0.23128000  1.0
  O  O177  1  0.43496000  0.81150000  0.23127000  1.0
