# generated using pymatgen
data_CdH14C8S2N6O
_symmetry_space_group_name_H-M   'P 1'
_cell_length_a   6.02946000
_cell_length_b   9.79118542
_cell_length_c   12.45590000
_cell_angle_alpha   67.91433848
_cell_angle_beta   79.02300000
_cell_angle_gamma   72.65105550
_symmetry_Int_Tables_number   1
_chemical_formula_structural   CdH14C8S2N6O
_chemical_formula_sum   'Cd2 H28 C16 S4 N12 O2'
_cell_volume   647.83170501
_cell_formula_units_Z   2
loop_
 _symmetry_equiv_pos_site_id
 _symmetry_equiv_pos_as_xyz
  1  'x, y, z'
loop_
 _atom_site_type_symbol
 _atom_site_label
 _atom_site_symmetry_multiplicity
 _atom_site_fract_x
 _atom_site_fract_y
 _atom_site_fract_z
 _atom_site_occupancy
  Cd  Cd0  1  0.88358000  0.68997000  0.20103000  1.0
  Cd  Cd1  1  0.11640000  0.31004000  0.79897000  1.0
  H  H2  1  0.70530000  0.94328000  0.00033000  1.0
  H  H3  1  0.29490000  0.05669000  0.99964000  1.0
  H  H4  1  0.76942000  0.04019000  0.05955000  1.0
  H  H5  1  0.23062000  0.95983000  0.94043000  1.0
  H  H6  1  0.83198000  0.38904000  0.16708000  1.0
  H  H7  1  0.16802000  0.61097000  0.83292000  1.0
  H  H8  1  0.11502000  0.41174000  0.10147000  1.0
  H  H9  1  0.88498000  0.58827000  0.89853000  1.0
  H  H10  1  0.38749000  0.42466000  0.21494000  1.0
  H  H11  1  0.61252000  0.57533000  0.78506000  1.0
  H  H12  1  0.30351000  0.41476000  0.36305000  1.0
  H  H13  1  0.69648000  0.58524000  0.63695000  1.0
  H  H14  1  0.92134000  0.38387000  0.45048000  1.0
  H  H15  1  0.07865000  0.61612000  0.54951000  1.0
  H  H16  1  0.71855000  0.37488000  0.36748000  1.0
  H  H17  1  0.28147000  0.62512000  0.63253000  1.0
  H  H18  1  0.45198000  0.20634000  0.16200000  1.0
  H  H19  1  0.54802000  0.79366000  0.83799000  1.0
  H  H20  1  0.41893000  0.02925000  0.26958000  1.0
  H  H21  1  0.58105000  0.97075000  0.73042000  1.0
  H  H22  1  0.30220000  0.01274000  0.46654000  1.0
  H  H23  1  0.69778000  0.98726000  0.53345000  1.0
  H  H24  1  0.25608000  0.17516000  0.50929000  1.0
  H  H25  1  0.74392000  0.82483000  0.49071000  1.0
  H  H26  1  0.78505000  0.15322000  0.31273000  1.0
  H  H27  1  0.21493000  0.84679000  0.68727000  1.0
  H  H28  1  0.03807000  0.99951000  0.35664000  1.0
  H  H29  1  0.96192000  0.00050000  0.64336000  1.0
  C  C30  1  0.01658000  0.35723000  0.18234000  1.0
  C  C31  1  0.98340000  0.64276000  0.81767000  1.0
  C  C32  1  0.28734000  0.37191000  0.29571000  1.0
  C  C33  1  0.71265000  0.62808000  0.70431000  1.0
  C  C34  1  0.90346000  0.34220000  0.38272000  1.0
  C  C35  1  0.09652000  0.65780000  0.61729000  1.0
  C  C36  1  0.35046000  0.15328000  0.24189000  1.0
  C  C37  1  0.64952000  0.84672000  0.75812000  1.0
  C  C38  1  0.23745000  0.13700000  0.43974000  1.0
  C  C39  1  0.76253000  0.86300000  0.56026000  1.0
  C  C40  1  0.97028000  0.12361000  0.32738000  1.0
  C  C41  1  0.02969000  0.87640000  0.67262000  1.0
  C  C42  1  0.31021000  0.72852000  0.32223000  1.0
  C  C43  1  0.68978000  0.27148000  0.67777000  1.0
  C  C44  1  0.45276000  0.68135000  0.06146000  1.0
  C  C45  1  0.54725000  0.31864000  0.93855000  1.0
  S  S46  1  0.54769000  0.71047000  0.37636000  1.0
  S  S47  1  0.45231000  0.28953000  0.62364000  1.0
  S  S48  1  0.21122000  0.71385000  0.00445000  1.0
  S  S49  1  0.78878000  0.28613000  0.99557000  1.0
  N  N50  1  0.03607000  0.41937000  0.27258000  1.0
  N  N51  1  0.96394000  0.58063000  0.72742000  1.0
  N  N52  1  0.10510000  0.19239000  0.21818000  1.0
  N  N53  1  0.89490000  0.80761000  0.78182000  1.0
  N  N54  1  0.37784000  0.20703000  0.33351000  1.0
  N  N55  1  0.62216000  0.79297000  0.66650000  1.0
  N  N56  1  0.98939000  0.17736000  0.42060000  1.0
  N  N57  1  0.01062000  0.82263000  0.57940000  1.0
  N  N58  1  0.13222000  0.74431000  0.28675000  1.0
  N  N59  1  0.86776000  0.25568000  0.71326000  1.0
  N  N60  1  0.63244000  0.65861000  0.09790000  1.0
  N  N61  1  0.36759000  0.34138000  0.90210000  1.0
  O  O62  1  0.71110000  0.94921000  0.07628000  1.0
  O  O63  1  0.28886000  0.05083000  0.92368000  1.0
