# generated using pymatgen
data_Li4H10C8O13
_symmetry_space_group_name_H-M   'P 1'
_cell_length_a   5.46448000
_cell_length_b   5.46452000
_cell_length_c   24.43470000
_cell_angle_alpha   90.00010000
_cell_angle_beta   90.00010000
_cell_angle_gamma   61.52200000
_symmetry_Int_Tables_number   1
_chemical_formula_structural   Li4H10C8O13
_chemical_formula_sum   'Li8 H20 C16 O26'
_cell_volume   641.35262593
_cell_formula_units_Z   2
loop_
 _symmetry_equiv_pos_site_id
 _symmetry_equiv_pos_as_xyz
  1  'x, y, z'
loop_
 _atom_site_type_symbol
 _atom_site_label
 _atom_site_symmetry_multiplicity
 _atom_site_fract_x
 _atom_site_fract_y
 _atom_site_fract_z
 _atom_site_occupancy
  Li  Li0  1  0.62936000  0.93981000  0.80420000  1.0
  Li  Li1  1  0.37064000  0.06018000  0.30420000  1.0
  Li  Li2  1  0.06018000  0.37064000  0.19580000  1.0
  Li  Li3  1  0.93981000  0.62936000  0.69580000  1.0
  Li  Li4  1  0.96806000  0.46733000  0.96698000  1.0
  Li  Li5  1  0.03194000  0.53268000  0.46698000  1.0
  Li  Li6  1  0.53268000  0.03195000  0.03302000  1.0
  Li  Li7  1  0.46732000  0.96806000  0.53302000  1.0
  H  H8  1  0.71175000  0.47358000  0.76938000  1.0
  H  H9  1  0.28825000  0.52641000  0.26938000  1.0
  H  H10  1  0.52642000  0.28824000  0.23062000  1.0
  H  H11  1  0.47358000  0.71175000  0.73062000  1.0
  H  H12  1  0.06880000  0.46746000  0.83499000  1.0
  H  H13  1  0.93119000  0.53254000  0.33499000  1.0
  H  H14  1  0.53255000  0.93119000  0.16501000  1.0
  H  H15  1  0.46745000  0.06881000  0.66501000  1.0
  H  H16  1  0.47966000  0.41253000  0.93853000  1.0
  H  H17  1  0.52035000  0.58748000  0.43853000  1.0
  H  H18  1  0.58749000  0.52034000  0.06147000  1.0
  H  H19  1  0.41251000  0.47966000  0.56147000  1.0
  H  H20  1  0.36398000  0.62274000  0.83937000  1.0
  H  H21  1  0.63601000  0.37726000  0.33937000  1.0
  H  H22  1  0.37726000  0.63601000  0.16063000  1.0
  H  H23  1  0.62273000  0.36399000  0.66063000  1.0
  H  H24  1  0.32411000  0.87201000  0.92617000  1.0
  H  H25  1  0.67590000  0.12798000  0.42617000  1.0
  H  H26  1  0.12799000  0.67590000  0.07383000  1.0
  H  H27  1  0.87201000  0.32410000  0.57383000  1.0
  C  C28  1  0.89333000  0.98846000  0.94096000  1.0
  C  C29  1  0.10668000  0.01154000  0.44097000  1.0
  C  C30  1  0.01155000  0.10667000  0.05903000  1.0
  C  C31  1  0.98845000  0.89333000  0.55904000  1.0
  C  C32  1  0.06357000  0.05010000  0.82549000  1.0
  C  C33  1  0.93642000  0.94991000  0.32549000  1.0
  C  C34  1  0.94990000  0.93642000  0.17451000  1.0
  C  C35  1  0.05010000  0.06357000  0.67451000  1.0
  C  C36  1  0.15392000  0.77126000  0.85406000  1.0
  C  C37  1  0.84608000  0.22874000  0.35406000  1.0
  C  C38  1  0.22874000  0.84608000  0.14594000  1.0
  C  C39  1  0.77125000  0.15393000  0.64594000  1.0
  C  C40  1  0.17884000  0.79024000  0.91727000  1.0
  C  C41  1  0.82116000  0.20976000  0.41727000  1.0
  C  C42  1  0.20976000  0.82116000  0.08273000  1.0
  C  C43  1  0.79023000  0.17884000  0.58273000  1.0
  O  O44  1  0.82211000  0.17134000  0.80432000  1.0
  O  O45  1  0.17788000  0.82865000  0.30432000  1.0
  O  O46  1  0.82866000  0.17788000  0.19568000  1.0
  O  O47  1  0.17135000  0.82212000  0.69568000  1.0
  O  O48  1  0.65459000  0.65459000  0.75000000  1.0
  O  O49  1  0.34541000  0.34540000  0.25000000  1.0
  O  O50  1  0.23865000  0.14223000  0.82527000  1.0
  O  O51  1  0.76134000  0.85776000  0.32527000  1.0
  O  O52  1  0.85777000  0.76134000  0.17473000  1.0
  O  O53  1  0.14224000  0.23866000  0.67473000  1.0
  O  O54  1  0.96178000  0.67434000  0.84198000  1.0
  O  O55  1  0.03822000  0.32566000  0.34198000  1.0
  O  O56  1  0.32567000  0.03821000  0.15802000  1.0
  O  O57  1  0.67434000  0.96178000  0.65802000  1.0
  O  O58  1  0.26930000  0.52394000  0.94073000  1.0
  O  O59  1  0.73070000  0.47606000  0.44073000  1.0
  O  O60  1  0.47607000  0.73069000  0.05927000  1.0
  O  O61  1  0.52394000  0.26931000  0.55927000  1.0
  O  O62  1  0.80605000  0.24792000  0.93350000  1.0
  O  O63  1  0.19396000  0.75209000  0.43350000  1.0
  O  O64  1  0.75209000  0.19396000  0.06650000  1.0
  O  O65  1  0.24790000  0.80605000  0.56650000  1.0
  O  O66  1  0.75973000  0.88447000  0.96561000  1.0
  O  O67  1  0.24028000  0.11554000  0.46561000  1.0
  O  O68  1  0.11554000  0.24029000  0.03439000  1.0
  O  O69  1  0.88445000  0.75972000  0.53440000  1.0
