# generated using pymatgen
data_HgH2C3SN4
_symmetry_space_group_name_H-M   'P 1'
_cell_length_a   8.25538000
_cell_length_b   9.09343000
_cell_length_c   9.17752000
_cell_angle_alpha   90.00000000
_cell_angle_beta   110.24000000
_cell_angle_gamma   89.99920000
_symmetry_Int_Tables_number   1
_chemical_formula_structural   HgH2C3SN4
_chemical_formula_sum   'Hg4 H8 C12 S4 N16'
_cell_volume   646.41214950
_cell_formula_units_Z   4
loop_
 _symmetry_equiv_pos_site_id
 _symmetry_equiv_pos_as_xyz
  1  'x, y, z'
loop_
 _atom_site_type_symbol
 _atom_site_label
 _atom_site_symmetry_multiplicity
 _atom_site_fract_x
 _atom_site_fract_y
 _atom_site_fract_z
 _atom_site_occupancy
  Hg  Hg0  1  0.25069000  0.97181000  0.19432000  1.0
  Hg  Hg1  1  0.74931000  0.47181000  0.30568000  1.0
  Hg  Hg2  1  0.74931000  0.02819000  0.80568000  1.0
  Hg  Hg3  1  0.25068000  0.52819000  0.69432000  1.0
  H  H4  1  0.62535000  0.74446000  0.98773000  1.0
  H  H5  1  0.37466000  0.24446000  0.51227000  1.0
  H  H6  1  0.37466000  0.25554000  0.01227000  1.0
  H  H7  1  0.62534000  0.75554000  0.48773000  1.0
  H  H8  1  0.11414000  0.67020000  0.32612000  1.0
  H  H9  1  0.88587000  0.17020000  0.17389000  1.0
  H  H10  1  0.88587000  0.32981000  0.67389000  1.0
  H  H11  1  0.11413000  0.82980000  0.82611000  1.0
  C  C12  1  0.76105000  0.75363000  0.05780000  1.0
  C  C13  1  0.23896000  0.25363000  0.44220000  1.0
  C  C14  1  0.23895000  0.24637000  0.94220000  1.0
  C  C15  1  0.76104000  0.74637000  0.55780000  1.0
  C  C16  1  0.00796000  0.71379000  0.22927000  1.0
  C  C17  1  0.99205000  0.21379000  0.27074000  1.0
  C  C18  1  0.99204000  0.28621000  0.77073000  1.0
  C  C19  1  0.00795000  0.78621000  0.72926000  1.0
  C  C20  1  0.61237000  0.09920000  0.38397000  1.0
  C  C21  1  0.38762000  0.59922000  0.11603000  1.0
  C  C22  1  0.38763000  0.90080000  0.61604000  1.0
  C  C23  1  0.61237000  0.40079000  0.88397000  1.0
  S  S24  1  0.55552000  0.99244000  0.22773000  1.0
  S  S25  1  0.44449000  0.49245000  0.27227000  1.0
  S  S26  1  0.44449000  0.00756000  0.77228000  1.0
  S  S27  1  0.55551000  0.50755000  0.72773000  1.0
  N  N28  1  0.02216000  0.83265000  0.14922000  1.0
  N  N29  1  0.97784000  0.33265000  0.35079000  1.0
  N  N30  1  0.97784000  0.16735000  0.85079000  1.0
  N  N31  1  0.02216000  0.66735000  0.64921000  1.0
  N  N32  1  0.86373000  0.85928000  0.03901000  1.0
  N  N33  1  0.13628000  0.35928000  0.46099000  1.0
  N  N34  1  0.13628000  0.14072000  0.96099000  1.0
  N  N35  1  0.86372000  0.64071000  0.53901000  1.0
  N  N36  1  0.84573000  0.66054000  0.17505000  1.0
  N  N37  1  0.15428000  0.16054000  0.32495000  1.0
  N  N38  1  0.15428000  0.33946000  0.82495000  1.0
  N  N39  1  0.84572000  0.83946000  0.67505000  1.0
  N  N40  1  0.65863000  0.17472000  0.49536000  1.0
  N  N41  1  0.34138000  0.67473000  0.00464000  1.0
  N  N42  1  0.34138000  0.82528000  0.50465000  1.0
  N  N43  1  0.65862000  0.32527000  0.99536000  1.0
