# generated using pymatgen
data_Cd3H30C44(NO2)8
_symmetry_space_group_name_H-M   'P 1'
_cell_length_a   7.59707000
_cell_length_b   9.68353000
_cell_length_c   15.09730000
_cell_angle_alpha   74.30240000
_cell_angle_beta   79.62740000
_cell_angle_gamma   82.67470000
_symmetry_Int_Tables_number   1
_chemical_formula_structural   Cd3H30C44(NO2)8
_chemical_formula_sum   'Cd3 H30 C44 N8 O16'
_cell_volume   1048.11049582
_cell_formula_units_Z   1
loop_
 _symmetry_equiv_pos_site_id
 _symmetry_equiv_pos_as_xyz
  1  'x, y, z'
loop_
 _atom_site_type_symbol
 _atom_site_label
 _atom_site_symmetry_multiplicity
 _atom_site_fract_x
 _atom_site_fract_y
 _atom_site_fract_z
 _atom_site_occupancy
  Cd  Cd0  1  0.50000000  0.50000000  0.00000000  1.0
  Cd  Cd1  1  0.85196000  0.45076000  0.24672000  1.0
  Cd  Cd2  1  0.14804000  0.54924000  0.75327000  1.0
  H  H3  1  0.03657000  0.89624000  0.05506000  1.0
  H  H4  1  0.96343000  0.10376000  0.94494000  1.0
  H  H5  1  0.78601000  0.41459000  0.67261000  1.0
  H  H6  1  0.21399000  0.58541000  0.32739000  1.0
  H  H7  1  0.63783000  0.61346000  0.39908000  1.0
  H  H8  1  0.36217000  0.38654000  0.60091000  1.0
  H  H9  1  0.59998000  0.60533000  0.57027000  1.0
  H  H10  1  0.40002000  0.39467000  0.42973000  1.0
  H  H11  1  0.61671000  0.90182000  0.15836000  1.0
  H  H12  1  0.38329000  0.09819000  0.84164000  1.0
  H  H13  1  0.35952000  0.94637000  0.46334000  1.0
  H  H14  1  0.64047000  0.05362000  0.53666000  1.0
  H  H15  1  0.13715000  0.16236000  0.21290000  1.0
  H  H16  1  0.86285000  0.83764000  0.78710000  1.0
  H  H17  1  0.15152000  0.13082000  0.04619000  1.0
  H  H18  1  0.84848000  0.86918000  0.95380000  1.0
  H  H19  1  0.34533000  0.96697000  0.29537000  1.0
  H  H20  1  0.65467000  0.03303000  0.70463000  1.0
  H  H21  1  0.33901000  0.95652000  0.62989000  1.0
  H  H22  1  0.66099000  0.04348000  0.37011000  1.0
  H  H23  1  0.22143000  0.02224000  0.77988000  1.0
  H  H24  1  0.77857000  0.97776000  0.22012000  1.0
  H  H25  1  0.88775000  0.36330000  0.06914000  1.0
  H  H26  1  0.11225000  0.63670000  0.93086000  1.0
  H  H27  1  0.05989000  0.42433000  0.08486000  1.0
  H  H28  1  0.94011000  0.57567000  0.91514000  1.0
  H  H29  1  0.61461000  0.24528000  0.22589000  1.0
  H  H30  1  0.38539000  0.75472000  0.77412000  1.0
  H  H31  1  0.77982000  0.19686000  0.27627000  1.0
  H  H32  1  0.22017000  0.80314000  0.72373000  1.0
  C  C33  1  0.39177000  0.03240000  0.10230000  1.0
  C  C34  1  0.60823000  0.96760000  0.89770000  1.0
  C  C35  1  0.16544000  0.89814000  0.07660000  1.0
  C  C36  1  0.83456000  0.10186000  0.92340000  1.0
  C  C37  1  0.54626000  0.63634000  0.17235000  1.0
  C  C38  1  0.45374000  0.36366000  0.82765000  1.0
  C  C39  1  0.18178000  0.62890000  0.12052000  1.0
  C  C40  1  0.81823000  0.37109000  0.87948000  1.0
  C  C41  1  0.04156000  0.23147000  0.41855000  1.0
  C  C42  1  0.95844000  0.76853000  0.58145000  1.0
  C  C43  1  0.16062000  0.12699000  0.47020000  1.0
  C  C44  1  0.83938000  0.87301000  0.52980000  1.0
  C  C45  1  0.42770000  0.76987000  0.14021000  1.0
  C  C46  1  0.57230000  0.23013000  0.85979000  1.0
  C  C47  1  0.79091000  0.42042000  0.59894000  1.0
  C  C48  1  0.20909000  0.57959000  0.40106000  1.0
  C  C49  1  0.71087000  0.53073000  0.44701000  1.0
  C  C50  1  0.28913000  0.46927000  0.55299000  1.0
  C  C51  1  0.69108000  0.52569000  0.54221000  1.0
  C  C52  1  0.30892000  0.47432000  0.45779000  1.0
  C  C53  1  0.48841000  0.90202000  0.13623000  1.0
  C  C54  1  0.51159000  0.09799000  0.86377000  1.0
  C  C55  1  0.27179000  0.03062000  0.42477000  1.0
  C  C56  1  0.72821000  0.96938000  0.57523000  1.0
  C  C57  1  0.14638000  0.14878000  0.28602000  1.0
  C  C58  1  0.85362000  0.85122000  0.71398000  1.0
  C  C59  1  0.22867000  0.02925000  0.07194000  1.0
  C  C60  1  0.77133000  0.97075000  0.92806000  1.0
  C  C61  1  0.46327000  0.17199000  0.10010000  1.0
  C  C62  1  0.53673000  0.82801000  0.89990000  1.0
  C  C63  1  0.26415000  0.04074000  0.33252000  1.0
  C  C64  1  0.73585000  0.95926000  0.66748000  1.0
  C  C65  1  0.91951000  0.33136000  0.46266000  1.0
  C  C66  1  0.08050000  0.66864000  0.53734000  1.0
  C  C67  1  0.02681000  0.21370000  0.61021000  1.0
  C  C68  1  0.97319000  0.78631000  0.38979000  1.0
  C  C69  1  0.15150000  0.12541000  0.56525000  1.0
  C  C70  1  0.84850000  0.87459000  0.43475000  1.0
  C  C71  1  0.17247000  0.07850000  0.71503000  1.0
  C  C72  1  0.82754000  0.92150000  0.28497000  1.0
  C  C73  1  0.26346000  0.76744000  0.11034000  1.0
  C  C74  1  0.73654000  0.23256000  0.88966000  1.0
  C  C75  1  0.90932000  0.32094000  0.55937000  1.0
  C  C76  1  0.09069000  0.67906000  0.44063000  1.0
  N  N77  1  0.81991000  0.43619000  0.40892000  1.0
  N  N78  1  0.18010000  0.56381000  0.59108000  1.0
  N  N79  1  0.03881000  0.23988000  0.32785000  1.0
  N  N80  1  0.96119000  0.76012000  0.67215000  1.0
  N  N81  1  0.24606000  0.04182000  0.63325000  1.0
  N  N82  1  0.75394000  0.95818000  0.36675000  1.0
  N  N83  1  0.04118000  0.18212000  0.70334000  1.0
  N  N84  1  0.95882000  0.81788000  0.29666000  1.0
  O  O85  1  0.54261000  0.52508000  0.14374000  1.0
  O  O86  1  0.45739000  0.47492000  0.85626000  1.0
  O  O87  1  0.66236000  0.25038000  0.28320000  1.0
  O  O88  1  0.33764000  0.74962000  0.71680000  1.0
  O  O89  1  0.96385000  0.35867000  0.11655000  1.0
  O  O90  1  0.03615000  0.64132000  0.88345000  1.0
  O  O91  1  0.38494000  0.28664000  0.05382000  1.0
  O  O92  1  0.61505000  0.71337000  0.94618000  1.0
  O  O93  1  0.65173000  0.64260000  0.22848000  1.0
  O  O94  1  0.34828000  0.35740000  0.77151000  1.0
  O  O95  1  0.59212000  0.16591000  0.14428000  1.0
  O  O96  1  0.40787000  0.83409000  0.85572000  1.0
  O  O97  1  0.18379000  0.58380000  0.04769000  1.0
  O  O98  1  0.81620000  0.41620000  0.95231000  1.0
  O  O99  1  0.11098000  0.56764000  0.20167000  1.0
  O  O100  1  0.88903000  0.43236000  0.79833000  1.0
