# generated using pymatgen
data_Zn4H48C54O13
_symmetry_space_group_name_H-M   'P 1'
_cell_length_a   22.83550000
_cell_length_b   22.83550000
_cell_length_c   25.31430000
_cell_angle_alpha   63.19040000
_cell_angle_beta   63.19040000
_cell_angle_gamma   60.00220000
_symmetry_Int_Tables_number   1
_chemical_formula_structural   Zn4H48C54O13
_chemical_formula_sum   'Zn16 H192 C216 O52'
_cell_volume   9759.31908719
_cell_formula_units_Z   4
loop_
 _symmetry_equiv_pos_site_id
 _symmetry_equiv_pos_as_xyz
  1  'x, y, z'
loop_
 _atom_site_type_symbol
 _atom_site_label
 _atom_site_symmetry_multiplicity
 _atom_site_fract_x
 _atom_site_fract_y
 _atom_site_fract_z
 _atom_site_occupancy
  Zn  Zn0  1  0.17851000  0.02452000  0.74433000  1.0
  Zn  Zn1  1  0.02447000  0.05267000  0.74437000  1.0
  Zn  Zn2  1  0.05262000  0.17854000  0.74436000  1.0
  Zn  Zn3  1  0.67854000  0.55262000  0.24436000  1.0
  Zn  Zn4  1  0.52452000  0.67851000  0.24433000  1.0
  Zn  Zn5  1  0.55267000  0.52447000  0.24437000  1.0
  Zn  Zn6  1  0.04631000  0.04635000  0.86106000  1.0
  Zn  Zn7  1  0.54635000  0.54631000  0.36106000  1.0
  Zn  Zn8  1  0.32146000  0.44738000  0.75564000  1.0
  Zn  Zn9  1  0.47548000  0.32149000  0.75567000  1.0
  Zn  Zn10  1  0.44733000  0.47553000  0.75563000  1.0
  Zn  Zn11  1  0.82149000  0.97548000  0.25567000  1.0
  Zn  Zn12  1  0.97553000  0.94733000  0.25563000  1.0
  Zn  Zn13  1  0.94738000  0.82146000  0.25564000  1.0
  Zn  Zn14  1  0.45365000  0.45369000  0.63894000  1.0
  Zn  Zn15  1  0.95368000  0.95365000  0.13894000  1.0
  H  H16  1  0.32403000  0.87694000  0.84756000  1.0
  H  H17  1  0.13029000  0.88178000  0.99410000  1.0
  H  H18  1  0.44140000  0.74211000  0.94343000  1.0
  H  H19  1  0.43011000  0.83065000  0.92491000  1.0
  H  H20  1  0.43572000  0.80104000  0.86827000  1.0
  H  H21  1  0.13060000  0.83730000  0.09993000  1.0
  H  H22  1  0.21034000  0.79715000  0.12034000  1.0
  H  H23  1  0.18410000  0.74682000  0.10513000  1.0
  H  H24  1  0.39703000  0.79781000  0.12979000  1.0
  H  H25  1  0.42992000  0.59606000  0.12900000  1.0
  H  H26  1  0.33932000  0.90070000  0.99780000  1.0
  H  H27  1  0.26079000  0.90197000  0.05876000  1.0
  H  H28  1  0.33106000  0.90473000  0.06956000  1.0
  H  H29  1  0.39710000  0.63788000  0.00144000  1.0
  H  H30  1  0.36513000  0.58965000  0.07878000  1.0
  H  H31  1  0.30584000  0.66784000  0.04008000  1.0
  H  H32  1  0.87694000  0.95143000  0.84759000  1.0
  H  H33  1  0.88179000  0.99389000  0.99407000  1.0
  H  H34  1  0.74212000  0.87299000  0.94353000  1.0
  H  H35  1  0.83064000  0.81426000  0.92502000  1.0
  H  H36  1  0.80105000  0.89486000  0.86835000  1.0
  H  H37  1  0.83730000  0.93227000  0.09993000  1.0
  H  H38  1  0.79718000  0.87224000  0.12036000  1.0
  H  H39  1  0.74683000  0.96401000  0.10510000  1.0
  H  H40  1  0.79808000  0.67525000  0.12978000  1.0
  H  H41  1  0.59624000  0.84478000  0.12912000  1.0
  H  H42  1  0.90080000  0.76222000  0.99778000  1.0
  H  H43  1  0.90210000  0.77851000  0.05874000  1.0
  H  H44  1  0.90490000  0.69467000  0.06953000  1.0
  H  H45  1  0.63794000  0.96338000  0.00153000  1.0
  H  H46  1  0.58970000  0.96631000  0.07885000  1.0
  H  H47  1  0.66785000  0.98617000  0.04011000  1.0
  H  H48  1  0.95146000  0.32404000  0.84759000  1.0
  H  H49  1  0.99381000  0.13024000  0.99408000  1.0
  H  H50  1  0.87302000  0.44137000  0.94352000  1.0
  H  H51  1  0.81428000  0.43012000  0.92498000  1.0
  H  H52  1  0.89492000  0.43572000  0.86834000  1.0
  H  H53  1  0.93217000  0.13051000  0.09996000  1.0
  H  H54  1  0.87218000  0.21026000  0.12039000  1.0
  H  H55  1  0.96397000  0.18408000  0.10505000  1.0
  H  H56  1  0.67529000  0.39693000  0.12981000  1.0
  H  H57  1  0.84490000  0.42989000  0.12901000  1.0
  H  H58  1  0.76217000  0.33927000  0.99780000  1.0
  H  H59  1  0.77844000  0.26072000  0.05874000  1.0
  H  H60  1  0.69461000  0.33098000  0.06955000  1.0
  H  H61  1  0.96347000  0.39709000  0.00143000  1.0
  H  H62  1  0.96639000  0.36512000  0.07875000  1.0
  H  H63  1  0.98619000  0.30582000  0.04006000  1.0
  H  H64  1  0.82404000  0.45146000  0.34759000  1.0
  H  H65  1  0.63024000  0.49381000  0.49408000  1.0
  H  H66  1  0.94137000  0.37302000  0.44352000  1.0
  H  H67  1  0.93012000  0.31428000  0.42498000  1.0
  H  H68  1  0.93572000  0.39492000  0.36834000  1.0
  H  H69  1  0.63051000  0.43217000  0.59996000  1.0
  H  H70  1  0.71026000  0.37218000  0.62039000  1.0
  H  H71  1  0.68408000  0.46397000  0.60505000  1.0
  H  H72  1  0.89693000  0.17529000  0.62981000  1.0
  H  H73  1  0.92989000  0.34490000  0.62902000  1.0
  H  H74  1  0.83927000  0.26217000  0.49780000  1.0
  H  H75  1  0.76072000  0.27844000  0.55875000  1.0
  H  H76  1  0.83098000  0.19461000  0.56955000  1.0
  H  H77  1  0.89709000  0.46347000  0.50143000  1.0
  H  H78  1  0.86512000  0.46639000  0.57875000  1.0
  H  H79  1  0.80582000  0.48619000  0.54006000  1.0
  H  H80  1  0.37694000  0.82403000  0.34756000  1.0
  H  H81  1  0.38178000  0.63029000  0.49410000  1.0
  H  H82  1  0.24211000  0.94140000  0.44343000  1.0
  H  H83  1  0.33065000  0.93011000  0.42491000  1.0
  H  H84  1  0.30104000  0.93572000  0.36827000  1.0
  H  H85  1  0.33730000  0.63060000  0.59993000  1.0
  H  H86  1  0.29716000  0.71034000  0.62034000  1.0
  H  H87  1  0.24682000  0.68410000  0.60513000  1.0
  H  H88  1  0.29781000  0.89703000  0.62979000  1.0
  H  H89  1  0.09606000  0.92992000  0.62900000  1.0
  H  H90  1  0.40070000  0.83932000  0.49780000  1.0
  H  H91  1  0.40197000  0.76080000  0.55876000  1.0
  H  H92  1  0.40473000  0.83106000  0.56956000  1.0
  H  H93  1  0.13788000  0.89710000  0.50144000  1.0
  H  H94  1  0.08964000  0.86513000  0.57878000  1.0
  H  H95  1  0.16784000  0.80584000  0.54008000  1.0
  H  H96  1  0.45143000  0.37694000  0.34759000  1.0
  H  H97  1  0.49389000  0.38179000  0.49407000  1.0
  H  H98  1  0.37299000  0.24212000  0.44353000  1.0
  H  H99  1  0.31425000  0.33064000  0.42502000  1.0
  H  H100  1  0.39486000  0.30105000  0.36835000  1.0
  H  H101  1  0.43227000  0.33730000  0.59993000  1.0
  H  H102  1  0.37224000  0.29718000  0.62036000  1.0
  H  H103  1  0.46401000  0.24683000  0.60510000  1.0
  H  H104  1  0.17526000  0.29808000  0.62978000  1.0
  H  H105  1  0.34478000  0.09624000  0.62912000  1.0
  H  H106  1  0.26222000  0.40079000  0.49778000  1.0
  H  H107  1  0.27851000  0.40210000  0.55874000  1.0
  H  H108  1  0.19467000  0.40490000  0.56953000  1.0
  H  H109  1  0.46338000  0.13794000  0.50153000  1.0
  H  H110  1  0.46631000  0.08970000  0.57885000  1.0
  H  H111  1  0.48617000  0.16785000  0.54011000  1.0
  H  H112  1  0.17596000  0.54854000  0.65241000  1.0
  H  H113  1  0.36976000  0.50619000  0.50592000  1.0
  H  H114  1  0.05863000  0.62698000  0.55648000  1.0
  H  H115  1  0.06988000  0.68572000  0.57502000  1.0
  H  H116  1  0.06427000  0.60508000  0.63166000  1.0
  H  H117  1  0.36948000  0.56783000  0.40004000  1.0
  H  H118  1  0.28974000  0.62782000  0.37961000  1.0
  H  H119  1  0.31592000  0.53603000  0.39495000  1.0
  H  H120  1  0.10307000  0.82471000  0.37019000  1.0
  H  H121  1  0.07011000  0.65510000  0.37098000  1.0
  H  H122  1  0.16073000  0.73783000  0.50220000  1.0
  H  H123  1  0.23928000  0.72156000  0.44126000  1.0
  H  H124  1  0.16902000  0.80539000  0.43045000  1.0
  H  H125  1  0.10291000  0.53653000  0.49857000  1.0
  H  H126  1  0.13488000  0.53361000  0.42125000  1.0
  H  H127  1  0.19418000  0.51381000  0.45994000  1.0
  H  H128  1  0.62306000  0.17597000  0.65244000  1.0
  H  H129  1  0.61822000  0.36971000  0.50590000  1.0
  H  H130  1  0.75789000  0.05860000  0.55657000  1.0
  H  H131  1  0.66935000  0.06990000  0.57509000  1.0
  H  H132  1  0.69896000  0.06428000  0.63173000  1.0
  H  H133  1  0.66270000  0.36940000  0.40007000  1.0
  H  H134  1  0.70285000  0.28966000  0.37966000  1.0
  H  H135  1  0.75318000  0.31590000  0.39487000  1.0
  H  H136  1  0.70219000  0.10297000  0.37021000  1.0
  H  H137  1  0.90394000  0.07008000  0.37100000  1.0
  H  H138  1  0.59930000  0.16068000  0.50220000  1.0
  H  H139  1  0.59803000  0.23920000  0.44124000  1.0
  H  H140  1  0.59527000  0.16894000  0.43044000  1.0
  H  H141  1  0.86212000  0.10290000  0.49856000  1.0
  H  H142  1  0.91035000  0.13487000  0.42122000  1.0
  H  H143  1  0.83216000  0.19416000  0.45992000  1.0
  H  H144  1  0.54857000  0.62306000  0.65241000  1.0
  H  H145  1  0.50611000  0.61821000  0.50593000  1.0
  H  H146  1  0.62701000  0.75788000  0.55648000  1.0
  H  H147  1  0.68575000  0.66936000  0.57498000  1.0
  H  H148  1  0.60514000  0.69894000  0.63165000  1.0
  H  H149  1  0.56773000  0.66270000  0.40007000  1.0
  H  H150  1  0.62776000  0.70282000  0.37964000  1.0
  H  H151  1  0.53599000  0.75317000  0.39490000  1.0
  H  H152  1  0.82474000  0.70192000  0.37022000  1.0
  H  H153  1  0.65522000  0.90376000  0.37088000  1.0
  H  H154  1  0.73777000  0.59921000  0.50222000  1.0
  H  H155  1  0.72149000  0.59790000  0.44126000  1.0
  H  H156  1  0.80533000  0.59510000  0.43047000  1.0
  H  H157  1  0.53662000  0.86206000  0.49846000  1.0
  H  H158  1  0.53369000  0.91030000  0.42115000  1.0
  H  H159  1  0.51383000  0.83215000  0.45989000  1.0
  H  H160  1  0.67597000  0.12306000  0.15244000  1.0
  H  H161  1  0.86971000  0.11822000  0.00590000  1.0
  H  H162  1  0.55860000  0.25789000  0.05657000  1.0
  H  H163  1  0.56989000  0.16936000  0.07509000  1.0
  H  H164  1  0.56428000  0.19896000  0.13173000  1.0
  H  H165  1  0.86940000  0.16270000  0.90007000  1.0
  H  H166  1  0.78966000  0.20285000  0.87966000  1.0
  H  H167  1  0.81590000  0.25318000  0.89487000  1.0
  H  H168  1  0.60297000  0.20219000  0.87021000  1.0
  H  H169  1  0.57008000  0.40394000  0.87100000  1.0
  H  H170  1  0.66068000  0.09930000  0.00221000  1.0
  H  H171  1  0.73921000  0.09803000  0.94123000  1.0
  H  H172  1  0.66894000  0.09527000  0.93044000  1.0
  H  H173  1  0.60290000  0.36212000  0.99856000  1.0
  H  H174  1  0.63487000  0.41035000  0.92122000  1.0
  H  H175  1  0.69416000  0.33216000  0.95992000  1.0
  H  H176  1  0.12306000  0.04857000  0.15241000  1.0
  H  H177  1  0.11821000  0.00611000  0.00593000  1.0
  H  H178  1  0.25788000  0.12701000  0.05647000  1.0
  H  H179  1  0.16936000  0.18575000  0.07498000  1.0
  H  H180  1  0.19895000  0.10514000  0.13165000  1.0
  H  H181  1  0.16270000  0.06773000  0.90007000  1.0
  H  H182  1  0.20282000  0.12776000  0.87964000  1.0
  H  H183  1  0.25317000  0.03599000  0.89490000  1.0
  H  H184  1  0.20192000  0.32474000  0.87022000  1.0
  H  H185  1  0.40376000  0.15522000  0.87088000  1.0
  H  H186  1  0.09921000  0.23778000  0.00222000  1.0
  H  H187  1  0.09790000  0.22149000  0.94126000  1.0
  H  H188  1  0.09510000  0.30533000  0.93047000  1.0
  H  H189  1  0.36206000  0.03662000  0.99847000  1.0
  H  H190  1  0.41030000  0.03369000  0.92115000  1.0
  H  H191  1  0.33215000  0.01383000  0.95989000  1.0
  H  H192  1  0.04854000  0.67596000  0.15241000  1.0
  H  H193  1  0.00619000  0.86976000  0.00592000  1.0
  H  H194  1  0.12698000  0.55863000  0.05648000  1.0
  H  H195  1  0.18572000  0.56988000  0.07502000  1.0
  H  H196  1  0.10508000  0.56428000  0.13166000  1.0
  H  H197  1  0.06783000  0.86949000  0.90004000  1.0
  H  H198  1  0.12782000  0.78974000  0.87961000  1.0
  H  H199  1  0.03603000  0.81592000  0.89495000  1.0
  H  H200  1  0.32471000  0.60307000  0.87019000  1.0
  H  H201  1  0.15510000  0.57011000  0.87099000  1.0
  H  H202  1  0.23783000  0.66073000  0.00220000  1.0
  H  H203  1  0.22156000  0.73928000  0.94126000  1.0
  H  H204  1  0.30539000  0.66902000  0.93045000  1.0
  H  H205  1  0.03653000  0.60291000  0.99857000  1.0
  H  H206  1  0.03361000  0.63488000  0.92125000  1.0
  H  H207  1  0.01381000  0.69418000  0.95994000  1.0
  C  C208  1  0.18213000  0.93578000  0.87165000  1.0
  C  C209  1  0.22330000  0.88410000  0.91644000  1.0
  C  C210  1  0.29714000  0.86033000  0.89675000  1.0
  C  C211  1  0.33575000  0.81806000  0.93948000  1.0
  C  C212  1  0.29924000  0.79913000  0.00310000  1.0
  C  C213  1  0.22493000  0.82046000  0.02326000  1.0
  C  C214  1  0.18780000  0.86304000  0.97936000  1.0
  C  C215  1  0.41490000  0.79649000  0.91781000  1.0
  C  C216  1  0.18537000  0.79957000  0.09075000  1.0
  C  C217  1  0.46092000  0.65795000  0.17717000  1.0
  C  C218  1  0.41778000  0.69345000  0.13348000  1.0
  C  C219  1  0.38853000  0.76737000  0.11274000  1.0
  C  C220  1  0.34944000  0.80187000  0.07076000  1.0
  C  C221  1  0.33964000  0.76100000  0.04920000  1.0
  C  C222  1  0.36821000  0.68657000  0.07020000  1.0
  C  C223  1  0.40713000  0.65358000  0.11229000  1.0
  C  C224  1  0.31859000  0.88134000  0.04838000  1.0
  C  C225  1  0.35832000  0.64311000  0.04672000  1.0
  C  C226  1  0.93576000  0.01047000  0.87161000  1.0
  C  C227  1  0.88410000  0.97615000  0.91645000  1.0
  C  C228  1  0.86034000  0.94574000  0.89679000  1.0
  C  C229  1  0.81810000  0.90665000  0.93953000  1.0
  C  C230  1  0.79919000  0.89851000  0.00314000  1.0
  C  C231  1  0.82050000  0.93138000  0.02327000  1.0
  C  C232  1  0.86305000  0.96984000  0.97935000  1.0
  C  C233  1  0.79651000  0.87071000  0.91790000  1.0
  C  C234  1  0.79959000  0.92437000  0.09076000  1.0
  C  C235  1  0.65816000  0.70381000  0.17720000  1.0
  C  C236  1  0.69366000  0.75514000  0.13354000  1.0
  C  C237  1  0.76758000  0.73124000  0.11278000  1.0
  C  C238  1  0.80202000  0.77788000  0.07080000  1.0
  C  C239  1  0.76111000  0.85009000  0.04927000  1.0
  C  C240  1  0.68668000  0.87491000  0.07029000  1.0
  C  C241  1  0.65375000  0.82684000  0.11239000  1.0
  C  C242  1  0.88148000  0.75171000  0.04837000  1.0
  C  C243  1  0.64317000  0.95171000  0.04680000  1.0
  C  C244  1  0.01050000  0.18217000  0.87162000  1.0
  C  C245  1  0.97612000  0.22331000  0.91646000  1.0
  C  C246  1  0.94574000  0.29714000  0.89679000  1.0
  C  C247  1  0.90664000  0.33573000  0.93952000  1.0
  C  C248  1  0.89846000  0.29918000  0.00313000  1.0
  C  C249  1  0.93128000  0.22486000  0.02328000  1.0
  C  C250  1  0.96975000  0.18776000  0.97936000  1.0
  C  C251  1  0.87074000  0.41488000  0.91789000  1.0
  C  C252  1  0.92428000  0.18530000  0.09077000  1.0
  C  C253  1  0.70389000  0.46086000  0.17718000  1.0
  C  C254  1  0.75521000  0.41770000  0.13350000  1.0
  C  C255  1  0.73127000  0.38843000  0.11278000  1.0
  C  C256  1  0.77787000  0.34934000  0.07080000  1.0
  C  C257  1  0.85008000  0.33955000  0.04925000  1.0
  C  C258  1  0.87495000  0.36814000  0.07023000  1.0
  C  C259  1  0.82692000  0.40707000  0.11231000  1.0
  C  C260  1  0.75166000  0.31850000  0.04838000  1.0
  C  C261  1  0.95176000  0.35830000  0.04672000  1.0
  C  C262  1  0.68217000  0.51050000  0.37162000  1.0
  C  C263  1  0.72331000  0.47612000  0.41646000  1.0
  C  C264  1  0.79714000  0.44574000  0.39679000  1.0
  C  C265  1  0.83573000  0.40664000  0.43952000  1.0
  C  C266  1  0.79918000  0.39846000  0.50313000  1.0
  C  C267  1  0.72486000  0.43128000  0.52328000  1.0
  C  C268  1  0.68776000  0.46975000  0.47936000  1.0
  C  C269  1  0.91488000  0.37075000  0.41789000  1.0
  C  C270  1  0.68530000  0.42428000  0.59077000  1.0
  C  C271  1  0.96086000  0.20389000  0.67718000  1.0
  C  C272  1  0.91770000  0.25521000  0.63350000  1.0
  C  C273  1  0.88843000  0.23127000  0.61278000  1.0
  C  C274  1  0.84934000  0.27787000  0.57080000  1.0
  C  C275  1  0.83955000  0.35008000  0.54926000  1.0
  C  C276  1  0.86814000  0.37495000  0.57023000  1.0
  C  C277  1  0.90707000  0.32692000  0.61231000  1.0
  C  C278  1  0.81850000  0.25166000  0.54838000  1.0
  C  C279  1  0.85830000  0.45176000  0.54672000  1.0
  C  C280  1  0.43578000  0.68213000  0.37165000  1.0
  C  C281  1  0.38410000  0.72330000  0.41645000  1.0
  C  C282  1  0.36034000  0.79713000  0.39676000  1.0
  C  C283  1  0.31806000  0.83575000  0.43948000  1.0
  C  C284  1  0.29913000  0.79924000  0.50310000  1.0
  C  C285  1  0.32046000  0.72492000  0.52326000  1.0
  C  C286  1  0.36304000  0.68780000  0.47936000  1.0
  C  C287  1  0.29649000  0.91490000  0.41781000  1.0
  C  C288  1  0.29957000  0.68537000  0.59075000  1.0
  C  C289  1  0.15795000  0.96092000  0.67717000  1.0
  C  C290  1  0.19345000  0.91778000  0.63348000  1.0
  C  C291  1  0.26738000  0.88853000  0.61274000  1.0
  C  C292  1  0.30187000  0.84944000  0.57076000  1.0
  C  C293  1  0.26100000  0.83964000  0.54920000  1.0
  C  C294  1  0.18657000  0.86821000  0.57020000  1.0
  C  C295  1  0.15358000  0.90713000  0.61229000  1.0
  C  C296  1  0.38134000  0.81858000  0.54838000  1.0
  C  C297  1  0.14311000  0.85832000  0.54672000  1.0
  C  C298  1  0.51047000  0.43576000  0.37161000  1.0
  C  C299  1  0.47615000  0.38410000  0.41645000  1.0
  C  C300  1  0.44574000  0.36034000  0.39679000  1.0
  C  C301  1  0.40665000  0.31810000  0.43953000  1.0
  C  C302  1  0.39851000  0.29919000  0.50314000  1.0
  C  C303  1  0.43138000  0.32050000  0.52327000  1.0
  C  C304  1  0.46984000  0.36305000  0.47935000  1.0
  C  C305  1  0.37071000  0.29651000  0.41790000  1.0
  C  C306  1  0.42437000  0.29959000  0.59076000  1.0
  C  C307  1  0.20381000  0.15816000  0.67720000  1.0
  C  C308  1  0.25514000  0.19366000  0.63354000  1.0
  C  C309  1  0.23124000  0.26758000  0.61278000  1.0
  C  C310  1  0.27788000  0.30202000  0.57080000  1.0
  C  C311  1  0.35009000  0.26110000  0.54927000  1.0
  C  C312  1  0.37491000  0.18668000  0.57029000  1.0
  C  C313  1  0.32684000  0.15375000  0.61239000  1.0
  C  C314  1  0.25171000  0.38148000  0.54837000  1.0
  C  C315  1  0.45171000  0.14317000  0.54680000  1.0
  C  C316  1  0.31783000  0.48950000  0.62838000  1.0
  C  C317  1  0.27669000  0.52388000  0.58354000  1.0
  C  C318  1  0.20286000  0.55426000  0.60321000  1.0
  C  C319  1  0.16427000  0.59336000  0.56048000  1.0
  C  C320  1  0.20082000  0.60154000  0.49687000  1.0
  C  C321  1  0.27514000  0.56872000  0.47672000  1.0
  C  C322  1  0.31224000  0.53025000  0.52064000  1.0
  C  C323  1  0.08511000  0.62926000  0.58211000  1.0
  C  C324  1  0.31470000  0.57572000  0.40923000  1.0
  C  C325  1  0.03915000  0.79611000  0.32282000  1.0
  C  C326  1  0.08230000  0.74479000  0.36650000  1.0
  C  C327  1  0.11156000  0.76873000  0.38722000  1.0
  C  C328  1  0.15065000  0.72213000  0.42920000  1.0
  C  C329  1  0.16045000  0.64992000  0.45075000  1.0
  C  C330  1  0.13186000  0.62505000  0.42977000  1.0
  C  C331  1  0.09293000  0.67308000  0.38769000  1.0
  C  C332  1  0.18150000  0.74834000  0.45162000  1.0
  C  C333  1  0.14170000  0.54824000  0.45328000  1.0
  C  C334  1  0.56422000  0.31788000  0.62835000  1.0
  C  C335  1  0.61590000  0.27670000  0.58355000  1.0
  C  C336  1  0.63967000  0.20287000  0.60324000  1.0
  C  C337  1  0.68194000  0.16425000  0.56052000  1.0
  C  C338  1  0.70087000  0.20076000  0.49690000  1.0
  C  C339  1  0.67954000  0.27508000  0.47674000  1.0
  C  C340  1  0.63696000  0.31220000  0.52064000  1.0
  C  C341  1  0.70351000  0.08510000  0.58219000  1.0
  C  C342  1  0.70043000  0.31463000  0.40924000  1.0
  C  C343  1  0.84205000  0.03908000  0.32283000  1.0
  C  C344  1  0.80655000  0.08222000  0.36652000  1.0
  C  C345  1  0.73262000  0.11147000  0.38726000  1.0
  C  C346  1  0.69813000  0.15056000  0.42924000  1.0
  C  C347  1  0.73900000  0.16036000  0.45080000  1.0
  C  C348  1  0.81343000  0.13179000  0.42980000  1.0
  C  C349  1  0.84642000  0.09287000  0.38771000  1.0
  C  C350  1  0.61866000  0.18141000  0.45162000  1.0
  C  C351  1  0.85689000  0.14168000  0.45328000  1.0
  C  C352  1  0.48953000  0.56424000  0.62839000  1.0
  C  C353  1  0.52385000  0.61590000  0.58355000  1.0
  C  C354  1  0.55426000  0.63966000  0.60321000  1.0
  C  C355  1  0.59335000  0.68190000  0.56047000  1.0
  C  C356  1  0.60149000  0.70081000  0.49686000  1.0
  C  C357  1  0.56862000  0.67950000  0.47673000  1.0
  C  C358  1  0.53016000  0.63695000  0.52066000  1.0
  C  C359  1  0.62929000  0.70349000  0.58210000  1.0
  C  C360  1  0.57563000  0.70041000  0.40924000  1.0
  C  C361  1  0.79619000  0.84183000  0.32280000  1.0
  C  C362  1  0.74486000  0.80634000  0.36646000  1.0
  C  C363  1  0.76876000  0.73241000  0.38722000  1.0
  C  C364  1  0.72212000  0.69798000  0.42920000  1.0
  C  C365  1  0.64991000  0.73889000  0.45073000  1.0
  C  C366  1  0.62509000  0.81332000  0.42971000  1.0
  C  C367  1  0.67316000  0.84625000  0.38761000  1.0
  C  C368  1  0.74829000  0.61852000  0.45163000  1.0
  C  C369  1  0.54829000  0.85683000  0.45320000  1.0
  C  C370  1  0.81788000  0.06423000  0.12835000  1.0
  C  C371  1  0.77670000  0.11590000  0.08355000  1.0
  C  C372  1  0.70287000  0.13967000  0.10324000  1.0
  C  C373  1  0.66425000  0.18194000  0.06052000  1.0
  C  C374  1  0.70076000  0.20087000  0.99690000  1.0
  C  C375  1  0.77508000  0.17954000  0.97674000  1.0
  C  C376  1  0.81220000  0.13696000  0.02064000  1.0
  C  C377  1  0.58510000  0.20351000  0.08219000  1.0
  C  C378  1  0.81463000  0.20043000  0.90925000  1.0
  C  C379  1  0.53908000  0.34205000  0.82284000  1.0
  C  C380  1  0.58222000  0.30655000  0.86652000  1.0
  C  C381  1  0.61147000  0.23262000  0.88726000  1.0
  C  C382  1  0.65056000  0.19813000  0.92924000  1.0
  C  C383  1  0.66036000  0.23900000  0.95080000  1.0
  C  C384  1  0.63179000  0.31343000  0.92980000  1.0
  C  C385  1  0.59287000  0.34642000  0.88771000  1.0
  C  C386  1  0.68142000  0.11866000  0.95162000  1.0
  C  C387  1  0.64168000  0.35689000  0.95328000  1.0
  C  C388  1  0.06424000  0.98953000  0.12839000  1.0
  C  C389  1  0.11590000  0.02385000  0.08355000  1.0
  C  C390  1  0.13967000  0.05426000  0.10321000  1.0
  C  C391  1  0.18190000  0.09335000  0.06047000  1.0
  C  C392  1  0.20081000  0.10149000  0.99686000  1.0
  C  C393  1  0.17950000  0.06862000  0.97673000  1.0
  C  C394  1  0.13695000  0.03016000  0.02065000  1.0
  C  C395  1  0.20349000  0.12929000  0.08210000  1.0
  C  C396  1  0.20041000  0.07563000  0.90924000  1.0
  C  C397  1  0.34184000  0.29619000  0.82280000  1.0
  C  C398  1  0.30634000  0.24486000  0.86646000  1.0
  C  C399  1  0.23242000  0.26876000  0.88722000  1.0
  C  C400  1  0.19798000  0.22212000  0.92920000  1.0
  C  C401  1  0.23890000  0.14991000  0.95073000  1.0
  C  C402  1  0.31332000  0.12509000  0.92971000  1.0
  C  C403  1  0.34625000  0.17316000  0.88761000  1.0
  C  C404  1  0.11852000  0.24829000  0.95163000  1.0
  C  C405  1  0.35683000  0.04829000  0.95320000  1.0
  C  C406  1  0.98949000  0.81783000  0.12839000  1.0
  C  C407  1  0.02388000  0.77669000  0.08354000  1.0
  C  C408  1  0.05426000  0.70286000  0.10321000  1.0
  C  C409  1  0.09336000  0.66427000  0.06048000  1.0
  C  C410  1  0.10154000  0.70082000  0.99686000  1.0
  C  C411  1  0.06872000  0.77514000  0.97672000  1.0
  C  C412  1  0.03025000  0.81224000  0.02064000  1.0
  C  C413  1  0.12926000  0.58512000  0.08211000  1.0
  C  C414  1  0.07572000  0.81470000  0.90923000  1.0
  C  C415  1  0.29612000  0.53914000  0.82282000  1.0
  C  C416  1  0.24479000  0.58230000  0.86650000  1.0
  C  C417  1  0.26873000  0.61156000  0.88722000  1.0
  C  C418  1  0.22213000  0.65066000  0.92920000  1.0
  C  C419  1  0.14992000  0.66045000  0.95074000  1.0
  C  C420  1  0.12505000  0.63186000  0.92977000  1.0
  C  C421  1  0.17308000  0.59293000  0.88769000  1.0
  C  C422  1  0.24834000  0.68150000  0.95162000  1.0
  C  C423  1  0.04824000  0.64170000  0.95328000  1.0
  O  O424  1  0.21615000  0.95861000  0.81555000  1.0
  O  O425  1  0.11470000  0.95513000  0.89333000  1.0
  O  O426  1  0.48724000  0.59031000  0.19400000  1.0
  O  O427  1  0.46834000  0.69830000  0.19397000  1.0
  O  O428  1  0.95860000  0.00963000  0.81553000  1.0
  O  O429  1  0.95509000  0.03694000  0.89324000  1.0
  O  O430  1  0.59052000  0.72829000  0.19408000  1.0
  O  O431  1  0.69852000  0.63923000  0.19394000  1.0
  O  O432  1  0.00968000  0.21625000  0.81553000  1.0
  O  O433  1  0.03700000  0.11475000  0.89325000  1.0
  O  O434  1  0.72834000  0.48725000  0.19396000  1.0
  O  O435  1  0.63932000  0.46823000  0.19402000  1.0
  O  O436  1  0.71625000  0.50969000  0.31553000  1.0
  O  O437  1  0.61475000  0.53700000  0.39325000  1.0
  O  O438  1  0.98725000  0.22834000  0.69396000  1.0
  O  O439  1  0.96823000  0.13932000  0.69402000  1.0
  O  O440  1  0.45861000  0.71616000  0.31555000  1.0
  O  O441  1  0.45513000  0.61470000  0.39333000  1.0
  O  O442  1  0.09031000  0.98725000  0.69400000  1.0
  O  O443  1  0.19829000  0.96834000  0.69397000  1.0
  O  O444  1  0.50963000  0.45860000  0.31553000  1.0
  O  O445  1  0.53694000  0.45509000  0.39324000  1.0
  O  O446  1  0.22829000  0.09052000  0.69408000  1.0
  O  O447  1  0.13923000  0.19852000  0.69394000  1.0
  O  O448  1  0.07638000  0.07641000  0.77084000  1.0
  O  O449  1  0.57642000  0.57638000  0.27084000  1.0
  O  O450  1  0.28376000  0.49031000  0.68447000  1.0
  O  O451  1  0.38525000  0.46301000  0.60675000  1.0
  O  O452  1  0.01275000  0.77165000  0.30604000  1.0
  O  O453  1  0.03178000  0.86068000  0.30598000  1.0
  O  O454  1  0.54139000  0.28385000  0.68445000  1.0
  O  O455  1  0.54487000  0.38531000  0.60666000  1.0
  O  O456  1  0.90969000  0.01275000  0.30600000  1.0
  O  O457  1  0.80170000  0.03166000  0.30603000  1.0
  O  O458  1  0.49037000  0.54140000  0.68447000  1.0
  O  O459  1  0.46306000  0.54491000  0.60676000  1.0
  O  O460  1  0.77171000  0.90948000  0.30592000  1.0
  O  O461  1  0.86077000  0.80148000  0.30606000  1.0
  O  O462  1  0.78385000  0.04139000  0.18445000  1.0
  O  O463  1  0.88530000  0.04488000  0.10667000  1.0
  O  O464  1  0.51275000  0.40969000  0.80600000  1.0
  O  O465  1  0.53166000  0.30170000  0.80603000  1.0
  O  O466  1  0.04140000  0.99038000  0.18447000  1.0
  O  O467  1  0.04491000  0.96306000  0.10676000  1.0
  O  O468  1  0.40948000  0.27171000  0.80593000  1.0
  O  O469  1  0.30148000  0.36077000  0.80607000  1.0
  O  O470  1  0.99031000  0.78375000  0.18447000  1.0
  O  O471  1  0.96300000  0.88525000  0.10676000  1.0
  O  O472  1  0.27166000  0.51274000  0.80604000  1.0
  O  O473  1  0.36068000  0.53178000  0.80598000  1.0
  O  O474  1  0.42359000  0.42362000  0.72916000  1.0
  O  O475  1  0.92362000  0.92358000  0.22916000  1.0
