# generated using pymatgen
data_Cd2H5C7(N6O)2
_symmetry_space_group_name_H-M   'P 1'
_cell_length_a   9.64592000
_cell_length_b   13.93430000
_cell_length_c   13.93424459
_cell_angle_alpha   83.12115138
_cell_angle_beta   69.75063215
_cell_angle_gamma   69.74890000
_symmetry_Int_Tables_number   1
_chemical_formula_structural   Cd2H5C7(N6O)2
_chemical_formula_sum   'Cd8 H20 C28 N48 O8'
_cell_volume   1648.51828627
_cell_formula_units_Z   4
loop_
 _symmetry_equiv_pos_site_id
 _symmetry_equiv_pos_as_xyz
  1  'x, y, z'
loop_
 _atom_site_type_symbol
 _atom_site_label
 _atom_site_symmetry_multiplicity
 _atom_site_fract_x
 _atom_site_fract_y
 _atom_site_fract_z
 _atom_site_occupancy
  Cd  Cd0  1  0.10412000  0.59073000  0.84525000  1.0
  Cd  Cd1  1  0.54000000  0.40934000  0.15472000  1.0
  Cd  Cd2  1  0.05069000  0.84525000  0.40935000  1.0
  Cd  Cd3  1  0.30536000  0.15474000  0.59069000  1.0
  Cd  Cd4  1  0.04010000  0.15475000  0.40927000  1.0
  Cd  Cd5  1  0.60406000  0.84528000  0.59066000  1.0
  Cd  Cd6  1  0.80529000  0.59065000  0.15475000  1.0
  Cd  Cd7  1  0.55080000  0.40931000  0.84526000  1.0
  H  H8  1  0.10829000  0.41083000  0.67945000  1.0
  H  H9  1  0.19851000  0.58928000  0.32044000  1.0
  H  H10  1  0.21211000  0.67950000  0.58909000  1.0
  H  H11  1  0.48127000  0.32038000  0.41074000  1.0
  H  H12  1  0.69858000  0.32055000  0.58917000  1.0
  H  H13  1  0.60824000  0.67956000  0.41072000  1.0
  H  H14  1  0.98070000  0.41091000  0.32050000  1.0
  H  H15  1  0.71240000  0.58926000  0.67962000  1.0
  H  H16  1  0.86496000  0.50006000  0.77022000  1.0
  H  H17  1  0.13520000  0.49988000  0.22978000  1.0
  H  H18  1  0.36486000  0.77022000  0.50012000  1.0
  H  H19  1  0.63524000  0.22978000  0.49994000  1.0
  H  H20  1  0.70963000  0.90378000  0.16428000  1.0
  H  H21  1  0.77751000  0.09627000  0.83583000  1.0
  H  H22  1  0.12570000  0.16425000  0.09614000  1.0
  H  H23  1  0.38648000  0.83563000  0.90382000  1.0
  H  H24  1  0.27768000  0.83572000  0.09623000  1.0
  H  H25  1  0.20961000  0.16417000  0.90373000  1.0
  H  H26  1  0.88609000  0.90386000  0.83576000  1.0
  H  H27  1  0.62593000  0.09618000  0.16437000  1.0
  C  C28  1  0.21625000  0.38344000  0.69714000  1.0
  C  C29  1  0.29680000  0.61663000  0.30278000  1.0
  C  C30  1  0.08646000  0.69721000  0.61651000  1.0
  C  C31  1  0.40063000  0.30274000  0.38340000  1.0
  C  C32  1  0.79683000  0.30285000  0.61657000  1.0
  C  C33  1  0.71622000  0.69722000  0.38337000  1.0
  C  C34  1  0.90018000  0.38349000  0.30279000  1.0
  C  C35  1  0.58677000  0.61660000  0.69726000  1.0
  C  C36  1  0.82368000  0.50006000  0.85276000  1.0
  C  C37  1  0.17644000  0.49991000  0.14725000  1.0
  C  C38  1  0.32360000  0.85275000  0.50009000  1.0
  C  C39  1  0.67650000  0.14724000  0.49994000  1.0
  C  C40  1  0.85996000  0.77987000  0.00004000  1.0
  C  C41  1  0.63997000  0.22017000  0.00007000  1.0
  C  C42  1  0.13987000  0.99996000  0.22013000  1.0
  C  C43  1  0.36022000  0.99993000  0.77983000  1.0
  C  C44  1  0.80288000  0.89385000  0.00002000  1.0
  C  C45  1  0.69680000  0.10616000  0.00008000  1.0
  C  C46  1  0.19675000  0.99998000  0.10615000  1.0
  C  C47  1  0.30304000  0.99991000  0.89384000  1.0
  C  C48  1  0.72741000  0.94693000  0.09304000  1.0
  C  C49  1  0.76721000  0.05309000  0.90706000  1.0
  C  C50  1  0.17917000  0.09297000  0.05304000  1.0
  C  C51  1  0.32548000  0.90691000  0.94694000  1.0
  C  C52  1  0.26737000  0.90696000  0.05307000  1.0
  C  C53  1  0.22737000  0.09294000  0.94691000  1.0
  C  C54  1  0.82518000  0.94696000  0.90703000  1.0
  C  C55  1  0.67933000  0.05306000  0.09309000  1.0
  N  N56  1  0.25411000  0.43175000  0.75652000  1.0
  N  N57  1  0.44235000  0.56832000  0.24341000  1.0
  N  N58  1  0.98918000  0.75659000  0.56826000  1.0
  N  N59  1  0.31443000  0.24338000  0.43171000  1.0
  N  N60  1  0.94238000  0.24348000  0.56825000  1.0
  N  N61  1  0.75408000  0.75659000  0.43168000  1.0
  N  N62  1  0.81402000  0.43174000  0.24341000  1.0
  N  N63  1  0.48953000  0.56829000  0.75662000  1.0
  N  N64  1  0.39594000  0.36924000  0.75896000  1.0
  N  N65  1  0.52411000  0.63081000  0.24104000  1.0
  N  N66  1  0.84494000  0.75899000  0.63082000  1.0
  N  N67  1  0.23497000  0.24105000  0.36925000  1.0
  N  N68  1  0.02414000  0.24104000  0.63076000  1.0
  N  N69  1  0.89597000  0.75896000  0.36918000  1.0
  N  N70  1  0.73475000  0.36918000  0.24101000  1.0
  N  N71  1  0.34527000  0.63075000  0.75895000  1.0
  N  N72  1  0.44154000  0.28719000  0.70344000  1.0
  N  N73  1  0.43213000  0.71285000  0.29659000  1.0
  N  N74  1  0.85496000  0.70347000  0.71285000  1.0
  N  N75  1  0.27137000  0.29661000  0.28723000  1.0
  N  N76  1  0.93216000  0.29656000  0.71282000  1.0
  N  N77  1  0.94157000  0.70341000  0.28715000  1.0
  N  N78  1  0.77128000  0.28715000  0.29653000  1.0
  N  N79  1  0.35521000  0.71277000  0.70339000  1.0
  N  N80  1  0.32935000  0.29450000  0.66331000  1.0
  N  N81  1  0.28715000  0.70553000  0.33668000  1.0
  N  N82  1  0.00729000  0.66336000  0.70547000  1.0
  N  N83  1  0.37632000  0.33667000  0.29452000  1.0
  N  N84  1  0.78717000  0.33669000  0.70550000  1.0
  N  N85  1  0.82936000  0.66332000  0.29447000  1.0
  N  N86  1  0.87612000  0.29453000  0.33664000  1.0
  N  N87  1  0.50751000  0.70548000  0.66333000  1.0
  N  N88  1  0.88720000  0.52913000  0.91054000  1.0
  N  N89  1  0.32681000  0.47084000  0.08947000  1.0
  N  N90  1  0.20236000  0.91053000  0.47094000  1.0
  N  N91  1  0.58387000  0.08948000  0.52907000  1.0
  N  N92  1  0.82688000  0.08946000  0.47087000  1.0
  N  N93  1  0.38712000  0.91054000  0.52916000  1.0
  N  N94  1  0.08383000  0.52906000  0.08947000  1.0
  N  N95  1  0.70242000  0.47093000  0.91052000  1.0
  N  N96  1  0.80180000  0.51726000  0.00725000  1.0
  N  N97  1  0.32628000  0.48274000  0.99275000  1.0
  N  N98  1  0.19109000  0.00724000  0.48274000  1.0
  N  N99  1  0.68110000  0.99276000  0.51725000  1.0
  N  N100  1  0.82631000  0.99275000  0.48274000  1.0
  N  N101  1  0.30177000  0.00725000  0.51726000  1.0
  N  N102  1  0.18107000  0.51726000  0.99276000  1.0
  N  N103  1  0.69111000  0.48275000  0.00724000  1.0
  O  O104  1  0.98545000  0.73688000  0.92859000  1.0
  O  O105  1  0.65104000  0.26314000  0.07154000  1.0
  O  O106  1  0.08590000  0.92851000  0.26316000  1.0
  O  O107  1  0.27782000  0.07141000  0.73680000  1.0
  O  O108  1  0.15092000  0.07141000  0.26312000  1.0
  O  O109  1  0.48572000  0.92846000  0.73686000  1.0
  O  O110  1  0.77757000  0.73683000  0.07149000  1.0
  O  O111  1  0.58604000  0.26320000  0.92858000  1.0
