# generated using pymatgen
data_CaH6C5O4
_symmetry_space_group_name_H-M   'P 1'
_cell_length_a   8.67183000
_cell_length_b   12.28300000
_cell_length_c   12.28320000
_cell_angle_alpha   114.63600000
_cell_angle_beta   103.61300000
_cell_angle_gamma   103.61300000
_symmetry_Int_Tables_number   1
_chemical_formula_structural   CaH6C5O4
_chemical_formula_sum   'Ca6 H36 C30 O24'
_cell_volume   1070.34574424
_cell_formula_units_Z   6
loop_
 _symmetry_equiv_pos_site_id
 _symmetry_equiv_pos_as_xyz
  1  'x, y, z'
loop_
 _atom_site_type_symbol
 _atom_site_label
 _atom_site_symmetry_multiplicity
 _atom_site_fract_x
 _atom_site_fract_y
 _atom_site_fract_z
 _atom_site_occupancy
  Ca  Ca0  1  0.59047000  0.19627000  0.57680000  1.0
  Ca  Ca1  1  0.39421000  0.38052000  0.80373000  1.0
  Ca  Ca2  1  0.01366000  0.42320000  0.61946000  1.0
  Ca  Ca3  1  0.40953000  0.80373000  0.42320000  1.0
  Ca  Ca4  1  0.60579000  0.61948000  0.19627000  1.0
  Ca  Ca5  1  0.98634000  0.57680000  0.38054000  1.0
  H  H6  1  0.79108000  0.73112000  0.82207000  1.0
  H  H7  1  0.05995000  0.09097000  0.26884000  1.0
  H  H8  1  0.96898000  0.17790000  0.90903000  1.0
  H  H9  1  0.20892000  0.26888000  0.17793000  1.0
  H  H10  1  0.94005000  0.90903000  0.73116000  1.0
  H  H11  1  0.03102000  0.82210000  0.09097000  1.0
  H  H12  1  0.64761000  0.65925000  0.87780000  1.0
  H  H13  1  0.98836000  0.21858000  0.34070000  1.0
  H  H14  1  0.76977000  0.12216000  0.78143000  1.0
  H  H15  1  0.35239000  0.34075000  0.12220000  1.0
  H  H16  1  0.01164000  0.78142000  0.65930000  1.0
  H  H17  1  0.23023000  0.87784000  0.21857000  1.0
  H  H18  1  0.56653000  0.60853000  0.59909000  1.0
  H  H19  1  0.95799000  0.99059000  0.39143000  1.0
  H  H20  1  0.96744000  0.40088000  0.00943000  1.0
  H  H21  1  0.43347000  0.39147000  0.40091000  1.0
  H  H22  1  0.04201000  0.00941000  0.60857000  1.0
  H  H23  1  0.03256000  0.59912000  0.99058000  1.0
  H  H24  1  0.42744000  0.52562000  0.64806000  1.0
  H  H25  1  0.90181000  0.12244000  0.47432000  1.0
  H  H26  1  0.77939000  0.35194000  0.87757000  1.0
  H  H27  1  0.57256000  0.47438000  0.35194000  1.0
  H  H28  1  0.09819000  0.87756000  0.52568000  1.0
  H  H29  1  0.22061000  0.64806000  0.12243000  1.0
  H  H30  1  0.43320000  0.74441000  0.80707000  1.0
  H  H31  1  0.68870000  0.06265000  0.25555000  1.0
  H  H32  1  0.62609000  0.19294000  0.93735000  1.0
  H  H33  1  0.56680000  0.25559000  0.19293000  1.0
  H  H34  1  0.31130000  0.93735000  0.74445000  1.0
  H  H35  1  0.37391000  0.80706000  0.06265000  1.0
  H  H36  1  0.54553000  0.81410000  0.73189000  1.0
  H  H37  1  0.73138000  0.91779000  0.18587000  1.0
  H  H38  1  0.81361000  0.26809000  0.08220000  1.0
  H  H39  1  0.45447000  0.18590000  0.26811000  1.0
  H  H40  1  0.26862000  0.08221000  0.81413000  1.0
  H  H41  1  0.18639000  0.73191000  0.91780000  1.0
  C  C42  1  0.73533000  0.52821000  0.75094000  1.0
  C  C43  1  0.20715000  0.22276000  0.47178000  1.0
  C  C44  1  0.98437000  0.24904000  0.77723000  1.0
  C  C45  1  0.26467000  0.47179000  0.24906000  1.0
  C  C46  1  0.79285000  0.77724000  0.52822000  1.0
  C  C47  1  0.01563000  0.75096000  0.22277000  1.0
  C  C48  1  0.68263000  0.64426000  0.79349000  1.0
  C  C49  1  0.03835000  0.14924000  0.35568000  1.0
  C  C50  1  0.88910000  0.20649000  0.85076000  1.0
  C  C51  1  0.31737000  0.35573000  0.20651000  1.0
  C  C52  1  0.96165000  0.85076000  0.64432000  1.0
  C  C53  1  0.11090000  0.79351000  0.14924000  1.0
  C  C54  1  0.52853000  0.61836000  0.68107000  1.0
  C  C55  1  0.91016000  0.06273000  0.38158000  1.0
  C  C56  1  0.84745000  0.31890000  0.93728000  1.0
  C  C57  1  0.47147000  0.38164000  0.31892000  1.0
  C  C58  1  0.08984000  0.93727000  0.61842000  1.0
  C  C59  1  0.15255000  0.68110000  0.06272000  1.0
  C  C60  1  0.45564000  0.72520000  0.71763000  1.0
  C  C61  1  0.73042000  0.99243000  0.27476000  1.0
  C  C62  1  0.73801000  0.28237000  0.00757000  1.0
  C  C63  1  0.54436000  0.27480000  0.28237000  1.0
  C  C64  1  0.26958000  0.00757000  0.72524000  1.0
  C  C65  1  0.26199000  0.71762000  0.99243000  1.0
  C  C66  1  0.28676000  0.68126000  0.61120000  1.0
  C  C67  1  0.60553000  0.92996000  0.31874000  1.0
  C  C68  1  0.67556000  0.38878000  0.07007000  1.0
  C  C69  1  0.71324000  0.31874000  0.38880000  1.0
  C  C70  1  0.39447000  0.07004000  0.68126000  1.0
  C  C71  1  0.32444000  0.61122000  0.92993000  1.0
  O  O72  1  0.63437000  0.42376000  0.73707000  1.0
  O  O73  1  0.21059000  0.31331000  0.57621000  1.0
  O  O74  1  0.89727000  0.26290000  0.68666000  1.0
  O  O75  1  0.36564000  0.57624000  0.26293000  1.0
  O  O76  1  0.78941000  0.68669000  0.42379000  1.0
  O  O77  1  0.10273000  0.73710000  0.31334000  1.0
  O  O78  1  0.86966000  0.53809000  0.72640000  1.0
  O  O79  1  0.33162000  0.18837000  0.46191000  1.0
  O  O80  1  0.14325000  0.27359000  0.81165000  1.0
  O  O81  1  0.13033000  0.46191000  0.27360000  1.0
  O  O82  1  0.66839000  0.81163000  0.53809000  1.0
  O  O83  1  0.85676000  0.72641000  0.18835000  1.0
  O  O84  1  0.15063000  0.60180000  0.59909000  1.0
  O  O85  1  0.54890000  0.99733000  0.39821000  1.0
  O  O86  1  0.55152000  0.40087000  0.00273000  1.0
  O  O87  1  0.84937000  0.39820000  0.40091000  1.0
  O  O88  1  0.45110000  0.00268000  0.60179000  1.0
  O  O89  1  0.44848000  0.59913000  0.99727000  1.0
  O  O90  1  0.28143000  0.72193000  0.53080000  1.0
  O  O91  1  0.55949000  0.80889000  0.27809000  1.0
  O  O92  1  0.75067000  0.46920000  0.19114000  1.0
  O  O93  1  0.71857000  0.27807000  0.46920000  1.0
  O  O94  1  0.44051000  0.19112000  0.72191000  1.0
  O  O95  1  0.24933000  0.53080000  0.80886000  1.0
