# generated using pymatgen
data_CuH14C13SN3
_symmetry_space_group_name_H-M   'P 1'
_cell_length_a   7.86321000
_cell_length_b   8.84954000
_cell_length_c   22.13700000
_cell_angle_alpha   85.70900000
_cell_angle_beta   80.30420000
_cell_angle_gamma   63.62320000
_symmetry_Int_Tables_number   1
_chemical_formula_structural   CuH14C13SN3
_chemical_formula_sum   'Cu4 H56 C52 S4 N12'
_cell_volume   1360.33724134
_cell_formula_units_Z   4
loop_
 _symmetry_equiv_pos_site_id
 _symmetry_equiv_pos_as_xyz
  1  'x, y, z'
loop_
 _atom_site_type_symbol
 _atom_site_label
 _atom_site_symmetry_multiplicity
 _atom_site_fract_x
 _atom_site_fract_y
 _atom_site_fract_z
 _atom_site_occupancy
  Cu  Cu0  1  0.15158000  0.60730000  0.09470000  1.0
  Cu  Cu1  1  0.85045000  0.39235000  0.90603000  1.0
  Cu  Cu2  1  0.49358000  0.10816000  0.40577000  1.0
  Cu  Cu3  1  0.01006000  0.89186000  0.59446000  1.0
  H  H4  1  0.26373000  0.52019000  0.23646000  1.0
  H  H5  1  0.01209000  0.48000000  0.76443000  1.0
  H  H6  1  0.74236000  0.02025000  0.26402000  1.0
  H  H7  1  0.03478000  0.97972000  0.73631000  1.0
  H  H8  1  0.83949000  0.88878000  0.04977000  1.0
  H  H9  1  0.77881000  0.11038000  0.95129000  1.0
  H  H10  1  0.14035000  0.39010000  0.45133000  1.0
  H  H11  1  0.97972000  0.61013000  0.54967000  1.0
  H  H12  1  0.16700000  0.72993000  0.20917000  1.0
  H  H13  1  0.09951000  0.27076000  0.79225000  1.0
  H  H14  1  0.62076000  0.22953000  0.29184000  1.0
  H  H15  1  0.14778000  0.76990000  0.70900000  1.0
  H  H16  1  0.79698000  0.91154000  0.13011000  1.0
  H  H17  1  0.83408000  0.08776000  0.87091000  1.0
  H  H18  1  0.17285000  0.41258000  0.37096000  1.0
  H  H19  1  0.95951000  0.58785000  0.63004000  1.0
  H  H20  1  0.10905000  0.68756000  0.28844000  1.0
  H  H21  1  0.07689000  0.31145000  0.71269000  1.0
  H  H22  1  0.63840000  0.18887000  0.21232000  1.0
  H  H23  1  0.04725000  0.81240000  0.78828000  1.0
  H  H24  1  0.71275000  0.09551000  0.08330000  1.0
  H  H25  1  0.89047000  0.90371000  0.91770000  1.0
  H  H26  1  0.04529000  0.59673000  0.41771000  1.0
  H  H27  1  0.05953000  0.40358000  0.58335000  1.0
  H  H28  1  0.81516000  0.66859000  0.31952000  1.0
  H  H29  1  0.79489000  0.33079000  0.68047000  1.0
  H  H30  1  0.37507000  0.17013000  0.18030000  1.0
  H  H31  1  0.73377000  0.83292000  0.81942000  1.0
  H  H32  1  0.90468000  0.24446000  0.06737000  1.0
  H  H33  1  0.21747000  0.75470000  0.93214000  1.0
  H  H34  1  0.22339000  0.74550000  0.43239000  1.0
  H  H35  1  0.40024000  0.25461000  0.56769000  1.0
  H  H36  1  0.54148000  0.62504000  0.29462000  1.0
  H  H37  1  0.45427000  0.37357000  0.70422000  1.0
  H  H38  1  0.07730000  0.12725000  0.20427000  1.0
  H  H39  1  0.41662000  0.87641000  0.79449000  1.0
  H  H40  1  0.22339000  0.24907000  0.06312000  1.0
  H  H41  1  0.53688000  0.75064000  0.93575000  1.0
  H  H42  1  0.53887000  0.74949000  0.43583000  1.0
  H  H43  1  0.72356000  0.25020000  0.56322000  1.0
  H  H44  1  0.55438000  0.54783000  0.18495000  1.0
  H  H45  1  0.28321000  0.44939000  0.81370000  1.0
  H  H46  1  0.98288000  0.05085000  0.31375000  1.0
  H  H47  1  0.35306000  0.95211000  0.68469000  1.0
  H  H48  1  0.51044000  0.97351000  0.07715000  1.0
  H  H49  1  0.56023000  0.02688000  0.92244000  1.0
  H  H50  1  0.83847000  0.47328000  0.42222000  1.0
  H  H51  1  0.73506000  0.52589000  0.57686000  1.0
  H  H52  1  0.82953000  0.53246000  0.10750000  1.0
  H  H53  1  0.46688000  0.46460000  0.89204000  1.0
  H  H54  1  0.18247000  0.03539000  0.39192000  1.0
  H  H55  1  0.61342000  0.96623000  0.60720000  1.0
  H  H56  1  0.46526000  0.71088000  0.09320000  1.0
  H  H57  1  0.26631000  0.28959000  0.90752000  1.0
  H  H58  1  0.80713000  0.21067000  0.40721000  1.0
  H  H59  1  0.42724000  0.78858000  0.59287000  1.0
  C  C60  1  0.01712000  0.58535000  0.97193000  1.0
  C  C61  1  0.57459000  0.41536000  0.02806000  1.0
  C  C62  1  0.24061000  0.08480000  0.52780000  1.0
  C  C63  1  0.85303000  0.91443000  0.47176000  1.0
  C  C64  1  0.96653000  0.62186000  0.22716000  1.0
  C  C65  1  0.80926000  0.37686000  0.77320000  1.0
  C  C66  1  0.43635000  0.12349000  0.27294000  1.0
  C  C67  1  0.83917000  0.87819000  0.72696000  1.0
  C  C68  1  0.81355000  0.63706000  0.27301000  1.0
  C  C69  1  0.71655000  0.36174000  0.72687000  1.0
  C  C70  1  0.32809000  0.13890000  0.22670000  1.0
  C  C71  1  0.70097000  0.86388000  0.77286000  1.0
  C  C72  1  0.66136000  0.61246000  0.25909000  1.0
  C  C73  1  0.52661000  0.38590000  0.74016000  1.0
  C  C74  1  0.16236000  0.11466000  0.24013000  1.0
  C  C75  1  0.52418000  0.88845000  0.75893000  1.0
  C  C76  1  0.66679000  0.57132000  0.19897000  1.0
  C  C77  1  0.43242000  0.42638000  0.80016000  1.0
  C  C78  1  0.10903000  0.07396000  0.30013000  1.0
  C  C79  1  0.48889000  0.92879000  0.69874000  1.0
  C  C80  1  0.82116000  0.56068000  0.15538000  1.0
  C  C81  1  0.53335000  0.43684000  0.84424000  1.0
  C  C82  1  0.22077000  0.06337000  0.34411000  1.0
  C  C83  1  0.63295000  0.93867000  0.65512000  1.0
  C  C84  1  0.13487000  0.64223000  0.24143000  1.0
  C  C85  1  0.01124000  0.35738000  0.75956000  1.0
  C  C86  1  0.61886000  0.14289000  0.25919000  1.0
  C  C87  1  0.02794000  0.85766000  0.74125000  1.0
  C  C88  1  0.01729000  0.97738000  0.08405000  1.0
  C  C89  1  0.07733000  0.02225000  0.91651000  1.0
  C  C90  1  0.35078000  0.47810000  0.41646000  1.0
  C  C91  1  0.24583000  0.52183000  0.58407000  1.0
  C  C92  1  0.03238000  0.12932000  0.07392000  1.0
  C  C93  1  0.23562000  0.87017000  0.92586000  1.0
  C  C94  1  0.35701000  0.63007000  0.42597000  1.0
  C  C95  1  0.41280000  0.36982000  0.57409000  1.0
  C  C96  1  0.20955000  0.13150000  0.07125000  1.0
  C  C97  1  0.41248000  0.86829000  0.92819000  1.0
  C  C98  1  0.53207000  0.63189000  0.42820000  1.0
  C  C99  1  0.59210000  0.36776000  0.57128000  1.0
  C  C100  1  0.36853000  0.97944000  0.07903000  1.0
  C  C101  1  0.42606000  0.02069000  0.92080000  1.0
  C  C102  1  0.69804000  0.47950000  0.42064000  1.0
  C  C103  1  0.59906000  0.51992000  0.57885000  1.0
  C  C104  1  0.34437000  0.83292000  0.08823000  1.0
  C  C105  1  0.26332000  0.16731000  0.91227000  1.0
  C  C106  1  0.68185000  0.33295000  0.41204000  1.0
  C  C107  1  0.42839000  0.66648000  0.58800000  1.0
  C  C108  1  0.83032000  0.96939000  0.08684000  1.0
  C  C109  1  0.88499000  0.02993000  0.91410000  1.0
  C  C110  1  0.16603000  0.47049000  0.41411000  1.0
  C  C111  1  0.05091000  0.52977000  0.58683000  1.0
  S  S112  1  0.46159000  0.40273000  0.09625000  1.0
  S  S113  1  0.95905000  0.59644000  0.90338000  1.0
  S  S114  1  0.80617000  0.90379000  0.40316000  1.0
  S  S115  1  0.11523000  0.09669000  0.59599000  1.0
  N  N116  1  0.06094000  0.58040000  0.02100000  1.0
  N  N117  1  0.66120000  0.42090000  0.97928000  1.0
  N  N118  1  0.33286000  0.07962000  0.47906000  1.0
  N  N119  1  0.89204000  0.91898000  0.52084000  1.0
  N  N120  1  0.96805000  0.58696000  0.16822000  1.0
  N  N121  1  0.71850000  0.41128000  0.83200000  1.0
  N  N122  1  0.38036000  0.08899000  0.33176000  1.0
  N  N123  1  0.80612000  0.91242000  0.66797000  1.0
  N  N124  1  0.17331000  0.82973000  0.09080000  1.0
  N  N125  1  0.09143000  0.17023000  0.91003000  1.0
  N  N126  1  0.51283000  0.33013000  0.40983000  1.0
  N  N127  1  0.25413000  0.66959000  0.59065000  1.0
