# generated using pymatgen
data_ZnH10(C2N)4
_symmetry_space_group_name_H-M   'P 1'
_cell_length_a   14.75135126
_cell_length_b   14.75150000
_cell_length_c   14.75130000
_cell_angle_alpha   109.47100000
_cell_angle_beta   109.47104222
_cell_angle_gamma   109.47114079
_symmetry_Int_Tables_number   1
_chemical_formula_structural   ZnH10(C2N)4
_chemical_formula_sum   'Zn6 H60 C48 N24'
_cell_volume   2471.03535783
_cell_formula_units_Z   6
loop_
 _symmetry_equiv_pos_site_id
 _symmetry_equiv_pos_as_xyz
  1  'x, y, z'
loop_
 _atom_site_type_symbol
 _atom_site_label
 _atom_site_symmetry_multiplicity
 _atom_site_fract_x
 _atom_site_fract_y
 _atom_site_fract_z
 _atom_site_occupancy
  Zn  Zn0  1  0.75000000  0.50000000  0.25000000  1.0
  Zn  Zn1  1  0.75000000  0.25000000  0.50000000  1.0
  Zn  Zn2  1  0.25000000  0.75000000  0.50000000  1.0
  Zn  Zn3  1  0.25000000  0.50000000  0.75000000  1.0
  Zn  Zn4  1  0.50000000  0.75000000  0.25000000  1.0
  Zn  Zn5  1  0.50000000  0.25000000  0.75000000  1.0
  H  H6  1  0.58111000  0.46579000  0.34420000  1.0
  H  H7  1  0.87840000  0.53420000  0.11531000  1.0
  H  H8  1  0.87840000  0.11531000  0.53420000  1.0
  H  H9  1  0.12160000  0.65580000  0.23692000  1.0
  H  H10  1  0.12160000  0.23692000  0.65580000  1.0
  H  H11  1  0.34420000  0.46580000  0.58111000  1.0
  H  H12  1  0.34420000  0.58111000  0.46580000  1.0
  H  H13  1  0.65580000  0.12160000  0.23692000  1.0
  H  H14  1  0.65580000  0.23692000  0.12159000  1.0
  H  H15  1  0.76309000  0.88469000  0.41889000  1.0
  H  H16  1  0.76308000  0.41888000  0.88468000  1.0
  H  H17  1  0.23691000  0.12159000  0.65579000  1.0
  H  H18  1  0.23692000  0.65581000  0.12160000  1.0
  H  H19  1  0.46580000  0.34420000  0.58112000  1.0
  H  H20  1  0.53420000  0.87840000  0.11532000  1.0
  H  H21  1  0.46580000  0.58112000  0.34420000  1.0
  H  H22  1  0.53420000  0.11531000  0.87840000  1.0
  H  H23  1  0.88468000  0.76308000  0.41888000  1.0
  H  H24  1  0.11532000  0.87841000  0.53420000  1.0
  H  H25  1  0.88468000  0.41888000  0.76308000  1.0
  H  H26  1  0.11532000  0.53421000  0.87841000  1.0
  H  H27  1  0.41889000  0.76309000  0.88468000  1.0
  H  H28  1  0.58111000  0.34419000  0.46579000  1.0
  H  H29  1  0.41889000  0.88469000  0.76309000  1.0
  H  H30  1  0.76381000  0.68977000  0.21433000  1.0
  H  H31  1  0.52457000  0.31024000  0.07405000  1.0
  H  H32  1  0.52457000  0.07405000  0.31024000  1.0
  H  H33  1  0.47543000  0.78567000  0.54947000  1.0
  H  H34  1  0.47543000  0.54947000  0.78567000  1.0
  H  H35  1  0.21433000  0.68977000  0.76381000  1.0
  H  H36  1  0.21433000  0.76381000  0.68977000  1.0
  H  H37  1  0.78567000  0.47543000  0.54948000  1.0
  H  H38  1  0.78567000  0.54948000  0.47544000  1.0
  H  H39  1  0.45052000  0.92595000  0.23619000  1.0
  H  H40  1  0.45052000  0.23619000  0.92596000  1.0
  H  H41  1  0.54947000  0.47543000  0.78566000  1.0
  H  H42  1  0.54948000  0.78567000  0.47544000  1.0
  H  H43  1  0.68976000  0.21433000  0.76380000  1.0
  H  H44  1  0.31024000  0.52457000  0.07405000  1.0
  H  H45  1  0.68976000  0.76380000  0.21433000  1.0
  H  H46  1  0.31023000  0.07404000  0.52456000  1.0
  H  H47  1  0.92596000  0.45053000  0.23619000  1.0
  H  H48  1  0.07404000  0.52457000  0.31023000  1.0
  H  H49  1  0.92596000  0.23620000  0.45053000  1.0
  H  H50  1  0.07404000  0.31023000  0.52456000  1.0
  H  H51  1  0.23619000  0.45052000  0.92596000  1.0
  H  H52  1  0.76381000  0.21433000  0.68977000  1.0
  H  H53  1  0.23619000  0.92596000  0.45052000  1.0
  H  H54  1  0.62975000  0.62975000  0.10057000  1.0
  H  H55  1  0.47082000  0.37025000  1.00000000  1.0
  H  H56  1  0.47082000  0.00000000  0.37025000  1.0
  H  H57  1  0.52918000  0.89943000  0.52918000  1.0
  H  H58  1  0.52917000  0.52917000  0.89942000  1.0
  H  H59  1  0.10057000  0.62975000  0.62975000  1.0
  H  H60  1  0.89943000  0.52918000  0.52918000  1.0
  H  H61  1  0.62975000  0.10057000  0.62975000  1.0
  H  H62  1  0.37025000  0.47082000  1.00000000  1.0
  H  H63  1  0.37025000  1.00000000  0.47082000  1.0
  H  H64  1  0.00000000  0.47083000  0.37025000  1.0
  H  H65  1  0.00000000  0.37025000  0.47082000  1.0
  C  C66  1  0.63098000  0.63098000  0.24704000  1.0
  C  C67  1  0.61605000  0.36901000  0.00000000  1.0
  C  C68  1  0.61606000  1.00000000  0.36902000  1.0
  C  C69  1  0.38395000  0.75297000  0.38395000  1.0
  C  C70  1  0.38394000  0.38394000  0.75296000  1.0
  C  C71  1  0.24704000  0.63098000  0.63098000  1.0
  C  C72  1  0.75296000  0.38394000  0.38394000  1.0
  C  C73  1  0.63098000  0.24703000  0.63098000  1.0
  C  C74  1  0.36902000  0.61605000  0.00000000  1.0
  C  C75  1  0.36902000  1.00000000  0.61606000  1.0
  C  C76  1  0.00000000  0.61606000  0.36902000  1.0
  C  C77  1  0.00000000  0.36902000  0.61606000  1.0
  C  C78  1  0.58297000  0.52587000  0.31691000  1.0
  C  C79  1  0.79103000  0.47413000  0.05709000  1.0
  C  C80  1  0.79103000  0.05709000  0.47412000  1.0
  C  C81  1  0.20897000  0.68310000  0.26607000  1.0
  C  C82  1  0.20897000  0.26607000  0.68310000  1.0
  C  C83  1  0.31690000  0.52587000  0.58296000  1.0
  C  C84  1  0.31690000  0.58297000  0.52586000  1.0
  C  C85  1  0.68310000  0.20897000  0.26607000  1.0
  C  C86  1  0.68310000  0.26607000  0.20897000  1.0
  C  C87  1  0.73394000  0.94291000  0.41703000  1.0
  C  C88  1  0.73393000  0.41703000  0.94289000  1.0
  C  C89  1  0.26606000  0.20896000  0.68309000  1.0
  C  C90  1  0.26607000  0.68310000  0.20897000  1.0
  C  C91  1  0.52587000  0.31690000  0.58297000  1.0
  C  C92  1  0.47413000  0.79103000  0.05710000  1.0
  C  C93  1  0.52587000  0.58297000  0.31691000  1.0
  C  C94  1  0.47413000  0.05710000  0.79103000  1.0
  C  C95  1  0.94290000  0.73393000  0.41703000  1.0
  C  C96  1  0.05710000  0.79104000  0.47413000  1.0
  C  C97  1  0.94290000  0.41703000  0.73393000  1.0
  C  C98  1  0.05710000  0.47413000  0.79104000  1.0
  C  C99  1  0.41703000  0.73393000  0.94290000  1.0
  C  C100  1  0.58297000  0.31690000  0.52587000  1.0
  C  C101  1  0.41703000  0.94290000  0.73393000  1.0
  C  C102  1  0.68150000  0.68150000  0.19158000  1.0
  C  C103  1  0.51008000  0.31850000  1.00000000  1.0
  C  C104  1  0.51008000  1.00000000  0.31850000  1.0
  C  C105  1  0.48992000  0.80842000  0.48992000  1.0
  C  C106  1  0.48992000  0.48992000  0.80842000  1.0
  C  C107  1  0.19158000  0.68150000  0.68150000  1.0
  C  C108  1  0.80842000  0.48992000  0.48992000  1.0
  C  C109  1  0.68150000  0.19158000  0.68150000  1.0
  C  C110  1  0.31850000  0.51008000  0.00000000  1.0
  C  C111  1  0.31850000  1.00000000  0.51008000  1.0
  C  C112  1  1.00000000  0.51008000  0.31850000  1.0
  C  C113  1  0.00000000  0.31850000  0.51008000  1.0
  N  N114  1  0.64945000  0.55676000  0.27302000  1.0
  N  N115  1  0.71626000  0.44324000  0.09269000  1.0
  N  N116  1  0.71626000  0.09269000  0.44324000  1.0
  N  N117  1  0.28374000  0.72698000  0.37643000  1.0
  N  N118  1  0.28374000  0.37643000  0.72698000  1.0
  N  N119  1  0.27302000  0.55676000  0.64945000  1.0
  N  N120  1  0.27302000  0.64945000  0.55676000  1.0
  N  N121  1  0.72698000  0.28374000  0.37643000  1.0
  N  N122  1  0.72698000  0.37643000  0.28373000  1.0
  N  N123  1  0.62357000  0.90731000  0.35055000  1.0
  N  N124  1  0.62357000  0.35055000  0.90731000  1.0
  N  N125  1  0.37643000  0.28374000  0.72698000  1.0
  N  N126  1  0.37643000  0.72698000  0.28374000  1.0
  N  N127  1  0.55676000  0.27302000  0.64945000  1.0
  N  N128  1  0.44324000  0.71626000  0.09269000  1.0
  N  N129  1  0.55675000  0.64944000  0.27301000  1.0
  N  N130  1  0.44325000  0.09270000  0.71627000  1.0
  N  N131  1  0.90731000  0.62357000  0.35055000  1.0
  N  N132  1  0.09269000  0.71626000  0.44324000  1.0
  N  N133  1  0.90731000  0.35056000  0.62357000  1.0
  N  N134  1  0.09269000  0.44324000  0.71626000  1.0
  N  N135  1  0.35055000  0.62357000  0.90730000  1.0
  N  N136  1  0.64945000  0.27302000  0.55676000  1.0
  N  N137  1  0.35055000  0.90730000  0.62357000  1.0
