# generated using pymatgen
data_CuH2(C3O2)2
_symmetry_space_group_name_H-M   'P 1'
_cell_length_a   18.71678397
_cell_length_b   18.71680000
_cell_length_c   18.71890000
_cell_angle_alpha   119.98120000
_cell_angle_beta   119.98141465
_cell_angle_gamma   90.01968101
_symmetry_Int_Tables_number   1
_chemical_formula_structural   CuH2(C3O2)2
_chemical_formula_sum   'Cu12 H24 C72 O48'
_cell_volume   4638.72786154
_cell_formula_units_Z   12
loop_
 _symmetry_equiv_pos_site_id
 _symmetry_equiv_pos_as_xyz
  1  'x, y, z'
loop_
 _atom_site_type_symbol
 _atom_site_label
 _atom_site_symmetry_multiplicity
 _atom_site_fract_x
 _atom_site_fract_y
 _atom_site_fract_z
 _atom_site_occupancy
  Cu  Cu0  1  0.43438000  0.43438000  0.43439000  1.0
  Cu  Cu1  1  0.99999000  0.99999000  0.56562000  1.0
  Cu  Cu2  1  0.56561000  0.56561000  0.56560000  1.0
  Cu  Cu3  1  0.00001000  0.00001000  0.43435000  1.0
  Cu  Cu4  1  0.43437000  1.00000000  0.43437000  1.0
  Cu  Cu5  1  0.00000000  0.43435000  0.43435000  1.0
  Cu  Cu6  1  0.99999000  0.43432000  0.99999000  1.0
  Cu  Cu7  1  0.43436000  0.99999000  0.00000000  1.0
  Cu  Cu8  1  0.99999000  0.56561000  0.56559000  1.0
  Cu  Cu9  1  0.56564000  0.00001000  0.00000000  1.0
  Cu  Cu10  1  0.56561000  1.00000000  0.56560000  1.0
  Cu  Cu11  1  0.00001000  0.56562000  0.00001000  1.0
  H  H12  1  0.49629000  0.73383000  0.76235000  1.0
  H  H13  1  0.02854000  0.26617000  0.53223000  1.0
  H  H14  1  0.26617000  0.50371000  0.23764000  1.0
  H  H15  1  0.73384000  0.97146000  0.46778000  1.0
  H  H16  1  0.73382000  0.26607000  0.76235000  1.0
  H  H17  1  0.26611000  0.02850000  0.76238000  1.0
  H  H18  1  0.02854000  0.49634000  0.76238000  1.0
  H  H19  1  0.73383000  0.49630000  0.76236000  1.0
  H  H20  1  0.97149000  0.73389000  0.23761000  1.0
  H  H21  1  0.73389000  0.97149000  0.23762000  1.0
  H  H22  1  0.49634000  0.02854000  0.76238000  1.0
  H  H23  1  0.49634000  0.73389000  0.46778000  1.0
  H  H24  1  0.26610000  0.50366000  0.53222000  1.0
  H  H25  1  0.26607000  0.73381000  0.76235000  1.0
  H  H26  1  0.26617000  0.02854000  0.53223000  1.0
  H  H27  1  0.97146000  0.50367000  0.23762000  1.0
  H  H28  1  0.26619000  0.73394000  0.23766000  1.0
  H  H29  1  0.97146000  0.73383000  0.46778000  1.0
  H  H30  1  0.73390000  0.49635000  0.46778000  1.0
  H  H31  1  0.50366000  0.26610000  0.53222000  1.0
  H  H32  1  0.73393000  0.26619000  0.23766000  1.0
  H  H33  1  0.50367000  0.97146000  0.23763000  1.0
  H  H34  1  0.02851000  0.26611000  0.76238000  1.0
  H  H35  1  0.50371000  0.26617000  0.23764000  1.0
  C  C36  1  0.38638000  0.61357000  0.64338000  1.0
  C  C37  1  0.02979000  0.25702000  0.64339000  1.0
  C  C38  1  0.38643000  0.61361000  0.35661000  1.0
  C  C39  1  0.74298000  0.97021000  0.35662000  1.0
  C  C40  1  0.61357000  0.25701000  0.64339000  1.0
  C  C41  1  0.25702000  0.02979000  0.64339000  1.0
  C  C42  1  0.02980000  0.38642000  0.64340000  1.0
  C  C43  1  0.74295000  0.38639000  0.77276000  1.0
  C  C44  1  0.97021000  0.74298000  0.35662000  1.0
  C  C45  1  0.61359000  0.97021000  0.22723000  1.0
  C  C46  1  0.38642000  0.02979000  0.77278000  1.0
  C  C47  1  0.38644000  0.74300000  0.35662000  1.0
  C  C48  1  0.25700000  0.61357000  0.64339000  1.0
  C  C49  1  0.38639000  0.74295000  0.77276000  1.0
  C  C50  1  0.38642000  0.02980000  0.64340000  1.0
  C  C51  1  0.97021000  0.61359000  0.22723000  1.0
  C  C52  1  0.25705000  0.61362000  0.22724000  1.0
  C  C53  1  0.97020000  0.61358000  0.35661000  1.0
  C  C54  1  0.61362000  0.38643000  0.35662000  1.0
  C  C55  1  0.61357000  0.38639000  0.64339000  1.0
  C  C56  1  0.74300000  0.38644000  0.35663000  1.0
  C  C57  1  0.61358000  0.97020000  0.35660000  1.0
  C  C58  1  0.02979000  0.38642000  0.77277000  1.0
  C  C59  1  0.61362000  0.25705000  0.22724000  1.0
  C  C60  1  0.43057000  0.56940000  0.59355000  1.0
  C  C61  1  0.02417000  0.16300000  0.59357000  1.0
  C  C62  1  0.43059000  0.56943000  0.40645000  1.0
  C  C63  1  0.83700000  0.97582000  0.40643000  1.0
  C  C64  1  0.56940000  0.16297000  0.59353000  1.0
  C  C65  1  0.16300000  0.02418000  0.59358000  1.0
  C  C66  1  0.02413000  0.43060000  0.59355000  1.0
  C  C67  1  0.83696000  0.43058000  0.86114000  1.0
  C  C68  1  0.97582000  0.83700000  0.40642000  1.0
  C  C69  1  0.56939000  0.97581000  0.13882000  1.0
  C  C70  1  0.43062000  0.02419000  0.86119000  1.0
  C  C71  1  0.43060000  0.83703000  0.40647000  1.0
  C  C72  1  0.16297000  0.56940000  0.59353000  1.0
  C  C73  1  0.43058000  0.83696000  0.86114000  1.0
  C  C74  1  0.43060000  0.02413000  0.59354000  1.0
  C  C75  1  0.97581000  0.56939000  0.13882000  1.0
  C  C76  1  0.16304000  0.56942000  0.13886000  1.0
  C  C77  1  0.97587000  0.56940000  0.40645000  1.0
  C  C78  1  0.56943000  0.43059000  0.40645000  1.0
  C  C79  1  0.56940000  0.43056000  0.59354000  1.0
  C  C80  1  0.83703000  0.43060000  0.40648000  1.0
  C  C81  1  0.56940000  0.97587000  0.40646000  1.0
  C  C82  1  0.02418000  0.43061000  0.86117000  1.0
  C  C83  1  0.56942000  0.16304000  0.13884000  1.0
  C  C84  1  0.42966000  0.69983000  0.72976000  1.0
  C  C85  1  0.02993000  0.30016000  0.60024000  1.0
  C  C86  1  0.30017000  0.57034000  0.27024000  1.0
  C  C87  1  0.69985000  0.97007000  0.39977000  1.0
  C  C88  1  0.69983000  0.30011000  0.72976000  1.0
  C  C89  1  0.30014000  0.02989000  0.72977000  1.0
  C  C90  1  0.02993000  0.42971000  0.72979000  1.0
  C  C91  1  0.69983000  0.42966000  0.72976000  1.0
  C  C92  1  0.97011000  0.69987000  0.27024000  1.0
  C  C93  1  0.69987000  0.97010000  0.27024000  1.0
  C  C94  1  0.42970000  0.02992000  0.72977000  1.0
  C  C95  1  0.42973000  0.69988000  0.39977000  1.0
  C  C96  1  0.30011000  0.57028000  0.60023000  1.0
  C  C97  1  0.30011000  0.69983000  0.72976000  1.0
  C  C98  1  0.30015000  0.02992000  0.60023000  1.0
  C  C99  1  0.97008000  0.57030000  0.27023000  1.0
  C  C100  1  0.30018000  0.69990000  0.27025000  1.0
  C  C101  1  0.97007000  0.69985000  0.39976000  1.0
  C  C102  1  0.69988000  0.42973000  0.39976000  1.0
  C  C103  1  0.57028000  0.30012000  0.60024000  1.0
  C  C104  1  0.69990000  0.30018000  0.27025000  1.0
  C  C105  1  0.57030000  0.97008000  0.27022000  1.0
  C  C106  1  0.02990000  0.30014000  0.72977000  1.0
  C  C107  1  0.57034000  0.30017000  0.27024000  1.0
  O  O108  1  0.38627000  0.49185000  0.51274000  1.0
  O  O109  1  0.02092000  0.12647000  0.63463000  1.0
  O  O110  1  0.50814000  0.61373000  0.48726000  1.0
  O  O111  1  0.87352000  0.97908000  0.36536000  1.0
  O  O112  1  0.49186000  0.12646000  0.51272000  1.0
  O  O113  1  0.12650000  0.02092000  0.51276000  1.0
  O  O114  1  0.02086000  0.38631000  0.51274000  1.0
  O  O115  1  0.87347000  0.38626000  0.89440000  1.0
  O  O116  1  0.97908000  0.87350000  0.48724000  1.0
  O  O117  1  0.49182000  0.97906000  0.10555000  1.0
  O  O118  1  0.38629000  0.02093000  0.89445000  1.0
  O  O119  1  0.38630000  0.87355000  0.36544000  1.0
  O  O120  1  0.12644000  0.61371000  0.63457000  1.0
  O  O121  1  0.50817000  0.87349000  0.89442000  1.0
  O  O122  1  0.50816000  0.02087000  0.63457000  1.0
  O  O123  1  0.97906000  0.61370000  0.10554000  1.0
  O  O124  1  0.12651000  0.49184000  0.10557000  1.0
  O  O125  1  0.97913000  0.49184000  0.36543000  1.0
  O  O126  1  0.49186000  0.38629000  0.36542000  1.0
  O  O127  1  0.61370000  0.50814000  0.63458000  1.0
  O  O128  1  0.87355000  0.50815000  0.48729000  1.0
  O  O129  1  0.61369000  0.97913000  0.48726000  1.0
  O  O130  1  0.02093000  0.50819000  0.89445000  1.0
  O  O131  1  0.61374000  0.12652000  0.10559000  1.0
  O  O132  1  0.61373000  0.50814000  0.48726000  1.0
  O  O133  1  0.97907000  0.87352000  0.36536000  1.0
  O  O134  1  0.49186000  0.38627000  0.51274000  1.0
  O  O135  1  0.12647000  0.02092000  0.63464000  1.0
  O  O136  1  0.50814000  0.87355000  0.48728000  1.0
  O  O137  1  0.87351000  0.97908000  0.48725000  1.0
  O  O138  1  0.97913000  0.61370000  0.48727000  1.0
  O  O139  1  0.12651000  0.61374000  0.10559000  1.0
  O  O140  1  0.02092000  0.12650000  0.51276000  1.0
  O  O141  1  0.50819000  0.02094000  0.89445000  1.0
  O  O142  1  0.61371000  0.97906000  0.10554000  1.0
  O  O143  1  0.61370000  0.12644000  0.63456000  1.0
  O  O144  1  0.87355000  0.38631000  0.36544000  1.0
  O  O145  1  0.49184000  0.12651000  0.10557000  1.0
  O  O146  1  0.49184000  0.97913000  0.36543000  1.0
  O  O147  1  0.02093000  0.38629000  0.89444000  1.0
  O  O148  1  0.87350000  0.50817000  0.89443000  1.0
  O  O149  1  0.02087000  0.50817000  0.63458000  1.0
  O  O150  1  0.50814000  0.61370000  0.63458000  1.0
  O  O151  1  0.38630000  0.49186000  0.36542000  1.0
  O  O152  1  0.12645000  0.49187000  0.51273000  1.0
  O  O153  1  0.38630000  0.02087000  0.51273000  1.0
  O  O154  1  0.97905000  0.49182000  0.10555000  1.0
  O  O155  1  0.38626000  0.87347000  0.89439000  1.0
