# generated using pymatgen
data_Zn4H44C50N2O13
_symmetry_space_group_name_H-M   'P 1'
_cell_length_a   13.72190000
_cell_length_b   13.73020000
_cell_length_c   24.55960000
_cell_angle_alpha   90.00040000
_cell_angle_beta   90.00030000
_cell_angle_gamma   89.98230000
_symmetry_Int_Tables_number   1
_chemical_formula_structural   Zn4H44C50N2O13
_chemical_formula_sum   'Zn8 H88 C100 N4 O26'
_cell_volume   4627.13725195
_cell_formula_units_Z   2
loop_
 _symmetry_equiv_pos_site_id
 _symmetry_equiv_pos_as_xyz
  1  'x, y, z'
loop_
 _atom_site_type_symbol
 _atom_site_label
 _atom_site_symmetry_multiplicity
 _atom_site_fract_x
 _atom_site_fract_y
 _atom_site_fract_z
 _atom_site_occupancy
  Zn  Zn0  1  0.86694000  0.25813000  0.70379000  1.0
  Zn  Zn1  1  0.63304000  0.24196000  0.70379000  1.0
  Zn  Zn2  1  0.24124000  0.86666000  0.20361000  1.0
  Zn  Zn3  1  0.25878000  0.63331000  0.20361000  1.0
  Zn  Zn4  1  0.13325000  0.74177000  0.29555000  1.0
  Zn  Zn5  1  0.36676000  0.75822000  0.29555000  1.0
  Zn  Zn6  1  0.75778000  0.13310000  0.79551000  1.0
  Zn  Zn7  1  0.74223000  0.36702000  0.79550000  1.0
  H  H8  1  0.91397000  0.87129000  0.77437000  1.0
  H  H9  1  0.58604000  0.62883000  0.77434000  1.0
  H  H10  1  0.62789000  0.91325000  0.27344000  1.0
  H  H11  1  0.87219000  0.58665000  0.27350000  1.0
  H  H12  1  0.08470000  0.12779000  0.22433000  1.0
  H  H13  1  0.41534000  0.37222000  0.22431000  1.0
  H  H14  1  0.36999000  0.08718000  0.72564000  1.0
  H  H15  1  0.13000000  0.41290000  0.72562000  1.0
  H  H16  1  0.01629000  0.72895000  0.74739000  1.0
  H  H17  1  0.48373000  0.77117000  0.74736000  1.0
  H  H18  1  0.77041000  0.01549000  0.24671000  1.0
  H  H19  1  0.72964000  0.48446000  0.24676000  1.0
  H  H20  1  0.98282000  0.27041000  0.25140000  1.0
  H  H21  1  0.51717000  0.22956000  0.25137000  1.0
  H  H22  1  0.22797000  0.98446000  0.75258000  1.0
  H  H23  1  0.27205000  0.51557000  0.75257000  1.0
  H  H24  1  0.17098000  0.91075000  0.63335000  1.0
  H  H25  1  0.32899000  0.58934000  0.63336000  1.0
  H  H26  1  0.58861000  0.17133000  0.13311000  1.0
  H  H27  1  0.91140000  0.32861000  0.13313000  1.0
  H  H28  1  0.82932000  0.08954000  0.36637000  1.0
  H  H29  1  0.67063000  0.41035000  0.36641000  1.0
  H  H30  1  0.41050000  0.83003000  0.86644000  1.0
  H  H31  1  0.08955000  0.67005000  0.86642000  1.0
  H  H32  1  0.06761000  0.05191000  0.66025000  1.0
  H  H33  1  0.43234000  0.44817000  0.66026000  1.0
  H  H34  1  0.44724000  0.06794000  0.15972000  1.0
  H  H35  1  0.05279000  0.43195000  0.15975000  1.0
  H  H36  1  0.93246000  0.94816000  0.33953000  1.0
  H  H37  1  0.56753000  0.55175000  0.33958000  1.0
  H  H38  1  0.55142000  0.93380000  0.83955000  1.0
  H  H39  1  0.94861000  0.56632000  0.83953000  1.0
  H  H40  1  0.12040000  0.67117000  0.64961000  1.0
  H  H41  1  0.37960000  0.82895000  0.64961000  1.0
  H  H42  1  0.82847000  0.12021000  0.14957000  1.0
  H  H43  1  0.67153000  0.37979000  0.14961000  1.0
  H  H44  1  0.87962000  0.32876000  0.34959000  1.0
  H  H45  1  0.62031000  0.17116000  0.34958000  1.0
  H  H46  1  0.17022000  0.87904000  0.84960000  1.0
  H  H47  1  0.32983000  0.62097000  0.84959000  1.0
  H  H48  1  0.18671000  0.68505000  0.70990000  1.0
  H  H49  1  0.31330000  0.81505000  0.70990000  1.0
  H  H50  1  0.81416000  0.18608000  0.20996000  1.0
  H  H51  1  0.68586000  0.31386000  0.20998000  1.0
  H  H52  1  0.81330000  0.31484000  0.28931000  1.0
  H  H53  1  0.68664000  0.18507000  0.28931000  1.0
  H  H54  1  0.18544000  0.81321000  0.78927000  1.0
  H  H55  1  0.31462000  0.68681000  0.78927000  1.0
  H  H56  1  0.09191000  0.72037000  0.56789000  1.0
  H  H57  1  0.40809000  0.77977000  0.56789000  1.0
  H  H58  1  0.77386000  0.09100000  0.06796000  1.0
  H  H59  1  0.72615000  0.40905000  0.06799000  1.0
  H  H60  1  0.90820000  0.27892000  0.43132000  1.0
  H  H61  1  0.59176000  0.22097000  0.43133000  1.0
  H  H62  1  0.21904000  0.90775000  0.93136000  1.0
  H  H63  1  0.28097000  0.59225000  0.93136000  1.0
  H  H64  1  0.00733000  0.73335000  0.44436000  1.0
  H  H65  1  0.49275000  0.76678000  0.44435000  1.0
  H  H66  1  0.72893000  0.01927000  0.95308000  1.0
  H  H67  1  0.77123000  0.48081000  0.95315000  1.0
  H  H68  1  0.99297000  0.26639000  0.55586000  1.0
  H  H69  1  0.50701000  0.23355000  0.55586000  1.0
  H  H70  1  0.23736000  0.00059000  0.05763000  1.0
  H  H71  1  0.26244000  0.49933000  0.05765000  1.0
  H  H72  1  0.91790000  0.77322000  0.39654000  1.0
  H  H73  1  0.58201000  0.72635000  0.39659000  1.0
  H  H74  1  0.74146000  0.92827000  0.90173000  1.0
  H  H75  1  0.75844000  0.57174000  0.90178000  1.0
  H  H76  1  0.08256000  0.22677000  0.60367000  1.0
  H  H77  1  0.41742000  0.27317000  0.60367000  1.0
  H  H78  1  0.27228000  0.09417000  0.10420000  1.0
  H  H79  1  0.22783000  0.40565000  0.10423000  1.0
  H  H80  1  0.93076000  0.83490000  0.46038000  1.0
  H  H81  1  0.56877000  0.66487000  0.46047000  1.0
  H  H82  1  0.67300000  0.90218000  0.96217000  1.0
  H  H83  1  0.82697000  0.59801000  0.96217000  1.0
  H  H84  1  0.06963000  0.16484000  0.53989000  1.0
  H  H85  1  0.43033000  0.33508000  0.53988000  1.0
  H  H86  1  0.33511000  0.08145000  0.04068000  1.0
  H  H87  1  0.16487000  0.41823000  0.04074000  1.0
  H  H88  1  0.88008000  0.71487000  0.45819000  1.0
  H  H89  1  0.62007000  0.78463000  0.45821000  1.0
  H  H90  1  0.80275000  0.91408000  0.96550000  1.0
  H  H91  1  0.69725000  0.58588000  0.96558000  1.0
  H  H92  1  0.12020000  0.28495000  0.54192000  1.0
  H  H93  1  0.37979000  0.21496000  0.54193000  1.0
  H  H94  1  0.21256000  0.12597000  0.04193000  1.0
  H  H95  1  0.28753000  0.37403000  0.04194000  1.0
  C  C96  1  0.92353000  0.05563000  0.73434000  1.0
  C  C97  1  0.57644000  0.44447000  0.73435000  1.0
  C  C98  1  0.44351000  0.92370000  0.23374000  1.0
  C  C99  1  0.05656000  0.57618000  0.23378000  1.0
  C  C100  1  0.07580000  0.94396000  0.26499000  1.0
  C  C101  1  0.42422000  0.55603000  0.26501000  1.0
  C  C102  1  0.55495000  0.07712000  0.76519000  1.0
  C  C103  1  0.94505000  0.42301000  0.76516000  1.0
  C  C104  1  0.98530000  0.97029000  0.71924000  1.0
  C  C105  1  0.51468000  0.52981000  0.71923000  1.0
  C  C106  1  0.52890000  0.98523000  0.21855000  1.0
  C  C107  1  0.97116000  0.51467000  0.21859000  1.0
  C  C108  1  0.01402000  0.02930000  0.28001000  1.0
  C  C109  1  0.48598000  0.47067000  0.28003000  1.0
  C  C110  1  0.46946000  0.01581000  0.78058000  1.0
  C  C111  1  0.03054000  0.48431000  0.78056000  1.0
  C  C112  1  0.97062000  0.87900000  0.74356000  1.0
  C  C113  1  0.52938000  0.62112000  0.74354000  1.0
  C  C114  1  0.62025000  0.97012000  0.24278000  1.0
  C  C115  1  0.87981000  0.52980000  0.24282000  1.0
  C  C116  1  0.02845000  0.12037000  0.25538000  1.0
  C  C117  1  0.47156000  0.37961000  0.25538000  1.0
  C  C118  1  0.37798000  0.03049000  0.75639000  1.0
  C  C119  1  0.12202000  0.46959000  0.75637000  1.0
  C  C120  1  0.02783000  0.79984000  0.72823000  1.0
  C  C121  1  0.47218000  0.70029000  0.72820000  1.0
  C  C122  1  0.69949000  0.02730000  0.22758000  1.0
  C  C123  1  0.80055000  0.47264000  0.22763000  1.0
  C  C124  1  0.97151000  0.19967000  0.27076000  1.0
  C  C125  1  0.52848000  0.30029000  0.27075000  1.0
  C  C126  1  0.29897000  0.97303000  0.77168000  1.0
  C  C127  1  0.20105000  0.52702000  0.77167000  1.0
  C  C128  1  0.10088000  0.81073000  0.68867000  1.0
  C  C129  1  0.39912000  0.68938000  0.68865000  1.0
  C  C130  1  0.68858000  0.10070000  0.18826000  1.0
  C  C131  1  0.81145000  0.39926000  0.18830000  1.0
  C  C132  1  0.89889000  0.18908000  0.31057000  1.0
  C  C133  1  0.60107000  0.31085000  0.31058000  1.0
  C  C134  1  0.31020000  0.89978000  0.81107000  1.0
  C  C135  1  0.18983000  0.60028000  0.81106000  1.0
  C  C136  1  0.11490000  0.90185000  0.66438000  1.0
  C  C137  1  0.38507000  0.59825000  0.66438000  1.0
  C  C138  1  0.59744000  0.11501000  0.16398000  1.0
  C  C139  1  0.90259000  0.38492000  0.16401000  1.0
  C  C140  1  0.88503000  0.09815000  0.33512000  1.0
  C  C141  1  0.61493000  0.40176000  0.33514000  1.0
  C  C142  1  0.40141000  0.88605000  0.83541000  1.0
  C  C143  1  0.09864000  0.61403000  0.83540000  1.0
  C  C144  1  0.05753000  0.98103000  0.67937000  1.0
  C  C145  1  0.44244000  0.51906000  0.67937000  1.0
  C  C146  1  0.51817000  0.05765000  0.17882000  1.0
  C  C147  1  0.98187000  0.44226000  0.17885000  1.0
  C  C148  1  0.94225000  0.01886000  0.32016000  1.0
  C  C149  1  0.55773000  0.48107000  0.32019000  1.0
  C  C150  1  0.48044000  0.94367000  0.82045000  1.0
  C  C151  1  0.01959000  0.55643000  0.82044000  1.0
  C  C152  1  0.16349000  0.72424000  0.67299000  1.0
  C  C153  1  0.33651000  0.77588000  0.67299000  1.0
  C  C154  1  0.77523000  0.16325000  0.17291000  1.0
  C  C155  1  0.72479000  0.33673000  0.17294000  1.0
  C  C156  1  0.83648000  0.27568000  0.32624000  1.0
  C  C157  1  0.66347000  0.22423000  0.32623000  1.0
  C  C158  1  0.22398000  0.83649000  0.82637000  1.0
  C  C159  1  0.27608000  0.66353000  0.82636000  1.0
  C  C160  1  0.25000000  0.75008000  0.58681000  1.0
  C  C161  1  0.75001000  0.25002000  0.08687000  1.0
  C  C162  1  0.74997000  0.24993000  0.41243000  1.0
  C  C163  1  0.25001000  0.75000000  0.91249000  1.0
  C  C164  1  0.16558000  0.73290000  0.55320000  1.0
  C  C165  1  0.33441000  0.76725000  0.55320000  1.0
  C  C166  1  0.76426000  0.16508000  0.05328000  1.0
  C  C167  1  0.73576000  0.33497000  0.05330000  1.0
  C  C168  1  0.83449000  0.26671000  0.44604000  1.0
  C  C169  1  0.66548000  0.23318000  0.44605000  1.0
  C  C170  1  0.23221000  0.83425000  0.94609000  1.0
  C  C171  1  0.26777000  0.66574000  0.94609000  1.0
  C  C172  1  0.19276000  0.73832000  0.49977000  1.0
  C  C173  1  0.30723000  0.76187000  0.49978000  1.0
  C  C174  1  0.75983000  0.19257000  0.99987000  1.0
  C  C175  1  0.74019000  0.30753000  0.99988000  1.0
  C  C176  1  0.80723000  0.26146000  0.49947000  1.0
  C  C177  1  0.69275000  0.23847000  0.49947000  1.0
  C  C178  1  0.23780000  0.80720000  0.99952000  1.0
  C  C179  1  0.26213000  0.69278000  0.99953000  1.0
  C  C180  1  0.93399000  0.76396000  0.43996000  1.0
  C  C181  1  0.56593000  0.73578000  0.44000000  1.0
  C  C182  1  0.73634000  0.94093000  0.94570000  1.0
  C  C183  1  0.76367000  0.55913000  0.94575000  1.0
  C  C184  1  0.06635000  0.23586000  0.56024000  1.0
  C  C185  1  0.43362000  0.26407000  0.56024000  1.0
  C  C186  1  0.26424000  0.07551000  0.06102000  1.0
  C  C187  1  0.23576000  0.42434000  0.06105000  1.0
  C  C188  1  0.25000000  0.75007000  0.45504000  1.0
  C  C189  1  0.75000000  0.25006000  0.95509000  1.0
  C  C190  1  0.74999000  0.24996000  0.54424000  1.0
  C  C191  1  0.24995000  0.74999000  0.04422000  1.0
  C  C192  1  0.25001000  0.75006000  0.39521000  1.0
  C  C193  1  0.75001000  0.25006000  0.89525000  1.0
  C  C194  1  0.75000000  0.24998000  0.60409000  1.0
  C  C195  1  0.24999000  0.75003000  0.10402000  1.0
  N  N196  1  0.25000000  0.75006000  0.64204000  1.0
  N  N197  1  0.75000000  0.25000000  0.14208000  1.0
  N  N198  1  0.74997000  0.24994000  0.35721000  1.0
  N  N199  1  0.25004000  0.75001000  0.85726000  1.0
  O  O200  1  0.93973000  0.13475000  0.70871000  1.0
  O  O201  1  0.56025000  0.36535000  0.70872000  1.0
  O  O202  1  0.36430000  0.93992000  0.20815000  1.0
  O  O203  1  0.13578000  0.55994000  0.20820000  1.0
  O  O204  1  0.06023000  0.86507000  0.29099000  1.0
  O  O205  1  0.43974000  0.63488000  0.29104000  1.0
  O  O206  1  0.63434000  0.06048000  0.79053000  1.0
  O  O207  1  0.86565000  0.43967000  0.79050000  1.0
  O  O208  1  0.85943000  0.04252000  0.77142000  1.0
  O  O209  1  0.64056000  0.45758000  0.77142000  1.0
  O  O210  1  0.45669000  0.85981000  0.27090000  1.0
  O  O211  1  0.04337000  0.64011000  0.27092000  1.0
  O  O212  1  0.13938000  0.95688000  0.22764000  1.0
  O  O213  1  0.36070000  0.54314000  0.22762000  1.0
  O  O214  1  0.54182000  0.14116000  0.72810000  1.0
  O  O215  1  0.95817000  0.35895000  0.72809000  1.0
  O  O216  1  0.16995000  0.72623000  0.37234000  1.0
  O  O217  1  0.33005000  0.77389000  0.37233000  1.0
  O  O218  1  0.77174000  0.16943000  0.87241000  1.0
  O  O219  1  0.72829000  0.33068000  0.87241000  1.0
  O  O220  1  0.83024000  0.27319000  0.62696000  1.0
  O  O221  1  0.66977000  0.22682000  0.62697000  1.0
  O  O222  1  0.22587000  0.82999000  0.12686000  1.0
  O  O223  1  0.27412000  0.67008000  0.12687000  1.0
  O  O224  1  0.75000000  0.25005000  0.74969000  1.0
  O  O225  1  0.25000000  0.74998000  0.24957000  1.0
