# generated using pymatgen
data_CuH26C30(NO)4
_symmetry_space_group_name_H-M   'P 1'
_cell_length_a   6.93878000
_cell_length_b   8.53449000
_cell_length_c   11.32160000
_cell_angle_alpha   76.45000000
_cell_angle_beta   76.94860000
_cell_angle_gamma   88.18960000
_symmetry_Int_Tables_number   1
_chemical_formula_structural   CuH26C30(NO)4
_chemical_formula_sum   'Cu1 H26 C30 N4 O4'
_cell_volume   634.79369673
_cell_formula_units_Z   1
loop_
 _symmetry_equiv_pos_site_id
 _symmetry_equiv_pos_as_xyz
  1  'x, y, z'
loop_
 _atom_site_type_symbol
 _atom_site_label
 _atom_site_symmetry_multiplicity
 _atom_site_fract_x
 _atom_site_fract_y
 _atom_site_fract_z
 _atom_site_occupancy
  Cu  Cu0  1  0.50000000  0.00000000  0.00000000  1.0
  H  H1  1  0.10344000  0.61096000  0.98625000  1.0
  H  H2  1  0.89657000  0.38903000  0.01375000  1.0
  H  H3  1  0.30247000  0.47374000  0.98377000  1.0
  H  H4  1  0.69754000  0.52626000  0.01623000  1.0
  H  H5  1  0.23691000  0.57142000  0.84186000  1.0
  H  H6  1  0.76309000  0.42858000  0.15814000  1.0
  H  H7  1  0.60091000  0.63683000  0.78089000  1.0
  H  H8  1  0.39909000  0.36317000  0.21911000  1.0
  H  H9  1  0.77079000  0.74607000  0.58993000  1.0
  H  H10  1  0.22920000  0.25395000  0.41006000  1.0
  H  H11  1  0.07966000  0.75863000  0.42754000  1.0
  H  H12  1  0.92034000  0.24139000  0.57245000  1.0
  H  H13  1  0.39457000  0.85520000  0.45822000  1.0
  H  H14  1  0.60543000  0.14480000  0.54178000  1.0
  H  H15  1  0.39931000  0.94340000  0.65267000  1.0
  H  H16  1  0.60068000  0.05660000  0.34733000  1.0
  H  H17  1  0.08672000  0.94116000  0.81148000  1.0
  H  H18  1  0.91327000  0.05884000  0.18853000  1.0
  H  H19  1  0.05496000  0.13996000  0.94859000  1.0
  H  H20  1  0.94503000  0.86004000  0.05142000  1.0
  H  H21  1  0.90010000  0.31387000  0.78929000  1.0
  H  H22  1  0.09990000  0.68614000  0.21071000  1.0
  H  H23  1  0.12373000  0.47933000  0.59127000  1.0
  H  H24  1  0.87627000  0.52068000  0.40873000  1.0
  H  H25  1  0.62045000  0.27679000  0.73994000  1.0
  H  H26  1  0.37954000  0.72320000  0.26006000  1.0
  C  C27  1  0.24939000  0.58722000  0.93328000  1.0
  C  C28  1  0.75062000  0.41277000  0.06672000  1.0
  C  C29  1  0.39191000  0.72343000  0.91918000  1.0
  C  C30  1  0.60809000  0.27657000  0.08082000  1.0
  C  C31  1  0.57472000  0.73081000  0.83285000  1.0
  C  C32  1  0.42528000  0.26919000  0.16715000  1.0
  C  C33  1  0.72447000  0.84861000  0.80889000  1.0
  C  C34  1  0.27554000  0.15139000  0.19111000  1.0
  C  C35  1  0.90894000  0.84252000  0.71243000  1.0
  C  C36  1  0.09106000  0.15748000  0.28757000  1.0
  C  C37  1  0.90839000  0.78850000  0.60443000  1.0
  C  C38  1  0.09161000  0.21151000  0.39556000  1.0
  C  C39  1  0.08243000  0.79472000  0.51323000  1.0
  C  C40  1  0.91757000  0.20529000  0.48677000  1.0
  C  C41  1  0.25908000  0.85100000  0.52975000  1.0
  C  C42  1  0.74092000  0.14901000  0.47024000  1.0
  C  C43  1  0.26149000  0.90231000  0.63778000  1.0
  C  C44  1  0.73852000  0.09769000  0.36222000  1.0
  C  C45  1  0.08688000  0.89977000  0.72766000  1.0
  C  C46  1  0.91312000  0.10023000  0.27234000  1.0
  C  C47  1  0.14744000  0.21116000  0.86280000  1.0
  C  C48  1  0.85256000  0.78883000  0.13720000  1.0
  C  C49  1  0.06084000  0.30955000  0.77223000  1.0
  C  C50  1  0.93916000  0.69046000  0.22777000  1.0
  C  C51  1  0.18230000  0.39912000  0.66420000  1.0
  C  C52  1  0.81770000  0.60088000  0.33580000  1.0
  C  C53  1  0.38833000  0.38806000  0.65130000  1.0
  C  C54  1  0.61167000  0.61193000  0.34870000  1.0
  C  C55  1  0.46100000  0.28784000  0.74801000  1.0
  C  C56  1  0.53900000  0.71216000  0.25198000  1.0
  N  N57  1  0.34382000  0.19955000  0.85083000  1.0
  N  N58  1  0.65618000  0.80044000  0.14917000  1.0
  N  N59  1  0.53182000  0.47281000  0.54896000  1.0
  N  N60  1  0.46818000  0.52719000  0.45104000  1.0
  O  O61  1  0.33487000  0.82216000  0.98906000  1.0
  O  O62  1  0.66513000  0.17785000  0.01094000  1.0
  O  O63  1  0.71879000  0.96504000  0.86403000  1.0
  O  O64  1  0.28121000  0.03496000  0.13597000  1.0
