# generated using pymatgen
data_Hf3H11C69(Br15O8)2
_symmetry_space_group_name_H-M   'P 1'
_cell_length_a   19.92390000
_cell_length_b   19.95850000
_cell_length_c   19.98880000
_cell_angle_alpha   94.42990000
_cell_angle_beta   93.37520000
_cell_angle_gamma   94.17820000
_symmetry_Int_Tables_number   1
_chemical_formula_structural   Hf3H11C69(Br15O8)2
_chemical_formula_sum   'Hf6 H22 C138 Br60 O32'
_cell_volume   7887.11548786
_cell_formula_units_Z   2
loop_
 _symmetry_equiv_pos_site_id
 _symmetry_equiv_pos_as_xyz
  1  'x, y, z'
loop_
 _atom_site_type_symbol
 _atom_site_label
 _atom_site_symmetry_multiplicity
 _atom_site_fract_x
 _atom_site_fract_y
 _atom_site_fract_z
 _atom_site_occupancy
  Hf  Hf0  1  0.81297000  0.96434000  0.86932000  1.0
  Hf  Hf1  1  0.77670000  0.86249000  0.00070000  1.0
  Hf  Hf2  1  0.97924000  0.99811000  0.93838000  1.0
  Hf  Hf3  1  0.91274000  0.83201000  0.90261000  1.0
  Hf  Hf4  1  0.84156000  0.03053000  0.03481000  1.0
  Hf  Hf5  1  0.94078000  0.89817000  0.07039000  1.0
  H  H6  1  0.92731000  0.30306000  0.60124000  1.0
  H  H7  1  0.93541000  0.28263000  0.38609000  1.0
  H  H8  1  0.96359000  0.11179000  0.50038000  1.0
  H  H9  1  0.79832000  0.75221000  0.44029000  1.0
  H  H10  1  0.84497000  0.59001000  0.56050000  1.0
  H  H11  1  0.84448000  0.56159000  0.34466000  1.0
  H  H12  1  0.24925000  0.55268000  0.99859000  1.0
  H  H13  1  0.21245000  0.33645000  0.98784000  1.0
  H  H14  1  0.05170000  0.46300000  0.03053000  1.0
  H  H15  1  0.50437000  0.31047000  0.91839000  1.0
  H  H16  1  0.54771000  0.52581000  0.94179000  1.0
  H  H17  1  0.70847000  0.39607000  0.91193000  1.0
  H  H18  1  0.48934000  0.88930000  0.32107000  1.0
  H  H19  1  0.27562000  0.90842000  0.30664000  1.0
  H  H20  1  0.39846000  0.98604000  0.15670000  1.0
  H  H21  1  0.25403000  0.84517000  0.59448000  1.0
  H  H22  1  0.47017000  0.85647000  0.62736000  1.0
  H  H23  1  0.34559000  0.85308000  0.79584000  1.0
  H  H24  1  0.77455000  0.82405000  0.86183000  1.0
  H  H25  1  0.87879000  0.08923000  0.91739000  1.0
  H  H26  1  0.03617000  0.87917000  0.97335000  1.0
  H  H27  1  0.82014000  0.93205000  0.12649000  1.0
  C  C28  1  0.94890000  0.20495000  0.55796000  1.0
  C  C29  1  0.93643000  0.27280000  0.55539000  1.0
  C  C30  1  0.93230000  0.30093000  0.49334000  1.0
  C  C31  1  0.94089000  0.26102000  0.43437000  1.0
  C  C32  1  0.95148000  0.19258000  0.43623000  1.0
  C  C33  1  0.95699000  0.16533000  0.49835000  1.0
  C  C34  1  0.81880000  0.65944000  0.38507000  1.0
  C  C35  1  0.80946000  0.69987000  0.44381000  1.0
  C  C36  1  0.81925000  0.67544000  0.50696000  1.0
  C  C37  1  0.83586000  0.60906000  0.51136000  1.0
  C  C38  1  0.84392000  0.56776000  0.45305000  1.0
  C  C39  1  0.83555000  0.59299000  0.38984000  1.0
  C  C40  1  0.14785000  0.51511000  0.01610000  1.0
  C  C41  1  0.21517000  0.50821000  0.00299000  1.0
  C  C42  1  0.23842000  0.44385000  0.99301000  1.0
  C  C43  1  0.19439000  0.38644000  0.99664000  1.0
  C  C44  1  0.12717000  0.39324000  0.01099000  1.0
  C  C45  1  0.10442000  0.45753000  0.02094000  1.0
  C  C46  1  0.60915000  0.34560000  0.91397000  1.0
  C  C47  1  0.54062000  0.35425000  0.92004000  1.0
  C  C48  1  0.51852000  0.41889000  0.93134000  1.0
  C  C49  1  0.56475000  0.47534000  0.93313000  1.0
  C  C50  1  0.63294000  0.46703000  0.92468000  1.0
  C  C51  1  0.65497000  0.40233000  0.91618000  1.0
  C  C52  1  0.45235000  0.93745000  0.23412000  1.0
  C  C53  1  0.44565000  0.90675000  0.29433000  1.0
  C  C54  1  0.38293000  0.90038000  0.32224000  1.0
  C  C55  1  0.32487000  0.91667000  0.28629000  1.0
  C  C56  1  0.33064000  0.94496000  0.22494000  1.0
  C  C57  1  0.39442000  0.95950000  0.20198000  1.0
  C  C58  1  0.29221000  0.84759000  0.69819000  1.0
  C  C59  1  0.29868000  0.84609000  0.62878000  1.0
  C  C60  1  0.36262000  0.84968000  0.60323000  1.0
  C  C61  1  0.42028000  0.85202000  0.64702000  1.0
  C  C62  1  0.41393000  0.85204000  0.71631000  1.0
  C  C63  1  0.35014000  0.85022000  0.74165000  1.0
  C  C64  1  0.92389000  0.05308000  0.79705000  1.0
  C  C65  1  0.66649000  0.89186000  0.88102000  1.0
  C  C66  1  0.84213000  0.84597000  0.75709000  1.0
  C  C67  1  0.74749000  0.09915000  0.93066000  1.0
  C  C68  1  0.83282000  0.80468000  0.14080000  1.0
  C  C69  1  0.08639000  0.97333000  0.06124000  1.0
  C  C70  1  0.79785000  0.71724000  0.93197000  1.0
  C  C71  1  0.69937000  0.96410000  0.09106000  1.0
  C  C72  1  0.96137000  0.14352000  0.01329000  1.0
  C  C73  1  0.05037000  0.89073000  0.84290000  1.0
  C  C74  1  0.99696000  0.75603000  0.01025000  1.0
  C  C75  1  0.91705000  0.02763000  0.17864000  1.0
  C  C76  1  0.14471000  0.81772000  0.80816000  1.0
  C  C77  1  0.10944000  0.87577000  0.80094000  1.0
  C  C78  1  0.13132000  0.92055000  0.75409000  1.0
  C  C79  1  0.19001000  0.91095000  0.72016000  1.0
  C  C80  1  0.22640000  0.85393000  0.72855000  1.0
  C  C81  1  0.20115000  0.80631000  0.77108000  1.0
  C  C82  1  0.50549000  0.80616000  0.78859000  1.0
  C  C83  1  0.47495000  0.86108000  0.76354000  1.0
  C  C84  1  0.50256000  0.92651000  0.78522000  1.0
  C  C85  1  0.56294000  0.93671000  0.82546000  1.0
  C  C86  1  0.59585000  0.88127000  0.84755000  1.0
  C  C87  1  0.56416000  0.81590000  0.83209000  1.0
  C  C88  1  0.24077000  0.01768000  0.18281000  1.0
  C  C89  1  0.27034000  0.95589000  0.18079000  1.0
  C  C90  1  0.24375000  0.90371000  0.13274000  1.0
  C  C91  1  0.18912000  0.91367000  0.08844000  1.0
  C  C92  1  0.15656000  0.97351000  0.09470000  1.0
  C  C93  1  0.18381000  0.02642000  0.14047000  1.0
  C  C94  1  0.63968000  0.96904000  0.20064000  1.0
  C  C95  1  0.63665000  0.96551000  0.13042000  1.0
  C  C96  1  0.57346000  0.94977000  0.09551000  1.0
  C  C97  1  0.51678000  0.93207000  0.13012000  1.0
  C  C98  1  0.51700000  0.94519000  0.20094000  1.0
  C  C99  1  0.58001000  0.96620000  0.23522000  1.0
  C  C100  1  0.38136000  0.92592000  0.51150000  1.0
  C  C101  1  0.36921000  0.85991000  0.53079000  1.0
  C  C102  1  0.36250000  0.80623000  0.48046000  1.0
  C  C103  1  0.36704000  0.81817000  0.41241000  1.0
  C  C104  1  0.37882000  0.88399000  0.39331000  1.0
  C  C105  1  0.38618000  0.93779000  0.44374000  1.0
  C  C106  1  0.66124000  0.17832000  0.97060000  1.0
  C  C107  1  0.70437000  0.15755000  0.92051000  1.0
  C  C108  1  0.70982000  0.19589000  0.86432000  1.0
  C  C109  1  0.67474000  0.25424000  0.85976000  1.0
  C  C110  1  0.63649000  0.27818000  0.91243000  1.0
  C  C111  1  0.62969000  0.23869000  0.96746000  1.0
  C  C112  1  0.72693000  0.54794000  0.98041000  1.0
  C  C113  1  0.68223000  0.52659000  0.92427000  1.0
  C  C114  1  0.68631000  0.56165000  0.86599000  1.0
  C  C115  1  0.72978000  0.62016000  0.86569000  1.0
  C  C116  1  0.76801000  0.64517000  0.92454000  1.0
  C  C117  1  0.77034000  0.60638000  0.98002000  1.0
  C  C118  1  0.02987000  0.24355000  0.07747000  1.0
  C  C119  1  0.99256000  0.21526000  0.01936000  1.0
  C  C120  1  0.99031000  0.25155000  0.96214000  1.0
  C  C121  1  0.03403000  0.30921000  0.95889000  1.0
  C  C122  1  0.07874000  0.33320000  0.01440000  1.0
  C  C123  1  0.07378000  0.30143000  0.07455000  1.0
  C  C124  1  0.07604000  0.68194000  0.07398000  1.0
  C  C125  1  0.03365000  0.69245000  0.01665000  1.0
  C  C126  1  0.03120000  0.64320000  0.96059000  1.0
  C  C127  1  0.07663000  0.59277000  0.95903000  1.0
  C  C128  1  0.11573000  0.58029000  0.01692000  1.0
  C  C129  1  0.11459000  0.62528000  0.07419000  1.0
  C  C130  1  0.42913000  0.43628000  0.01327000  1.0
  C  C131  1  0.44683000  0.42655000  0.94617000  1.0
  C  C132  1  0.39511000  0.42264000  0.89470000  1.0
  C  C133  1  0.32758000  0.42774000  0.90978000  1.0
  C  C134  1  0.30991000  0.43712000  0.97681000  1.0
  C  C135  1  0.36162000  0.44121000  0.02832000  1.0
  C  C136  1  0.77009000  0.71966000  0.21148000  1.0
  C  C137  1  0.82338000  0.76952000  0.20479000  1.0
  C  C138  1  0.87211000  0.78341000  0.26003000  1.0
  C  C139  1  0.87244000  0.74291000  0.31423000  1.0
  C  C140  1  0.81982000  0.69335000  0.32104000  1.0
  C  C141  1  0.76858000  0.68302000  0.26919000  1.0
  C  C142  1  0.76362000  0.74023000  0.60033000  1.0
  C  C143  1  0.82171000  0.72276000  0.56857000  1.0
  C  C144  1  0.88473000  0.75335000  0.59497000  1.0
  C  C145  1  0.88916000  0.79994000  0.65124000  1.0
  C  C146  1  0.83173000  0.81203000  0.68656000  1.0
  C  C147  1  0.76839000  0.78424000  0.65926000  1.0
  C  C148  1  0.99578000  0.10899000  0.34937000  1.0
  C  C149  1  0.94483000  0.14848000  0.37231000  1.0
  C  C150  1  0.88387000  0.14519000  0.33230000  1.0
  C  C151  1  0.87724000  0.11190000  0.26738000  1.0
  C  C152  1  0.92690000  0.06825000  0.24626000  1.0
  C  C153  1  0.98525000  0.06572000  0.28997000  1.0
  C  C154  1  0.89092000  0.12006000  0.62431000  1.0
  C  C155  1  0.94446000  0.16947000  0.62066000  1.0
  C  C156  1  0.99324000  0.17901000  0.67486000  1.0
  C  C157  1  0.98869000  0.14152000  0.73176000  1.0
  C  C158  1  0.93553000  0.09046000  0.73463000  1.0
  C  C159  1  0.88887000  0.07805000  0.67739000  1.0
  C  C160  1  0.93457000  0.48615000  0.45754000  1.0
  C  C161  1  0.86627000  0.49903000  0.46134000  1.0
  C  C162  1  0.82065000  0.44670000  0.47800000  1.0
  C  C163  1  0.84256000  0.38335000  0.49077000  1.0
  C  C164  1  0.91082000  0.37021000  0.48637000  1.0
  C  C165  1  0.95642000  0.42266000  0.46992000  1.0
  Br  Br166  1  0.24466000  0.72517000  0.77676000  1.0
  Br  Br167  1  0.11814000  0.75424000  0.86923000  1.0
  Br  Br168  1  0.22317000  0.97802000  0.66546000  1.0
  Br  Br169  1  0.08002000  0.99324000  0.73392000  1.0
  Br  Br170  1  0.59974000  0.74016000  0.86825000  1.0
  Br  Br171  1  0.46533000  0.71842000  0.76189000  1.0
  Br  Br172  1  0.59695000  0.02618000  0.85260000  1.0
  Br  Br173  1  0.45595000  0.00085000  0.75940000  1.0
  Br  Br174  1  0.14029000  0.10740000  0.14556000  1.0
  Br  Br175  1  0.27787000  0.08875000  0.24544000  1.0
  Br  Br176  1  0.15953000  0.84842000  0.01618000  1.0
  Br  Br177  1  0.28021000  0.81852000  0.13073000  1.0
  Br  Br178  1  0.58641000  0.99458000  0.32849000  1.0
  Br  Br179  1  0.72529000  0.96967000  0.24803000  1.0
  Br  Br180  1  0.44276000  0.88296000  0.07954000  1.0
  Br  Br181  1  0.56582000  0.95202000  0.00135000  1.0
  Br  Br182  1  0.40204000  0.02691000  0.41828000  1.0
  Br  Br183  1  0.39057000  0.99919000  0.57837000  1.0
  Br  Br184  1  0.35724000  0.74626000  0.34402000  1.0
  Br  Br185  1  0.34743000  0.71740000  0.50667000  1.0
  Br  Br186  1  0.58138000  0.27042000  0.04116000  1.0
  Br  Br187  1  0.64341000  0.12484000  0.04224000  1.0
  Br  Br188  1  0.67780000  0.30256000  0.78163000  1.0
  Br  Br189  1  0.76741000  0.17191000  0.79535000  1.0
  Br  Br190  1  0.83582000  0.63375000  0.05139000  1.0
  Br  Br191  1  0.72603000  0.49813000  0.05731000  1.0
  Br  Br192  1  0.73771000  0.66631000  0.78695000  1.0
  Br  Br193  1  0.63205000  0.52880000  0.78762000  1.0
  Br  Br194  1  0.12774000  0.33792000  0.15181000  1.0
  Br  Br195  1  0.01679000  0.20470000  0.15972000  1.0
  Br  Br196  1  0.03432000  0.35499000  0.87947000  1.0
  Br  Br197  1  0.92130000  0.22371000  0.89344000  1.0
  Br  Br198  1  0.16667000  0.60608000  0.15197000  1.0
  Br  Br199  1  0.08158000  0.74038000  0.15369000  1.0
  Br  Br200  1  0.08705000  0.53898000  0.87830000  1.0
  Br  Br201  1  0.96310000  0.63384000  0.88942000  1.0
  Br  Br202  1  0.33777000  0.45268000  0.11871000  1.0
  Br  Br203  1  0.49822000  0.44204000  0.08340000  1.0
  Br  Br204  1  0.25822000  0.42276000  0.84002000  1.0
  Br  Br205  1  0.41892000  0.41121000  0.80430000  1.0
  Br  Br206  1  0.69619000  0.61846000  0.28051000  1.0
  Br  Br207  1  0.69727000  0.70136000  0.14586000  1.0
  Br  Br208  1  0.94557000  0.75370000  0.38047000  1.0
  Br  Br209  1  0.93382000  0.86113000  0.26954000  1.0
  Br  Br210  1  0.68949000  0.80607000  0.70243000  1.0
  Br  Br211  1  0.67874000  0.70120000  0.56313000  1.0
  Br  Br212  1  0.97063000  0.85202000  0.67782000  1.0
  Br  Br213  1  0.96484000  0.72891000  0.55609000  1.0
  Br  Br214  1  0.05272000  0.00623000  0.27023000  1.0
  Br  Br215  1  0.07967000  0.11616000  0.40051000  1.0
  Br  Br216  1  0.80068000  0.13144000  0.21333000  1.0
  Br  Br217  1  0.80860000  0.18511000  0.36868000  1.0
  Br  Br218  1  0.82670000  0.00122000  0.66435000  1.0
  Br  Br219  1  0.81959000  0.11207000  0.55586000  1.0
  Br  Br220  1  0.05692000  0.16180000  0.80198000  1.0
  Br  Br221  1  0.06670000  0.24376000  0.66810000  1.0
  Br  Br222  1  0.04865000  0.40589000  0.46590000  1.0
  Br  Br223  1  0.99702000  0.55660000  0.43663000  1.0
  Br  Br224  1  0.77983000  0.31376000  0.51325000  1.0
  Br  Br225  1  0.72840000  0.46354000  0.48185000  1.0
  O  O226  1  0.97218000  0.04758000  0.84017000  1.0
  O  O227  1  0.68071000  0.86370000  0.93412000  1.0
  O  O228  1  0.81513000  0.90001000  0.77249000  1.0
  O  O229  1  0.75401000  0.05633000  0.88178000  1.0
  O  O230  1  0.77602000  0.09905000  0.98951000  1.0
  O  O231  1  0.87773000  0.81321000  0.79637000  1.0
  O  O232  1  0.70736000  0.92798000  0.84930000  1.0
  O  O233  1  0.86298000  0.03059000  0.80268000  1.0
  O  O234  1  0.79277000  0.95756000  0.96811000  1.0
  O  O235  1  0.90759000  0.93179000  0.88654000  1.0
  O  O236  1  0.80370000  0.85466000  0.89294000  1.0
  O  O237  1  0.87860000  0.04408000  0.93273000  1.0
  O  O238  1  0.78394000  0.80829000  0.09803000  1.0
  O  O239  1  0.07480000  0.00292000  0.00865000  1.0
  O  O240  1  0.84997000  0.73415000  0.90257000  1.0
  O  O241  1  0.73974000  0.01553000  0.08885000  1.0
  O  O242  1  0.90646000  0.12937000  0.03907000  1.0
  O  O243  1  0.00430000  0.84373000  0.84506000  1.0
  O  O244  1  0.99146000  0.79774000  0.06033000  1.0
  O  O245  1  0.94229000  0.97168000  0.16799000  1.0
  O  O246  1  0.97571000  0.76479000  0.95024000  1.0
  O  O247  1  0.88073000  0.05455000  0.13507000  1.0
  O  O248  1  0.76313000  0.75578000  0.96781000  1.0
  O  O249  1  0.05220000  0.94921000  0.87381000  1.0
  O  O250  1  0.99637000  0.10340000  0.97942000  1.0
  O  O251  1  0.70489000  0.90527000  0.06287000  1.0
  O  O252  1  0.89298000  0.82898000  0.13385000  1.0
  O  O253  1  0.04379000  0.93830000  0.09235000  1.0
  O  O254  1  0.93099000  0.98675000  0.02509000  1.0
  O  O255  1  0.87686000  0.84808000  0.99652000  1.0
  O  O256  1  0.99091000  0.89485000  0.97196000  1.0
  O  O257  1  0.83701000  0.93137000  0.08183000  1.0
