# generated using pymatgen
data_H5PbC8NO5
_symmetry_space_group_name_H-M   'P 1'
_cell_length_a   4.56919000
_cell_length_b   9.85171000
_cell_length_c   9.96497000
_cell_angle_alpha   84.05920000
_cell_angle_beta   83.43970000
_cell_angle_gamma   77.12840000
_symmetry_Int_Tables_number   1
_chemical_formula_structural   H5PbC8NO5
_chemical_formula_sum   'H10 Pb2 C16 N2 O10'
_cell_volume   433.01842298
_cell_formula_units_Z   2
loop_
 _symmetry_equiv_pos_site_id
 _symmetry_equiv_pos_as_xyz
  1  'x, y, z'
loop_
 _atom_site_type_symbol
 _atom_site_label
 _atom_site_symmetry_multiplicity
 _atom_site_fract_x
 _atom_site_fract_y
 _atom_site_fract_z
 _atom_site_occupancy
  H  H0  1  0.05259000  0.07758000  0.86941000  1.0
  H  H1  1  0.94741000  0.92247000  0.13057000  1.0
  H  H2  1  0.25326000  0.01931000  0.71536000  1.0
  H  H3  1  0.74675000  0.98076000  0.28461000  1.0
  H  H4  1  0.08769000  0.10861000  0.51224000  1.0
  H  H5  1  0.91220000  0.89133000  0.48776000  1.0
  H  H6  1  0.72669000  0.27775000  0.37401000  1.0
  H  H7  1  0.27325000  0.72220000  0.62598000  1.0
  H  H8  1  0.26922000  0.42477000  0.49430000  1.0
  H  H9  1  0.73073000  0.57521000  0.50570000  1.0
  Pb  Pb10  1  0.64103000  0.66627000  0.90267000  1.0
  Pb  Pb11  1  0.35920000  0.33375000  0.09740000  1.0
  C  C12  1  0.90871000  0.90823000  0.79504000  1.0
  C  C13  1  0.09139000  0.09180000  0.20494000  1.0
  C  C14  1  0.02863000  0.04254000  0.77118000  1.0
  C  C15  1  0.97139000  0.95751000  0.22880000  1.0
  C  C16  1  0.88090000  0.17154000  0.55817000  1.0
  C  C17  1  0.11900000  0.82842000  0.44182000  1.0
  C  C18  1  0.68116000  0.26557000  0.48344000  1.0
  C  C19  1  0.31875000  0.73438000  0.51655000  1.0
  C  C20  1  0.42898000  0.34827000  0.55171000  1.0
  C  C21  1  0.57095000  0.65170000  0.44829000  1.0
  C  C22  1  0.38506000  0.33739000  0.69183000  1.0
  C  C23  1  0.61489000  0.66259000  0.30816000  1.0
  C  C24  1  0.57880000  0.22999000  0.76905000  1.0
  C  C25  1  0.42120000  0.77003000  0.23095000  1.0
  C  C26  1  0.14436000  0.44331000  0.76032000  1.0
  C  C27  1  0.85559000  0.55666000  0.23970000  1.0
  N  N28  1  0.83031000  0.15324000  0.69526000  1.0
  N  N29  1  0.16964000  0.84677000  0.30473000  1.0
  O  O30  1  0.03546000  0.81415000  0.88163000  1.0
  O  O31  1  0.96471000  0.18590000  0.11834000  1.0
  O  O32  1  0.69770000  0.89347000  0.73006000  1.0
  O  O33  1  0.30238000  0.10655000  0.26994000  1.0
  O  O34  1  0.53892000  0.19470000  0.89406000  1.0
  O  O35  1  0.46117000  0.80537000  0.10596000  1.0
  O  O36  1  0.19004000  0.48191000  0.87542000  1.0
  O  O37  1  0.80998000  0.51807000  0.12459000  1.0
  O  O38  1  0.91185000  0.49865000  0.70130000  1.0
  O  O39  1  0.08803000  0.50129000  0.29875000  1.0
