# generated using pymatgen
data_ZnH22C29N2O9
_symmetry_space_group_name_H-M   'P 1'
_cell_length_a   10.05210000
_cell_length_b   12.12380000
_cell_length_c   12.38930050
_cell_angle_alpha   61.66626381
_cell_angle_beta   88.16274962
_cell_angle_gamma   85.56730000
_symmetry_Int_Tables_number   1
_chemical_formula_structural   ZnH22C29N2O9
_chemical_formula_sum   'Zn2 H44 C58 N4 O18'
_cell_volume   1324.99954008
_cell_formula_units_Z   2
loop_
 _symmetry_equiv_pos_site_id
 _symmetry_equiv_pos_as_xyz
  1  'x, y, z'
loop_
 _atom_site_type_symbol
 _atom_site_label
 _atom_site_symmetry_multiplicity
 _atom_site_fract_x
 _atom_site_fract_y
 _atom_site_fract_z
 _atom_site_occupancy
  Zn  Zn0  1  0.65959000  0.95980000  0.35960000  1.0
  Zn  Zn1  1  0.34041000  0.04021000  0.64039000  1.0
  H  H2  1  0.69791000  0.75064000  0.81153000  1.0
  H  H3  1  0.30209000  0.24936000  0.18847000  1.0
  H  H4  1  0.15907000  0.51829000  0.40069000  1.0
  H  H5  1  0.84093000  0.48171000  0.59931000  1.0
  H  H6  1  0.34008000  0.39529000  0.93795000  1.0
  H  H7  1  0.65992000  0.60472000  0.06205000  1.0
  H  H8  1  0.41426000  0.32909000  0.77962000  1.0
  H  H9  1  0.58573000  0.67091000  0.22039000  1.0
  H  H10  1  0.53113000  0.47691000  0.59268000  1.0
  H  H11  1  0.46887000  0.52309000  0.40732000  1.0
  H  H12  1  0.30891000  0.57079000  0.13769000  1.0
  H  H13  1  0.69109000  0.42920000  0.86232000  1.0
  H  H14  1  0.88443000  0.64312000  0.07326000  1.0
  H  H15  1  0.11557000  0.35688000  0.92674000  1.0
  H  H16  1  0.14836000  0.66538000  0.78308000  1.0
  H  H17  1  0.85164000  0.33461000  0.21693000  1.0
  H  H18  1  0.83846000  0.72787000  0.46732000  1.0
  H  H19  1  0.16154000  0.27213000  0.53268000  1.0
  H  H20  1  0.08389000  0.67014000  0.48936000  1.0
  H  H21  1  0.91610000  0.32986000  0.51065000  1.0
  H  H22  1  0.14325000  0.06352000  0.35115000  1.0
  H  H23  1  0.85675000  0.93649000  0.64884000  1.0
  H  H24  1  0.89585000  0.10523000  0.33388000  1.0
  H  H25  1  0.10415000  0.89476000  0.66612000  1.0
  H  H26  1  0.31153000  0.74279000  0.48427000  1.0
  H  H27  1  0.68847000  0.25720000  0.51573000  1.0
  H  H28  1  0.33678000  0.90442000  0.42231000  1.0
  H  H29  1  0.66322000  0.09558000  0.57769000  1.0
  H  H30  1  0.42728000  0.81444000  0.28841000  1.0
  H  H31  1  0.57272000  0.18556000  0.71159000  1.0
  H  H32  1  0.26725000  0.77037000  0.27592000  1.0
  H  H33  1  0.73275000  0.22963000  0.72408000  1.0
  H  H34  1  0.18232000  0.00243000  0.18160000  1.0
  H  H35  1  0.81769000  0.99757000  0.81840000  1.0
  H  H36  1  0.34438000  0.04066000  0.18800000  1.0
  H  H37  1  0.65563000  0.95934000  0.81200000  1.0
  H  H38  1  0.39060000  0.79531000  0.10517000  1.0
  H  H39  1  0.60940000  0.20469000  0.89482000  1.0
  H  H40  1  0.42060000  0.83434000  0.89112000  1.0
  H  H41  1  0.57939000  0.16567000  0.10887000  1.0
  H  H42  1  0.27266000  0.20575000  0.75019000  1.0
  H  H43  1  0.72734000  0.79425000  0.24981000  1.0
  H  H44  1  0.23664000  0.18170000  0.96119000  1.0
  H  H45  1  0.76336000  0.81830000  0.03881000  1.0
  C  C46  1  0.57960000  0.71638000  0.52060000  1.0
  C  C47  1  0.42039000  0.28362000  0.47940000  1.0
  C  C48  1  0.51419000  0.62775000  0.63789000  1.0
  C  C49  1  0.48580000  0.37225000  0.36211000  1.0
  C  C50  1  0.46727000  0.66711000  0.72329000  1.0
  C  C51  1  0.53272000  0.33290000  0.27670000  1.0
  C  C52  1  0.40627000  0.58098000  0.83034000  1.0
  C  C53  1  0.59373000  0.41903000  0.16966000  1.0
  C  C54  1  0.38717000  0.45928000  0.85265000  1.0
  C  C55  1  0.61283000  0.54072000  0.14735000  1.0
  C  C56  1  0.43072000  0.42267000  0.76557000  1.0
  C  C57  1  0.56928000  0.57732000  0.23444000  1.0
  C  C58  1  0.49555000  0.50550000  0.66014000  1.0
  C  C59  1  0.50445000  0.49451000  0.33985000  1.0
  C  C60  1  0.47323000  0.79927000  0.70370000  1.0
  C  C61  1  0.52677000  0.20073000  0.29630000  1.0
  C  C62  1  0.24238000  0.62019000  0.95592000  1.0
  C  C63  1  0.75762000  0.37980000  0.04409000  1.0
  C  C64  1  0.22307000  0.59743000  0.07678000  1.0
  C  C65  1  0.77693000  0.40257000  0.92322000  1.0
  C  C66  1  0.09350000  0.60611000  0.11846000  1.0
  C  C67  1  0.90650000  0.39388000  0.88154000  1.0
  C  C68  1  0.98451000  0.63877000  0.03892000  1.0
  C  C69  1  0.01549000  0.36121000  0.96109000  1.0
  C  C70  1  0.00471000  0.66059000  0.91840000  1.0
  C  C71  1  0.99529000  0.33941000  0.08160000  1.0
  C  C72  1  0.13410000  0.64999000  0.87669000  1.0
  C  C73  1  0.86590000  0.35001000  0.12331000  1.0
  C  C74  1  0.89067000  0.69615000  0.83041000  1.0
  C  C75  1  0.10933000  0.30385000  0.16959000  1.0
  C  C76  1  0.06749000  0.57558000  0.24844000  1.0
  C  C77  1  0.93251000  0.42441000  0.75156000  1.0
  C  C78  1  0.91045000  0.79879000  0.44186000  1.0
  C  C79  1  0.08955000  0.20122000  0.55814000  1.0
  C  C80  1  0.04681000  0.76833000  0.45213000  1.0
  C  C81  1  0.95319000  0.23167000  0.54787000  1.0
  C  C82  1  0.13496000  0.86356000  0.41514000  1.0
  C  C83  1  0.86504000  0.13645000  0.58485000  1.0
  C  C84  1  0.07965000  0.98651000  0.37505000  1.0
  C  C85  1  0.92035000  0.01349000  0.62495000  1.0
  C  C86  1  0.94221000  0.01054000  0.36618000  1.0
  C  C87  1  0.05780000  0.98946000  0.63382000  1.0
  C  C88  1  0.28178000  0.83664000  0.40967000  1.0
  C  C89  1  0.71822000  0.16337000  0.59032000  1.0
  C  C90  1  0.31987000  0.84153000  0.28580000  1.0
  C  C91  1  0.68014000  0.15846000  0.71420000  1.0
  C  C92  1  0.28776000  0.97158000  0.17816000  1.0
  C  C93  1  0.71224000  0.02842000  0.82184000  1.0
  C  C94  1  0.31087000  0.98598000  0.05228000  1.0
  C  C95  1  0.68913000  0.01402000  0.94772000  1.0
  C  C96  1  0.36316000  0.88833000  0.03015000  1.0
  C  C97  1  0.63684000  0.11168000  0.96984000  1.0
  C  C98  1  0.37995000  0.90901000  0.91041000  1.0
  C  C99  1  0.62005000  0.09100000  0.08958000  1.0
  C  C100  1  0.29690000  0.11669000  0.83223000  1.0
  C  C101  1  0.70310000  0.88331000  0.16777000  1.0
  C  C102  1  0.27793000  0.10238000  0.94925000  1.0
  C  C103  1  0.72207000  0.89762000  0.05075000  1.0
  N  N104  1  0.85869000  0.91846000  0.39692000  1.0
  N  N105  1  0.14131000  0.08155000  0.60308000  1.0
  N  N106  1  0.34760000  0.02108000  0.81258000  1.0
  N  N107  1  0.65239000  0.97892000  0.18742000  1.0
  O  O108  1  0.63521000  0.67700000  0.45243000  1.0
  O  O109  1  0.36478000  0.32300000  0.54757000  1.0
  O  O110  1  0.57026000  0.83266000  0.49877000  1.0
  O  O111  1  0.42974000  0.16734000  0.50123000  1.0
  O  O112  1  0.57330000  0.83228000  0.73690000  1.0
  O  O113  1  0.42670000  0.16772000  0.26310000  1.0
  O  O114  1  0.36408000  0.86801000  0.66192000  1.0
  O  O115  1  0.63592000  0.13200000  0.33807000  1.0
  O  O116  1  0.90538000  0.70970000  0.72590000  1.0
  O  O117  1  0.09462000  0.29030000  0.27410000  1.0
  O  O118  1  0.77364000  0.71429000  0.87631000  1.0
  O  O119  1  0.22636000  0.28570000  0.12369000  1.0
  O  O120  1  0.95677000  0.57728000  0.29229000  1.0
  O  O121  1  0.04323000  0.42271000  0.70772000  1.0
  O  O122  1  0.18212000  0.54455000  0.31487000  1.0
  O  O123  1  0.81788000  0.45545000  0.68513000  1.0
  O  O124  1  0.37340000  0.61743000  0.91975000  1.0
  O  O125  1  0.62660000  0.38256000  0.08026000  1.0
