# generated using pymatgen
data_CuP2H18C20(NO3)2
_symmetry_space_group_name_H-M   'P 1'
_cell_length_a   9.91670000
_cell_length_b   10.58180000
_cell_length_c   11.15750000
_cell_angle_alpha   110.14990000
_cell_angle_beta   108.71750000
_cell_angle_gamma   91.43030000
_symmetry_Int_Tables_number   1
_chemical_formula_structural   CuP2H18C20(NO3)2
_chemical_formula_sum   'Cu2 P4 H36 C40 N4 O12'
_cell_volume   1028.87558702
_cell_formula_units_Z   2
loop_
 _symmetry_equiv_pos_site_id
 _symmetry_equiv_pos_as_xyz
  1  'x, y, z'
loop_
 _atom_site_type_symbol
 _atom_site_label
 _atom_site_symmetry_multiplicity
 _atom_site_fract_x
 _atom_site_fract_y
 _atom_site_fract_z
 _atom_site_occupancy
  Cu  Cu0  1  0.63278000  0.23195000  0.04437000  1.0
  Cu  Cu1  1  0.36723000  0.76807000  0.95564000  1.0
  P  P2  1  0.49350000  0.06991000  0.17527000  1.0
  P  P3  1  0.50649000  0.93011000  0.82473000  1.0
  P  P4  1  0.92972000  0.31078000  0.35206000  1.0
  P  P5  1  0.07027000  0.68921000  0.64793000  1.0
  H  H6  1  0.72854000  0.10254000  0.22618000  1.0
  H  H7  1  0.27145000  0.89747000  0.77383000  1.0
  H  H8  1  0.91093000  0.44753000  0.54512000  1.0
  H  H9  1  0.08904000  0.55245000  0.45486000  1.0
  H  H10  1  0.50939000  0.39974000  0.26958000  1.0
  H  H11  1  0.49063000  0.60030000  0.73045000  1.0
  H  H12  1  0.49444000  0.64966000  0.37391000  1.0
  H  H13  1  0.50558000  0.35037000  0.62610000  1.0
  H  H14  1  0.59498000  0.81475000  0.29708000  1.0
  H  H15  1  0.40504000  0.18527000  0.70291000  1.0
  H  H16  1  0.71708000  0.84891000  0.13815000  1.0
  H  H17  1  0.28294000  0.15110000  0.86185000  1.0
  H  H18  1  0.83110000  0.75192000  0.96583000  1.0
  H  H19  1  0.16892000  0.24807000  0.03417000  1.0
  H  H20  1  0.89975000  0.53855000  0.80791000  1.0
  H  H21  1  0.10027000  0.46144000  0.19208000  1.0
  H  H22  1  0.89256000  0.28715000  0.72991000  1.0
  H  H23  1  0.10745000  0.71282000  0.27009000  1.0
  H  H24  1  0.78738000  0.15439000  0.83727000  1.0
  H  H25  1  0.21263000  0.84561000  0.16276000  1.0
  H  H26  1  0.55087000  0.25718000  0.38422000  1.0
  H  H27  1  0.44911000  0.74283000  0.61577000  1.0
  H  H28  1  0.36063000  0.19859000  0.31011000  1.0
  H  H29  1  0.63935000  0.80141000  0.68989000  1.0
  H  H30  1  0.25620000  0.02174000  0.36392000  1.0
  H  H31  1  0.74379000  0.97829000  0.63609000  1.0
  H  H32  1  0.28318000  0.87573000  0.49904000  1.0
  H  H33  1  0.71680000  0.12429000  0.50097000  1.0
  H  H34  1  0.12376000  0.18688000  0.34347000  1.0
  H  H35  1  0.87622000  0.81310000  0.65653000  1.0
  H  H36  1  0.15374000  0.30278000  0.51100000  1.0
  H  H37  1  0.84624000  0.69720000  0.48901000  1.0
  H  H38  1  0.99125000  0.94868000  0.26297000  1.0
  H  H39  1  0.00873000  0.05129000  0.73703000  1.0
  H  H40  1  0.93590000  0.76260000  0.33425000  1.0
  H  H41  1  0.06409000  0.23738000  0.66576000  1.0
  C  C42  1  0.55534000  0.47555000  0.24211000  1.0
  C  C43  1  0.44468000  0.52448000  0.75791000  1.0
  C  C44  1  0.54660000  0.61506000  0.29848000  1.0
  C  C45  1  0.45341000  0.38496000  0.70153000  1.0
  C  C46  1  0.60179000  0.70649000  0.25586000  1.0
  C  C47  1  0.39822000  0.29353000  0.74413000  1.0
  C  C48  1  0.66792000  0.65762000  0.15696000  1.0
  C  C49  1  0.33210000  0.34239000  0.84304000  1.0
  C  C50  1  0.72677000  0.74119000  0.10290000  1.0
  C  C51  1  0.27325000  0.25881000  0.89710000  1.0
  C  C52  1  0.78905000  0.68679000  0.00720000  1.0
  C  C53  1  0.21097000  0.31321000  0.99280000  1.0
  C  C54  1  0.79696000  0.54426000  0.95616000  1.0
  C  C55  1  0.20306000  0.45573000  0.04384000  1.0
  C  C56  1  0.85420000  0.47979000  0.85343000  1.0
  C  C57  1  0.14582000  0.52020000  0.14657000  1.0
  C  C58  1  0.85143000  0.34010000  0.81016000  1.0
  C  C59  1  0.14857000  0.65988000  0.18984000  1.0
  C  C60  1  0.79375000  0.26445000  0.86885000  1.0
  C  C61  1  0.20626000  0.73555000  0.13115000  1.0
  C  C62  1  0.73953000  0.46015000  0.00846000  1.0
  C  C63  1  0.26048000  0.53985000  0.99154000  1.0
  C  C64  1  0.67457000  0.51652000  0.10847000  1.0
  C  C65  1  0.32545000  0.48349000  0.89154000  1.0
  C  C66  1  0.46745000  0.16640000  0.33516000  1.0
  C  C67  1  0.53253000  0.83361000  0.66483000  1.0
  C  C68  1  0.48406000  0.08439000  0.42351000  1.0
  C  C69  1  0.51592000  0.91560000  0.57648000  1.0
  C  C70  1  0.36375000  0.01207000  0.42328000  1.0
  C  C71  1  0.63624000  0.98793000  0.57671000  1.0
  C  C72  1  0.37855000  0.92883000  0.49846000  1.0
  C  C73  1  0.62143000  0.07117000  0.50153000  1.0
  C  C74  1  0.07401000  0.22293000  0.42188000  1.0
  C  C75  1  0.92597000  0.77705000  0.57812000  1.0
  C  C76  1  0.03319000  0.10799000  0.45995000  1.0
  C  C77  1  0.96678000  0.89199000  0.54005000  1.0
  C  C78  1  0.99636000  0.97236000  0.36784000  1.0
  C  C79  1  0.00362000  0.02761000  0.63216000  1.0
  C  C80  1  0.96493000  0.86716000  0.40773000  1.0
  C  C81  1  0.03505000  0.13282000  0.59226000  1.0
  N  N82  1  0.61776000  0.42795000  0.14962000  1.0
  N  N83  1  0.38226000  0.57206000  0.85040000  1.0
  N  N84  1  0.73898000  0.32352000  0.96511000  1.0
  N  N85  1  0.26103000  0.67648000  0.03490000  1.0
  O  O86  1  0.37851000  0.94341000  0.10195000  1.0
  O  O87  1  0.62148000  0.05661000  0.89803000  1.0
  O  O88  1  0.82148000  0.20533000  0.22096000  1.0
  O  O89  1  0.17852000  0.79465000  0.77903000  1.0
  O  O90  1  0.48659000  0.16757000  0.10012000  1.0
  O  O91  1  0.51342000  0.83244000  0.89988000  1.0
  O  O92  1  0.64859000  0.02948000  0.21930000  1.0
  O  O93  1  0.35140000  0.97053000  0.78072000  1.0
  O  O94  1  0.85160000  0.36135000  0.46094000  1.0
  O  O95  1  0.14838000  0.63865000  0.53904000  1.0
  O  O96  1  0.99939000  0.42917000  0.33353000  1.0
  O  O97  1  0.00062000  0.57081000  0.66647000  1.0
