# generated using pymatgen
data_CuH10C6(N2Cl)2
_symmetry_space_group_name_H-M   'P 1'
_cell_length_a   6.87097000
_cell_length_b   8.55870000
_cell_length_c   16.32950000
_cell_angle_alpha   90.00010000
_cell_angle_beta   90.00010000
_cell_angle_gamma   108.79200000
_symmetry_Int_Tables_number   1
_chemical_formula_structural   CuH10C6(N2Cl)2
_chemical_formula_sum   'Cu4 H40 C24 N16 Cl8'
_cell_volume   909.09335101
_cell_formula_units_Z   4
loop_
 _symmetry_equiv_pos_site_id
 _symmetry_equiv_pos_as_xyz
  1  'x, y, z'
loop_
 _atom_site_type_symbol
 _atom_site_label
 _atom_site_symmetry_multiplicity
 _atom_site_fract_x
 _atom_site_fract_y
 _atom_site_fract_z
 _atom_site_occupancy
  Cu  Cu0  1  0.00000000  0.00000000  0.00000000  1.0
  Cu  Cu1  1  0.50000000  0.50000000  0.50000000  1.0
  Cu  Cu2  1  0.50000000  0.00000000  0.00000000  1.0
  Cu  Cu3  1  0.00000000  0.50000000  0.50000000  1.0
  H  H4  1  0.33262000  0.31100000  0.92637000  1.0
  H  H5  1  0.16738000  0.18900000  0.42637000  1.0
  H  H6  1  0.66738000  0.68900000  0.07363000  1.0
  H  H7  1  0.83262000  0.81100000  0.57363000  1.0
  H  H8  1  0.33108000  0.51713000  0.93143000  1.0
  H  H9  1  0.16891000  0.98288000  0.43142000  1.0
  H  H10  1  0.66892000  0.48287000  0.06858000  1.0
  H  H11  1  0.83108000  0.01712000  0.56858000  1.0
  H  H12  1  0.47252000  0.43548000  0.79952000  1.0
  H  H13  1  0.02748000  0.06452000  0.29952000  1.0
  H  H14  1  0.52748000  0.56452000  0.20048000  1.0
  H  H15  1  0.97252000  0.93548000  0.70048000  1.0
  H  H16  1  0.22333000  0.30714000  0.77487000  1.0
  H  H17  1  0.27667000  0.19286000  0.27487000  1.0
  H  H18  1  0.77667000  0.69286000  0.22513000  1.0
  H  H19  1  0.72333000  0.80713000  0.72513000  1.0
  H  H20  1  0.32383000  0.58021000  0.70611000  1.0
  H  H21  1  0.17617000  0.91979000  0.20611000  1.0
  H  H22  1  0.67618000  0.41979000  0.29389000  1.0
  H  H23  1  0.82382000  0.08020000  0.79390000  1.0
  H  H24  1  0.35896000  0.68207000  0.80218000  1.0
  H  H25  1  0.14104000  0.81793000  0.30218000  1.0
  H  H26  1  0.64105000  0.31793000  0.19781000  1.0
  H  H27  1  0.85896000  0.18207000  0.69782000  1.0
  H  H28  1  0.03130000  0.67301000  0.73440000  1.0
  H  H29  1  0.46870000  0.82699000  0.23440000  1.0
  H  H30  1  0.96870000  0.32699000  0.26560000  1.0
  H  H31  1  0.53130000  0.17301000  0.76560000  1.0
  H  H32  1  0.94864000  0.45690000  0.73220000  1.0
  H  H33  1  0.55136000  0.04309000  0.23220000  1.0
  H  H34  1  0.05136000  0.54309000  0.26780000  1.0
  H  H35  1  0.44864000  0.95690000  0.76780000  1.0
  H  H36  1  0.04148000  0.66731000  0.88896000  1.0
  H  H37  1  0.45853000  0.83269000  0.38895000  1.0
  H  H38  1  0.95853000  0.33269000  0.11104000  1.0
  H  H39  1  0.54147000  0.16731000  0.61105000  1.0
  H  H40  1  0.79347000  0.58647000  0.84525000  1.0
  H  H41  1  0.70653000  0.91353000  0.34525000  1.0
  H  H42  1  0.20653000  0.41353000  0.15475000  1.0
  H  H43  1  0.29347000  0.08647000  0.65475000  1.0
  C  C44  1  0.26291000  0.39770000  0.89995000  1.0
  C  C45  1  0.23708000  0.10230000  0.39995000  1.0
  C  C46  1  0.73709000  0.60230000  0.10005000  1.0
  C  C47  1  0.76291000  0.89770000  0.60005000  1.0
  C  C48  1  0.30881000  0.42097000  0.80758000  1.0
  C  C49  1  0.19119000  0.07903000  0.30758000  1.0
  C  C50  1  0.69119000  0.57903000  0.19242000  1.0
  C  C51  1  0.80881000  0.92096000  0.69242000  1.0
  C  C52  1  0.26712000  0.57019000  0.76943000  1.0
  C  C53  1  0.23287000  0.92981000  0.26943000  1.0
  C  C54  1  0.73288000  0.42981000  0.23057000  1.0
  C  C55  1  0.76712000  0.07019000  0.73057000  1.0
  C  C56  1  0.04240000  0.56429000  0.76739000  1.0
  C  C57  1  0.45760000  0.93571000  0.26739000  1.0
  C  C58  1  0.95760000  0.43571000  0.23261000  1.0
  C  C59  1  0.54240000  0.06429000  0.73261000  1.0
  C  C60  1  0.94326000  0.56726000  0.85057000  1.0
  C  C61  1  0.55673000  0.93274000  0.35057000  1.0
  C  C62  1  0.05674000  0.43274000  0.14943000  1.0
  C  C63  1  0.44326000  0.06726000  0.64943000  1.0
  C  C64  1  0.04028000  0.33460000  0.91722000  1.0
  C  C65  1  0.45972000  0.16540000  0.41722000  1.0
  C  C66  1  0.95972000  0.66540000  0.08278000  1.0
  C  C67  1  0.54028000  0.83460000  0.58278000  1.0
  N  N68  1  0.93021000  0.19411000  0.95398000  1.0
  N  N69  1  0.56979000  0.30589000  0.45398000  1.0
  N  N70  1  0.06979000  0.80590000  0.04602000  1.0
  N  N71  1  0.43021000  0.69410000  0.54602000  1.0
  N  N72  1  0.73216000  0.18980000  0.95272000  1.0
  N  N73  1  0.76784000  0.31020000  0.45272000  1.0
  N  N74  1  0.26784000  0.81020000  0.04728000  1.0
  N  N75  1  0.23216000  0.68980000  0.54728000  1.0
  N  N76  1  0.71263000  0.31926000  0.91703000  1.0
  N  N77  1  0.78737000  0.18074000  0.41703000  1.0
  N  N78  1  0.28737000  0.68074000  0.08297000  1.0
  N  N79  1  0.21263000  0.81926000  0.58297000  1.0
  N  N80  1  0.90377000  0.41093000  0.89490000  1.0
  N  N81  1  0.59623000  0.08907000  0.39490000  1.0
  N  N82  1  0.09623000  0.58907000  0.10510000  1.0
  N  N83  1  0.40377000  0.91093000  0.60510000  1.0
  Cl  Cl84  1  0.61960000  0.82187000  0.92661000  1.0
  Cl  Cl85  1  0.88039000  0.67813000  0.42660000  1.0
  Cl  Cl86  1  0.38040000  0.17813000  0.07339000  1.0
  Cl  Cl87  1  0.11961000  0.32187000  0.57340000  1.0
  Cl  Cl88  1  0.18122000  0.98606000  0.88396000  1.0
  Cl  Cl89  1  0.31878000  0.51394000  0.38396000  1.0
  Cl  Cl90  1  0.81878000  0.01394000  0.11604000  1.0
  Cl  Cl91  1  0.68122000  0.48606000  0.61604000  1.0
