# generated using pymatgen
data_CuH9C10IN
_symmetry_space_group_name_H-M   'P 1'
_cell_length_a   4.06876000
_cell_length_b   9.70420000
_cell_length_c   24.53570000
_cell_angle_alpha   90.00070000
_cell_angle_beta   90.00020000
_cell_angle_gamma   81.59860000
_symmetry_Int_Tables_number   1
_chemical_formula_structural   CuH9C10IN
_chemical_formula_sum   'Cu4 H36 C40 I4 N4'
_cell_volume   958.37297999
_cell_formula_units_Z   4
loop_
 _symmetry_equiv_pos_site_id
 _symmetry_equiv_pos_as_xyz
  1  'x, y, z'
loop_
 _atom_site_type_symbol
 _atom_site_label
 _atom_site_symmetry_multiplicity
 _atom_site_fract_x
 _atom_site_fract_y
 _atom_site_fract_z
 _atom_site_occupancy
  Cu  Cu0  1  0.15363000  0.08464000  0.86315000  1.0
  Cu  Cu1  1  0.34636000  0.41537000  0.36314000  1.0
  Cu  Cu2  1  0.84637000  0.91536000  0.13686000  1.0
  Cu  Cu3  1  0.65365000  0.58464000  0.63685000  1.0
  H  H4  1  0.65207000  0.82910000  0.75422000  1.0
  H  H5  1  0.84795000  0.67090000  0.25421000  1.0
  H  H6  1  0.34794000  0.17090000  0.24579000  1.0
  H  H7  1  0.15211000  0.32909000  0.74578000  1.0
  H  H8  1  0.25606000  0.91359000  0.73521000  1.0
  H  H9  1  0.24397000  0.58642000  0.23520000  1.0
  H  H10  1  0.74396000  0.08642000  0.26480000  1.0
  H  H11  1  0.75610000  0.41358000  0.76479000  1.0
  H  H12  1  0.48562000  0.99108000  0.78610000  1.0
  H  H13  1  0.01441000  0.50891000  0.28609000  1.0
  H  H14  1  0.51440000  0.00892000  0.21390000  1.0
  H  H15  1  0.98565000  0.49108000  0.71390000  1.0
  H  H16  1  0.33429000  0.62232000  0.76774000  1.0
  H  H17  1  0.16574000  0.87767000  0.26774000  1.0
  H  H18  1  0.66573000  0.37768000  0.23226000  1.0
  H  H19  1  0.83428000  0.12233000  0.73225000  1.0
  H  H20  1  0.06280000  0.49174000  0.83926000  1.0
  H  H21  1  0.43719000  0.00827000  0.33926000  1.0
  H  H22  1  0.93720000  0.50826000  0.16074000  1.0
  H  H23  1  0.56279000  0.99174000  0.66074000  1.0
  H  H24  1  0.79638000  0.49338000  0.93068000  1.0
  H  H25  1  0.70361000  0.00663000  0.43068000  1.0
  H  H26  1  0.20364000  0.50661000  0.06932000  1.0
  H  H27  1  0.29634000  0.99338000  0.56932000  1.0
  H  H28  1  0.59559000  0.62433000  0.01507000  1.0
  H  H29  1  0.90436000  0.87568000  0.51507000  1.0
  H  H30  1  0.40440000  0.37566000  0.98493000  1.0
  H  H31  1  0.09558000  0.12433000  0.48493000  1.0
  H  H32  1  0.65077000  0.87373000  0.02395000  1.0
  H  H33  1  0.84918000  0.62628000  0.52396000  1.0
  H  H34  1  0.34921000  0.12625000  0.97605000  1.0
  H  H35  1  0.15077000  0.37373000  0.47604000  1.0
  H  H36  1  0.91162000  0.99631000  0.94982000  1.0
  H  H37  1  0.58832000  0.50370000  0.44982000  1.0
  H  H38  1  0.08836000  0.00368000  0.05018000  1.0
  H  H39  1  0.41164000  0.49631000  0.55018000  1.0
  C  C40  1  0.26882000  0.81447000  0.81321000  1.0
  C  C41  1  0.23118000  0.68553000  0.31321000  1.0
  C  C42  1  0.73118000  0.18553000  0.18679000  1.0
  C  C43  1  0.76884000  0.31447000  0.68679000  1.0
  C  C44  1  0.42568000  0.89186000  0.77012000  1.0
  C  C45  1  0.07435000  0.60815000  0.27012000  1.0
  C  C46  1  0.57434000  0.10815000  0.22988000  1.0
  C  C47  1  0.92571000  0.39185000  0.72988000  1.0
  C  C48  1  0.23793000  0.67243000  0.80538000  1.0
  C  C49  1  0.26209000  0.82758000  0.30537000  1.0
  C  C50  1  0.76209000  0.32757000  0.19463000  1.0
  C  C51  1  0.73792000  0.17243000  0.69462000  1.0
  C  C52  1  0.08803000  0.60127000  0.84443000  1.0
  C  C53  1  0.41197000  0.89874000  0.34442000  1.0
  C  C54  1  0.91197000  0.39873000  0.15558000  1.0
  C  C55  1  0.58801000  0.10127000  0.65557000  1.0
  C  C56  1  0.96948000  0.67069000  0.89283000  1.0
  C  C57  1  0.53054000  0.82932000  0.39283000  1.0
  C  C58  1  0.03053000  0.32931000  0.10717000  1.0
  C  C59  1  0.46944000  0.17069000  0.60717000  1.0
  C  C60  1  0.82039000  0.60332000  0.93556000  1.0
  C  C61  1  0.67958000  0.89668000  0.43556000  1.0
  C  C62  1  0.17961000  0.39667000  0.06444000  1.0
  C  C63  1  0.32038000  0.10333000  0.56444000  1.0
  C  C64  1  0.70986000  0.67557000  0.98201000  1.0
  C  C65  1  0.79011000  0.82445000  0.48201000  1.0
  C  C66  1  0.29014000  0.32442000  0.01799000  1.0
  C  C67  1  0.20984000  0.17556000  0.51799000  1.0
  C  C68  1  0.74203000  0.81791000  0.98708000  1.0
  C  C69  1  0.75791000  0.68209000  0.48708000  1.0
  C  C70  1  0.25795000  0.18208000  0.01292000  1.0
  C  C71  1  0.24205000  0.31791000  0.51292000  1.0
  C  C72  1  0.88658000  0.88622000  0.94617000  1.0
  C  C73  1  0.61339000  0.61379000  0.44617000  1.0
  C  C74  1  0.11341000  0.11377000  0.05383000  1.0
  C  C75  1  0.38659000  0.38621000  0.55383000  1.0
  C  C76  1  0.00495000  0.81434000  0.89840000  1.0
  C  C77  1  0.49502000  0.68567000  0.39839000  1.0
  C  C78  1  0.99504000  0.18566000  0.10161000  1.0
  C  C79  1  0.50496000  0.31434000  0.60160000  1.0
  I  I80  1  0.59178000  0.24224000  0.86405000  1.0
  I  I81  1  0.90822000  0.25777000  0.36405000  1.0
  I  I82  1  0.40823000  0.75776000  0.13595000  1.0
  I  I83  1  0.09178000  0.74224000  0.63595000  1.0
  N  N84  1  0.15274000  0.88387000  0.85815000  1.0
  N  N85  1  0.34727000  0.61614000  0.35815000  1.0
  N  N86  1  0.84728000  0.11613000  0.14185000  1.0
  N  N87  1  0.65274000  0.38386000  0.64185000  1.0
