# generated using pymatgen
data_H11PbC18(NO2)2
_symmetry_space_group_name_H-M   'P 1'
_cell_length_a   8.09284000
_cell_length_b   10.36600000
_cell_length_c   10.41560000
_cell_angle_alpha   109.04600000
_cell_angle_beta   103.03000000
_cell_angle_gamma   99.65580000
_symmetry_Int_Tables_number   1
_chemical_formula_structural   H11PbC18(NO2)2
_chemical_formula_sum   'H22 Pb2 C36 N4 O8'
_cell_volume   776.55561403
_cell_formula_units_Z   2
loop_
 _symmetry_equiv_pos_site_id
 _symmetry_equiv_pos_as_xyz
  1  'x, y, z'
loop_
 _atom_site_type_symbol
 _atom_site_label
 _atom_site_symmetry_multiplicity
 _atom_site_fract_x
 _atom_site_fract_y
 _atom_site_fract_z
 _atom_site_occupancy
  H  H0  1  0.02932000  0.41482000  0.68296000  1.0
  H  H1  1  0.97066000  0.58517000  0.31719000  1.0
  H  H2  1  0.18002000  0.23548000  0.58116000  1.0
  H  H3  1  0.81986000  0.76452000  0.41877000  1.0
  H  H4  1  0.71888000  0.91419000  0.52225000  1.0
  H  H5  1  0.28104000  0.08580000  0.47769000  1.0
  H  H6  1  0.59221000  0.10758000  0.62876000  1.0
  H  H7  1  0.40768000  0.89238000  0.37120000  1.0
  H  H8  1  0.91877000  0.63665000  0.60526000  1.0
  H  H9  1  0.08129000  0.36335000  0.39471000  1.0
  H  H10  1  0.13592000  0.86968000  0.70940000  1.0
  H  H11  1  0.86411000  0.13034000  0.29058000  1.0
  H  H12  1  0.12187000  0.87660000  0.12488000  1.0
  H  H13  1  0.87821000  0.12336000  0.87510000  1.0
  H  H14  1  0.91081000  0.64068000  0.00237000  1.0
  H  H15  1  0.08911000  0.35939000  0.99760000  1.0
  H  H16  1  0.29347000  0.06338000  0.79933000  1.0
  H  H17  1  0.70650000  0.93663000  0.20070000  1.0
  H  H18  1  0.65124000  0.39323000  0.17549000  1.0
  H  H19  1  0.34877000  0.60678000  0.82454000  1.0
  H  H20  1  0.30962000  0.05447000  0.21526000  1.0
  H  H21  1  0.69059000  0.94541000  0.78475000  1.0
  Pb  Pb22  1  0.60591000  0.43259000  0.68482000  1.0
  Pb  Pb23  1  0.39407000  0.56750000  0.31528000  1.0
  C  C24  1  0.96552000  0.30221000  0.64514000  1.0
  C  C25  1  0.03441000  0.69777000  0.35491000  1.0
  C  C26  1  0.04810000  0.20054000  0.58605000  1.0
  C  C27  1  0.95178000  0.79946000  0.41390000  1.0
  C  C28  1  0.96077000  0.05609000  0.53517000  1.0
  C  C29  1  0.03910000  0.94391000  0.46474000  1.0
  C  C30  1  0.79476000  0.02249000  0.55402000  1.0
  C  C31  1  0.20514000  0.97750000  0.44591000  1.0
  C  C32  1  0.72176000  0.13040000  0.61443000  1.0
  C  C33  1  0.27815000  0.86959000  0.38554000  1.0
  C  C34  1  0.96865000  0.69398000  0.72047000  1.0
  C  C35  1  0.03138000  0.30604000  0.27950000  1.0
  C  C36  1  0.08898000  0.82567000  0.78012000  1.0
  C  C37  1  0.91107000  0.17434000  0.21986000  1.0
  C  C38  1  0.15083000  0.89751000  0.92892000  1.0
  C  C39  1  0.84924000  0.10248000  0.07107000  1.0
  C  C40  1  0.08275000  0.82882000  0.00925000  1.0
  C  C41  1  0.91731000  0.17118000  0.99074000  1.0
  C  C42  1  0.96410000  0.69617000  0.94173000  1.0
  C  C43  1  0.03588000  0.30386000  0.05824000  1.0
  C  C44  1  0.28357000  0.03598000  0.99676000  1.0
  C  C45  1  0.71653000  0.96400000  0.00326000  1.0
  C  C46  1  0.34480000  0.10606000  0.91499000  1.0
  C  C47  1  0.65525000  0.89393000  0.08503000  1.0
  C  C48  1  0.47495000  0.23421000  0.97849000  1.0
  C  C49  1  0.52512000  0.76577000  0.02152000  1.0
  C  C50  1  0.54676000  0.29513000  0.12654000  1.0
  C  C51  1  0.45329000  0.70485000  0.87348000  1.0
  C  C52  1  0.48372000  0.22964000  0.21048000  1.0
  C  C53  1  0.51637000  0.77033000  0.78955000  1.0
  C  C54  1  0.35399000  0.10124000  0.14540000  1.0
  C  C55  1  0.64616000  0.89870000  0.85462000  1.0
  C  C56  1  0.53577000  0.30511000  0.88627000  1.0
  C  C57  1  0.46424000  0.69487000  0.11373000  1.0
  C  C58  1  0.54767000  0.29894000  0.37044000  1.0
  C  C59  1  0.45234000  0.70111000  0.62960000  1.0
  N  N60  1  0.90753000  0.62867000  0.79934000  1.0
  N  N61  1  0.09246000  0.37136000  0.20063000  1.0
  N  N62  1  0.80367000  0.26825000  0.65745000  1.0
  N  N63  1  0.19626000  0.73174000  0.34260000  1.0
  O  O64  1  0.66310000  0.41520000  0.94151000  1.0
  O  O65  1  0.33691000  0.58479000  0.05847000  1.0
  O  O66  1  0.45244000  0.24757000  0.75203000  1.0
  O  O67  1  0.54753000  0.75243000  0.24797000  1.0
  O  O68  1  0.66695000  0.41539000  0.42956000  1.0
  O  O69  1  0.33301000  0.58469000  0.57046000  1.0
  O  O70  1  0.47205000  0.23883000  0.43937000  1.0
  O  O71  1  0.52793000  0.76126000  0.56068000  1.0
