# generated using pymatgen
data_CdH8C9(NCl)2
_symmetry_space_group_name_H-M   'P 1'
_cell_length_a   7.35227000
_cell_length_b   12.37640000
_cell_length_c   12.37630000
_cell_angle_alpha   80.74400000
_cell_angle_beta   81.38660000
_cell_angle_gamma   81.38880000
_symmetry_Int_Tables_number   1
_chemical_formula_structural   CdH8C9(NCl)2
_chemical_formula_sum   'Cd4 H32 C36 N8 Cl8'
_cell_volume   1089.83067115
_cell_formula_units_Z   4
loop_
 _symmetry_equiv_pos_site_id
 _symmetry_equiv_pos_as_xyz
  1  'x, y, z'
loop_
 _atom_site_type_symbol
 _atom_site_label
 _atom_site_symmetry_multiplicity
 _atom_site_fract_x
 _atom_site_fract_y
 _atom_site_fract_z
 _atom_site_occupancy
  Cd  Cd0  1  0.45137000  0.73349000  0.34607000  1.0
  Cd  Cd1  1  0.04864000  0.65393000  0.26652000  1.0
  Cd  Cd2  1  0.54863000  0.26651000  0.65394000  1.0
  Cd  Cd3  1  0.95136000  0.34605000  0.73348000  1.0
  H  H4  1  0.57723000  0.61472000  0.55600000  1.0
  H  H5  1  0.92276000  0.44400000  0.38528000  1.0
  H  H6  1  0.42275000  0.38530000  0.44402000  1.0
  H  H7  1  0.07726000  0.55597000  0.61471000  1.0
  H  H8  1  0.71811000  0.70433000  0.49382000  1.0
  H  H9  1  0.78190000  0.50619000  0.29567000  1.0
  H  H10  1  0.28187000  0.29569000  0.50621000  1.0
  H  H11  1  0.21813000  0.49378000  0.70432000  1.0
  H  H12  1  0.60008000  0.67980000  0.73337000  1.0
  H  H13  1  0.89995000  0.26663000  0.32019000  1.0
  H  H14  1  0.39987000  0.32023000  0.26665000  1.0
  H  H15  1  0.10009000  0.73334000  0.67978000  1.0
  H  H16  1  0.45240000  0.81609000  0.85826000  1.0
  H  H17  1  0.04763000  0.14176000  0.18389000  1.0
  H  H18  1  0.54752000  0.18394000  0.14175000  1.0
  H  H19  1  0.95242000  0.85823000  0.81608000  1.0
  H  H20  1  0.26781000  0.99082000  0.78372000  1.0
  H  H21  1  0.23220000  0.21632000  0.00916000  1.0
  H  H22  1  0.73208000  0.00921000  0.21628000  1.0
  H  H23  1  0.76787000  0.78368000  0.99081000  1.0
  H  H24  1  0.13927000  0.11017000  0.62190000  1.0
  H  H25  1  0.36075000  0.37815000  0.88981000  1.0
  H  H26  1  0.86063000  0.88984000  0.37809000  1.0
  H  H27  1  0.63933000  0.62186000  0.11018000  1.0
  H  H28  1  0.10826000  0.13809000  0.42129000  1.0
  H  H29  1  0.39175000  0.57876000  0.86191000  1.0
  H  H30  1  0.89169000  0.86191000  0.57869000  1.0
  H  H31  1  0.60831000  0.42125000  0.13810000  1.0
  H  H32  1  0.24234000  0.98423000  0.30934000  1.0
  H  H33  1  0.25767000  0.69069000  0.01578000  1.0
  H  H34  1  0.75765000  0.01576000  0.69065000  1.0
  H  H35  1  0.74237000  0.30930000  0.98424000  1.0
  C  C36  1  0.49248000  0.77114000  0.59009000  1.0
  C  C37  1  0.00753000  0.40993000  0.22886000  1.0
  C  C38  1  0.50747000  0.22888000  0.40993000  1.0
  C  C39  1  0.99252000  0.59005000  0.77113000  1.0
  C  C40  1  0.51381000  0.75397000  0.70105000  1.0
  C  C41  1  0.98622000  0.29896000  0.24602000  1.0
  C  C42  1  0.48613000  0.24606000  0.29896000  1.0
  C  C43  1  0.01383000  0.70102000  0.75395000  1.0
  C  C44  1  0.43041000  0.83174000  0.77160000  1.0
  C  C45  1  0.06963000  0.22842000  0.16825000  1.0
  C  C46  1  0.56952000  0.16829000  0.22841000  1.0
  C  C47  1  0.93043000  0.77157000  0.83172000  1.0
  C  C48  1  0.32706000  0.92815000  0.73119000  1.0
  C  C49  1  0.17296000  0.26885000  0.07183000  1.0
  C  C50  1  0.67284000  0.07187000  0.26882000  1.0
  C  C51  1  0.82712000  0.73114000  0.92815000  1.0
  C  C52  1  0.30124000  0.94879000  0.61808000  1.0
  C  C53  1  0.19878000  0.38196000  0.05120000  1.0
  C  C54  1  0.69869000  0.05122000  0.38193000  1.0
  C  C55  1  0.80129000  0.61803000  0.94880000  1.0
  C  C56  1  0.20136000  0.04729000  0.57021000  1.0
  C  C57  1  0.29866000  0.42983000  0.95269000  1.0
  C  C58  1  0.79856000  0.95271000  0.42978000  1.0
  C  C59  1  0.70141000  0.57017000  0.04730000  1.0
  C  C60  1  0.18396000  0.06272000  0.45930000  1.0
  C  C61  1  0.31604000  0.54075000  0.93728000  1.0
  C  C62  1  0.81597000  0.93728000  0.54070000  1.0
  C  C63  1  0.68402000  0.45925000  0.06273000  1.0
  C  C64  1  0.26054000  0.97804000  0.39620000  1.0
  C  C65  1  0.23947000  0.60384000  0.02197000  1.0
  C  C66  1  0.73943000  0.02196000  0.60380000  1.0
  C  C67  1  0.76058000  0.39616000  0.97804000  1.0
  C  C68  1  0.38176000  0.86887000  0.54697000  1.0
  C  C69  1  0.11825000  0.45305000  0.13112000  1.0
  C  C70  1  0.61818000  0.13114000  0.45304000  1.0
  C  C71  1  0.88181000  0.54693000  0.86887000  1.0
  N  N72  1  0.35497000  0.88499000  0.43852000  1.0
  N  N73  1  0.14503000  0.56151000  0.11501000  1.0
  N  N74  1  0.64498000  0.11502000  0.56149000  1.0
  N  N75  1  0.85502000  0.43848000  0.88499000  1.0
  N  N76  1  0.57963000  0.69466000  0.51632000  1.0
  N  N77  1  0.92038000  0.48369000  0.30534000  1.0
  N  N78  1  0.42034000  0.30536000  0.48370000  1.0
  N  N79  1  0.07965000  0.51628000  0.69465000  1.0
  Cl  Cl80  1  0.45244000  0.53428000  0.31653000  1.0
  Cl  Cl81  1  0.04754000  0.68348000  0.46574000  1.0
  Cl  Cl82  1  0.54759000  0.46572000  0.68348000  1.0
  Cl  Cl83  1  0.95243000  0.31651000  0.53427000  1.0
  Cl  Cl84  1  0.75001000  0.78128000  0.21872000  1.0
  Cl  Cl85  1  0.25000000  0.21871000  0.78129000  1.0
  Cl  Cl86  1  0.25000000  0.81307000  0.18695000  1.0
  Cl  Cl87  1  0.75000000  0.18692000  0.81306000  1.0
