# generated using pymatgen
data_SmZnH12C15N2O13
_symmetry_space_group_name_H-M   'P 1'
_cell_length_a   9.74068000
_cell_length_b   10.62820000
_cell_length_c   10.94200000
_cell_angle_alpha   80.62150000
_cell_angle_beta   72.56320000
_cell_angle_gamma   75.55350000
_symmetry_Int_Tables_number   1
_chemical_formula_structural   SmZnH12C15N2O13
_chemical_formula_sum   'Sm2 Zn2 H24 C30 N4 O26'
_cell_volume   1041.77545340
_cell_formula_units_Z   2
loop_
 _symmetry_equiv_pos_site_id
 _symmetry_equiv_pos_as_xyz
  1  'x, y, z'
loop_
 _atom_site_type_symbol
 _atom_site_label
 _atom_site_symmetry_multiplicity
 _atom_site_fract_x
 _atom_site_fract_y
 _atom_site_fract_z
 _atom_site_occupancy
  Sm  Sm0  1  0.17705000  0.19618000  0.53297000  1.0
  Sm  Sm1  1  0.82295000  0.80382000  0.46703000  1.0
  Zn  Zn2  1  0.30395000  0.36581000  0.11235000  1.0
  Zn  Zn3  1  0.69606000  0.63419000  0.88764000  1.0
  H  H4  1  0.82446000  0.92054000  0.02744000  1.0
  H  H5  1  0.17554000  0.07946000  0.97256000  1.0
  H  H6  1  0.75074000  0.04610000  0.83236000  1.0
  H  H7  1  0.24927000  0.95389000  0.16764000  1.0
  H  H8  1  0.52731000  0.22961000  0.86763000  1.0
  H  H9  1  0.47269000  0.77039000  0.13237000  1.0
  H  H10  1  0.79256000  0.26218000  0.99213000  1.0
  H  H11  1  0.20744000  0.73782000  0.00787000  1.0
  H  H12  1  0.84209000  0.16756000  0.20624000  1.0
  H  H13  1  0.15791000  0.83244000  0.79376000  1.0
  H  H14  1  0.06680000  0.20355000  0.25031000  1.0
  H  H15  1  0.93320000  0.79645000  0.74969000  1.0
  H  H16  1  0.05009000  0.42059000  0.36228000  1.0
  H  H17  1  0.94991000  0.57941000  0.63772000  1.0
  H  H18  1  0.91104000  0.41699000  0.48060000  1.0
  H  H19  1  0.08896000  0.58302000  0.51940000  1.0
  H  H20  1  0.25507000  0.42774000  0.61112000  1.0
  H  H21  1  0.74494000  0.57226000  0.38888000  1.0
  H  H22  1  0.36139000  0.40941000  0.47111000  1.0
  H  H23  1  0.63862000  0.59059000  0.52889000  1.0
  H  H24  1  0.52278000  0.50724000  0.13437000  1.0
  H  H25  1  0.47722000  0.49277000  0.86563000  1.0
  H  H26  1  0.35307000  0.54764000  0.21756000  1.0
  H  H27  1  0.64693000  0.45236000  0.78243000  1.0
  C  C28  1  0.41477000  0.17187000  0.29787000  1.0
  C  C29  1  0.58522000  0.82813000  0.70213000  1.0
  C  C30  1  0.51976000  0.13442000  0.17115000  1.0
  C  C31  1  0.48024000  0.86558000  0.82885000  1.0
  C  C32  1  0.64196000  0.03038000  0.16168000  1.0
  C  C33  1  0.35804000  0.96962000  0.83832000  1.0
  C  C34  1  0.72692000  0.99924000  0.03794000  1.0
  C  C35  1  0.27309000  0.00075000  0.96206000  1.0
  C  C36  1  0.68722000  0.06868000  0.92987000  1.0
  C  C37  1  0.31278000  0.93132000  0.07013000  1.0
  C  C38  1  0.56412000  0.17179000  0.94839000  1.0
  C  C39  1  0.43588000  0.82821000  0.05161000  1.0
  C  C40  1  0.68920000  0.95320000  0.27632000  1.0
  C  C41  1  0.31079000  0.04680000  0.72368000  1.0
  C  C42  1  0.22451000  0.42999000  0.87038000  1.0
  C  C43  1  0.77549000  0.57002000  0.12962000  1.0
  C  C44  1  0.11112000  0.35628000  0.95808000  1.0
  C  C45  1  0.88888000  0.64373000  0.04193000  1.0
  C  C46  1  0.98901000  0.34016000  0.92469000  1.0
  C  C47  1  0.01099000  0.65984000  0.07531000  1.0
  C  C48  1  0.88932000  0.27388000  0.01575000  1.0
  C  C49  1  0.11068000  0.72613000  0.98425000  1.0
  C  C50  1  0.91493000  0.22286000  0.13419000  1.0
  C  C51  1  0.08508000  0.77714000  0.86581000  1.0
  C  C52  1  0.03995000  0.24151000  0.15973000  1.0
  C  C53  1  0.96006000  0.75849000  0.84027000  1.0
  C  C54  1  0.96465000  0.38343000  0.79373000  1.0
  C  C55  1  0.03535000  0.61658000  0.20627000  1.0
  C  C56  1  0.06022000  0.97994000  0.43735000  1.0
  C  C57  1  0.93978000  0.02006000  0.56265000  1.0
  N  N58  1  0.48443000  0.20434000  0.06622000  1.0
  N  N59  1  0.51557000  0.79565000  0.93378000  1.0
  N  N60  1  0.13331000  0.30741000  0.07394000  1.0
  N  N61  1  0.86669000  0.69259000  0.92606000  1.0
  O  O62  1  0.30036000  0.26460000  0.29556000  1.0
  O  O63  1  0.69964000  0.73540000  0.70444000  1.0
  O  O64  1  0.43519000  0.11155000  0.40151000  1.0
  O  O65  1  0.56481000  0.88844000  0.59849000  1.0
  O  O66  1  0.66255000  0.84036000  0.31176000  1.0
  O  O67  1  0.33745000  0.15964000  0.68824000  1.0
  O  O68  1  0.76606000  0.00194000  0.32465000  1.0
  O  O69  1  0.23393000  0.99806000  0.67535000  1.0
  O  O70  1  0.32234000  0.44553000  0.92141000  1.0
  O  O71  1  0.67766000  0.55448000  0.07860000  1.0
  O  O72  1  0.21652000  0.47282000  0.75913000  1.0
  O  O73  1  0.78348000  0.52718000  0.24087000  1.0
  O  O74  1  0.03098000  0.30517000  0.71008000  1.0
  O  O75  1  0.96903000  0.69483000  0.28992000  1.0
  O  O76  1  0.87376000  0.48917000  0.77529000  1.0
  O  O77  1  0.12624000  0.51083000  0.22470000  1.0
  O  O78  1  0.16103000  0.04477000  0.39659000  1.0
  O  O79  1  0.83897000  0.95523000  0.60341000  1.0
  O  O80  1  0.04839000  0.88717000  0.38503000  1.0
  O  O81  1  0.95161000  0.11284000  0.61497000  1.0
  O  O82  1  0.00422000  0.36278000  0.43638000  1.0
  O  O83  1  0.99578000  0.63722000  0.56362000  1.0
  O  O84  1  0.26001000  0.41242000  0.52183000  1.0
  O  O85  1  0.73999000  0.58758000  0.47817000  1.0
  O  O86  1  0.42046000  0.49132000  0.15371000  1.0
  O  O87  1  0.57955000  0.50868000  0.84629000  1.0
