# generated using pymatgen
data_NaZrPH30C25O3
_symmetry_space_group_name_H-M   'P 1'
_cell_length_a   10.35680000
_cell_length_b   16.29670000
_cell_length_c   16.79830000
_cell_angle_alpha   93.52640000
_cell_angle_beta   100.41700000
_cell_angle_gamma   99.10570000
_symmetry_Int_Tables_number   1
_chemical_formula_structural   NaZrPH30C25O3
_chemical_formula_sum   'Na4 Zr4 P4 H120 C100 O12'
_cell_volume   2741.49130987
_cell_formula_units_Z   4
loop_
 _symmetry_equiv_pos_site_id
 _symmetry_equiv_pos_as_xyz
  1  'x, y, z'
loop_
 _atom_site_type_symbol
 _atom_site_label
 _atom_site_symmetry_multiplicity
 _atom_site_fract_x
 _atom_site_fract_y
 _atom_site_fract_z
 _atom_site_occupancy
  Na  Na0  1  0.97382000  0.46069000  0.90187000  1.0
  Na  Na1  1  0.02619000  0.53931000  0.09813000  1.0
  Na  Na2  1  0.50006000  0.89724000  0.46746000  1.0
  Na  Na3  1  0.49994000  0.10276000  0.53254000  1.0
  Zr  Zr4  1  0.56094000  0.38121000  0.05740000  1.0
  Zr  Zr5  1  0.43906000  0.61879000  0.94260000  1.0
  Zr  Zr6  1  0.04488000  0.05953000  0.38219000  1.0
  Zr  Zr7  1  0.95512000  0.94048000  0.61781000  1.0
  P  P8  1  0.38404000  0.47547000  0.01130000  1.0
  P  P9  1  0.61596000  0.52453000  0.98870000  1.0
  P  P10  1  0.87994000  0.00261000  0.47512000  1.0
  P  P11  1  0.12006000  0.99739000  0.52488000  1.0
  H  H12  1  0.66748000  0.27584000  0.20324000  1.0
  H  H13  1  0.33252000  0.72416000  0.79676000  1.0
  H  H14  1  0.44035000  0.35163000  0.86676000  1.0
  H  H15  1  0.55965000  0.64836000  0.13324000  1.0
  H  H16  1  0.36297000  0.22449000  0.95266000  1.0
  H  H17  1  0.63704000  0.77551000  0.04735000  1.0
  H  H18  1  0.48895000  0.36994000  0.23635000  1.0
  H  H19  1  0.51105000  0.63007000  0.76365000  1.0
  H  H20  1  0.58153000  0.18679000  0.04504000  1.0
  H  H21  1  0.41847000  0.81321000  0.95496000  1.0
  H  H22  1  0.56711000  0.52588000  0.19782000  1.0
  H  H23  1  0.43290000  0.47413000  0.80218000  1.0
  H  H24  1  0.85858000  0.37392000  0.14592000  1.0
  H  H25  1  0.14142000  0.62608000  0.85408000  1.0
  H  H26  1  0.79601000  0.52954000  0.14410000  1.0
  H  H27  1  0.20399000  0.47046000  0.85590000  1.0
  H  H28  1  0.70763000  0.39180000  0.90534000  1.0
  H  H29  1  0.29237000  0.60820000  0.09467000  1.0
  H  H30  1  0.79637000  0.28962000  0.01591000  1.0
  H  H31  1  0.20363000  0.71037000  0.98409000  1.0
  H  H32  1  0.43000000  0.21268000  0.13400000  1.0
  H  H33  1  0.57001000  0.78732000  0.86600000  1.0
  H  H34  1  0.02113000  0.33784000  0.07317000  1.0
  H  H35  1  0.97888000  0.66216000  0.92683000  1.0
  H  H36  1  0.22065000  0.13827000  0.16218000  1.0
  H  H37  1  0.77936000  0.86173000  0.83782000  1.0
  H  H38  1  0.01129000  0.19960000  0.13247000  1.0
  H  H39  1  0.98872000  0.80040000  0.86753000  1.0
  H  H40  1  0.21123000  0.34119000  0.89679000  1.0
  H  H41  1  0.78876000  0.65881000  0.10321000  1.0
  H  H42  1  0.17687000  0.28967000  0.79561000  1.0
  H  H43  1  0.82313000  0.71033000  0.20439000  1.0
  H  H44  1  0.92380000  0.26630000  0.72817000  1.0
  H  H45  1  0.07620000  0.73370000  0.27183000  1.0
  H  H46  1  0.82391000  0.31243000  0.78903000  1.0
  H  H47  1  0.17609000  0.68757000  0.21097000  1.0
  H  H48  1  0.68176000  0.51856000  0.81464000  1.0
  H  H49  1  0.31824000  0.48144000  0.18536000  1.0
  H  H50  1  0.64120000  0.45308000  0.72056000  1.0
  H  H51  1  0.35881000  0.54692000  0.27945000  1.0
  H  H52  1  0.85839000  0.44229000  0.65861000  1.0
  H  H53  1  0.14161000  0.55771000  0.34138000  1.0
  H  H54  1  0.01001000  0.48766000  0.72744000  1.0
  H  H55  1  0.98999000  0.51234000  0.27256000  1.0
  H  H56  1  0.09029000  0.22374000  0.94615000  1.0
  H  H57  1  0.90971000  0.77626000  0.05384000  1.0
  H  H58  1  0.11398000  0.16699000  0.85777000  1.0
  H  H59  1  0.88602000  0.83301000  0.14224000  1.0
  H  H60  1  0.88143000  0.15111000  0.80762000  1.0
  H  H61  1  0.11857000  0.84889000  0.19238000  1.0
  H  H62  1  0.86432000  0.21699000  0.89194000  1.0
  H  H63  1  0.13568000  0.78300000  0.10806000  1.0
  H  H64  1  0.66010000  0.57623000  0.65414000  1.0
  H  H65  1  0.33989000  0.42377000  0.34586000  1.0
  H  H66  1  0.74034000  0.63888000  0.74518000  1.0
  H  H67  1  0.25966000  0.36111000  0.25483000  1.0
  H  H68  1  0.87800000  0.58617000  0.62219000  1.0
  H  H69  1  0.12199000  0.41383000  0.37781000  1.0
  H  H70  1  0.95281000  0.62621000  0.72333000  1.0
  H  H71  1  0.04719000  0.37379000  0.27667000  1.0
  H  H72  1  0.12543000  0.20826000  0.27501000  1.0
  H  H73  1  0.87457000  0.79174000  0.72499000  1.0
  H  H74  1  0.88059000  0.11671000  0.21018000  1.0
  H  H75  1  0.11941000  0.88329000  0.78982000  1.0
  H  H76  1  0.03257000  0.20485000  0.51819000  1.0
  H  H77  1  0.96743000  0.79516000  0.48181000  1.0
  H  H78  1  0.85283000  0.94070000  0.23431000  1.0
  H  H79  1  0.14717000  0.05930000  0.76569000  1.0
  H  H80  1  0.68724000  0.78561000  0.29695000  1.0
  H  H81  1  0.31275000  0.21439000  0.70305000  1.0
  H  H82  1  0.72718000  0.89029000  0.34589000  1.0
  H  H83  1  0.27282000  0.10971000  0.65411000  1.0
  H  H84  1  0.33177000  0.16324000  0.37433000  1.0
  H  H85  1  0.66823000  0.83676000  0.62566000  1.0
  H  H86  1  0.94200000  0.23572000  0.36379000  1.0
  H  H87  1  0.05800000  0.76428000  0.63621000  1.0
  H  H88  1  0.22413000  0.91783000  0.39560000  1.0
  H  H89  1  0.77587000  0.08217000  0.60440000  1.0
  H  H90  1  0.28177000  0.03022000  0.29103000  1.0
  H  H91  1  0.71823000  0.96978000  0.70898000  1.0
  H  H92  1  0.50375000  0.06950000  0.35622000  1.0
  H  H93  1  0.49625000  0.93051000  0.64378000  1.0
  H  H94  1  0.17722000  0.71243000  0.45695000  1.0
  H  H95  1  0.82278000  0.28757000  0.54306000  1.0
  H  H96  1  0.21725000  0.81061000  0.51824000  1.0
  H  H97  1  0.78275000  0.18939000  0.48176000  1.0
  H  H98  1  0.95833000  0.86118000  0.35980000  1.0
  H  H99  1  0.04167000  0.13882000  0.64019000  1.0
  H  H100  1  0.62108000  0.84664000  0.17581000  1.0
  H  H101  1  0.37892000  0.15336000  0.82419000  1.0
  H  H102  1  0.61048000  0.94253000  0.22852000  1.0
  H  H103  1  0.38952000  0.05747000  0.77148000  1.0
  H  H104  1  0.27439000  0.16365000  0.52618000  1.0
  H  H105  1  0.72561000  0.83635000  0.47382000  1.0
  H  H106  1  0.46625000  0.11459000  0.21465000  1.0
  H  H107  1  0.53375000  0.88541000  0.78535000  1.0
  H  H108  1  0.05152000  0.04539000  0.19195000  1.0
  H  H109  1  0.94849000  0.95462000  0.80805000  1.0
  H  H110  1  0.19089000  0.65207000  0.58274000  1.0
  H  H111  1  0.80911000  0.34793000  0.41726000  1.0
  H  H112  1  0.28678000  0.74456000  0.63839000  1.0
  H  H113  1  0.71322000  0.25544000  0.36161000  1.0
  H  H114  1  0.33732000  0.79416000  0.31881000  1.0
  H  H115  1  0.66268000  0.20584000  0.68119000  1.0
  H  H116  1  0.42922000  0.72632000  0.27302000  1.0
  H  H117  1  0.57078000  0.27368000  0.72698000  1.0
  H  H118  1  0.54170000  0.71050000  0.49386000  1.0
  H  H119  1  0.45829000  0.28950000  0.50614000  1.0
  H  H120  1  0.38747000  0.64534000  0.44589000  1.0
  H  H121  1  0.61253000  0.35466000  0.55411000  1.0
  H  H122  1  0.65901000  0.13522000  0.14248000  1.0
  H  H123  1  0.34099000  0.86478000  0.85752000  1.0
  H  H124  1  0.38445000  0.89997000  0.22781000  1.0
  H  H125  1  0.61555000  0.10003000  0.77219000  1.0
  H  H126  1  0.38710000  0.81100000  0.16169000  1.0
  H  H127  1  0.61290000  0.18900000  0.83831000  1.0
  H  H128  1  0.48627000  0.70089000  0.62704000  1.0
  H  H129  1  0.51373000  0.29911000  0.37296000  1.0
  H  H130  1  0.39607000  0.60238000  0.58198000  1.0
  H  H131  1  0.60393000  0.39762000  0.41802000  1.0
  C  C132  1  0.67090000  0.34151000  0.19427000  1.0
  C  C133  1  0.32910000  0.65850000  0.80573000  1.0
  C  C134  1  0.50543000  0.32127000  0.90886000  1.0
  C  C135  1  0.49457000  0.67873000  0.09115000  1.0
  C  C136  1  0.35004000  0.31815000  0.08574000  1.0
  C  C137  1  0.64996000  0.68185000  0.91426000  1.0
  C  C138  1  0.46456000  0.25480000  0.95431000  1.0
  C  C139  1  0.53545000  0.74520000  0.04569000  1.0
  C  C140  1  0.57724000  0.39127000  0.21215000  1.0
  C  C141  1  0.42277000  0.60873000  0.78785000  1.0
  C  C142  1  0.58014000  0.23534000  0.00372000  1.0
  C  C143  1  0.41986000  0.76466000  0.99629000  1.0
  C  C144  1  0.61880000  0.47347000  0.19237000  1.0
  C  C145  1  0.38120000  0.52653000  0.80763000  1.0
  C  C146  1  0.77176000  0.39344000  0.16411000  1.0
  C  C147  1  0.22824000  0.60657000  0.83589000  1.0
  C  C148  1  0.73963000  0.47494000  0.16302000  1.0
  C  C149  1  0.26037000  0.52506000  0.83698000  1.0
  C  C150  1  0.64695000  0.34274000  0.92969000  1.0
  C  C151  1  0.35306000  0.65726000  0.07032000  1.0
  C  C152  1  0.69308000  0.28948000  0.98823000  1.0
  C  C153  1  0.30692000  0.71052000  0.01177000  1.0
  C  C154  1  0.22914000  0.43145000  0.03252000  1.0
  C  C155  1  0.77086000  0.56855000  0.96748000  1.0
  C  C156  1  0.23005000  0.35113000  0.06991000  1.0
  C  C157  1  0.76995000  0.64886000  0.93009000  1.0
  C  C158  1  0.34082000  0.24123000  0.11976000  1.0
  C  C159  1  0.65919000  0.75877000  0.88024000  1.0
  C  C160  1  0.11009000  0.30912000  0.08737000  1.0
  C  C161  1  0.88991000  0.69088000  0.91263000  1.0
  C  C162  1  0.22182000  0.19830000  0.13645000  1.0
  C  C163  1  0.77818000  0.80170000  0.86355000  1.0
  C  C164  1  0.10499000  0.23244000  0.12012000  1.0
  C  C165  1  0.89501000  0.76756000  0.87988000  1.0
  C  C166  1  0.13467000  0.30159000  0.85035000  1.0
  C  C167  1  0.86533000  0.69841000  0.14965000  1.0
  C  C168  1  0.91379000  0.28429000  0.79107000  1.0
  C  C169  1  0.08621000  0.71571000  0.20893000  1.0
  C  C170  1  0.71423000  0.50453000  0.75740000  1.0
  C  C171  1  0.28578000  0.49546000  0.24260000  1.0
  C  C172  1  0.90420000  0.49149000  0.70864000  1.0
  C  C173  1  0.09580000  0.50851000  0.29136000  1.0
  C  C174  1  0.07227000  0.21989000  0.87961000  1.0
  C  C175  1  0.92773000  0.78011000  0.12039000  1.0
  C  C176  1  0.92154000  0.21110000  0.84352000  1.0
  C  C177  1  0.07846000  0.78890000  0.15648000  1.0
  C  C178  1  0.73865000  0.58054000  0.70850000  1.0
  C  C179  1  0.26135000  0.41945000  0.29150000  1.0
  C  C180  1  0.87673000  0.57733000  0.68630000  1.0
  C  C181  1  0.12327000  0.42267000  0.31370000  1.0
  C  C182  1  0.82386000  0.07893000  0.32225000  1.0
  C  C183  1  0.17614000  0.92107000  0.67774000  1.0
  C  C184  1  0.72569000  0.03303000  0.44165000  1.0
  C  C185  1  0.27431000  0.96697000  0.55835000  1.0
  C  C186  1  0.71208000  0.06641000  0.36085000  1.0
  C  C187  1  0.28791000  0.93359000  0.63914000  1.0
  C  C188  1  0.13220000  0.20124000  0.33938000  1.0
  C  C189  1  0.86780000  0.79876000  0.66062000  1.0
  C  C190  1  0.79905000  0.10534000  0.24365000  1.0
  C  C191  1  0.20095000  0.89466000  0.75635000  1.0
  C  C192  1  0.08396000  0.20036000  0.46766000  1.0
  C  C193  1  0.91604000  0.79964000  0.53234000  1.0
  C  C194  1  0.95730000  0.94864000  0.26240000  1.0
  C  C195  1  0.04271000  0.05136000  0.73760000  1.0
  C  C196  1  0.64835000  0.84397000  0.30752000  1.0
  C  C197  1  0.35165000  0.15603000  0.69248000  1.0
  C  C198  1  0.24133000  0.17757000  0.39206000  1.0
  C  C199  1  0.75866000  0.82243000  0.60794000  1.0
  C  C200  1  0.03588000  0.21597000  0.38635000  1.0
  C  C201  1  0.96412000  0.78403000  0.61365000  1.0
  C  C202  1  0.15308000  0.93619000  0.34710000  1.0
  C  C203  1  0.84693000  0.06381000  0.65290000  1.0
  C  C204  1  0.18321000  0.99659000  0.29278000  1.0
  C  C205  1  0.81679000  0.00341000  0.70722000  1.0
  C  C206  1  0.58566000  0.08072000  0.32313000  1.0
  C  C207  1  0.41434000  0.91928000  0.67687000  1.0
  C  C208  1  0.24986000  0.75085000  0.50711000  1.0
  C  C209  1  0.75013000  0.24915000  0.49289000  1.0
  C  C210  1  0.01303000  0.90653000  0.32807000  1.0
  C  C211  1  0.98697000  0.09347000  0.67193000  1.0
  C  C212  1  0.58585000  0.87450000  0.22715000  1.0
  C  C213  1  0.41416000  0.12550000  0.77285000  1.0
  C  C214  1  0.21166000  0.17727000  0.47134000  1.0
  C  C215  1  0.78834000  0.82273000  0.52866000  1.0
  C  C216  1  0.56489000  0.10539000  0.24459000  1.0
  C  C217  1  0.43510000  0.89461000  0.75541000  1.0
  C  C218  1  0.06209000  0.00473000  0.24067000  1.0
  C  C219  1  0.93791000  0.99527000  0.75933000  1.0
  C  C220  1  0.27439000  0.70279000  0.58281000  1.0
  C  C221  1  0.72561000  0.29721000  0.41719000  1.0
  C  C222  1  0.42509000  0.79217000  0.29112000  1.0
  C  C223  1  0.57491000  0.20783000  0.70888000  1.0
  C  C224  1  0.43535000  0.69452000  0.49553000  1.0
  C  C225  1  0.56465000  0.30548000  0.50447000  1.0
  C  C226  1  0.67277000  0.11718000  0.20453000  1.0
  C  C227  1  0.32723000  0.88281000  0.79547000  1.0
  C  C228  1  0.43403000  0.84601000  0.22030000  1.0
  C  C229  1  0.56597000  0.15399000  0.77970000  1.0
  C  C230  1  0.40556000  0.66991000  0.57770000  1.0
  C  C231  1  0.59444000  0.33009000  0.42230000  1.0
  O  O232  1  0.12115000  0.46255000  0.01780000  1.0
  O  O233  1  0.87886000  0.53745000  0.98220000  1.0
  O  O234  1  0.02636000  0.34730000  0.82870000  1.0
  O  O235  1  0.97364000  0.65270000  0.17130000  1.0
  O  O236  1  0.84102000  0.47664000  0.77753000  1.0
  O  O237  1  0.15898000  0.52336000  0.22247000  1.0
  O  O238  1  0.62751000  0.02527000  0.47966000  1.0
  O  O239  1  0.37249000  0.97473000  0.52034000  1.0
  O  O240  1  0.54149000  0.82647000  0.35221000  1.0
  O  O241  1  0.45851000  0.17353000  0.64779000  1.0
  O  O242  1  0.37697000  0.76840000  0.48212000  1.0
  O  O243  1  0.62302000  0.23160000  0.51788000  1.0
