# generated using pymatgen
data_Zr3H35(C39O8)2
_symmetry_space_group_name_H-M   'P 1'
_cell_length_a   22.11740000
_cell_length_b   22.12280000
_cell_length_c   22.12870000
_cell_angle_alpha   89.96830000
_cell_angle_beta   90.03040000
_cell_angle_gamma   89.93200000
_symmetry_Int_Tables_number   1
_chemical_formula_structural   Zr3H35(C39O8)2
_chemical_formula_sum   'Zr6 H70 C156 O32'
_cell_volume   10827.53591495
_cell_formula_units_Z   2
loop_
 _symmetry_equiv_pos_site_id
 _symmetry_equiv_pos_as_xyz
  1  'x, y, z'
loop_
 _atom_site_type_symbol
 _atom_site_label
 _atom_site_symmetry_multiplicity
 _atom_site_fract_x
 _atom_site_fract_y
 _atom_site_fract_z
 _atom_site_occupancy
  Zr  Zr0  1  0.49820000  0.61369000  0.49984000  1.0
  Zr  Zr1  1  0.49845000  0.50101000  0.38682000  1.0
  Zr  Zr2  1  0.61194000  0.50092000  0.49951000  1.0
  Zr  Zr3  1  0.49943000  0.38763000  0.49944000  1.0
  Zr  Zr4  1  0.38592000  0.50009000  0.50045000  1.0
  Zr  Zr5  1  0.49953000  0.50070000  0.61277000  1.0
  H  H6  1  0.41091000  0.41152000  0.58935000  1.0
  H  H7  1  0.50678000  0.00062000  0.20820000  1.0
  H  H8  1  0.49509000  0.15408000  0.05566000  1.0
  H  H9  1  0.49263000  0.15411000  0.94350000  1.0
  H  H10  1  0.52750000  0.72655000  0.16412000  1.0
  H  H11  1  0.52201000  0.64056000  0.23742000  1.0
  H  H12  1  0.48998000  0.76534000  0.38243000  1.0
  H  H13  1  0.49381000  0.85175000  0.30974000  1.0
  H  H14  1  0.49119000  0.36161000  0.23388000  1.0
  H  H15  1  0.49263000  0.27502000  0.16128000  1.0
  H  H16  1  0.50151000  0.15038000  0.31110000  1.0
  H  H17  1  0.49929000  0.23752000  0.38288000  1.0
  H  H18  1  0.49500000  0.00069000  0.79074000  1.0
  H  H19  1  0.50458000  0.84724000  0.94331000  1.0
  H  H20  1  0.50867000  0.84720000  0.05543000  1.0
  H  H21  1  0.51358000  0.27392000  0.83647000  1.0
  H  H22  1  0.51622000  0.36036000  0.76349000  1.0
  H  H23  1  0.48620000  0.23779000  0.61618000  1.0
  H  H24  1  0.48178000  0.15101000  0.68849000  1.0
  H  H25  1  0.49567000  0.63987000  0.76393000  1.0
  H  H26  1  0.49682000  0.72595000  0.83730000  1.0
  H  H27  1  0.50061000  0.85181000  0.68833000  1.0
  H  H28  1  0.49921000  0.76521000  0.61579000  1.0
  H  H29  1  0.78976000  0.50389000  0.00077000  1.0
  H  H30  1  0.94167000  0.48879000  0.84718000  1.0
  H  H31  1  0.05393000  0.48855000  0.84661000  1.0
  H  H32  1  0.83626000  0.50128000  0.27395000  1.0
  H  H33  1  0.76349000  0.49982000  0.36044000  1.0
  H  H34  1  0.61523000  0.52198000  0.23713000  1.0
  H  H35  1  0.68725000  0.52437000  0.15009000  1.0
  H  H36  1  0.76426000  0.48975000  0.63991000  1.0
  H  H37  1  0.83642000  0.48843000  0.72707000  1.0
  H  H38  1  0.68589000  0.49648000  0.85078000  1.0
  H  H39  1  0.61456000  0.49725000  0.76315000  1.0
  H  H40  1  0.20757000  0.49941000  0.99896000  1.0
  H  H41  1  0.05561000  0.50766000  0.15303000  1.0
  H  H42  1  0.94339000  0.50966000  0.15349000  1.0
  H  H43  1  0.16229000  0.49070000  0.72501000  1.0
  H  H44  1  0.23606000  0.49470000  0.63937000  1.0
  H  H45  1  0.38296000  0.50905000  0.76539000  1.0
  H  H46  1  0.30997000  0.50576000  0.85156000  1.0
  H  H47  1  0.23321000  0.50607000  0.36027000  1.0
  H  H48  1  0.16116000  0.50946000  0.27316000  1.0
  H  H49  1  0.31083000  0.48916000  0.14976000  1.0
  H  H50  1  0.38210000  0.48669000  0.23738000  1.0
  H  H51  1  0.99671000  0.79197000  0.49694000  1.0
  H  H52  1  0.15184000  0.94276000  0.50583000  1.0
  H  H53  1  0.15301000  0.05493000  0.50885000  1.0
  H  H54  1  0.72236000  0.83927000  0.49241000  1.0
  H  H55  1  0.63652000  0.76567000  0.49233000  1.0
  H  H56  1  0.76235000  0.61784000  0.49416000  1.0
  H  H57  1  0.84879000  0.69054000  0.49429000  1.0
  H  H58  1  0.35775000  0.76400000  0.49801000  1.0
  H  H59  1  0.27097000  0.83670000  0.49582000  1.0
  H  H60  1  0.14649000  0.68720000  0.50843000  1.0
  H  H61  1  0.23379000  0.61531000  0.51006000  1.0
  H  H62  1  0.00104000  0.20953000  0.50746000  1.0
  H  H63  1  0.84592000  0.05868000  0.50075000  1.0
  H  H64  1  0.84473000  0.94649000  0.49804000  1.0
  H  H65  1  0.27542000  0.16213000  0.51163000  1.0
  H  H66  1  0.36142000  0.23541000  0.50706000  1.0
  H  H67  1  0.23580000  0.38300000  0.49485000  1.0
  H  H68  1  0.14926000  0.31051000  0.49888000  1.0
  H  H69  1  0.64065000  0.23758000  0.48152000  1.0
  H  H70  1  0.72785000  0.16545000  0.48006000  1.0
  H  H71  1  0.84854000  0.31151000  0.52600000  1.0
  H  H72  1  0.76104000  0.38323000  0.52540000  1.0
  H  H73  1  0.40901000  0.58942000  0.41127000  1.0
  H  H74  1  0.58788000  0.41249000  0.40997000  1.0
  H  H75  1  0.58829000  0.58956000  0.58839000  1.0
  C  C76  1  0.49547000  0.35535000  0.35711000  1.0
  C  C77  1  0.50179000  0.64724000  0.35841000  1.0
  C  C78  1  0.50182000  0.05603000  0.12826000  1.0
  C  C79  1  0.50534000  0.00064000  0.15901000  1.0
  C  C80  1  0.50692000  0.94526000  0.12816000  1.0
  C  C81  1  0.50494000  0.94460000  0.06362000  1.0
  C  C82  1  0.50147000  0.00067000  0.03178000  1.0
  C  C83  1  0.49996000  0.05673000  0.06370000  1.0
  C  C84  1  0.49654000  0.11172000  0.03051000  1.0
  C  C85  1  0.49514000  0.11173000  0.96859000  1.0
  C  C86  1  0.50976000  0.89102000  0.16168000  1.0
  C  C87  1  0.51131000  0.84498000  0.19224000  1.0
  C  C88  1  0.51052000  0.79496000  0.23201000  1.0
  C  C89  1  0.51883000  0.73490000  0.21187000  1.0
  C  C90  1  0.51600000  0.68706000  0.25254000  1.0
  C  C91  1  0.50539000  0.69789000  0.31408000  1.0
  C  C92  1  0.49790000  0.75755000  0.33449000  1.0
  C  C93  1  0.50019000  0.80543000  0.29421000  1.0
  C  C94  1  0.50022000  0.11029000  0.16178000  1.0
  C  C95  1  0.49872000  0.15649000  0.19206000  1.0
  C  C96  1  0.49525000  0.30462000  0.31269000  1.0
  C  C97  1  0.49329000  0.31514000  0.25018000  1.0
  C  C98  1  0.49418000  0.26695000  0.20985000  1.0
  C  C99  1  0.49729000  0.20683000  0.23133000  1.0
  C  C100  1  0.49912000  0.19670000  0.29442000  1.0
  C  C101  1  0.49795000  0.24494000  0.33426000  1.0
  C  C102  1  0.49660000  0.64687000  0.64134000  1.0
  C  C103  1  0.50294000  0.35471000  0.64129000  1.0
  C  C104  1  0.49830000  0.94531000  0.87082000  1.0
  C  C105  1  0.49613000  0.00069000  0.83996000  1.0
  C  C106  1  0.49573000  0.05609000  0.87079000  1.0
  C  C107  1  0.49678000  0.05673000  0.93535000  1.0
  C  C108  1  0.49951000  0.00067000  0.96725000  1.0
  C  C109  1  0.50049000  0.94460000  0.93535000  1.0
  C  C110  1  0.50379000  0.88959000  0.96849000  1.0
  C  C111  1  0.50604000  0.88959000  0.03038000  1.0
  C  C112  1  0.49518000  0.11036000  0.83725000  1.0
  C  C113  1  0.49611000  0.15643000  0.80673000  1.0
  C  C114  1  0.49751000  0.20667000  0.76729000  1.0
  C  C115  1  0.50718000  0.26623000  0.78824000  1.0
  C  C116  1  0.50886000  0.31426000  0.74776000  1.0
  C  C117  1  0.50148000  0.30400000  0.68564000  1.0
  C  C118  1  0.49192000  0.24490000  0.66455000  1.0
  C  C119  1  0.48960000  0.19687000  0.70464000  1.0
  C  C120  1  0.49866000  0.89103000  0.83736000  1.0
  C  C121  1  0.49877000  0.84480000  0.80712000  1.0
  C  C122  1  0.49711000  0.69754000  0.68569000  1.0
  C  C123  1  0.49665000  0.68654000  0.74813000  1.0
  C  C124  1  0.49736000  0.73441000  0.78877000  1.0
  C  C125  1  0.49859000  0.79468000  0.76759000  1.0
  C  C126  1  0.49941000  0.80530000  0.70457000  1.0
  C  C127  1  0.49864000  0.75735000  0.66438000  1.0
  C  C128  1  0.64126000  0.49637000  0.64549000  1.0
  C  C129  1  0.64060000  0.50653000  0.35417000  1.0
  C  C130  1  0.86955000  0.49803000  0.94525000  1.0
  C  C131  1  0.83900000  0.50256000  0.00062000  1.0
  C  C132  1  0.87010000  0.50524000  0.05584000  1.0
  C  C133  1  0.93470000  0.50386000  0.05629000  1.0
  C  C134  1  0.96634000  0.49981000  0.00018000  1.0
  C  C135  1  0.93414000  0.49652000  0.94433000  1.0
  C  C136  1  0.96707000  0.49205000  0.88930000  1.0
  C  C137  1  0.02904000  0.49181000  0.88901000  1.0
  C  C138  1  0.83664000  0.50885000  0.11003000  1.0
  C  C139  1  0.80592000  0.51118000  0.15590000  1.0
  C  C140  1  0.76654000  0.51240000  0.20617000  1.0
  C  C141  1  0.78784000  0.50608000  0.26608000  1.0
  C  C142  1  0.74745000  0.50523000  0.31418000  1.0
  C  C143  1  0.68508000  0.51035000  0.30373000  1.0
  C  C144  1  0.66376000  0.51769000  0.24438000  1.0
  C  C145  1  0.70370000  0.51889000  0.19620000  1.0
  C  C146  1  0.83572000  0.49538000  0.89123000  1.0
  C  C147  1  0.80516000  0.49359000  0.84520000  1.0
  C  C148  1  0.68525000  0.49387000  0.69649000  1.0
  C  C149  1  0.74780000  0.49108000  0.68634000  1.0
  C  C150  1  0.78780000  0.49037000  0.73480000  1.0
  C  C151  1  0.76595000  0.49272000  0.79478000  1.0
  C  C152  1  0.70280000  0.49486000  0.80455000  1.0
  C  C153  1  0.66324000  0.49533000  0.75603000  1.0
  C  C154  1  0.35620000  0.49671000  0.35472000  1.0
  C  C155  1  0.35813000  0.50296000  0.64678000  1.0
  C  C156  1  0.12781000  0.50124000  0.05481000  1.0
  C  C157  1  0.15833000  0.49918000  0.99928000  1.0
  C  C158  1  0.12717000  0.49667000  0.94408000  1.0
  C  C159  1  0.06258000  0.49573000  0.94374000  1.0
  C  C160  1  0.03095000  0.49917000  0.99989000  1.0
  C  C161  1  0.06320000  0.50202000  0.05575000  1.0
  C  C162  1  0.03024000  0.50557000  0.11081000  1.0
  C  C163  1  0.96827000  0.50660000  0.11107000  1.0
  C  C164  1  0.16057000  0.49581000  0.88977000  1.0
  C  C165  1  0.19140000  0.49626000  0.84391000  1.0
  C  C166  1  0.23130000  0.49801000  0.79407000  1.0
  C  C167  1  0.21060000  0.49492000  0.73371000  1.0
  C  C168  1  0.25147000  0.49712000  0.68609000  1.0
  C  C169  1  0.31368000  0.50215000  0.69737000  1.0
  C  C170  1  0.33454000  0.50524000  0.75726000  1.0
  C  C171  1  0.29409000  0.50330000  0.80499000  1.0
  C  C172  1  0.16161000  0.50205000  0.10893000  1.0
  C  C173  1  0.19212000  0.50146000  0.15503000  1.0
  C  C174  1  0.31190000  0.49634000  0.30387000  1.0
  C  C175  1  0.24956000  0.50236000  0.31395000  1.0
  C  C176  1  0.20956000  0.50421000  0.26548000  1.0
  C  C177  1  0.23121000  0.49966000  0.20555000  1.0
  C  C178  1  0.29407000  0.49296000  0.19591000  1.0
  C  C179  1  0.33361000  0.49148000  0.24443000  1.0
  C  C180  1  0.35184000  0.64144000  0.50388000  1.0
  C  C181  1  0.64408000  0.64287000  0.49526000  1.0
  C  C182  1  0.05293000  0.87133000  0.50060000  1.0
  C  C183  1  0.99720000  0.84117000  0.49848000  1.0
  C  C184  1  0.94210000  0.87267000  0.49818000  1.0
  C  C185  1  0.94211000  0.93723000  0.49995000  1.0
  C  C186  1  0.99854000  0.96845000  0.50218000  1.0
  C  C187  1  0.05432000  0.93587000  0.50264000  1.0
  C  C188  1  0.10971000  0.96841000  0.50523000  1.0
  C  C189  1  0.11035000  0.03034000  0.50689000  1.0
  C  C190  1  0.88754000  0.83970000  0.49616000  1.0
  C  C191  1  0.84137000  0.80940000  0.49466000  1.0
  C  C192  1  0.79136000  0.76974000  0.49364000  1.0
  C  C193  1  0.73098000  0.79075000  0.49279000  1.0
  C  C194  1  0.68324000  0.74995000  0.49276000  1.0
  C  C195  1  0.69447000  0.68754000  0.49352000  1.0
  C  C196  1  0.75440000  0.66642000  0.49377000  1.0
  C  C197  1  0.80223000  0.70673000  0.49381000  1.0
  C  C198  1  0.10685000  0.83716000  0.50078000  1.0
  C  C199  1  0.15268000  0.80621000  0.50104000  1.0
  C  C200  1  0.30080000  0.68551000  0.50411000  1.0
  C  C201  1  0.31125000  0.74793000  0.50029000  1.0
  C  C202  1  0.26302000  0.78820000  0.49912000  1.0
  C  C203  1  0.20293000  0.76672000  0.50202000  1.0
  C  C204  1  0.19283000  0.70373000  0.50608000  1.0
  C  C205  1  0.24117000  0.66389000  0.50700000  1.0
  C  C206  1  0.64501000  0.35887000  0.50220000  1.0
  C  C207  1  0.35394000  0.35802000  0.49876000  1.0
  C  C208  1  0.94480000  0.13014000  0.50454000  1.0
  C  C209  1  0.00050000  0.16031000  0.50660000  1.0
  C  C210  1  0.05561000  0.12881000  0.50720000  1.0
  C  C211  1  0.05565000  0.06424000  0.50612000  1.0
  C  C212  1  0.99922000  0.03301000  0.50391000  1.0
  C  C213  1  0.94346000  0.06558000  0.50313000  1.0
  C  C214  1  0.88806000  0.03303000  0.50107000  1.0
  C  C215  1  0.88740000  0.97111000  0.49960000  1.0
  C  C216  1  0.11020000  0.16176000  0.50795000  1.0
  C  C217  1  0.15645000  0.19198000  0.50741000  1.0
  C  C218  1  0.20654000  0.23150000  0.50555000  1.0
  C  C219  1  0.26689000  0.21051000  0.50786000  1.0
  C  C220  1  0.31472000  0.25115000  0.50533000  1.0
  C  C221  1  0.30356000  0.31342000  0.50061000  1.0
  C  C222  1  0.24367000  0.33453000  0.49847000  1.0
  C  C223  1  0.19579000  0.29436000  0.50078000  1.0
  C  C224  1  0.89080000  0.16418000  0.50361000  1.0
  C  C225  1  0.84460000  0.19459000  0.50276000  1.0
  C  C226  1  0.69586000  0.31461000  0.50343000  1.0
  C  C227  1  0.68640000  0.25313000  0.49114000  1.0
  C  C228  1  0.73487000  0.21307000  0.49049000  1.0
  C  C229  1  0.79403000  0.23370000  0.50298000  1.0
  C  C230  1  0.80299000  0.29562000  0.51601000  1.0
  C  C231  1  0.75456000  0.33537000  0.51584000  1.0
  O  O232  1  0.54544000  0.54795000  0.45273000  1.0
  O  O233  1  0.56275000  0.56439000  0.56324000  1.0
  O  O234  1  0.49636000  0.40964000  0.33769000  1.0
  O  O235  1  0.50098000  0.59303000  0.33889000  1.0
  O  O236  1  0.49582000  0.33971000  0.41297000  1.0
  O  O237  1  0.49897000  0.66287000  0.41420000  1.0
  O  O238  1  0.49708000  0.59264000  0.66086000  1.0
  O  O239  1  0.50303000  0.40891000  0.66084000  1.0
  O  O240  1  0.49656000  0.66250000  0.58545000  1.0
  O  O241  1  0.50290000  0.33912000  0.58543000  1.0
  O  O242  1  0.43442000  0.56407000  0.43646000  1.0
  O  O243  1  0.66085000  0.49759000  0.59134000  1.0
  O  O244  1  0.66014000  0.50403000  0.40836000  1.0
  O  O245  1  0.58536000  0.49818000  0.66096000  1.0
  O  O246  1  0.58477000  0.50500000  0.33845000  1.0
  O  O247  1  0.33675000  0.49727000  0.40894000  1.0
  O  O248  1  0.33851000  0.50228000  0.59259000  1.0
  O  O249  1  0.41210000  0.49762000  0.33907000  1.0
  O  O250  1  0.41407000  0.50317000  0.66231000  1.0
  O  O251  1  0.56259000  0.43746000  0.43559000  1.0
  O  O252  1  0.40593000  0.66126000  0.50311000  1.0
  O  O253  1  0.58970000  0.66206000  0.49597000  1.0
  O  O254  1  0.33661000  0.58546000  0.50338000  1.0
  O  O255  1  0.66008000  0.58710000  0.49706000  1.0
  O  O256  1  0.59085000  0.33923000  0.50022000  1.0
  O  O257  1  0.40832000  0.33878000  0.49859000  1.0
  O  O258  1  0.66048000  0.41475000  0.50231000  1.0
  O  O259  1  0.33802000  0.41383000  0.49845000  1.0
  O  O260  1  0.43602000  0.43677000  0.56386000  1.0
  O  O261  1  0.45198000  0.45370000  0.45304000  1.0
  O  O262  1  0.45196000  0.54750000  0.54701000  1.0
  O  O263  1  0.54624000  0.45377000  0.54634000  1.0
