# generated using pymatgen
data_NiGeH8C8(N2F3)2
_symmetry_space_group_name_H-M   'P 1'
_cell_length_a   6.98600000
_cell_length_b   6.98599000
_cell_length_c   7.85432000
_cell_angle_alpha   90.00010000
_cell_angle_beta   89.99980000
_cell_angle_gamma   90.00000000
_symmetry_Int_Tables_number   1
_chemical_formula_structural   NiGeH8C8(N2F3)2
_chemical_formula_sum   'Ni1 Ge1 H8 C8 N4 F6'
_cell_volume   383.32322402
_cell_formula_units_Z   1
loop_
 _symmetry_equiv_pos_site_id
 _symmetry_equiv_pos_as_xyz
  1  'x, y, z'
loop_
 _atom_site_type_symbol
 _atom_site_label
 _atom_site_symmetry_multiplicity
 _atom_site_fract_x
 _atom_site_fract_y
 _atom_site_fract_z
 _atom_site_occupancy
  Ni  Ni0  1  0.50000000  0.50000000  0.50000000  1.0
  Ge  Ge1  1  0.50000000  0.50000000  0.00000000  1.0
  H  H2  1  0.50000000  0.17762000  0.23383000  1.0
  H  H3  1  0.50000000  0.82238000  0.23383000  1.0
  H  H4  1  0.82238000  0.50000000  0.23383000  1.0
  H  H5  1  0.17762000  0.50000000  0.23383000  1.0
  H  H6  1  0.50000000  0.17762000  0.76617000  1.0
  H  H7  1  0.50000000  0.82239000  0.76618000  1.0
  H  H8  1  0.17762000  0.50000000  0.76617000  1.0
  H  H9  1  0.82238000  0.50000000  0.76617000  1.0
  C  C10  1  0.50000000  0.09961000  0.35366000  1.0
  C  C11  1  0.50000000  0.90039000  0.35366000  1.0
  C  C12  1  0.90039000  0.50000000  0.35366000  1.0
  C  C13  1  0.09961000  0.50000000  0.35366000  1.0
  C  C14  1  0.50000000  0.09961000  0.64634000  1.0
  C  C15  1  0.50000000  0.90039000  0.64634000  1.0
  C  C16  1  0.09961000  0.50000000  0.64634000  1.0
  C  C17  1  0.90039000  0.50000000  0.64634000  1.0
  N  N18  1  0.50000000  0.19996000  0.50000000  1.0
  N  N19  1  0.50000000  0.80005000  0.50000000  1.0
  N  N20  1  0.80004000  0.50000000  0.50000000  1.0
  N  N21  1  0.19996000  0.50000000  0.50000000  1.0
  F  F22  1  0.50000000  0.50000000  0.24125000  1.0
  F  F23  1  0.50000000  0.50000000  0.75875000  1.0
  F  F24  1  0.31720000  0.31720000  0.00000000  1.0
  F  F25  1  0.68280000  0.68280000  0.99999000  1.0
  F  F26  1  0.68280000  0.31720000  0.00000000  1.0
  F  F27  1  0.31720000  0.68280000  0.00000000  1.0
