# generated using pymatgen
data_Lu2MnH28(C8O9)2
_symmetry_space_group_name_H-M   'P 1'
_cell_length_a   8.76811000
_cell_length_b   8.91862000
_cell_length_c   10.48500000
_cell_angle_alpha   83.93070000
_cell_angle_beta   70.54940000
_cell_angle_gamma   80.27440000
_symmetry_Int_Tables_number   1
_chemical_formula_structural   Lu2MnH28(C8O9)2
_chemical_formula_sum   'Lu2 Mn1 H28 C16 O18'
_cell_volume   760.93538717
_cell_formula_units_Z   1
loop_
 _symmetry_equiv_pos_site_id
 _symmetry_equiv_pos_as_xyz
  1  'x, y, z'
loop_
 _atom_site_type_symbol
 _atom_site_label
 _atom_site_symmetry_multiplicity
 _atom_site_fract_x
 _atom_site_fract_y
 _atom_site_fract_z
 _atom_site_occupancy
  Lu  Lu0  1  0.92090000  0.07832000  0.68392000  1.0
  Lu  Lu1  1  0.07913000  0.92168000  0.31607000  1.0
  Mn  Mn2  1  0.00000000  0.00000000  0.99999000  1.0
  H  H3  1  0.82925000  0.36016000  0.07161000  1.0
  H  H4  1  0.17068000  0.63983000  0.92841000  1.0
  H  H5  1  0.64615000  0.43352000  0.02993000  1.0
  H  H6  1  0.35376000  0.56643000  0.97011000  1.0
  H  H7  1  0.83249000  0.50570000  0.94160000  1.0
  H  H8  1  0.16738000  0.49430000  0.05846000  1.0
  H  H9  1  0.72373000  0.73820000  0.06814000  1.0
  H  H10  1  0.27625000  0.26180000  0.93181000  1.0
  H  H11  1  0.57570000  0.73656000  0.98335000  1.0
  H  H12  1  0.42427000  0.26347000  0.01657000  1.0
  H  H13  1  0.55557000  0.88856000  0.08436000  1.0
  H  H14  1  0.44439000  0.11145000  0.91560000  1.0
  H  H15  1  0.49673000  0.87004000  0.55619000  1.0
  H  H16  1  0.50328000  0.12997000  0.44382000  1.0
  H  H17  1  0.45023000  0.72159000  0.68422000  1.0
  H  H18  1  0.54979000  0.27840000  0.31578000  1.0
  H  H19  1  0.53217000  0.87806000  0.71450000  1.0
  H  H20  1  0.46784000  0.12193000  0.28550000  1.0
  H  H21  1  0.20355000  0.32061000  0.25212000  1.0
  H  H22  1  0.79651000  0.67941000  0.74791000  1.0
  H  H23  1  0.25226000  0.41817000  0.37178000  1.0
  H  H24  1  0.74779000  0.58185000  0.62826000  1.0
  H  H25  1  0.05926000  0.46611000  0.35202000  1.0
  H  H26  1  0.94078000  0.53389000  0.64801000  1.0
  H  H27  1  0.62211000  0.17563000  0.63271000  1.0
  H  H28  1  0.37792000  0.82440000  0.36729000  1.0
  H  H29  1  0.74844000  0.11932000  0.48909000  1.0
  H  H30  1  0.25159000  0.88068000  0.51090000  1.0
  C  C31  1  0.27872000  0.92405000  0.72992000  1.0
  C  C32  1  0.72130000  0.07594000  0.27007000  1.0
  C  C33  1  0.77914000  0.40263000  0.98977000  1.0
  C  C34  1  0.22078000  0.59735000  0.01026000  1.0
  C  C35  1  0.64584000  0.80768000  0.01510000  1.0
  C  C36  1  0.35413000  0.19233000  0.98486000  1.0
  C  C37  1  0.82426000  0.28712000  0.88431000  1.0
  C  C38  1  0.17570000  0.71288000  0.11570000  1.0
  C  C39  1  0.74431000  0.89583000  0.89570000  1.0
  C  C40  1  0.25567000  0.10418000  0.10428000  1.0
  C  C41  1  0.45059000  0.84533000  0.66582000  1.0
  C  C42  1  0.54942000  0.15466000  0.33418000  1.0
  C  C43  1  0.15645000  0.36990000  0.35108000  1.0
  C  C44  1  0.84362000  0.63011000  0.64895000  1.0
  C  C45  1  0.08801000  0.25623000  0.46221000  1.0
  C  C46  1  0.91204000  0.74377000  0.53781000  1.0
  O  O47  1  0.18877000  0.96732000  0.65366000  1.0
  O  O48  1  0.81125000  0.03268000  0.34633000  1.0
  O  O49  1  0.04914000  0.28863000  0.58482000  1.0
  O  O50  1  0.95091000  0.71136000  0.41520000  1.0
  O  O51  1  0.89924000  0.89482000  0.87363000  1.0
  O  O52  1  0.10074000  0.10518000  0.12638000  1.0
  O  O53  1  0.95767000  0.19079000  0.86734000  1.0
  O  O54  1  0.04230000  0.80922000  0.13268000  1.0
  O  O55  1  0.67987000  0.97441000  0.81365000  1.0
  O  O56  1  0.32013000  0.02560000  0.18633000  1.0
  O  O57  1  0.73895000  0.28334000  0.80886000  1.0
  O  O58  1  0.26105000  0.71666000  0.19113000  1.0
  O  O59  1  0.06182000  0.12559000  0.43709000  1.0
  O  O60  1  0.93822000  0.87443000  0.56292000  1.0
  O  O61  1  0.73371000  0.17463000  0.57244000  1.0
  O  O62  1  0.26633000  0.82538000  0.42754000  1.0
  O  O63  1  0.23256000  0.94055000  0.85600000  1.0
  O  O64  1  0.76745000  0.05942000  0.14399000  1.0
