# generated using pymatgen
data_CuH5C7N2
_symmetry_space_group_name_H-M   'P 1'
_cell_length_a   27.19030000
_cell_length_b   27.52950000
_cell_length_c   28.33740000
_cell_angle_alpha   88.26230000
_cell_angle_beta   88.25200000
_cell_angle_gamma   87.06020000
_symmetry_Int_Tables_number   1
_chemical_formula_structural   CuH5C7N2
_chemical_formula_sum   'Cu12 H60 C84 N24'
_cell_volume   21164.98376003
_cell_formula_units_Z   12
loop_
 _symmetry_equiv_pos_site_id
 _symmetry_equiv_pos_as_xyz
  1  'x, y, z'
loop_
 _atom_site_type_symbol
 _atom_site_label
 _atom_site_symmetry_multiplicity
 _atom_site_fract_x
 _atom_site_fract_y
 _atom_site_fract_z
 _atom_site_occupancy
  Cu  Cu0  1  0.11728000  0.81659000  0.90437000  1.0
  Cu  Cu1  1  0.15706000  0.91570000  0.86367000  1.0
  Cu  Cu2  1  0.07269000  0.86417000  0.81074000  1.0
  Cu  Cu3  1  0.87641000  0.33303000  0.59102000  1.0
  Cu  Cu4  1  0.81894000  0.42412000  0.63723000  1.0
  Cu  Cu5  1  0.91138000  0.37241000  0.68772000  1.0
  Cu  Cu6  1  0.61575000  0.68587000  0.10046000  1.0
  Cu  Cu7  1  0.66220000  0.58558000  0.13858000  1.0
  Cu  Cu8  1  0.56450000  0.63301000  0.18836000  1.0
  Cu  Cu9  1  0.39945000  0.14981000  0.42002000  1.0
  Cu  Cu10  1  0.33463000  0.09777000  0.34761000  1.0
  Cu  Cu11  1  0.44197000  0.12801000  0.31759000  1.0
  H  H12  1  0.64861000  0.28912000  0.42744000  1.0
  H  H13  1  0.59025000  0.36622000  0.30525000  1.0
  H  H14  1  0.71015000  0.42318000  0.37848000  1.0
  H  H15  1  0.36383000  0.83449000  0.04549000  1.0
  H  H16  1  0.42102000  0.89557000  0.16932000  1.0
  H  H17  1  0.29122000  0.96187000  0.10583000  1.0
  H  H18  1  0.13623000  0.18421000  0.54880000  1.0
  H  H19  1  0.07108000  0.12517000  0.67726000  1.0
  H  H20  1  0.21716000  0.07557000  0.63199000  1.0
  H  H21  1  0.81456000  0.54642000  0.89223000  1.0
  H  H22  1  0.94393000  0.61189000  0.83335000  1.0
  H  H23  1  0.87134000  0.67034000  0.95777000  1.0
  H  H24  1  0.19477000  0.79093000  0.98458000  1.0
  H  H25  1  0.23800000  0.93465000  0.93927000  1.0
  H  H26  1  0.99374000  0.78655000  0.78863000  1.0
  H  H27  1  0.04426000  0.73158000  0.92455000  1.0
  H  H28  1  0.16957000  0.00881000  0.79681000  1.0
  H  H29  1  0.05307000  0.94068000  0.72638000  1.0
  H  H30  1  0.81308000  0.32111000  0.50054000  1.0
  H  H31  1  0.74118000  0.45160000  0.55739000  1.0
  H  H32  1  0.99880000  0.29497000  0.71074000  1.0
  H  H33  1  0.95720000  0.24717000  0.57393000  1.0
  H  H34  1  0.78667000  0.50388000  0.71282000  1.0
  H  H35  1  0.91897000  0.43993000  0.77567000  1.0
  H  H36  1  0.69554000  0.71321000  0.02084000  1.0
  H  H37  1  0.75026000  0.56813000  0.06241000  1.0
  H  H38  1  0.47599000  0.71071000  0.21124000  1.0
  H  H39  1  0.53978000  0.77509000  0.08367000  1.0
  H  H40  1  0.68107000  0.49300000  0.20606000  1.0
  H  H41  1  0.54306000  0.55129000  0.26658000  1.0
  H  H42  1  0.32520000  0.15541000  0.50868000  1.0
  H  H43  1  0.23066000  0.10257000  0.40325000  1.0
  H  H44  1  0.53031000  0.20035000  0.31136000  1.0
  H  H45  1  0.48390000  0.21277000  0.45829000  1.0
  H  H46  1  0.31427000  0.02430000  0.26747000  1.0
  H  H47  1  0.46428000  0.05943000  0.23019000  1.0
  H  H48  1  0.26684000  0.93492000  0.02820000  1.0
  H  H49  1  0.28289000  0.82372000  0.02546000  1.0
  H  H50  1  0.72594000  0.31630000  0.46114000  1.0
  H  H51  1  0.71471000  0.42790000  0.46276000  1.0
  H  H52  1  0.78316000  0.57047000  0.97141000  1.0
  H  H53  1  0.78871000  0.68118000  0.97847000  1.0
  H  H54  1  0.25874000  0.11888000  0.56567000  1.0
  H  H55  1  0.18161000  0.13621000  0.48915000  1.0
  H  H56  1  0.95305000  0.69955000  0.92982000  1.0
  H  H57  1  0.95628000  0.69481000  0.82155000  1.0
  H  H58  1  0.56257000  0.28633000  0.32531000  1.0
  H  H59  1  0.57164000  0.26082000  0.43111000  1.0
  H  H60  1  0.04896000  0.20819000  0.57259000  1.0
  H  H61  1  0.04782000  0.20806000  0.68108000  1.0
  H  H62  1  0.44633000  0.80639000  0.07448000  1.0
  H  H63  1  0.43723000  0.80879000  0.18274000  1.0
  H  H64  1  0.18255000  0.04947000  0.71120000  1.0
  H  H65  1  0.07348000  0.03636000  0.69216000  1.0
  H  H66  1  0.68730000  0.45568000  0.29673000  1.0
  H  H67  1  0.57443000  0.45341000  0.29776000  1.0
  H  H68  1  0.31664000  0.98833000  0.18394000  1.0
  H  H69  1  0.42965000  0.97733000  0.18492000  1.0
  H  H70  1  0.92089000  0.53069000  0.80735000  1.0
  H  H71  1  0.80778000  0.53592000  0.80692000  1.0
  C  C72  1  0.68174000  0.35682000  0.40873000  1.0
  C  C73  1  0.64802000  0.32061000  0.40305000  1.0
  C  C74  1  0.61402000  0.32396000  0.36657000  1.0
  C  C75  1  0.61542000  0.36397000  0.33460000  1.0
  C  C76  1  0.64940000  0.40025000  0.33868000  1.0
  C  C77  1  0.68268000  0.39592000  0.37568000  1.0
  C  C78  1  0.32240000  0.89775000  0.07181000  1.0
  C  C79  1  0.36101000  0.86185000  0.07266000  1.0
  C  C80  1  0.39609000  0.86004000  0.10813000  1.0
  C  C81  1  0.39339000  0.89625000  0.14214000  1.0
  C  C82  1  0.35607000  0.93351000  0.14144000  1.0
  C  C83  1  0.32062000  0.93331000  0.10642000  1.0
  C  C84  1  0.18110000  0.12903000  0.58572000  1.0
  C  C85  1  0.13816000  0.15880000  0.57912000  1.0
  C  C86  1  0.09917000  0.15936000  0.61288000  1.0
  C  C87  1  0.10191000  0.12641000  0.65175000  1.0
  C  C88  1  0.14393000  0.09552000  0.65865000  1.0
  C  C89  1  0.18410000  0.09911000  0.62664000  1.0
  C  C90  1  0.83734000  0.60907000  0.92850000  1.0
  C  C91  1  0.84100000  0.57494000  0.89246000  1.0
  C  C92  1  0.87876000  0.57601000  0.85753000  1.0
  C  C93  1  0.91351000  0.61184000  0.85939000  1.0
  C  C94  1  0.91044000  0.64703000  0.89438000  1.0
  C  C95  1  0.87270000  0.64454000  0.92920000  1.0
  C  C96  1  0.19943000  0.82636000  0.96765000  1.0
  C  C97  1  0.23209000  0.86226000  0.97808000  1.0
  C  C98  1  0.22083000  0.90017000  0.94512000  1.0
  C  C99  1  0.01196000  0.77910000  0.82183000  1.0
  C  C100  1  0.00313000  0.74298000  0.85678000  1.0
  C  C101  1  0.03708000  0.75158000  0.89168000  1.0
  C  C102  1  0.14180000  0.98547000  0.78481000  1.0
  C  C103  1  0.11054000  0.99203000  0.74623000  1.0
  C  C104  1  0.08168000  0.95106000  0.74941000  1.0
  C  C105  1  0.80015000  0.35198000  0.52127000  1.0
  C  C106  1  0.76263000  0.38771000  0.51178000  1.0
  C  C107  1  0.76413000  0.41917000  0.54983000  1.0
  C  C108  1  0.98221000  0.28929000  0.67712000  1.0
  C  C109  1  0.99532000  0.25463000  0.64291000  1.0
  C  C110  1  0.96161000  0.26535000  0.60688000  1.0
  C  C111  1  0.81980000  0.48251000  0.72220000  1.0
  C  C112  1  0.85065000  0.48720000  0.76055000  1.0
  C  C113  1  0.88795000  0.45056000  0.75376000  1.0
  C  C114  1  0.70274000  0.67737000  0.03695000  1.0
  C  C115  1  0.73936000  0.64147000  0.02527000  1.0
  C  C116  1  0.73009000  0.60288000  0.05753000  1.0
  C  C117  1  0.49787000  0.72031000  0.17997000  1.0
  C  C118  1  0.49101000  0.75966000  0.14765000  1.0
  C  C119  1  0.52988000  0.75263000  0.11428000  1.0
  C  C120  1  0.64785000  0.51428000  0.21595000  1.0
  C  C121  1  0.61208000  0.50474000  0.25147000  1.0
  C  C122  1  0.57682000  0.54352000  0.24614000  1.0
  C  C123  1  0.30897000  0.14123000  0.47775000  1.0
  C  C124  1  0.25987000  0.13007000  0.47063000  1.0
  C  C125  1  0.26044000  0.11528000  0.42356000  1.0
  C  C126  1  0.51232000  0.19854000  0.34605000  1.0
  C  C127  1  0.52347000  0.22178000  0.38770000  1.0
  C  C128  1  0.48921000  0.20410000  0.42132000  1.0
  C  C129  1  0.35041000  0.03920000  0.26368000  1.0
  C  C130  1  0.38981000  0.02668000  0.23228000  1.0
  C  C131  1  0.42731000  0.05654000  0.24525000  1.0
  C  C132  1  0.28450000  0.89911000  0.03620000  1.0
  C  C133  1  0.26852000  0.86006000  0.01451000  1.0
  C  C134  1  0.71475000  0.35315000  0.44869000  1.0
  C  C135  1  0.72954000  0.39137000  0.47250000  1.0
  C  C136  1  0.79780000  0.60641000  0.96458000  1.0
  C  C137  1  0.77724000  0.64459000  0.98826000  1.0
  C  C138  1  0.22228000  0.12742000  0.55131000  1.0
  C  C139  1  0.21836000  0.13215000  0.50398000  1.0
  C  C140  1  0.94561000  0.68547000  0.89517000  1.0
  C  C141  1  0.96718000  0.70589000  0.85635000  1.0
  C  C142  1  0.57774000  0.28741000  0.36059000  1.0
  C  C143  1  0.55983000  0.25735000  0.39485000  1.0
  C  C144  1  0.05834000  0.19584000  0.60845000  1.0
  C  C145  1  0.03493000  0.21752000  0.64559000  1.0
  C  C146  1  0.43406000  0.82037000  0.10888000  1.0
  C  C147  1  0.45257000  0.79825000  0.14815000  1.0
  C  C148  1  0.14630000  0.05803000  0.69640000  1.0
  C  C149  1  0.10832000  0.03076000  0.71041000  1.0
  C  C150  1  0.65096000  0.44172000  0.30510000  1.0
  C  C151  1  0.61094000  0.46465000  0.28588000  1.0
  C  C152  1  0.35348000  0.97230000  0.17570000  1.0
  C  C153  1  0.39258000  0.99042000  0.19620000  1.0
  C  C154  1  0.88330000  0.54080000  0.81971000  1.0
  C  C155  1  0.84532000  0.52248000  0.79766000  1.0
  N  N156  1  0.18424000  0.88772000  0.91754000  1.0
  N  N157  1  0.17061000  0.84200000  0.93182000  1.0
  N  N158  1  0.06378000  0.78988000  0.87845000  1.0
  N  N159  1  0.04789000  0.80729000  0.83521000  1.0
  N  N160  1  0.09504000  0.92226000  0.78667000  1.0
  N  N161  1  0.13216000  0.94387000  0.80887000  1.0
  N  N162  1  0.79936000  0.40305000  0.57981000  1.0
  N  N163  1  0.82201000  0.36150000  0.56180000  1.0
  N  N164  1  0.93109000  0.30341000  0.61887000  1.0
  N  N165  1  0.94411000  0.31853000  0.66239000  1.0
  N  N166  1  0.87988000  0.42625000  0.71437000  1.0
  N  N167  1  0.83776000  0.44636000  0.69449000  1.0
  N  N168  1  0.69091000  0.61499000  0.08587000  1.0
  N  N169  1  0.67361000  0.66113000  0.07278000  1.0
  N  N170  1  0.55749000  0.71223000  0.12588000  1.0
  N  N171  1  0.53736000  0.69185000  0.16645000  1.0
  N  N172  1  0.59089000  0.57401000  0.21069000  1.0
  N  N173  1  0.63483000  0.55558000  0.19162000  1.0
  N  N174  1  0.30636000  0.11703000  0.40443000  1.0
  N  N175  1  0.33647000  0.13342000  0.43807000  1.0
  N  N176  1  0.45954000  0.17343000  0.40111000  1.0
  N  N177  1  0.47419000  0.16975000  0.35436000  1.0
  N  N178  1  0.41135000  0.08472000  0.28126000  1.0
  N  N179  1  0.36359000  0.07372000  0.29284000  1.0
