# generated using pymatgen
data_CdH16C24S(N2O3)2
_symmetry_space_group_name_H-M   'P 1'
_cell_length_a   14.49020000
_cell_length_b   19.91240000
_cell_length_c   20.45710000
_cell_angle_alpha   89.99950000
_cell_angle_beta   84.53240000
_cell_angle_gamma   89.99990000
_symmetry_Int_Tables_number   1
_chemical_formula_structural   CdH16C24S(N2O3)2
_chemical_formula_sum   'Cd8 H128 C192 S8 N32 O48'
_cell_volume   5875.72702102
_cell_formula_units_Z   8
loop_
 _symmetry_equiv_pos_site_id
 _symmetry_equiv_pos_as_xyz
  1  'x, y, z'
loop_
 _atom_site_type_symbol
 _atom_site_label
 _atom_site_symmetry_multiplicity
 _atom_site_fract_x
 _atom_site_fract_y
 _atom_site_fract_z
 _atom_site_occupancy
  Cd  Cd0  1  0.37626000  0.54519000  0.33349000  1.0
  Cd  Cd1  1  0.13884000  0.45482000  0.32828000  1.0
  Cd  Cd2  1  0.12373000  0.04519000  0.66651000  1.0
  Cd  Cd3  1  0.36116000  0.95482000  0.67171000  1.0
  Cd  Cd4  1  0.62372000  0.45482000  0.66651000  1.0
  Cd  Cd5  1  0.86116000  0.54518000  0.67170000  1.0
  Cd  Cd6  1  0.87627000  0.95481000  0.33350000  1.0
  Cd  Cd7  1  0.63882000  0.04518000  0.32829000  1.0
  H  H8  1  0.39147000  0.47250000  0.66324000  1.0
  H  H9  1  0.33705000  0.58786000  0.99843000  1.0
  H  H10  1  0.09645000  0.52713000  0.66096000  1.0
  H  H11  1  0.17066000  0.41615000  0.98606000  1.0
  H  H12  1  0.34820000  0.43409000  0.75527000  1.0
  H  H13  1  0.36073000  0.40915000  0.87272000  1.0
  H  H14  1  0.38408000  0.62099000  0.91218000  1.0
  H  H15  1  0.36632000  0.64565000  0.79555000  1.0
  H  H16  1  0.40404000  0.43654000  0.44321000  1.0
  H  H17  1  0.40010000  0.42334000  0.56432000  1.0
  H  H18  1  0.32353000  0.63273000  0.58280000  1.0
  H  H19  1  0.32979000  0.63701000  0.46052000  1.0
  H  H20  1  0.42512000  0.44888000  0.21189000  1.0
  H  H21  1  0.41335000  0.43976000  0.09120000  1.0
  H  H22  1  0.31962000  0.64598000  0.09631000  1.0
  H  H23  1  0.33182000  0.64509000  0.21742000  1.0
  H  H24  1  0.11943000  0.35385000  0.79231000  1.0
  H  H25  1  0.10529000  0.37970000  0.91156000  1.0
  H  H26  1  0.12095000  0.59119000  0.86685000  1.0
  H  H27  1  0.12927000  0.56548000  0.74811000  1.0
  H  H28  1  0.16521000  0.36128000  0.45171000  1.0
  H  H29  1  0.16490000  0.36580000  0.57372000  1.0
  H  H30  1  0.09299000  0.57578000  0.56277000  1.0
  H  H31  1  0.09404000  0.56217000  0.44199000  1.0
  H  H32  1  0.20018000  0.35923000  0.20224000  1.0
  H  H33  1  0.20068000  0.35847000  0.08012000  1.0
  H  H34  1  0.09605000  0.56180000  0.09292000  1.0
  H  H35  1  0.09901000  0.55341000  0.21435000  1.0
  H  H36  1  0.24582000  0.28932000  0.33689000  1.0
  H  H37  1  0.31726000  0.16696000  0.33756000  1.0
  H  H38  1  0.26681000  0.71080000  0.33945000  1.0
  H  H39  1  0.19512000  0.83296000  0.34108000  1.0
  H  H40  1  0.10853000  0.97250000  0.33676000  1.0
  H  H41  1  0.16295000  0.08786000  0.00157000  1.0
  H  H42  1  0.40355000  0.02714000  0.33903000  1.0
  H  H43  1  0.32935000  0.91615000  0.01393000  1.0
  H  H44  1  0.15180000  0.93409000  0.24473000  1.0
  H  H45  1  0.13927000  0.90915000  0.12729000  1.0
  H  H46  1  0.11592000  0.12098000  0.08782000  1.0
  H  H47  1  0.13369000  0.14564000  0.20444000  1.0
  H  H48  1  0.09595000  0.93653000  0.55680000  1.0
  H  H49  1  0.09989000  0.92334000  0.43569000  1.0
  H  H50  1  0.17647000  0.13272000  0.41720000  1.0
  H  H51  1  0.17022000  0.13701000  0.53948000  1.0
  H  H52  1  0.07488000  0.94888000  0.78811000  1.0
  H  H53  1  0.08666000  0.93976000  0.90880000  1.0
  H  H54  1  0.18038000  0.14598000  0.90369000  1.0
  H  H55  1  0.16818000  0.14509000  0.78257000  1.0
  H  H56  1  0.38056000  0.85386000  0.20769000  1.0
  H  H57  1  0.39471000  0.87970000  0.08844000  1.0
  H  H58  1  0.37905000  0.09120000  0.13315000  1.0
  H  H59  1  0.37073000  0.06548000  0.25189000  1.0
  H  H60  1  0.33478000  0.86127000  0.54829000  1.0
  H  H61  1  0.33510000  0.86580000  0.42627000  1.0
  H  H62  1  0.40702000  0.07578000  0.43722000  1.0
  H  H63  1  0.40597000  0.06217000  0.55800000  1.0
  H  H64  1  0.29982000  0.85924000  0.79777000  1.0
  H  H65  1  0.29933000  0.85847000  0.91988000  1.0
  H  H66  1  0.40397000  0.06180000  0.90708000  1.0
  H  H67  1  0.40100000  0.05341000  0.78564000  1.0
  H  H68  1  0.25417000  0.78932000  0.66311000  1.0
  H  H69  1  0.18274000  0.66696000  0.66244000  1.0
  H  H70  1  0.23319000  0.21080000  0.66055000  1.0
  H  H71  1  0.30488000  0.33296000  0.65893000  1.0
  H  H72  1  0.60852000  0.52750000  0.33676000  1.0
  H  H73  1  0.66295000  0.41214000  0.00157000  1.0
  H  H74  1  0.90355000  0.47287000  0.33903000  1.0
  H  H75  1  0.82935000  0.58385000  0.01393000  1.0
  H  H76  1  0.65180000  0.56591000  0.24473000  1.0
  H  H77  1  0.63928000  0.59085000  0.12728000  1.0
  H  H78  1  0.61593000  0.37901000  0.08783000  1.0
  H  H79  1  0.63369000  0.35436000  0.20445000  1.0
  H  H80  1  0.59594000  0.56347000  0.55680000  1.0
  H  H81  1  0.59989000  0.57666000  0.43569000  1.0
  H  H82  1  0.67646000  0.36727000  0.41720000  1.0
  H  H83  1  0.67020000  0.36299000  0.53949000  1.0
  H  H84  1  0.57488000  0.55112000  0.78812000  1.0
  H  H85  1  0.58666000  0.56024000  0.90880000  1.0
  H  H86  1  0.68038000  0.35402000  0.90369000  1.0
  H  H87  1  0.66818000  0.35491000  0.78258000  1.0
  H  H88  1  0.88057000  0.64615000  0.20769000  1.0
  H  H89  1  0.89471000  0.62030000  0.08843000  1.0
  H  H90  1  0.87905000  0.40881000  0.13315000  1.0
  H  H91  1  0.87073000  0.43452000  0.25188000  1.0
  H  H92  1  0.83479000  0.63873000  0.54829000  1.0
  H  H93  1  0.83511000  0.63420000  0.42627000  1.0
  H  H94  1  0.90701000  0.42422000  0.43722000  1.0
  H  H95  1  0.90597000  0.43783000  0.55800000  1.0
  H  H96  1  0.79981000  0.64077000  0.79776000  1.0
  H  H97  1  0.79933000  0.64153000  0.91988000  1.0
  H  H98  1  0.90396000  0.43821000  0.90708000  1.0
  H  H99  1  0.90099000  0.44660000  0.78564000  1.0
  H  H100  1  0.75417000  0.71068000  0.66311000  1.0
  H  H101  1  0.68274000  0.83304000  0.66244000  1.0
  H  H102  1  0.73319000  0.28920000  0.66055000  1.0
  H  H103  1  0.80488000  0.16704000  0.65892000  1.0
  H  H104  1  0.89147000  0.02749000  0.66325000  1.0
  H  H105  1  0.83706000  0.91215000  0.99844000  1.0
  H  H106  1  0.59645000  0.97286000  0.66097000  1.0
  H  H107  1  0.67065000  0.08385000  0.98607000  1.0
  H  H108  1  0.84821000  0.06591000  0.75527000  1.0
  H  H109  1  0.86074000  0.09085000  0.87271000  1.0
  H  H110  1  0.88410000  0.87902000  0.91218000  1.0
  H  H111  1  0.86633000  0.85436000  0.79556000  1.0
  H  H112  1  0.90404000  0.06346000  0.44321000  1.0
  H  H113  1  0.90011000  0.07665000  0.56432000  1.0
  H  H114  1  0.82354000  0.86726000  0.58281000  1.0
  H  H115  1  0.82979000  0.86299000  0.46053000  1.0
  H  H116  1  0.92512000  0.05112000  0.21189000  1.0
  H  H117  1  0.91335000  0.06025000  0.09120000  1.0
  H  H118  1  0.81962000  0.85402000  0.09631000  1.0
  H  H119  1  0.83181000  0.85491000  0.21743000  1.0
  H  H120  1  0.61944000  0.14615000  0.79230000  1.0
  H  H121  1  0.60529000  0.12030000  0.91156000  1.0
  H  H122  1  0.62095000  0.90881000  0.86686000  1.0
  H  H123  1  0.62927000  0.93452000  0.74811000  1.0
  H  H124  1  0.66522000  0.13872000  0.45171000  1.0
  H  H125  1  0.66491000  0.13420000  0.57372000  1.0
  H  H126  1  0.59299000  0.92422000  0.56278000  1.0
  H  H127  1  0.59403000  0.93783000  0.44199000  1.0
  H  H128  1  0.70017000  0.14077000  0.20224000  1.0
  H  H129  1  0.70066000  0.14153000  0.08012000  1.0
  H  H130  1  0.59604000  0.93820000  0.09292000  1.0
  H  H131  1  0.59900000  0.94659000  0.21436000  1.0
  H  H132  1  0.74582000  0.21068000  0.33688000  1.0
  H  H133  1  0.81726000  0.33305000  0.33756000  1.0
  H  H134  1  0.76681000  0.78920000  0.33945000  1.0
  H  H135  1  0.69512000  0.66704000  0.34108000  1.0
  C  C136  1  0.33982000  0.56331000  0.69969000  1.0
  C  C137  1  0.37628000  0.49256000  0.97080000  1.0
  C  C138  1  0.35539000  0.54219000  0.76811000  1.0
  C  C139  1  0.35496000  0.47531000  0.78950000  1.0
  C  C140  1  0.36162000  0.46090000  0.85541000  1.0
  C  C141  1  0.36949000  0.51257000  0.90107000  1.0
  C  C142  1  0.37283000  0.57947000  0.87898000  1.0
  C  C143  1  0.36515000  0.59404000  0.81334000  1.0
  C  C144  1  0.38527000  0.47864000  0.47572000  1.0
  C  C145  1  0.38324000  0.47140000  0.54300000  1.0
  C  C146  1  0.36031000  0.52690000  0.58399000  1.0
  C  C147  1  0.34085000  0.58817000  0.55370000  1.0
  C  C148  1  0.34453000  0.59039000  0.48561000  1.0
  C  C149  1  0.40087000  0.49116000  0.18436000  1.0
  C  C150  1  0.39539000  0.48608000  0.11722000  1.0
  C  C151  1  0.36606000  0.54241000  0.08357000  1.0
  C  C152  1  0.34321000  0.60095000  0.12016000  1.0
  C  C153  1  0.34980000  0.60090000  0.18732000  1.0
  C  C154  1  0.14293000  0.43549000  0.69225000  1.0
  C  C155  1  0.11539000  0.50795000  0.96740000  1.0
  C  C156  1  0.12656000  0.45722000  0.76256000  1.0
  C  C157  1  0.11955000  0.40563000  0.80955000  1.0
  C  C158  1  0.11418000  0.42069000  0.87607000  1.0
  C  C159  1  0.11686000  0.48785000  0.89700000  1.0
  C  C160  1  0.12038000  0.53927000  0.85009000  1.0
  C  C161  1  0.12497000  0.52434000  0.78340000  1.0
  C  C162  1  0.14949000  0.40802000  0.47834000  1.0
  C  C163  1  0.14965000  0.41035000  0.54620000  1.0
  C  C164  1  0.12989000  0.47193000  0.57843000  1.0
  C  C165  1  0.11017000  0.52756000  0.53967000  1.0
  C  C166  1  0.11090000  0.52003000  0.47255000  1.0
  C  C167  1  0.17795000  0.40317000  0.17594000  1.0
  C  C168  1  0.17750000  0.40296000  0.10815000  1.0
  C  C169  1  0.14735000  0.46046000  0.07622000  1.0
  C  C170  1  0.11972000  0.51628000  0.11514000  1.0
  C  C171  1  0.12221000  0.51159000  0.18259000  1.0
  C  C172  1  0.37768000  0.40105000  0.32792000  1.0
  C  C173  1  0.99710000  0.84472000  0.33280000  1.0
  C  C174  1  0.38775000  0.32742000  0.33014000  1.0
  C  C175  1  0.31970000  0.27805000  0.33474000  1.0
  C  C176  1  0.35795000  0.21291000  0.33528000  1.0
  C  C177  1  0.45413000  0.21343000  0.33105000  1.0
  C  C178  1  0.13770000  0.59908000  0.32847000  1.0
  C  C179  1  0.51727000  0.15508000  0.32893000  1.0
  C  C180  1  0.12689000  0.67266000  0.33160000  1.0
  C  C181  1  0.19359000  0.72200000  0.33686000  1.0
  C  C182  1  0.15504000  0.78711000  0.33794000  1.0
  C  C183  1  0.06004000  0.78652000  0.33361000  1.0
  C  C184  1  0.16017000  0.06331000  0.30030000  1.0
  C  C185  1  0.12371000  0.99256000  0.02920000  1.0
  C  C186  1  0.14462000  0.04218000  0.23189000  1.0
  C  C187  1  0.14505000  0.97531000  0.21050000  1.0
  C  C188  1  0.13838000  0.96090000  0.14459000  1.0
  C  C189  1  0.13051000  0.01257000  0.09893000  1.0
  C  C190  1  0.12717000  0.07947000  0.12102000  1.0
  C  C191  1  0.13486000  0.09404000  0.18667000  1.0
  C  C192  1  0.11472000  0.97864000  0.52428000  1.0
  C  C193  1  0.11675000  0.97140000  0.45700000  1.0
  C  C194  1  0.13968000  0.02690000  0.41602000  1.0
  C  C195  1  0.15915000  0.08817000  0.44630000  1.0
  C  C196  1  0.15547000  0.09039000  0.51439000  1.0
  C  C197  1  0.09913000  0.99116000  0.81565000  1.0
  C  C198  1  0.10460000  0.98608000  0.88279000  1.0
  C  C199  1  0.13394000  0.04241000  0.91643000  1.0
  C  C200  1  0.15679000  0.10095000  0.87984000  1.0
  C  C201  1  0.15020000  0.10089000  0.81268000  1.0
  C  C202  1  0.35707000  0.93550000  0.30775000  1.0
  C  C203  1  0.38462000  0.00795000  0.03260000  1.0
  C  C204  1  0.37344000  0.95722000  0.23743000  1.0
  C  C205  1  0.38045000  0.90564000  0.19045000  1.0
  C  C206  1  0.38583000  0.92070000  0.12393000  1.0
  C  C207  1  0.38314000  0.98785000  0.10300000  1.0
  C  C208  1  0.37962000  0.03928000  0.14991000  1.0
  C  C209  1  0.37503000  0.02435000  0.21660000  1.0
  C  C210  1  0.35051000  0.90801000  0.52165000  1.0
  C  C211  1  0.35035000  0.91035000  0.45380000  1.0
  C  C212  1  0.37011000  0.97193000  0.42157000  1.0
  C  C213  1  0.38984000  0.02756000  0.46033000  1.0
  C  C214  1  0.38911000  0.02002000  0.52745000  1.0
  C  C215  1  0.32206000  0.90317000  0.82406000  1.0
  C  C216  1  0.32250000  0.90297000  0.89185000  1.0
  C  C217  1  0.35266000  0.96047000  0.92378000  1.0
  C  C218  1  0.38030000  0.01629000  0.88486000  1.0
  C  C219  1  0.37780000  0.01159000  0.81740000  1.0
  C  C220  1  0.12232000  0.90105000  0.67207000  1.0
  C  C221  1  0.50290000  0.34472000  0.66722000  1.0
  C  C222  1  0.11225000  0.82741000  0.66986000  1.0
  C  C223  1  0.18030000  0.77805000  0.66526000  1.0
  C  C224  1  0.14205000  0.71290000  0.66472000  1.0
  C  C225  1  0.04586000  0.71342000  0.66895000  1.0
  C  C226  1  0.36229000  0.09907000  0.67154000  1.0
  C  C227  1  0.98273000  0.65508000  0.67107000  1.0
  C  C228  1  0.37311000  0.17266000  0.66842000  1.0
  C  C229  1  0.30641000  0.22200000  0.66315000  1.0
  C  C230  1  0.34496000  0.28711000  0.66207000  1.0
  C  C231  1  0.43996000  0.28652000  0.66640000  1.0
  C  C232  1  0.66017000  0.43669000  0.30031000  1.0
  C  C233  1  0.62372000  0.50743000  0.02921000  1.0
  C  C234  1  0.64462000  0.45782000  0.23190000  1.0
  C  C235  1  0.64505000  0.52469000  0.21050000  1.0
  C  C236  1  0.63839000  0.53910000  0.14459000  1.0
  C  C237  1  0.63052000  0.48742000  0.09893000  1.0
  C  C238  1  0.62718000  0.42053000  0.12103000  1.0
  C  C239  1  0.63486000  0.40596000  0.18667000  1.0
  C  C240  1  0.61470000  0.52136000  0.52429000  1.0
  C  C241  1  0.61674000  0.52860000  0.45701000  1.0
  C  C242  1  0.63967000  0.47310000  0.41602000  1.0
  C  C243  1  0.65914000  0.41183000  0.44631000  1.0
  C  C244  1  0.65545000  0.40961000  0.51440000  1.0
  C  C245  1  0.59913000  0.50884000  0.81565000  1.0
  C  C246  1  0.60460000  0.51392000  0.88279000  1.0
  C  C247  1  0.63394000  0.45759000  0.91643000  1.0
  C  C248  1  0.65679000  0.39905000  0.87984000  1.0
  C  C249  1  0.65019000  0.39910000  0.81268000  1.0
  C  C250  1  0.85708000  0.56451000  0.30775000  1.0
  C  C251  1  0.88462000  0.49206000  0.03260000  1.0
  C  C252  1  0.87344000  0.54278000  0.23743000  1.0
  C  C253  1  0.88046000  0.59436000  0.19044000  1.0
  C  C254  1  0.88583000  0.57930000  0.12393000  1.0
  C  C255  1  0.88314000  0.51215000  0.10300000  1.0
  C  C256  1  0.87962000  0.46073000  0.14991000  1.0
  C  C257  1  0.87504000  0.47566000  0.21660000  1.0
  C  C258  1  0.85052000  0.59199000  0.52166000  1.0
  C  C259  1  0.85036000  0.58965000  0.45380000  1.0
  C  C260  1  0.87011000  0.52807000  0.42157000  1.0
  C  C261  1  0.88984000  0.47244000  0.46033000  1.0
  C  C262  1  0.88910000  0.47998000  0.52745000  1.0
  C  C263  1  0.82205000  0.59683000  0.82405000  1.0
  C  C264  1  0.82250000  0.59704000  0.89184000  1.0
  C  C265  1  0.85266000  0.53954000  0.92377000  1.0
  C  C266  1  0.88029000  0.48372000  0.88485000  1.0
  C  C267  1  0.87779000  0.48841000  0.81740000  1.0
  C  C268  1  0.62231000  0.59895000  0.67208000  1.0
  C  C269  1  0.00290000  0.15527000  0.66721000  1.0
  C  C270  1  0.61224000  0.67259000  0.66986000  1.0
  C  C271  1  0.68030000  0.72195000  0.66526000  1.0
  C  C272  1  0.64205000  0.78710000  0.66471000  1.0
  C  C273  1  0.54587000  0.78658000  0.66894000  1.0
  C  C274  1  0.86230000  0.40093000  0.67153000  1.0
  C  C275  1  0.48274000  0.84492000  0.67107000  1.0
  C  C276  1  0.87311000  0.32734000  0.66841000  1.0
  C  C277  1  0.80641000  0.27800000  0.66314000  1.0
  C  C278  1  0.84496000  0.21289000  0.66206000  1.0
  C  C279  1  0.93996000  0.21348000  0.66639000  1.0
  C  C280  1  0.83983000  0.93668000  0.69970000  1.0
  C  C281  1  0.87629000  0.00744000  0.97080000  1.0
  C  C282  1  0.85539000  0.95781000  0.76811000  1.0
  C  C283  1  0.85496000  0.02469000  0.78950000  1.0
  C  C284  1  0.86163000  0.03910000  0.85541000  1.0
  C  C285  1  0.86951000  0.98744000  0.90107000  1.0
  C  C286  1  0.87285000  0.92054000  0.87898000  1.0
  C  C287  1  0.86517000  0.90596000  0.81334000  1.0
  C  C288  1  0.88528000  0.02136000  0.47572000  1.0
  C  C289  1  0.88325000  0.02860000  0.54300000  1.0
  C  C290  1  0.86032000  0.97309000  0.58399000  1.0
  C  C291  1  0.84086000  0.91182000  0.55370000  1.0
  C  C292  1  0.84454000  0.90960000  0.48561000  1.0
  C  C293  1  0.90087000  0.00884000  0.18436000  1.0
  C  C294  1  0.89540000  0.01392000  0.11721000  1.0
  C  C295  1  0.86607000  0.95760000  0.08357000  1.0
  C  C296  1  0.84321000  0.89906000  0.12016000  1.0
  C  C297  1  0.84980000  0.89911000  0.18733000  1.0
  C  C298  1  0.64293000  0.06450000  0.69225000  1.0
  C  C299  1  0.61537000  0.99206000  0.96740000  1.0
  C  C300  1  0.62656000  0.04278000  0.76256000  1.0
  C  C301  1  0.61955000  0.09437000  0.80955000  1.0
  C  C302  1  0.61418000  0.07931000  0.87607000  1.0
  C  C303  1  0.61687000  0.01216000  0.89700000  1.0
  C  C304  1  0.62039000  0.96073000  0.85009000  1.0
  C  C305  1  0.62497000  0.97566000  0.78340000  1.0
  C  C306  1  0.64950000  0.09198000  0.47834000  1.0
  C  C307  1  0.64966000  0.08965000  0.54620000  1.0
  C  C308  1  0.62990000  0.02807000  0.57843000  1.0
  C  C309  1  0.61016000  0.97244000  0.53967000  1.0
  C  C310  1  0.61089000  0.97997000  0.47255000  1.0
  C  C311  1  0.67793000  0.09683000  0.17595000  1.0
  C  C312  1  0.67748000  0.09704000  0.10815000  1.0
  C  C313  1  0.64733000  0.03954000  0.07623000  1.0
  C  C314  1  0.61970000  0.98372000  0.11514000  1.0
  C  C315  1  0.62219000  0.98841000  0.18260000  1.0
  C  C316  1  0.87767000  0.09895000  0.32792000  1.0
  C  C317  1  0.49710000  0.65527000  0.33279000  1.0
  C  C318  1  0.88775000  0.17259000  0.33013000  1.0
  C  C319  1  0.81970000  0.22195000  0.33473000  1.0
  C  C320  1  0.85795000  0.28710000  0.33528000  1.0
  C  C321  1  0.95414000  0.28658000  0.33105000  1.0
  C  C322  1  0.63770000  0.90092000  0.32846000  1.0
  C  C323  1  0.01727000  0.34492000  0.32893000  1.0
  C  C324  1  0.62689000  0.82734000  0.33159000  1.0
  C  C325  1  0.69359000  0.77800000  0.33685000  1.0
  C  C326  1  0.65504000  0.71289000  0.33794000  1.0
  C  C327  1  0.56004000  0.71348000  0.33361000  1.0
  S  S328  1  0.01766000  0.70625000  0.32864000  1.0
  S  S329  1  0.49782000  0.29376000  0.32699000  1.0
  S  S330  1  0.48233000  0.20625000  0.67139000  1.0
  S  S331  1  0.00218000  0.79376000  0.67300000  1.0
  S  S332  1  0.98234000  0.29375000  0.67137000  1.0
  S  S333  1  0.50218000  0.70624000  0.67300000  1.0
  S  S334  1  0.51766000  0.79374000  0.32863000  1.0
  S  S335  1  0.99781000  0.20624000  0.32698000  1.0
  N  N336  1  0.36028000  0.51683000  0.65111000  1.0
  N  N337  1  0.36583000  0.53705000  0.44659000  1.0
  N  N338  1  0.35874000  0.54363000  0.01631000  1.0
  N  N339  1  0.37833000  0.54681000  0.21935000  1.0
  N  N340  1  0.12704000  0.48234000  0.64563000  1.0
  N  N341  1  0.13078000  0.46139000  0.44144000  1.0
  N  N342  1  0.14620000  0.45900000  0.00835000  1.0
  N  N343  1  0.15061000  0.45662000  0.21319000  1.0
  N  N344  1  0.13971000  0.01683000  0.34890000  1.0
  N  N345  1  0.13416000  0.03704000  0.55341000  1.0
  N  N346  1  0.14125000  0.04363000  0.98369000  1.0
  N  N347  1  0.12166000  0.04680000  0.78065000  1.0
  N  N348  1  0.37296000  0.98234000  0.35437000  1.0
  N  N349  1  0.36922000  0.96139000  0.55855000  1.0
  N  N350  1  0.35381000  0.95900000  0.99165000  1.0
  N  N351  1  0.34940000  0.95662000  0.78680000  1.0
  N  N352  1  0.63970000  0.48318000  0.34890000  1.0
  N  N353  1  0.63414000  0.46296000  0.55342000  1.0
  N  N354  1  0.64126000  0.45637000  0.98370000  1.0
  N  N355  1  0.62167000  0.45319000  0.78065000  1.0
  N  N356  1  0.87296000  0.51766000  0.35437000  1.0
  N  N357  1  0.86922000  0.53861000  0.55855000  1.0
  N  N358  1  0.85381000  0.54100000  0.99165000  1.0
  N  N359  1  0.84939000  0.54338000  0.78680000  1.0
  N  N360  1  0.86029000  0.98316000  0.65111000  1.0
  N  N361  1  0.86584000  0.96295000  0.44660000  1.0
  N  N362  1  0.85875000  0.95638000  0.01631000  1.0
  N  N363  1  0.87833000  0.95320000  0.21936000  1.0
  N  N364  1  0.62704000  0.01765000  0.64563000  1.0
  N  N365  1  0.63078000  0.03860000  0.44145000  1.0
  N  N366  1  0.64619000  0.04100000  0.00835000  1.0
  N  N367  1  0.65059000  0.04338000  0.21320000  1.0
  O  O368  1  0.30794000  0.61978000  0.69013000  1.0
  O  O369  1  0.39512000  0.43449000  0.98644000  1.0
  O  O370  1  0.17227000  0.37818000  0.67914000  1.0
  O  O371  1  0.09032000  0.56443000  0.98697000  1.0
  O  O372  1  0.21741000  0.57221000  0.33032000  1.0
  O  O373  1  0.06475000  0.56379000  0.32427000  1.0
  O  O374  1  0.91015000  0.83489000  0.33283000  1.0
  O  O375  1  0.03230000  0.90383000  0.33211000  1.0
  O  O376  1  0.29742000  0.42789000  0.33008000  1.0
  O  O377  1  0.45163000  0.43643000  0.32448000  1.0
  O  O378  1  0.60445000  0.16484000  0.32739000  1.0
  O  O379  1  0.48202000  0.09607000  0.32858000  1.0
  O  O380  1  0.19205000  0.11977000  0.30987000  1.0
  O  O381  1  0.10487000  0.93449000  0.01356000  1.0
  O  O382  1  0.32773000  0.87818000  0.32085000  1.0
  O  O383  1  0.40969000  0.06443000  0.01302000  1.0
  O  O384  1  0.28258000  0.07221000  0.66970000  1.0
  O  O385  1  0.43524000  0.06379000  0.67572000  1.0
  O  O386  1  0.58985000  0.33489000  0.66720000  1.0
  O  O387  1  0.46769000  0.40383000  0.66791000  1.0
  O  O388  1  0.20259000  0.92789000  0.66992000  1.0
  O  O389  1  0.04837000  0.93643000  0.67551000  1.0
  O  O390  1  0.89555000  0.66484000  0.67261000  1.0
  O  O391  1  0.01798000  0.59606000  0.67141000  1.0
  O  O392  1  0.69205000  0.38023000  0.30987000  1.0
  O  O393  1  0.60488000  0.56550000  0.01357000  1.0
  O  O394  1  0.82774000  0.62182000  0.32085000  1.0
  O  O395  1  0.90970000  0.43558000  0.01303000  1.0
  O  O396  1  0.78259000  0.42779000  0.66968000  1.0
  O  O397  1  0.93525000  0.43621000  0.67572000  1.0
  O  O398  1  0.08985000  0.16511000  0.66718000  1.0
  O  O399  1  0.96769000  0.09617000  0.66790000  1.0
  O  O400  1  0.70258000  0.57211000  0.66992000  1.0
  O  O401  1  0.54836000  0.56357000  0.67552000  1.0
  O  O402  1  0.39555000  0.83516000  0.67261000  1.0
  O  O403  1  0.51799000  0.90394000  0.67141000  1.0
  O  O404  1  0.80795000  0.88021000  0.69014000  1.0
  O  O405  1  0.89513000  0.06551000  0.98643000  1.0
  O  O406  1  0.67227000  0.12181000  0.67914000  1.0
  O  O407  1  0.59030000  0.93557000  0.98697000  1.0
  O  O408  1  0.71741000  0.92779000  0.33030000  1.0
  O  O409  1  0.56475000  0.93621000  0.32428000  1.0
  O  O410  1  0.41015000  0.66511000  0.33282000  1.0
  O  O411  1  0.53230000  0.59616000  0.33209000  1.0
  O  O412  1  0.79741000  0.07211000  0.33008000  1.0
  O  O413  1  0.95162000  0.06357000  0.32448000  1.0
  O  O414  1  0.10445000  0.33516000  0.32738000  1.0
  O  O415  1  0.98202000  0.40394000  0.32858000  1.0
