# generated using pymatgen
data_PrH12C15N2O7
_symmetry_space_group_name_H-M   'P 1'
_cell_length_a   10.74730000
_cell_length_b   11.81330000
_cell_length_c   16.51300000
_cell_angle_alpha   109.04900000
_cell_angle_beta   89.99900000
_cell_angle_gamma   117.05800000
_symmetry_Int_Tables_number   1
_chemical_formula_structural   PrH12C15N2O7
_chemical_formula_sum   'Pr4 H48 C60 N8 O28'
_cell_volume   1737.13966037
_cell_formula_units_Z   4
loop_
 _symmetry_equiv_pos_site_id
 _symmetry_equiv_pos_as_xyz
  1  'x, y, z'
loop_
 _atom_site_type_symbol
 _atom_site_label
 _atom_site_symmetry_multiplicity
 _atom_site_fract_x
 _atom_site_fract_y
 _atom_site_fract_z
 _atom_site_occupancy
  Pr  Pr0  1  0.97469000  0.99568000  0.12680000  1.0
  Pr  Pr1  1  0.97900000  0.00419000  0.37310000  1.0
  Pr  Pr2  1  0.02531000  0.00432000  0.87320000  1.0
  Pr  Pr3  1  0.02101000  0.99581000  0.62690000  1.0
  H  H4  1  0.69435000  0.53957000  0.01333000  1.0
  H  H5  1  0.15490000  0.46042000  0.48673000  1.0
  H  H6  1  0.30565000  0.46043000  0.98667000  1.0
  H  H7  1  0.84511000  0.53958000  0.51327000  1.0
  H  H8  1  0.47261000  0.31374000  0.95191000  1.0
  H  H9  1  0.15901000  0.68624000  0.54806000  1.0
  H  H10  1  0.52739000  0.68627000  0.04809000  1.0
  H  H11  1  0.84099000  0.31376000  0.45194000  1.0
  H  H12  1  0.46681000  0.35540000  0.70375000  1.0
  H  H13  1  0.11123000  0.64467000  0.79625000  1.0
  H  H14  1  0.53319000  0.64460000  0.29625000  1.0
  H  H15  1  0.88877000  0.35533000  0.20375000  1.0
  H  H16  1  0.69168000  0.58118000  0.76449000  1.0
  H  H17  1  0.11032000  0.41888000  0.73556000  1.0
  H  H18  1  0.30832000  0.41882000  0.23551000  1.0
  H  H19  1  0.88968000  0.58112000  0.26444000  1.0
  H  H20  1  0.35297000  0.02941000  0.89989000  1.0
  H  H21  1  0.32359000  0.97049000  0.60012000  1.0
  H  H22  1  0.64703000  0.97059000  0.10011000  1.0
  H  H23  1  0.67641000  0.02951000  0.39988000  1.0
  H  H24  1  0.58635000  0.04451000  0.86820000  1.0
  H  H25  1  0.54183000  0.95523000  0.63169000  1.0
  H  H26  1  0.41365000  0.95549000  0.13180000  1.0
  H  H27  1  0.45817000  0.04477000  0.36831000  1.0
  H  H28  1  0.17017000  0.65848000  0.05819000  1.0
  H  H29  1  0.51152000  0.34141000  0.44178000  1.0
  H  H30  1  0.82983000  0.34152000  0.94181000  1.0
  H  H31  1  0.48849000  0.65859000  0.55822000  1.0
  H  H32  1  0.05467000  0.50838000  0.07901000  1.0
  H  H33  1  0.54612000  0.49150000  0.42096000  1.0
  H  H34  1  0.94533000  0.49161000  0.92099000  1.0
  H  H35  1  0.45388000  0.50850000  0.57904000  1.0
  H  H36  1  0.15611000  0.61144000  0.23036000  1.0
  H  H37  1  0.54457000  0.38852000  0.26965000  1.0
  H  H38  1  0.84389000  0.38856000  0.76964000  1.0
  H  H39  1  0.45543000  0.61148000  0.73035000  1.0
  H  H40  1  0.30649000  0.71860000  0.19494000  1.0
  H  H41  1  0.58777000  0.28135000  0.30504000  1.0
  H  H42  1  0.69351000  0.28140000  0.80506000  1.0
  H  H43  1  0.41223000  0.71865000  0.69496000  1.0
  H  H44  1  0.94364000  0.66950000  0.06905000  1.0
  H  H45  1  0.27397000  0.33037000  0.43087000  1.0
  H  H46  1  0.05635000  0.33050000  0.93095000  1.0
  H  H47  1  0.72603000  0.66963000  0.56913000  1.0
  H  H48  1  0.21149000  0.87363000  0.29741000  1.0
  H  H49  1  0.33784000  0.12628000  0.20254000  1.0
  H  H50  1  0.78851000  0.12637000  0.70259000  1.0
  H  H51  1  0.66216000  0.87372000  0.79746000  1.0
  C  C52  1  0.70596000  0.57413000  0.89258000  1.0
  C  C53  1  0.13170000  0.42584000  0.60747000  1.0
  C  C54  1  0.29404000  0.42587000  0.10742000  1.0
  C  C55  1  0.86830000  0.57416000  0.39253000  1.0
  C  C56  1  0.64631000  0.49745000  0.94500000  1.0
  C  C57  1  0.14894000  0.50255000  0.55505000  1.0
  C  C58  1  0.35369000  0.50254000  0.05500000  1.0
  C  C59  1  0.85106000  0.49745000  0.44495000  1.0
  C  C60  1  0.52254000  0.37228000  0.91113000  1.0
  C  C61  1  0.15037000  0.62775000  0.58888000  1.0
  C  C62  1  0.47746000  0.62772000  0.08887000  1.0
  C  C63  1  0.84963000  0.37225000  0.41112000  1.0
  C  C64  1  0.45666000  0.32250000  0.82454000  1.0
  C  C65  1  0.13405000  0.67751000  0.67543000  1.0
  C  C66  1  0.54334000  0.67750000  0.17546000  1.0
  C  C67  1  0.86595000  0.32249000  0.32457000  1.0
  C  C68  1  0.51937000  0.39669000  0.77106000  1.0
  C  C69  1  0.12247000  0.60334000  0.72893000  1.0
  C  C70  1  0.48063000  0.60331000  0.22894000  1.0
  C  C71  1  0.87753000  0.39666000  0.27107000  1.0
  C  C72  1  0.64313000  0.52135000  0.80477000  1.0
  C  C73  1  0.12157000  0.47867000  0.69526000  1.0
  C  C74  1  0.35687000  0.47865000  0.19523000  1.0
  C  C75  1  0.87843000  0.52133000  0.30474000  1.0
  C  C76  1  0.82871000  0.71659000  0.93047000  1.0
  C  C77  1  0.11193000  0.28335000  0.56956000  1.0
  C  C78  1  0.17129000  0.28341000  0.06953000  1.0
  C  C79  1  0.88807000  0.71664000  0.43044000  1.0
  C  C80  1  0.31472000  0.19577000  0.79026000  1.0
  C  C81  1  0.11871000  0.80420000  0.70966000  1.0
  C  C82  1  0.68528000  0.80423000  0.20974000  1.0
  C  C83  1  0.88129000  0.19580000  0.29034000  1.0
  C  C84  1  0.36991000  0.99209000  0.01804000  1.0
  C  C85  1  0.37790000  0.00806000  0.48206000  1.0
  C  C86  1  0.63009000  0.00791000  0.98196000  1.0
  C  C87  1  0.62210000  0.99194000  0.51794000  1.0
  C  C88  1  0.41746000  0.01625000  0.94321000  1.0
  C  C89  1  0.40123000  0.98365000  0.55679000  1.0
  C  C90  1  0.58254000  0.98375000  0.05679000  1.0
  C  C91  1  0.59877000  0.01635000  0.44321000  1.0
  C  C92  1  0.54715000  0.02439000  0.92562000  1.0
  C  C93  1  0.52272000  0.97538000  0.57429000  1.0
  C  C94  1  0.45285000  0.97561000  0.07438000  1.0
  C  C95  1  0.47728000  0.02462000  0.42571000  1.0
  C  C96  1  0.23315000  0.98728000  0.03968000  1.0
  C  C97  1  0.24589000  0.01280000  0.46044000  1.0
  C  C98  1  0.76685000  0.01272000  0.96033000  1.0
  C  C99  1  0.75411000  0.98720000  0.53956000  1.0
  C  C100  1  0.04984000  0.78158000  0.19344000  1.0
  C  C101  1  0.26814000  0.21833000  0.30645000  1.0
  C  C102  1  0.95016000  0.21842000  0.80656000  1.0
  C  C103  1  0.73186000  0.78167000  0.69355000  1.0
  C  C104  1  0.10433000  0.62018000  0.10425000  1.0
  C  C105  1  0.48397000  0.37971000  0.39572000  1.0
  C  C106  1  0.89567000  0.37982000  0.89575000  1.0
  C  C107  1  0.51603000  0.62029000  0.60428000  1.0
  C  C108  1  0.19330000  0.68402000  0.19629000  1.0
  C  C109  1  0.50915000  0.31590000  0.30368000  1.0
  C  C110  1  0.80670000  0.31598000  0.80371000  1.0
  C  C111  1  0.49086000  0.68410000  0.69632000  1.0
  N  N112  1  0.99852000  0.66750000  0.11909000  1.0
  N  N113  1  0.33085000  0.33237000  0.38084000  1.0
  N  N114  1  0.00148000  0.33250000  0.88091000  1.0
  N  N115  1  0.66916000  0.66763000  0.61916000  1.0
  N  N116  1  0.16532000  0.79744000  0.23746000  1.0
  N  N117  1  0.36778000  0.20250000  0.26248000  1.0
  N  N118  1  0.83468000  0.20255000  0.76254000  1.0
  N  N119  1  0.63222000  0.79750000  0.73752000  1.0
  O  O120  1  0.86213000  0.78501000  0.88136000  1.0
  O  O121  1  0.07682000  0.21494000  0.61868000  1.0
  O  O122  1  0.13787000  0.21499000  0.11864000  1.0
  O  O123  1  0.92318000  0.78506000  0.38132000  1.0
  O  O124  1  0.88821000  0.76142000  0.00983000  1.0
  O  O125  1  0.12667000  0.23853000  0.49022000  1.0
  O  O126  1  0.11179000  0.23858000  0.99017000  1.0
  O  O127  1  0.87333000  0.76147000  0.50977000  1.0
  O  O128  1  0.25749000  0.13722000  0.84311000  1.0
  O  O129  1  0.11999000  0.86266000  0.65677000  1.0
  O  O130  1  0.74251000  0.86278000  0.15689000  1.0
  O  O131  1  0.88002000  0.13734000  0.34323000  1.0
  O  O132  1  0.26019000  0.15794000  0.71174000  1.0
  O  O133  1  0.10201000  0.84204000  0.78817000  1.0
  O  O134  1  0.73981000  0.84206000  0.28826000  1.0
  O  O135  1  0.89799000  0.15796000  0.21183000  1.0
  O  O136  1  0.15326000  0.99467000  0.98712000  1.0
  O  O137  1  0.15861000  0.00534000  0.51299000  1.0
  O  O138  1  0.84674000  0.00534000  0.01288000  1.0
  O  O139  1  0.84139000  0.99466000  0.48701000  1.0
  O  O140  1  0.20124000  0.97873000  0.11282000  1.0
  O  O141  1  0.22249000  0.02129000  0.38728000  1.0
  O  O142  1  0.79875000  0.02127000  0.88719000  1.0
  O  O143  1  0.77751000  0.97871000  0.61272000  1.0
  O  O144  1  0.99452000  0.85940000  0.21675000  1.0
  O  O145  1  0.13500000  0.14048000  0.28310000  1.0
  O  O146  1  0.00548000  0.14060000  0.78325000  1.0
  O  O147  1  0.86500000  0.85952000  0.71690000  1.0
