# generated using pymatgen
data_YbH5C6N2O7
_symmetry_space_group_name_H-M   'P 1'
_cell_length_a   9.60886000
_cell_length_b   9.60888000
_cell_length_c   9.60888000
_cell_angle_alpha   78.92290000
_cell_angle_beta   78.92300000
_cell_angle_gamma   78.92280000
_symmetry_Int_Tables_number   1
_chemical_formula_structural   YbH5C6N2O7
_chemical_formula_sum   'Yb3 H15 C18 N6 O21'
_cell_volume   843.27218904
_cell_formula_units_Z   3
loop_
 _symmetry_equiv_pos_site_id
 _symmetry_equiv_pos_as_xyz
  1  'x, y, z'
loop_
 _atom_site_type_symbol
 _atom_site_label
 _atom_site_symmetry_multiplicity
 _atom_site_fract_x
 _atom_site_fract_y
 _atom_site_fract_z
 _atom_site_occupancy
  Yb  Yb0  1  0.99158000  0.50000000  0.00842000  1.0
  Yb  Yb1  1  0.50000000  0.00842000  0.99158000  1.0
  Yb  Yb2  1  0.00842000  0.99158000  0.50000000  1.0
  H  H3  1  0.40997000  0.59003000  0.00000000  1.0
  H  H4  1  0.59003000  0.00000000  0.40997000  1.0
  H  H5  1  0.00000000  0.40996000  0.59003000  1.0
  H  H6  1  0.14719000  0.23707000  0.92439000  1.0
  H  H7  1  0.23707000  0.92439000  0.14719000  1.0
  H  H8  1  0.92439000  0.14719000  0.23707000  1.0
  H  H9  1  0.85281000  0.07561000  0.76292000  1.0
  H  H10  1  0.76292000  0.85281000  0.07561000  1.0
  H  H11  1  0.07561000  0.76292000  0.85281000  1.0
  H  H12  1  0.97728000  0.23461000  0.93711000  1.0
  H  H13  1  0.23461000  0.93710000  0.97728000  1.0
  H  H14  1  0.93711000  0.97728000  0.23461000  1.0
  H  H15  1  0.02271000  0.06289000  0.76538000  1.0
  H  H16  1  0.76538000  0.02271000  0.06289000  1.0
  H  H17  1  0.06289000  0.76538000  0.02271000  1.0
  C  C18  1  0.33348000  0.32943000  0.99840000  1.0
  C  C19  1  0.32943000  0.99840000  0.33347000  1.0
  C  C20  1  0.99840000  0.33347000  0.32943000  1.0
  C  C21  1  0.66652000  0.00160000  0.67056000  1.0
  C  C22  1  0.67056000  0.66652000  0.00160000  1.0
  C  C23  1  0.00160000  0.67056000  0.66652000  1.0
  C  C24  1  0.48050000  0.36088000  0.00096000  1.0
  C  C25  1  0.36088000  0.00096000  0.48050000  1.0
  C  C26  1  0.00096000  0.48050000  0.36088000  1.0
  C  C27  1  0.51950000  0.99903000  0.63911000  1.0
  C  C28  1  0.63912000  0.51949000  0.99903000  1.0
  C  C29  1  0.99904000  0.63911000  0.51949000  1.0
  C  C30  1  0.49896000  0.50104000  0.00000000  1.0
  C  C31  1  0.50104000  1.00000000  0.49896000  1.0
  C  C32  1  0.00000000  0.49896000  0.50104000  1.0
  C  C33  1  0.72447000  0.27553000  1.00000000  1.0
  C  C34  1  0.27553000  0.99999000  0.72447000  1.0
  C  C35  1  0.00000000  0.72447000  0.27553000  1.0
  N  N36  1  0.58806000  0.24939000  0.99927000  1.0
  N  N37  1  0.24939000  0.99927000  0.58805000  1.0
  N  N38  1  0.99927000  0.58805000  0.24939000  1.0
  N  N39  1  0.41194000  0.00072000  0.75060000  1.0
  N  N40  1  0.75060000  0.41194000  0.00072000  1.0
  N  N41  1  0.00073000  0.75060000  0.41194000  1.0
  O  O42  1  0.22776000  0.42528000  0.02664000  1.0
  O  O43  1  0.42528000  0.02664000  0.22776000  1.0
  O  O44  1  0.02664000  0.22775000  0.42528000  1.0
  O  O45  1  0.77224000  0.97336000  0.57471000  1.0
  O  O46  1  0.57471000  0.77224000  0.97336000  1.0
  O  O47  1  0.97336000  0.57471000  0.77224000  1.0
  O  O48  1  0.32773000  0.20838000  0.96489000  1.0
  O  O49  1  0.20838000  0.96489000  0.32773000  1.0
  O  O50  1  0.96489000  0.32773000  0.20838000  1.0
  O  O51  1  0.67227000  0.03510000  0.79161000  1.0
  O  O52  1  0.79162000  0.67227000  0.03510000  1.0
  O  O53  1  0.03510000  0.79161000  0.67227000  1.0
  O  O54  1  0.82883000  0.17116000  0.00000000  1.0
  O  O55  1  0.17116000  0.99999000  0.82883000  1.0
  O  O56  1  0.00000000  0.82883000  0.17116000  1.0
  O  O57  1  0.05457000  0.29668000  0.90618000  1.0
  O  O58  1  0.29668000  0.90618000  0.05457000  1.0
  O  O59  1  0.90618000  0.05457000  0.29668000  1.0
  O  O60  1  0.94543000  0.09382000  0.70331000  1.0
  O  O61  1  0.70331000  0.94542000  0.09382000  1.0
  O  O62  1  0.09382000  0.70331000  0.94542000  1.0
