# generated using pymatgen
data_CdH20C25N3ClO4
_symmetry_space_group_name_H-M   'P 1'
_cell_length_a   9.90788000
_cell_length_b   10.97960000
_cell_length_c   11.65790000
_cell_angle_alpha   113.67500000
_cell_angle_beta   97.85070000
_cell_angle_gamma   92.49420000
_symmetry_Int_Tables_number   1
_chemical_formula_structural   CdH20C25N3ClO4
_chemical_formula_sum   'Cd2 H40 C50 N6 Cl2 O8'
_cell_volume   1143.79641625
_cell_formula_units_Z   2
loop_
 _symmetry_equiv_pos_site_id
 _symmetry_equiv_pos_as_xyz
  1  'x, y, z'
loop_
 _atom_site_type_symbol
 _atom_site_label
 _atom_site_symmetry_multiplicity
 _atom_site_fract_x
 _atom_site_fract_y
 _atom_site_fract_z
 _atom_site_occupancy
  Cd  Cd0  1  0.11696000  0.52647000  0.39833000  1.0
  Cd  Cd1  1  0.88304000  0.47355000  0.60168000  1.0
  H  H2  1  0.32607000  0.80008000  0.25076000  1.0
  H  H3  1  0.67394000  0.19993000  0.74925000  1.0
  H  H4  1  0.33635000  0.95174000  0.14159000  1.0
  H  H5  1  0.66364000  0.04826000  0.85841000  1.0
  H  H6  1  0.16701000  0.12007000  0.16685000  1.0
  H  H7  1  0.83298000  0.87992000  0.83313000  1.0
  H  H8  1  0.99878000  0.14298000  0.31452000  1.0
  H  H9  1  0.00121000  0.85702000  0.68547000  1.0
  H  H10  1  0.97867000  0.28023000  0.13166000  1.0
  H  H11  1  0.02134000  0.71977000  0.86834000  1.0
  H  H12  1  0.97147000  0.20031000  0.89677000  1.0
  H  H13  1  0.02854000  0.79967000  0.10323000  1.0
  H  H14  1  0.11896000  0.32696000  0.81574000  1.0
  H  H15  1  0.88103000  0.67303000  0.18427000  1.0
  H  H16  1  0.28326000  0.58477000  0.20702000  1.0
  H  H17  1  0.71674000  0.41523000  0.79298000  1.0
  H  H18  1  0.34854000  0.48132000  0.87900000  1.0
  H  H19  1  0.65146000  0.51867000  0.12100000  1.0
  H  H20  1  0.24922000  0.61845000  0.93721000  1.0
  H  H21  1  0.75078000  0.38153000  0.06279000  1.0
  H  H22  1  0.42795000  0.69226000  0.87146000  1.0
  H  H23  1  0.57204000  0.30774000  0.12854000  1.0
  H  H24  1  0.58522000  0.88192000  0.88789000  1.0
  H  H25  1  0.41477000  0.11808000  0.11211000  1.0
  H  H26  1  0.74345000  0.01813000  0.09170000  1.0
  H  H27  1  0.25656000  0.98186000  0.90829000  1.0
  H  H28  1  0.74611000  0.96046000  0.27689000  1.0
  H  H29  1  0.25390000  0.03953000  0.72310000  1.0
  H  H30  1  0.64521000  0.92929000  0.43331000  1.0
  H  H31  1  0.35480000  0.07071000  0.56669000  1.0
  H  H32  1  0.77830000  0.82587000  0.38099000  1.0
  H  H33  1  0.22170000  0.17413000  0.61901000  1.0
  H  H34  1  0.45769000  0.84411000  0.52829000  1.0
  H  H35  1  0.54231000  0.15589000  0.47171000  1.0
  H  H36  1  0.42152000  0.72193000  0.66367000  1.0
  H  H37  1  0.57847000  0.27808000  0.33633000  1.0
  H  H38  1  0.59507000  0.57023000  0.68877000  1.0
  H  H39  1  0.40494000  0.42978000  0.31124000  1.0
  H  H40  1  0.82340000  0.64930000  0.44849000  1.0
  H  H41  1  0.17660000  0.35070000  0.55151000  1.0
  C  C42  1  0.13810000  0.77017000  0.38297000  1.0
  C  C43  1  0.86190000  0.22984000  0.61704000  1.0
  C  C44  1  0.15807000  0.88348000  0.34343000  1.0
  C  C45  1  0.84193000  0.11653000  0.65657000  1.0
  C  C46  1  0.25571000  0.87641000  0.26539000  1.0
  C  C47  1  0.74429000  0.12361000  0.73461000  1.0
  C  C48  1  0.26014000  0.96156000  0.20309000  1.0
  C  C49  1  0.73986000  0.03844000  0.79690000  1.0
  C  C50  1  0.16509000  0.05480000  0.21682000  1.0
  C  C51  1  0.83490000  0.94520000  0.78317000  1.0
  C  C52  1  0.06997000  0.06688000  0.29766000  1.0
  C  C53  1  0.93003000  0.93312000  0.70233000  1.0
  C  C54  1  0.06943000  0.98512000  0.36429000  1.0
  C  C55  1  0.93057000  0.01489000  0.63571000  1.0
  C  C56  1  0.04526000  0.32985000  0.09247000  1.0
  C  C57  1  0.95475000  0.67015000  0.90754000  1.0
  C  C58  1  0.04078000  0.28723000  0.96236000  1.0
  C  C59  1  0.95923000  0.71276000  0.03765000  1.0
  C  C60  1  0.12522000  0.35713000  0.91782000  1.0
  C  C61  1  0.87479000  0.64285000  0.08219000  1.0
  C  C62  1  0.21474000  0.46654000  0.00557000  1.0
  C  C63  1  0.78526000  0.53346000  0.99443000  1.0
  C  C64  1  0.21432000  0.50138000  0.13472000  1.0
  C  C65  1  0.78568000  0.49861000  0.86528000  1.0
  C  C66  1  0.30709000  0.54676000  0.96309000  1.0
  C  C67  1  0.69291000  0.45324000  0.03691000  1.0
  C  C68  1  0.49772000  0.71818000  0.06412000  1.0
  C  C69  1  0.50228000  0.28182000  0.93589000  1.0
  C  C70  1  0.49766000  0.75029000  0.96005000  1.0
  C  C71  1  0.50234000  0.24971000  0.03995000  1.0
  C  C72  1  0.58712000  0.85788000  0.96998000  1.0
  C  C73  1  0.41288000  0.14211000  0.03002000  1.0
  C  C74  1  0.67489000  0.93348000  0.08337000  1.0
  C  C75  1  0.32511000  0.06652000  0.91663000  1.0
  C  C76  1  0.67609000  0.90174000  0.18865000  1.0
  C  C77  1  0.32392000  0.09825000  0.81134000  1.0
  C  C78  1  0.58911000  0.79355000  0.17902000  1.0
  C  C79  1  0.41089000  0.20646000  0.82098000  1.0
  C  C80  1  0.67031000  0.82514000  0.39376000  1.0
  C  C81  1  0.32970000  0.17486000  0.60624000  1.0
  C  C82  1  0.64462000  0.75736000  0.47875000  1.0
  C  C83  1  0.35537000  0.24264000  0.52124000  1.0
  C  C84  1  0.53156000  0.77829000  0.54116000  1.0
  C  C85  1  0.46844000  0.22171000  0.45884000  1.0
  C  C86  1  0.51095000  0.70997000  0.61665000  1.0
  C  C87  1  0.48904000  0.29004000  0.38335000  1.0
  C  C88  1  0.60581000  0.62460000  0.62948000  1.0
  C  C89  1  0.39419000  0.37540000  0.37052000  1.0
  C  C90  1  0.73353000  0.66846000  0.49531000  1.0
  C  C91  1  0.26647000  0.33154000  0.50469000  1.0
  N  N92  1  0.97768000  0.01021000  0.45149000  1.0
  N  N93  1  0.02231000  0.98980000  0.54852000  1.0
  N  N94  1  0.13025000  0.43593000  0.17745000  1.0
  N  N95  1  0.86975000  0.56407000  0.82256000  1.0
  N  N96  1  0.71524000  0.60417000  0.56965000  1.0
  N  N97  1  0.28476000  0.39584000  0.43035000  1.0
  Cl  Cl98  1  0.88981000  0.37408000  0.35335000  1.0
  Cl  Cl99  1  0.11019000  0.62594000  0.64666000  1.0
  O  O100  1  0.24492000  0.72390000  0.41683000  1.0
  O  O101  1  0.75508000  0.27611000  0.58318000  1.0
  O  O102  1  0.01698000  0.71534000  0.36716000  1.0
  O  O103  1  0.98303000  0.28467000  0.63284000  1.0
  O  O104  1  0.41534000  0.61705000  0.06733000  1.0
  O  O105  1  0.58466000  0.38296000  0.93267000  1.0
  O  O106  1  0.58272000  0.75005000  0.27327000  1.0
  O  O107  1  0.41728000  0.24995000  0.72673000  1.0
