# generated using pymatgen
data_ZnH18C22(NO)4
_symmetry_space_group_name_H-M   'P 1'
_cell_length_a   10.95560000
_cell_length_b   14.36980000
_cell_length_c   18.65650000
_cell_angle_alpha   90.00020000
_cell_angle_beta   90.00030000
_cell_angle_gamma   89.99970000
_symmetry_Int_Tables_number   1
_chemical_formula_structural   ZnH18C22(NO)4
_chemical_formula_sum   'Zn4 H72 C88 N16 O16'
_cell_volume   2937.08870689
_cell_formula_units_Z   4
loop_
 _symmetry_equiv_pos_site_id
 _symmetry_equiv_pos_as_xyz
  1  'x, y, z'
loop_
 _atom_site_type_symbol
 _atom_site_label
 _atom_site_symmetry_multiplicity
 _atom_site_fract_x
 _atom_site_fract_y
 _atom_site_fract_z
 _atom_site_occupancy
  Zn  Zn0  1  0.53632000  0.95283000  0.99761000  1.0
  Zn  Zn1  1  0.46368000  0.45283000  0.00240000  1.0
  Zn  Zn2  1  0.96369000  0.95283000  0.49761000  1.0
  Zn  Zn3  1  0.03632000  0.45284000  0.50239000  1.0
  H  H4  1  0.71641000  0.08939000  0.09507000  1.0
  H  H5  1  0.28359000  0.58939000  0.90493000  1.0
  H  H6  1  0.78358000  0.08940000  0.59507000  1.0
  H  H7  1  0.21642000  0.58938000  0.40492000  1.0
  H  H8  1  0.71156000  0.18435000  0.15582000  1.0
  H  H9  1  0.28844000  0.68436000  0.84418000  1.0
  H  H10  1  0.78844000  0.18436000  0.65581000  1.0
  H  H11  1  0.21156000  0.68435000  0.34418000  1.0
  H  H12  1  0.57741000  0.31994000  0.12220000  1.0
  H  H13  1  0.42259000  0.81994000  0.87780000  1.0
  H  H14  1  0.92259000  0.31994000  0.62220000  1.0
  H  H15  1  0.07741000  0.81993000  0.37780000  1.0
  H  H16  1  0.54474000  0.28424000  0.89883000  1.0
  H  H17  1  0.45527000  0.78425000  0.10117000  1.0
  H  H18  1  0.95527000  0.28425000  0.39882000  1.0
  H  H19  1  0.04475000  0.78423000  0.60117000  1.0
  H  H20  1  0.69197000  0.14171000  0.95400000  1.0
  H  H21  1  0.30803000  0.64172000  0.04600000  1.0
  H  H22  1  0.80804000  0.14172000  0.45400000  1.0
  H  H23  1  0.19198000  0.64170000  0.54599000  1.0
  H  H24  1  0.71023000  0.91497000  0.74271000  1.0
  H  H25  1  0.28977000  0.41497000  0.25730000  1.0
  H  H26  1  0.78978000  0.91498000  0.24270000  1.0
  H  H27  1  0.21023000  0.41497000  0.75730000  1.0
  H  H28  1  0.06729000  0.03250000  0.71175000  1.0
  H  H29  1  0.93271000  0.53251000  0.28825000  1.0
  H  H30  1  0.43271000  0.03250000  0.21175000  1.0
  H  H31  1  0.56729000  0.53250000  0.78825000  1.0
  H  H32  1  0.07041000  0.08432000  0.83993000  1.0
  H  H33  1  0.92959000  0.58433000  0.16007000  1.0
  H  H34  1  0.42959000  0.08432000  0.33993000  1.0
  H  H35  1  0.57041000  0.58432000  0.66007000  1.0
  H  H36  1  0.89012000  0.05329000  0.91788000  1.0
  H  H37  1  0.10989000  0.55329000  0.08212000  1.0
  H  H38  1  0.60989000  0.05329000  0.41788000  1.0
  H  H39  1  0.39011000  0.55329000  0.58213000  1.0
  H  H40  1  0.38358000  0.10922000  0.07425000  1.0
  H  H41  1  0.61641000  0.60921000  0.92575000  1.0
  H  H42  1  0.11641000  0.10921000  0.57426000  1.0
  H  H43  1  0.88359000  0.60922000  0.42575000  1.0
  H  H44  1  0.26228000  0.20769000  0.87288000  1.0
  H  H45  1  0.73772000  0.70768000  0.12712000  1.0
  H  H46  1  0.23772000  0.20768000  0.37289000  1.0
  H  H47  1  0.76228000  0.70769000  0.62711000  1.0
  H  H48  1  0.40169000  0.04475000  0.85433000  1.0
  H  H49  1  0.59832000  0.54475000  0.14568000  1.0
  H  H50  1  0.09832000  0.04475000  0.35433000  1.0
  H  H51  1  0.90168000  0.54475000  0.64567000  1.0
  H  H52  1  0.23530000  0.31327000  0.98186000  1.0
  H  H53  1  0.76468000  0.81326000  0.01814000  1.0
  H  H54  1  0.26467000  0.31327000  0.48186000  1.0
  H  H55  1  0.73531000  0.81327000  0.51814000  1.0
  H  H56  1  0.28949000  0.27479000  0.06574000  1.0
  H  H57  1  0.71049000  0.77478000  0.93426000  1.0
  H  H58  1  0.21049000  0.27479000  0.56574000  1.0
  H  H59  1  0.78950000  0.77479000  0.43426000  1.0
  H  H60  1  0.06864000  0.36573000  0.07802000  1.0
  H  H61  1  0.93134000  0.86573000  0.92198000  1.0
  H  H62  1  0.43135000  0.36574000  0.57802000  1.0
  H  H63  1  0.56864000  0.86573000  0.42197000  1.0
  H  H64  1  0.85763000  0.32933000  0.11533000  1.0
  H  H65  1  0.14236000  0.82933000  0.88468000  1.0
  H  H66  1  0.64236000  0.32934000  0.61531000  1.0
  H  H67  1  0.35763000  0.82933000  0.38467000  1.0
  H  H68  1  0.90657000  0.04515000  0.04776000  1.0
  H  H69  1  0.09343000  0.54516000  0.95225000  1.0
  H  H70  1  0.59343000  0.04516000  0.54776000  1.0
  H  H71  1  0.40658000  0.54515000  0.45224000  1.0
  H  H72  1  0.11877000  0.08145000  0.01036000  1.0
  H  H73  1  0.88123000  0.58145000  0.98964000  1.0
  H  H74  1  0.38122000  0.08146000  0.51037000  1.0
  H  H75  1  0.61878000  0.58146000  0.48963000  1.0
  C  C76  1  0.88529000  0.94077000  0.64212000  1.0
  C  C77  1  0.11471000  0.44077000  0.35788000  1.0
  C  C78  1  0.61470000  0.94078000  0.14212000  1.0
  C  C79  1  0.38529000  0.44078000  0.85788000  1.0
  C  C80  1  0.73605000  0.16371000  0.10099000  1.0
  C  C81  1  0.26394000  0.66372000  0.89901000  1.0
  C  C82  1  0.76394000  0.16372000  0.60099000  1.0
  C  C83  1  0.23606000  0.66371000  0.39900000  1.0
  C  C84  1  0.58950000  0.29171000  0.06873000  1.0
  C  C85  1  0.41050000  0.79171000  0.93127000  1.0
  C  C86  1  0.91050000  0.29172000  0.56873000  1.0
  C  C87  1  0.08950000  0.79171000  0.43127000  1.0
  C  C88  1  0.57563000  0.27100000  0.95301000  1.0
  C  C89  1  0.42438000  0.77101000  0.04699000  1.0
  C  C90  1  0.92438000  0.27101000  0.45301000  1.0
  C  C91  1  0.07564000  0.77099000  0.54699000  1.0
  C  C92  1  0.64820000  0.20100000  0.97910000  1.0
  C  C93  1  0.35181000  0.70100000  0.02091000  1.0
  C  C94  1  0.85181000  0.20101000  0.47910000  1.0
  C  C95  1  0.14820000  0.70099000  0.52090000  1.0
  C  C96  1  0.68040000  0.96201000  0.88156000  1.0
  C  C97  1  0.31960000  0.46200000  0.11845000  1.0
  C  C98  1  0.81961000  0.96200000  0.38155000  1.0
  C  C99  1  0.18040000  0.46200000  0.61845000  1.0
  C  C100  1  0.78880000  0.98248000  0.83508000  1.0
  C  C101  1  0.21121000  0.48248000  0.16492000  1.0
  C  C102  1  0.71121000  0.98249000  0.33508000  1.0
  C  C103  1  0.28879000  0.48249000  0.66492000  1.0
  C  C104  1  0.78893000  0.95238000  0.76379000  1.0
  C  C105  1  0.21107000  0.45238000  0.23621000  1.0
  C  C106  1  0.71108000  0.95239000  0.26378000  1.0
  C  C107  1  0.28893000  0.45239000  0.73621000  1.0
  C  C108  1  0.88875000  0.97071000  0.71935000  1.0
  C  C109  1  0.11124000  0.47071000  0.28065000  1.0
  C  C110  1  0.61125000  0.97071000  0.21935000  1.0
  C  C111  1  0.38875000  0.47071000  0.78065000  1.0
  C  C112  1  0.98996000  0.01875000  0.74696000  1.0
  C  C113  1  0.01004000  0.51875000  0.25304000  1.0
  C  C114  1  0.51004000  0.01875000  0.24696000  1.0
  C  C115  1  0.48996000  0.51875000  0.75305000  1.0
  C  C116  1  0.99113000  0.04782000  0.81834000  1.0
  C  C117  1  0.00887000  0.54782000  0.18166000  1.0
  C  C118  1  0.50888000  0.04782000  0.31834000  1.0
  C  C119  1  0.49113000  0.54782000  0.68167000  1.0
  C  C120  1  0.89053000  0.03033000  0.86222000  1.0
  C  C121  1  0.10947000  0.53033000  0.13778000  1.0
  C  C122  1  0.60948000  0.03033000  0.36222000  1.0
  C  C123  1  0.39053000  0.53033000  0.63778000  1.0
  C  C124  1  0.36830000  0.11208000  0.01687000  1.0
  C  C125  1  0.63170000  0.61208000  0.98313000  1.0
  C  C126  1  0.13170000  0.11208000  0.51687000  1.0
  C  C127  1  0.86830000  0.61208000  0.48313000  1.0
  C  C128  1  0.30466000  0.16041000  0.91067000  1.0
  C  C129  1  0.69534000  0.66041000  0.08933000  1.0
  C  C130  1  0.19533000  0.16041000  0.41068000  1.0
  C  C131  1  0.80466000  0.66041000  0.58932000  1.0
  C  C132  1  0.37404000  0.08134000  0.90247000  1.0
  C  C133  1  0.62597000  0.58134000  0.09754000  1.0
  C  C134  1  0.12597000  0.08133000  0.40247000  1.0
  C  C135  1  0.87403000  0.58134000  0.59753000  1.0
  C  C136  1  0.23600000  0.25345000  0.01862000  1.0
  C  C137  1  0.76400000  0.75345000  0.98138000  1.0
  C  C138  1  0.26399000  0.25345000  0.51863000  1.0
  C  C139  1  0.73600000  0.75345000  0.48137000  1.0
  C  C140  1  0.10801000  0.22642000  0.04094000  1.0
  C  C141  1  0.89199000  0.72641000  0.95906000  1.0
  C  C142  1  0.39198000  0.22642000  0.54095000  1.0
  C  C143  1  0.60802000  0.72642000  0.45906000  1.0
  C  C144  1  0.03327000  0.29532000  0.07117000  1.0
  C  C145  1  0.96671000  0.79531000  0.92883000  1.0
  C  C146  1  0.46672000  0.29532000  0.57117000  1.0
  C  C147  1  0.53328000  0.79532000  0.42882000  1.0
  C  C148  1  0.91480000  0.27450000  0.09250000  1.0
  C  C149  1  0.08519000  0.77450000  0.90750000  1.0
  C  C150  1  0.58519000  0.27451000  0.59250000  1.0
  C  C151  1  0.41481000  0.77450000  0.40749000  1.0
  C  C152  1  0.86785000  0.18443000  0.08377000  1.0
  C  C153  1  0.13214000  0.68443000  0.91623000  1.0
  C  C154  1  0.63214000  0.18444000  0.58377000  1.0
  C  C155  1  0.36786000  0.68443000  0.41623000  1.0
  C  C156  1  0.94269000  0.11545000  0.05468000  1.0
  C  C157  1  0.05731000  0.61545000  0.94531000  1.0
  C  C158  1  0.55731000  0.11546000  0.55469000  1.0
  C  C159  1  0.44270000  0.61545000  0.44531000  1.0
  C  C160  1  0.06209000  0.13620000  0.03347000  1.0
  C  C161  1  0.93791000  0.63620000  0.96653000  1.0
  C  C162  1  0.43791000  0.13621000  0.53347000  1.0
  C  C163  1  0.56209000  0.63621000  0.46653000  1.0
  N  N164  1  0.53952000  0.32691000  0.00942000  1.0
  N  N165  1  0.46049000  0.82692000  0.99058000  1.0
  N  N166  1  0.96049000  0.32692000  0.50942000  1.0
  N  N167  1  0.03952000  0.82691000  0.49058000  1.0
  N  N168  1  0.65567000  0.21516000  0.05226000  1.0
  N  N169  1  0.34433000  0.71516000  0.94774000  1.0
  N  N170  1  0.84433000  0.21517000  0.55226000  1.0
  N  N171  1  0.15568000  0.71516000  0.44774000  1.0
  N  N172  1  0.41316000  0.05207000  0.96918000  1.0
  N  N173  1  0.58684000  0.55206000  0.03083000  1.0
  N  N174  1  0.08684000  0.05206000  0.46918000  1.0
  N  N175  1  0.91316000  0.55206000  0.53082000  1.0
  N  N176  1  0.30247000  0.17875000  0.98336000  1.0
  N  N177  1  0.69752000  0.67875000  0.01664000  1.0
  N  N178  1  0.19752000  0.17875000  0.48337000  1.0
  N  N179  1  0.80247000  0.67875000  0.51664000  1.0
  O  O180  1  0.58522000  0.92747000  0.85545000  1.0
  O  O181  1  0.41479000  0.42747000  0.14455000  1.0
  O  O182  1  0.91479000  0.92747000  0.35545000  1.0
  O  O183  1  0.08521000  0.42747000  0.64455000  1.0
  O  O184  1  0.96267000  0.98433000  0.60103000  1.0
  O  O185  1  0.03733000  0.48434000  0.39897000  1.0
  O  O186  1  0.53733000  0.98434000  0.10103000  1.0
  O  O187  1  0.46266000  0.48434000  0.89897000  1.0
  O  O188  1  0.81122000  0.88034000  0.62140000  1.0
  O  O189  1  0.18878000  0.38034000  0.37860000  1.0
  O  O190  1  0.68878000  0.88035000  0.12139000  1.0
  O  O191  1  0.31122000  0.38034000  0.87861000  1.0
  O  O192  1  0.69313000  0.98180000  0.94947000  1.0
  O  O193  1  0.30688000  0.48181000  0.05054000  1.0
  O  O194  1  0.80688000  0.98180000  0.44946000  1.0
  O  O195  1  0.19312000  0.48180000  0.55054000  1.0
