# generated using pymatgen
data_FeH4(C2O3)2
_symmetry_space_group_name_H-M   'P 1'
_cell_length_a   8.19225000
_cell_length_b   8.19224000
_cell_length_c   8.19225000
_cell_angle_alpha   88.68200000
_cell_angle_beta   88.68230000
_cell_angle_gamma   88.68170000
_symmetry_Int_Tables_number   1
_chemical_formula_structural   FeH4(C2O3)2
_chemical_formula_sum   'Fe3 H12 C12 O18'
_cell_volume   549.37567448
_cell_formula_units_Z   3
loop_
 _symmetry_equiv_pos_site_id
 _symmetry_equiv_pos_as_xyz
  1  'x, y, z'
loop_
 _atom_site_type_symbol
 _atom_site_label
 _atom_site_symmetry_multiplicity
 _atom_site_fract_x
 _atom_site_fract_y
 _atom_site_fract_z
 _atom_site_occupancy
  Fe  Fe0  1  0.50000000  0.00000000  0.00000000  1.0
  Fe  Fe1  1  0.00000000  0.50000000  0.00000000  1.0
  Fe  Fe2  1  0.00000000  0.00000000  0.50000000  1.0
  H  H3  1  0.24449000  0.06599000  0.80907000  1.0
  H  H4  1  0.80907000  0.24449000  0.06599000  1.0
  H  H5  1  0.06599000  0.80907000  0.24449000  1.0
  H  H6  1  0.75551000  0.93401000  0.19093000  1.0
  H  H7  1  0.19093000  0.75551000  0.93401000  1.0
  H  H8  1  0.93401000  0.19093000  0.75551000  1.0
  H  H9  1  0.24335000  0.19785000  0.95568000  1.0
  H  H10  1  0.95568000  0.24335000  0.19784000  1.0
  H  H11  1  0.19784000  0.95568000  0.24335000  1.0
  H  H12  1  0.75665000  0.80216000  0.04433000  1.0
  H  H13  1  0.04432000  0.75665000  0.80216000  1.0
  H  H14  1  0.80216000  0.04433000  0.75664000  1.0
  C  C15  1  0.54533000  0.99786000  0.61784000  1.0
  C  C16  1  0.61785000  0.54533000  0.99786000  1.0
  C  C17  1  0.99786000  0.61784000  0.54533000  1.0
  C  C18  1  0.45466000  0.00214000  0.38215000  1.0
  C  C19  1  0.38215000  0.45467000  0.00214000  1.0
  C  C20  1  0.00214000  0.38216000  0.45467000  1.0
  C  C21  1  0.45234000  0.61874000  0.99054000  1.0
  C  C22  1  0.99054000  0.45234000  0.61874000  1.0
  C  C23  1  0.61875000  0.99055000  0.45234000  1.0
  C  C24  1  0.54766000  0.38126000  0.00946000  1.0
  C  C25  1  0.00946000  0.54766000  0.38125000  1.0
  C  C26  1  0.38126000  0.00946000  0.54767000  1.0
  O  O27  1  0.60252000  0.99453000  0.76019000  1.0
  O  O28  1  0.76018000  0.60252000  0.99453000  1.0
  O  O29  1  0.99453000  0.76018000  0.60252000  1.0
  O  O30  1  0.39748000  0.00548000  0.23982000  1.0
  O  O31  1  0.23981000  0.39748000  0.00547000  1.0
  O  O32  1  0.00547000  0.23981000  0.39747000  1.0
  O  O33  1  0.39201000  0.76218000  0.97847000  1.0
  O  O34  1  0.97847000  0.39200000  0.76218000  1.0
  O  O35  1  0.76218000  0.97847000  0.39201000  1.0
  O  O36  1  0.60800000  0.23781000  0.02153000  1.0
  O  O37  1  0.02153000  0.60799000  0.23782000  1.0
  O  O38  1  0.23782000  0.02153000  0.60800000  1.0
  O  O39  1  0.27619000  0.08464000  0.92404000  1.0
  O  O40  1  0.92404000  0.27619000  0.08463000  1.0
  O  O41  1  0.08464000  0.92404000  0.27619000  1.0
  O  O42  1  0.72380000  0.91537000  0.07597000  1.0
  O  O43  1  0.07596000  0.72380000  0.91537000  1.0
  O  O44  1  0.91537000  0.07597000  0.72380000  1.0
