# generated using pymatgen
data_LaH41C39N2O11
_symmetry_space_group_name_H-M   'P 1'
_cell_length_a   12.74130000
_cell_length_b   13.80990000
_cell_length_c   16.36900000
_cell_angle_alpha   76.63010000
_cell_angle_beta   74.74040000
_cell_angle_gamma   84.11000000
_symmetry_Int_Tables_number   1
_chemical_formula_structural   LaH41C39N2O11
_chemical_formula_sum   'La2 H82 C78 N4 O22'
_cell_volume   2700.69160363
_cell_formula_units_Z   2
loop_
 _symmetry_equiv_pos_site_id
 _symmetry_equiv_pos_as_xyz
  1  'x, y, z'
loop_
 _atom_site_type_symbol
 _atom_site_label
 _atom_site_symmetry_multiplicity
 _atom_site_fract_x
 _atom_site_fract_y
 _atom_site_fract_z
 _atom_site_occupancy
  La  La0  1  0.37419000  0.04003000  0.43903000  1.0
  La  La1  1  0.62580000  0.95997000  0.56097000  1.0
  H  H2  1  0.01703000  0.33641000  0.00201000  1.0
  H  H3  1  0.98297000  0.66358000  0.99799000  1.0
  H  H4  1  0.04345000  0.27776000  0.10290000  1.0
  H  H5  1  0.95656000  0.72224000  0.89711000  1.0
  H  H6  1  0.13929000  0.26476000  0.00480000  1.0
  H  H7  1  0.86071000  0.73524000  0.99520000  1.0
  H  H8  1  0.42646000  0.61546000  0.93480000  1.0
  H  H9  1  0.57354000  0.38455000  0.06521000  1.0
  H  H10  1  0.40419000  0.54569000  0.86341000  1.0
  H  H11  1  0.59581000  0.45431000  0.13659000  1.0
  H  H12  1  0.46043000  0.48649000  0.95077000  1.0
  H  H13  1  0.53957000  0.51351000  0.04923000  1.0
  H  H14  1  0.00959000  0.57733000  0.21462000  1.0
  H  H15  1  0.99041000  0.42267000  0.78537000  1.0
  H  H16  1  0.00644000  0.68188000  0.12923000  1.0
  H  H17  1  0.99356000  0.31812000  0.87076000  1.0
  H  H18  1  0.11613000  0.66079000  0.18006000  1.0
  H  H19  1  0.88387000  0.33921000  0.81994000  1.0
  H  H20  1  0.90905000  0.52296000  0.14693000  1.0
  H  H21  1  0.09095000  0.47704000  0.85307000  1.0
  H  H22  1  0.92034000  0.42167000  0.09580000  1.0
  H  H23  1  0.07965000  0.57833000  0.90420000  1.0
  H  H24  1  0.93581000  0.24708000  0.35316000  1.0
  H  H25  1  0.06418000  0.75291000  0.64684000  1.0
  H  H26  1  0.77252000  0.14693000  0.42825000  1.0
  H  H27  1  0.22747000  0.85307000  0.57175000  1.0
  H  H28  1  0.60217000  0.31255000  0.24268000  1.0
  H  H29  1  0.39783000  0.68745000  0.75731000  1.0
  H  H30  1  0.76182000  0.41809000  0.17025000  1.0
  H  H31  1  0.23818000  0.58191000  0.82975000  1.0
  H  H32  1  0.29470000  0.28384000  0.97029000  1.0
  H  H33  1  0.70530000  0.71617000  0.02970000  1.0
  H  H34  1  0.39116000  0.37489000  0.91256000  1.0
  H  H35  1  0.60884000  0.62511000  0.08743000  1.0
  H  H36  1  0.40821000  0.21757000  0.87315000  1.0
  H  H37  1  0.59179000  0.78243000  0.12684000  1.0
  H  H38  1  0.46061000  0.10639000  0.76872000  1.0
  H  H39  1  0.53940000  0.89361000  0.23127000  1.0
  H  H40  1  0.25307000  0.27838000  0.61576000  1.0
  H  H41  1  0.74693000  0.72162000  0.38424000  1.0
  H  H42  1  0.19552000  0.39097000  0.72176000  1.0
  H  H43  1  0.80447000  0.60904000  0.27824000  1.0
  H  H44  1  0.33267000  0.71082000  0.98634000  1.0
  H  H45  1  0.66733000  0.28918000  0.01366000  1.0
  H  H46  1  0.20890000  0.73600000  0.05944000  1.0
  H  H47  1  0.79110000  0.26400000  0.94056000  1.0
  H  H48  1  0.33992000  0.60620000  0.27449000  1.0
  H  H49  1  0.66008000  0.39379000  0.72551000  1.0
  H  H50  1  0.33229000  0.72581000  0.37117000  1.0
  H  H51  1  0.66770000  0.27418000  0.62884000  1.0
  H  H52  1  0.30563000  0.97174000  0.16244000  1.0
  H  H53  1  0.69437000  0.02826000  0.83757000  1.0
  H  H54  1  0.31093000  0.85502000  0.06546000  1.0
  H  H55  1  0.68908000  0.14498000  0.93455000  1.0
  H  H56  1  0.34876000  0.32465000  0.35355000  1.0
  H  H57  1  0.65124000  0.67535000  0.64645000  1.0
  H  H58  1  0.36968000  0.42396000  0.22891000  1.0
  H  H59  1  0.63032000  0.57604000  0.77109000  1.0
  H  H60  1  0.25126000  0.44637000  0.18709000  1.0
  H  H61  1  0.74874000  0.55364000  0.81291000  1.0
  H  H62  1  0.36114000  0.36803000  0.14303000  1.0
  H  H63  1  0.63886000  0.63198000  0.85697000  1.0
  H  H64  1  0.24436000  0.19793000  0.19948000  1.0
  H  H65  1  0.75563000  0.80207000  0.80051000  1.0
  H  H66  1  0.13940000  0.29588000  0.21029000  1.0
  H  H67  1  0.86060000  0.70412000  0.78971000  1.0
  H  H68  1  0.15061000  0.19732000  0.30138000  1.0
  H  H69  1  0.84938000  0.80268000  0.69862000  1.0
  H  H70  1  0.16661000  0.15414000  0.57310000  1.0
  H  H71  1  0.83339000  0.84587000  0.42690000  1.0
  H  H72  1  0.02699000  0.21901000  0.65072000  1.0
  H  H73  1  0.97301000  0.78099000  0.34928000  1.0
  H  H74  1  0.93106000  0.13530000  0.72678000  1.0
  H  H75  1  0.06895000  0.86470000  0.27322000  1.0
  H  H76  1  0.90152000  0.20005000  0.62755000  1.0
  H  H77  1  0.09848000  0.79995000  0.37245000  1.0
  H  H78  1  0.89654000  0.02264000  0.58314000  1.0
  H  H79  1  0.10346000  0.97737000  0.41686000  1.0
  H  H80  1  0.91341000  0.97201000  0.68967000  1.0
  H  H81  1  0.08659000  0.02799000  0.31033000  1.0
  H  H82  1  0.01211000  0.94117000  0.59746000  1.0
  H  H83  1  0.98789000  0.05883000  0.40254000  1.0
  C  C84  1  0.07431000  0.47593000  0.08858000  1.0
  C  C85  1  0.92569000  0.52407000  0.91142000  1.0
  C  C86  1  0.13431000  0.40970000  0.03774000  1.0
  C  C87  1  0.86569000  0.59030000  0.96226000  1.0
  C  C88  1  0.24075000  0.43208000  0.98868000  1.0
  C  C89  1  0.75925000  0.56793000  0.01132000  1.0
  C  C90  1  0.28681000  0.52110000  0.98811000  1.0
  C  C91  1  0.71319000  0.47891000  0.01189000  1.0
  C  C92  1  0.22678000  0.58533000  0.04088000  1.0
  C  C93  1  0.77323000  0.41466000  0.95912000  1.0
  C  C94  1  0.12170000  0.56110000  0.09370000  1.0
  C  C95  1  0.87830000  0.43890000  0.90630000  1.0
  C  C96  1  0.08183000  0.31698000  0.03687000  1.0
  C  C97  1  0.91817000  0.68302000  0.96314000  1.0
  C  C98  1  0.39985000  0.54384000  0.93172000  1.0
  C  C99  1  0.60015000  0.45616000  0.06828000  1.0
  C  C100  1  0.06068000  0.62380000  0.15726000  1.0
  C  C101  1  0.93932000  0.37620000  0.84274000  1.0
  C  C102  1  0.95797000  0.45500000  0.13537000  1.0
  C  C103  1  0.04203000  0.54500000  0.86463000  1.0
  C  C104  1  0.86031000  0.33630000  0.25578000  1.0
  C  C105  1  0.13969000  0.66371000  0.74422000  1.0
  C  C106  1  0.86205000  0.26089000  0.32952000  1.0
  C  C107  1  0.13794000  0.73911000  0.67048000  1.0
  C  C108  1  0.77106000  0.20493000  0.37087000  1.0
  C  C109  1  0.22894000  0.79507000  0.62913000  1.0
  C  C110  1  0.67740000  0.22238000  0.33868000  1.0
  C  C111  1  0.32259000  0.77762000  0.66132000  1.0
  C  C112  1  0.67593000  0.29917000  0.26624000  1.0
  C  C113  1  0.32407000  0.70083000  0.73376000  1.0
  C  C114  1  0.76582000  0.35706000  0.22498000  1.0
  C  C115  1  0.23418000  0.64294000  0.77503000  1.0
  C  C116  1  0.58016000  0.16105000  0.37897000  1.0
  C  C117  1  0.41984000  0.83895000  0.62103000  1.0
  C  C118  1  0.30363000  0.36158000  0.93393000  1.0
  C  C119  1  0.69637000  0.63843000  0.06606000  1.0
  C  C120  1  0.29620000  0.31035000  0.80460000  1.0
  C  C121  1  0.70380000  0.68966000  0.19539000  1.0
  C  C122  1  0.37142000  0.23075000  0.81838000  1.0
  C  C123  1  0.62858000  0.76925000  0.18162000  1.0
  C  C124  1  0.40180000  0.16841000  0.75940000  1.0
  C  C125  1  0.59820000  0.83159000  0.24059000  1.0
  C  C126  1  0.35949000  0.18461000  0.68653000  1.0
  C  C127  1  0.64051000  0.81539000  0.31347000  1.0
  C  C128  1  0.28454000  0.26503000  0.67344000  1.0
  C  C129  1  0.71546000  0.73497000  0.32656000  1.0
  C  C130  1  0.25263000  0.32751000  0.73183000  1.0
  C  C131  1  0.74737000  0.67249000  0.26817000  1.0
  C  C132  1  0.39759000  0.11810000  0.62293000  1.0
  C  C133  1  0.60240000  0.88190000  0.37707000  1.0
  C  C134  1  0.27365000  0.67858000  0.04635000  1.0
  C  C135  1  0.72635000  0.32142000  0.95365000  1.0
  C  C136  1  0.32394000  0.72296000  0.16512000  1.0
  C  C137  1  0.67606000  0.27703000  0.83489000  1.0
  C  C138  1  0.33182000  0.68652000  0.25085000  1.0
  C  C139  1  0.66818000  0.31347000  0.74915000  1.0
  C  C140  1  0.32751000  0.75257000  0.30410000  1.0
  C  C141  1  0.67249000  0.24743000  0.69591000  1.0
  C  C142  1  0.31675000  0.85575000  0.27278000  1.0
  C  C143  1  0.68326000  0.14425000  0.72723000  1.0
  C  C144  1  0.31174000  0.89138000  0.18666000  1.0
  C  C145  1  0.68827000  0.10862000  0.81335000  1.0
  C  C146  1  0.31464000  0.82589000  0.13250000  1.0
  C  C147  1  0.68537000  0.17411000  0.86750000  1.0
  C  C148  1  0.31102000  0.92560000  0.33165000  1.0
  C  C149  1  0.68899000  0.07440000  0.66835000  1.0
  C  C150  1  0.29246000  0.27557000  0.34307000  1.0
  C  C151  1  0.70754000  0.72443000  0.65693000  1.0
  C  C152  1  0.31447000  0.39038000  0.20309000  1.0
  C  C153  1  0.68554000  0.60962000  0.79691000  1.0
  C  C154  1  0.19584000  0.24566000  0.24239000  1.0
  C  C155  1  0.80416000  0.75434000  0.75761000  1.0
  C  C156  1  0.12580000  0.08786000  0.57227000  1.0
  C  C157  1  0.87420000  0.91214000  0.42773000  1.0
  C  C158  1  0.96730000  0.16399000  0.65750000  1.0
  C  C159  1  0.03270000  0.83601000  0.34250000  1.0
  C  C160  1  0.95683000  0.99984000  0.62193000  1.0
  C  C161  1  0.04317000  0.00016000  0.37807000  1.0
  N  N162  1  0.26685000  0.30438000  0.26651000  1.0
  N  N163  1  0.73315000  0.69562000  0.73348000  1.0
  N  N164  1  0.02130000  0.08323000  0.61662000  1.0
  N  N165  1  0.97870000  0.91677000  0.38338000  1.0
  O  O166  1  0.95485000  0.38574000  0.21716000  1.0
  O  O167  1  0.04514000  0.61426000  0.78284000  1.0
  O  O168  1  0.49895000  0.17813000  0.34521000  1.0
  O  O169  1  0.50105000  0.82187000  0.65479000  1.0
  O  O170  1  0.57985000  0.09176000  0.44654000  1.0
  O  O171  1  0.42014000  0.90824000  0.55346000  1.0
  O  O172  1  0.25978000  0.37555000  0.85904000  1.0
  O  O173  1  0.74022000  0.62445000  0.14096000  1.0
  O  O174  1  0.47127000  0.05200000  0.63770000  1.0
  O  O175  1  0.52872000  0.94800000  0.36230000  1.0
  O  O176  1  0.35450000  0.13197000  0.55887000  1.0
  O  O177  1  0.64549000  0.86803000  0.44113000  1.0
  O  O178  1  0.32613000  0.65226000  0.11770000  1.0
  O  O179  1  0.67388000  0.34774000  0.88230000  1.0
  O  O180  1  0.29718000  0.88851000  0.41270000  1.0
  O  O181  1  0.70283000  0.11148000  0.58730000  1.0
  O  O182  1  0.32126000  0.01882000  0.29973000  1.0
  O  O183  1  0.67873000  0.98118000  0.70028000  1.0
  O  O184  1  0.25684000  0.20026000  0.39884000  1.0
  O  O185  1  0.74316000  0.79974000  0.60115000  1.0
  O  O186  1  0.17633000  0.02292000  0.53266000  1.0
  O  O187  1  0.82367000  0.97709000  0.46733000  1.0
