# generated using pymatgen
data_FeNiH4(C4N3)2
_symmetry_space_group_name_H-M   'P 1'
_cell_length_a   7.12000000
_cell_length_b   7.16306000
_cell_length_c   7.25990000
_cell_angle_alpha   90.00020000
_cell_angle_beta   89.98780000
_cell_angle_gamma   90.00050000
_symmetry_Int_Tables_number   1
_chemical_formula_structural   FeNiH4(C4N3)2
_chemical_formula_sum   'Fe1 Ni1 H4 C8 N6'
_cell_volume   370.26205856
_cell_formula_units_Z   1
loop_
 _symmetry_equiv_pos_site_id
 _symmetry_equiv_pos_as_xyz
  1  'x, y, z'
loop_
 _atom_site_type_symbol
 _atom_site_label
 _atom_site_symmetry_multiplicity
 _atom_site_fract_x
 _atom_site_fract_y
 _atom_site_fract_z
 _atom_site_occupancy
  Fe  Fe0  1  0.00000000  0.99999000  0.99999000  1.0
  Ni  Ni1  1  0.00000000  0.49999000  0.50000000  1.0
  H  H2  1  0.32244000  0.00001000  0.28588000  1.0
  H  H3  1  0.32223000  0.00001000  0.71432000  1.0
  H  H4  1  0.67777000  0.00001000  0.28568000  1.0
  H  H5  1  0.67756000  0.00001000  0.71413000  1.0
  C  C6  1  0.00010000  0.31945000  0.32095000  1.0
  C  C7  1  0.99990000  0.68053000  0.67906000  1.0
  C  C8  1  0.00010000  0.68053000  0.32094000  1.0
  C  C9  1  0.99990000  0.31945000  0.67905000  1.0
  C  C10  1  0.40263000  0.00001000  0.15806000  1.0
  C  C11  1  0.40249000  0.00001000  0.84203000  1.0
  C  C12  1  0.59751000  0.00001000  0.15798000  1.0
  C  C13  1  0.59737000  0.00001000  0.84194000  1.0
  N  N14  1  0.00010000  0.20409000  0.20640000  1.0
  N  N15  1  0.99990000  0.79589000  0.79360000  1.0
  N  N16  1  0.00010000  0.79589000  0.20640000  1.0
  N  N17  1  0.99990000  0.20409000  0.79359000  1.0
  N  N18  1  0.30364000  0.00001000  0.00012000  1.0
  N  N19  1  0.69636000  0.00000000  0.99989000  1.0
