# generated using pymatgen
data_Al2H12C19O12
_symmetry_space_group_name_H-M   'P 1'
_cell_length_a   6.63509000
_cell_length_b   14.36320000
_cell_length_c   18.63840000
_cell_angle_alpha   79.66400000
_cell_angle_beta   84.36440000
_cell_angle_gamma   85.94690000
_symmetry_Int_Tables_number   1
_chemical_formula_structural   Al2H12C19O12
_chemical_formula_sum   'Al4 H24 C38 O24'
_cell_volume   1736.43407727
_cell_formula_units_Z   2
loop_
 _symmetry_equiv_pos_site_id
 _symmetry_equiv_pos_as_xyz
  1  'x, y, z'
loop_
 _atom_site_type_symbol
 _atom_site_label
 _atom_site_symmetry_multiplicity
 _atom_site_fract_x
 _atom_site_fract_y
 _atom_site_fract_z
 _atom_site_occupancy
  Al  Al0  1  0.12819000  0.49710000  0.50083000  1.0
  Al  Al1  1  0.62776000  0.50023000  0.49991000  1.0
  Al  Al2  1  0.63550000  0.99744000  0.99871000  1.0
  Al  Al3  1  0.13618000  0.99929000  0.99713000  1.0
  H  H4  1  0.03209000  0.21095000  0.79193000  1.0
  H  H5  1  0.52061000  0.77896000  0.18725000  1.0
  H  H6  1  0.56333000  0.32853000  0.71193000  1.0
  H  H7  1  0.07576000  0.69323000  0.31929000  1.0
  H  H8  1  0.00922000  0.26131000  0.67769000  1.0
  H  H9  1  0.53738000  0.71815000  0.30110000  1.0
  H  H10  1  0.64118000  0.30238000  0.36508000  1.0
  H  H11  1  0.61848000  0.69060000  0.63197000  1.0
  H  H12  1  0.24520000  0.39514000  0.30223000  1.0
  H  H13  1  0.01011000  0.60505000  0.69697000  1.0
  H  H14  1  0.49174000  0.19805000  0.29394000  1.0
  H  H15  1  0.77471000  0.79623000  0.70112000  1.0
  H  H16  1  0.27396000  0.30982000  0.19614000  1.0
  H  H17  1  0.98875000  0.69250000  0.80194000  1.0
  H  H18  1  0.51949000  0.11293000  0.18768000  1.0
  H  H19  1  0.75299000  0.88405000  0.80598000  1.0
  H  H20  1  0.12578000  0.20309000  0.12528000  1.0
  H  H21  1  0.14419000  0.79896000  0.87072000  1.0
  H  H22  1  0.29337000  0.11293000  0.84703000  1.0
  H  H23  1  0.79608000  0.92090000  0.20553000  1.0
  H  H24  1  0.40602000  0.38444000  0.47788000  1.0
  H  H25  1  0.87346000  0.62138000  0.46899000  1.0
  H  H26  1  0.37297000  0.12660000  0.98148000  1.0
  H  H27  1  0.89945000  0.87442000  0.02766000  1.0
  C  C28  1  0.33056000  0.59122000  0.59604000  1.0
  C  C29  1  0.92446000  0.40392000  0.40353000  1.0
  C  C30  1  0.39072000  0.62507000  0.39429000  1.0
  C  C31  1  0.85871000  0.37383000  0.60446000  1.0
  C  C32  1  0.71153000  0.22094000  0.79146000  1.0
  C  C33  1  0.20606000  0.78670000  0.22278000  1.0
  C  C34  1  0.88822000  0.18660000  0.81969000  1.0
  C  C35  1  0.37033000  0.81064000  0.17572000  1.0
  C  C36  1  0.70570000  0.28761000  0.72265000  1.0
  C  C37  1  0.21785000  0.72114000  0.29193000  1.0
  C  C38  1  0.86403000  0.30117000  0.67137000  1.0
  C  C39  1  0.38966000  0.69358000  0.32491000  1.0
  C  C40  1  0.94065000  0.35267000  0.34010000  1.0
  C  C41  1  0.31648000  0.64404000  0.65836000  1.0
  C  C42  1  0.82587000  0.15346000  0.15069000  1.0
  C  C43  1  0.44650000  0.84533000  0.84427000  1.0
  C  C44  1  0.62976000  0.19946000  0.25682000  1.0
  C  C45  1  0.63769000  0.79631000  0.73860000  1.0
  C  C46  1  0.64485000  0.15212000  0.19843000  1.0
  C  C47  1  0.62657000  0.84475000  0.79632000  1.0
  C  C48  1  0.98767000  0.20326000  0.16220000  1.0
  C  C49  1  0.28168000  0.79681000  0.83365000  1.0
  C  C50  1  0.97478000  0.25431000  0.22087000  1.0
  C  C51  1  0.29066000  0.74467000  0.77580000  1.0
  C  C52  1  0.79228000  0.25218000  0.26938000  1.0
  C  C53  1  0.47232000  0.74457000  0.72704000  1.0
  C  C54  1  0.77943000  0.30283000  0.32819000  1.0
  C  C55  1  0.48109000  0.69267000  0.66907000  1.0
  C  C56  1  0.12110000  0.35475000  0.29207000  1.0
  C  C57  1  0.13673000  0.64433000  0.70651000  1.0
  C  C58  1  0.13648000  0.30751000  0.23354000  1.0
  C  C59  1  0.12554000  0.69273000  0.76430000  1.0
  C  C60  1  0.36642000  0.87889000  0.10689000  1.0
  C  C61  1  0.89955000  0.11828000  0.88774000  1.0
  C  C62  1  0.43313000  0.89874000  0.90613000  1.0
  C  C63  1  0.84065000  0.10011000  0.08858000  1.0
  C  C64  1  0.50668000  0.19955000  0.83236000  1.0
  C  C65  1  0.99306000  0.81922000  0.20487000  1.0
  O  O66  1  0.56523000  0.59184000  0.41316000  1.0
  O  O67  1  0.03101000  0.39119000  0.56926000  1.0
  O  O68  1  0.17011000  0.55680000  0.58191000  1.0
  O  O69  1  0.74909000  0.41355000  0.43719000  1.0
  O  O70  1  0.22050000  0.60446000  0.42970000  1.0
  O  O71  1  0.68888000  0.41342000  0.58678000  1.0
  O  O72  1  0.08778000  0.43360000  0.41994000  1.0
  O  O73  1  0.50341000  0.58488000  0.56024000  1.0
  O  O74  1  0.38809000  0.44060000  0.50034000  1.0
  O  O75  1  0.87140000  0.55737000  0.49640000  1.0
  O  O76  1  0.25790000  0.91038000  0.93934000  1.0
  O  O77  1  0.67814000  0.06559000  0.07610000  1.0
  O  O78  1  0.53999000  0.89766000  0.07327000  1.0
  O  O79  1  0.07624000  0.08298000  0.90480000  1.0
  O  O80  1  0.59626000  0.92862000  0.92225000  1.0
  O  O81  1  0.01304000  0.09228000  0.05257000  1.0
  O  O82  1  0.73542000  0.09819000  0.92658000  1.0
  O  O83  1  0.19618000  0.91418000  0.08568000  1.0
  O  O84  1  0.37837000  0.05779000  0.99238000  1.0
  O  O85  1  0.89440000  0.94009000  0.00350000  1.0
  O  O86  1  0.42347000  0.25153000  0.87307000  1.0
  O  O87  1  0.42429000  0.12497000  0.81519000  1.0
  O  O88  1  0.88236000  0.76780000  0.18306000  1.0
  O  O89  1  0.93335000  0.90529000  0.22132000  1.0
