# generated using pymatgen
data_Ba2H24C17O16
_symmetry_space_group_name_H-M   'P 1'
_cell_length_a   10.95310000
_cell_length_b   12.48240000
_cell_length_c   12.48230000
_cell_angle_alpha   61.38490000
_cell_angle_beta   64.59980000
_cell_angle_gamma   64.59990000
_symmetry_Int_Tables_number   1
_chemical_formula_structural   Ba2H24C17O16
_chemical_formula_sum   'Ba4 H48 C34 O32'
_cell_volume   1298.45702216
_cell_formula_units_Z   2
loop_
 _symmetry_equiv_pos_site_id
 _symmetry_equiv_pos_as_xyz
  1  'x, y, z'
loop_
 _atom_site_type_symbol
 _atom_site_label
 _atom_site_symmetry_multiplicity
 _atom_site_fract_x
 _atom_site_fract_y
 _atom_site_fract_z
 _atom_site_occupancy
  Ba  Ba0  1  0.43636000  0.90741000  0.72098000  1.0
  Ba  Ba1  1  0.06364000  0.27902000  0.09260000  1.0
  Ba  Ba2  1  0.56364000  0.09259000  0.27902000  1.0
  Ba  Ba3  1  0.93636000  0.72098000  0.90741000  1.0
  H  H4  1  0.94702000  0.24819000  0.57017000  1.0
  H  H5  1  0.55297000  0.42983000  0.75181000  1.0
  H  H6  1  0.05297000  0.75181000  0.42983000  1.0
  H  H7  1  0.44703000  0.57017000  0.24819000  1.0
  H  H8  1  0.77796000  0.59671000  0.64160000  1.0
  H  H9  1  0.72204000  0.35840000  0.40329000  1.0
  H  H10  1  0.22204000  0.40329000  0.35840000  1.0
  H  H11  1  0.27796000  0.64160000  0.59671000  1.0
  H  H12  1  0.10483000  0.29186000  0.80365000  1.0
  H  H13  1  0.39517000  0.19635000  0.70814000  1.0
  H  H14  1  0.89516000  0.70814000  0.19635000  1.0
  H  H15  1  0.60483000  0.80366000  0.29186000  1.0
  H  H16  1  0.81018000  0.48611000  0.42111000  1.0
  H  H17  1  0.68982000  0.57889000  0.51389000  1.0
  H  H18  1  0.18982000  0.51389000  0.57889000  1.0
  H  H19  1  0.31018000  0.42111000  0.48611000  1.0
  H  H20  1  0.27649000  0.74071000  0.02247000  1.0
  H  H21  1  0.22351000  0.97752000  0.25929000  1.0
  H  H22  1  0.72351000  0.25929000  0.97753000  1.0
  H  H23  1  0.77649000  0.02247000  0.74071000  1.0
  H  H24  1  0.25406000  0.69698000  0.93365000  1.0
  H  H25  1  0.24594000  0.06635000  0.30302000  1.0
  H  H26  1  0.74594000  0.30302000  0.06635000  1.0
  H  H27  1  0.75406000  0.93365000  0.69698000  1.0
  H  H28  1  0.78051000  0.89023000  0.51740000  1.0
  H  H29  1  0.71949000  0.48260000  0.10976000  1.0
  H  H30  1  0.21949000  0.10976000  0.48260000  1.0
  H  H31  1  0.28051000  0.51740000  0.89024000  1.0
  H  H32  1  0.79868000  0.78105000  0.65008000  1.0
  H  H33  1  0.70132000  0.34992000  0.21895000  1.0
  H  H34  1  0.20132000  0.21895000  0.34992000  1.0
  H  H35  1  0.29868000  0.65008000  0.78105000  1.0
  H  H36  1  0.40264000  0.04676000  0.90989000  1.0
  H  H37  1  0.09736000  0.09011000  0.95324000  1.0
  H  H38  1  0.59736000  0.95324000  0.09011000  1.0
  H  H39  1  0.90264000  0.90988000  0.04676000  1.0
  H  H40  1  0.55825000  0.95978000  0.87763000  1.0
  H  H41  1  0.94175000  0.12238000  0.04021000  1.0
  H  H42  1  0.44175000  0.04022000  0.12238000  1.0
  H  H43  1  0.05824000  0.87762000  0.95979000  1.0
  H  H44  1  0.58779000  0.67360000  0.94852000  1.0
  H  H45  1  0.91221000  0.05148000  0.32640000  1.0
  H  H46  1  0.41221000  0.32640000  0.05148000  1.0
  H  H47  1  0.08779000  0.94852000  0.67360000  1.0
  H  H48  1  0.68657000  0.66198000  0.82168000  1.0
  H  H49  1  0.81343000  0.17831000  0.33802000  1.0
  H  H50  1  0.31343000  0.33802000  0.17832000  1.0
  H  H51  1  0.18657000  0.82169000  0.66198000  1.0
  C  C52  1  0.13518000  0.12529000  0.71188000  1.0
  C  C53  1  0.36482000  0.28811000  0.87472000  1.0
  C  C54  1  0.86482000  0.87471000  0.28812000  1.0
  C  C55  1  0.63518000  0.71189000  0.12528000  1.0
  C  C56  1  0.03436000  0.25616000  0.69051000  1.0
  C  C57  1  0.46564000  0.30949000  0.74384000  1.0
  C  C58  1  0.96564000  0.74384000  0.30949000  1.0
  C  C59  1  0.53436000  0.69051000  0.25616000  1.0
  C  C60  1  0.94387000  0.30594000  0.61543000  1.0
  C  C61  1  0.55613000  0.38456000  0.69407000  1.0
  C  C62  1  0.05613000  0.69406000  0.38457000  1.0
  C  C63  1  0.44388000  0.61544000  0.30593000  1.0
  C  C64  1  0.84961000  0.42822000  0.59836000  1.0
  C  C65  1  0.65038000  0.40164000  0.57178000  1.0
  C  C66  1  0.15038000  0.57178000  0.40164000  1.0
  C  C67  1  0.34962000  0.59836000  0.42822000  1.0
  C  C68  1  0.84924000  0.50071000  0.65593000  1.0
  C  C69  1  0.65077000  0.34407000  0.49929000  1.0
  C  C70  1  0.15077000  0.49929000  0.34407000  1.0
  C  C71  1  0.34923000  0.65594000  0.50071000  1.0
  C  C72  1  0.94025000  0.45238000  0.73063000  1.0
  C  C73  1  0.55976000  0.26937000  0.54762000  1.0
  C  C74  1  0.05975000  0.54762000  0.26937000  1.0
  C  C75  1  0.44024000  0.73063000  0.45238000  1.0
  C  C76  1  0.03203000  0.33001000  0.74770000  1.0
  C  C77  1  0.46797000  0.25230000  0.66999000  1.0
  C  C78  1  0.96797000  0.66999000  0.25230000  1.0
  C  C79  1  0.53203000  0.74770000  0.33001000  1.0
  C  C80  1  0.75000000  0.48061000  0.51939000  1.0
  C  C81  1  0.25000000  0.51940000  0.48061000  1.0
  C  C82  1  0.94235000  0.53022000  0.79084000  1.0
  C  C83  1  0.55765000  0.20916000  0.46978000  1.0
  C  C84  1  0.05765000  0.46978000  0.20916000  1.0
  C  C85  1  0.44235000  0.79084000  0.53022000  1.0
  O  O86  1  0.19194000  0.07746000  0.80075000  1.0
  O  O87  1  0.30806000  0.19924000  0.92254000  1.0
  O  O88  1  0.80806000  0.92254000  0.19925000  1.0
  O  O89  1  0.69194000  0.80076000  0.07746000  1.0
  O  O90  1  0.16344000  0.06695000  0.63916000  1.0
  O  O91  1  0.33656000  0.36084000  0.93305000  1.0
  O  O92  1  0.83655000  0.93305000  0.36084000  1.0
  O  O93  1  0.66345000  0.63916000  0.06695000  1.0
  O  O94  1  0.01276000  0.47896000  0.87015000  1.0
  O  O95  1  0.48723000  0.12985000  0.52104000  1.0
  O  O96  1  0.98725000  0.52104000  0.12985000  1.0
  O  O97  1  0.51277000  0.87015000  0.47896000  1.0
  O  O98  1  0.87194000  0.64854000  0.75949000  1.0
  O  O99  1  0.62806000  0.24052000  0.35146000  1.0
  O  O100  1  0.12806000  0.35146000  0.24052000  1.0
  O  O101  1  0.37194000  0.75948000  0.64854000  1.0
  O  O102  1  0.24978000  0.77271000  0.94535000  1.0
  O  O103  1  0.25022000  0.05465000  0.22730000  1.0
  O  O104  1  0.75022000  0.22729000  0.05465000  1.0
  O  O105  1  0.74978000  0.94535000  0.77271000  1.0
  O  O106  1  0.73905000  0.86732000  0.61167000  1.0
  O  O107  1  0.76095000  0.38834000  0.13268000  1.0
  O  O108  1  0.26095000  0.13268000  0.38834000  1.0
  O  O109  1  0.23905000  0.61167000  0.86732000  1.0
  O  O110  1  0.45901000  0.96307000  0.90083000  1.0
  O  O111  1  0.04099000  0.09917000  0.03693000  1.0
  O  O112  1  0.54099000  0.03693000  0.09917000  1.0
  O  O113  1  0.95901000  0.90083000  0.96307000  1.0
  O  O114  1  0.58514000  0.68143000  0.86682000  1.0
  O  O115  1  0.91485000  0.13318000  0.31857000  1.0
  O  O116  1  0.41486000  0.31857000  0.13318000  1.0
  O  O117  1  0.08514000  0.86682000  0.68143000  1.0
