# generated using pymatgen
data_Zn2H32C39(NO6)2
_symmetry_space_group_name_H-M   'P 1'
_cell_length_a   9.66747000
_cell_length_b   11.03400000
_cell_length_c   17.47350000
_cell_angle_alpha   88.58730000
_cell_angle_beta   89.39210000
_cell_angle_gamma   88.17740000
_symmetry_Int_Tables_number   1
_chemical_formula_structural   Zn2H32C39(NO6)2
_chemical_formula_sum   'Zn2 H32 C39 N2 O12'
_cell_volume   1862.31407671
_cell_formula_units_Z   1
loop_
 _symmetry_equiv_pos_site_id
 _symmetry_equiv_pos_as_xyz
  1  'x, y, z'
loop_
 _atom_site_type_symbol
 _atom_site_label
 _atom_site_symmetry_multiplicity
 _atom_site_fract_x
 _atom_site_fract_y
 _atom_site_fract_z
 _atom_site_occupancy
  Zn  Zn0  1  0.63029000  0.47737000  0.50091000  1.0
  Zn  Zn1  1  0.34743000  0.48767000  0.50166000  1.0
  H  H2  1  0.27513000  0.10806000  0.52305000  1.0
  H  H3  1  0.77522000  0.06568000  0.39280000  1.0
  H  H4  1  0.82814000  0.08788000  0.48963000  1.0
  H  H5  1  0.81979000  0.86121000  0.51335000  1.0
  H  H6  1  0.11233000  0.57510000  0.60461000  1.0
  H  H7  1  0.85130000  0.57008000  0.60539000  1.0
  H  H8  1  0.87064000  0.27363000  0.37949000  1.0
  H  H9  1  0.86312000  0.41416000  0.32663000  1.0
  H  H10  1  0.13339000  0.27768000  0.37903000  1.0
  H  H11  1  0.12675000  0.41822000  0.32606000  1.0
  H  H12  1  0.30771000  0.61274000  0.72897000  1.0
  H  H13  1  0.32440000  0.68565000  0.86306000  1.0
  H  H14  1  0.73380000  0.61789000  0.12563000  1.0
  H  H15  1  0.72186000  0.57305000  0.26664000  1.0
  H  H16  1  0.27904000  0.58582000  0.25926000  1.0
  H  H17  1  0.28781000  0.63535000  0.11867000  1.0
  H  H18  1  0.26889000  0.88283000  0.53398000  1.0
  H  H19  1  0.89267000  0.53839000  0.96671000  1.0
  H  H20  1  0.76757000  0.65593000  0.94591000  1.0
  H  H21  1  0.99329000  0.56199000  0.83511000  1.0
  H  H22  1  0.86512000  0.67361000  0.81150000  1.0
  H  H23  1  0.95463000  0.80949000  0.91384000  1.0
  H  H24  1  0.08572000  0.77223000  0.84601000  1.0
  H  H25  1  0.08479000  0.69777000  0.93725000  1.0
  H  H26  1  0.91892000  0.71548000  0.34467000  1.0
  H  H27  1  0.94945000  0.72509000  0.44490000  1.0
  H  H28  1  0.99156000  0.93455000  0.32921000  1.0
  H  H29  1  0.03782000  0.93165000  0.42697000  1.0
  H  H30  1  0.20767000  0.75383000  0.40173000  1.0
  H  H31  1  0.24835000  0.88549000  0.34758000  1.0
  H  H32  1  0.16421000  0.76574000  0.30317000  1.0
  H  H33  1  0.90909000  0.36258000  0.71960000  1.0
  C  C34  1  0.48004000  0.71817000  0.51291000  1.0
  C  C35  1  0.52335000  0.59813000  0.88339000  1.0
  C  C36  1  0.52311000  0.62512000  0.96199000  1.0
  C  C37  1  0.51735000  0.63434000  0.03150000  1.0
  C  C38  1  0.63428000  0.61130000  0.15511000  1.0
  C  C39  1  0.62786000  0.58524000  0.23313000  1.0
  C  C40  1  0.49989000  0.57183000  0.27050000  1.0
  C  C41  1  0.37774000  0.59312000  0.22911000  1.0
  C  C42  1  0.38275000  0.62095000  0.15119000  1.0
  C  C43  1  0.51142000  0.62592000  0.11236000  1.0
  C  C44  1  0.60362000  0.91323000  0.48492000  1.0
  C  C45  1  0.49499000  0.53261000  0.35308000  1.0
  C  C46  1  0.48410000  0.85281000  0.50575000  1.0
  C  C47  1  0.36495000  0.92677000  0.51839000  1.0
  C  C48  1  0.36836000  0.05289000  0.51186000  1.0
  C  C49  1  0.49047000  0.11326000  0.49176000  1.0
  C  C50  1  0.60701000  0.03926000  0.47740000  1.0
  C  C51  1  0.75798000  0.03898000  0.45307000  1.0
  C  C52  1  0.75598000  0.89524000  0.46474000  1.0
  C  C53  1  0.06419000  0.43422000  0.44730000  1.0
  C  C54  1  0.05671000  0.53394000  0.55854000  1.0
  C  C55  1  0.91255000  0.53147000  0.55886000  1.0
  C  C56  1  0.49256000  0.24821000  0.48862000  1.0
  C  C57  1  0.92025000  0.43174000  0.44757000  1.0
  C  C58  1  0.91485000  0.36382000  0.37369000  1.0
  C  C59  1  0.07950000  0.36647000  0.37338000  1.0
  C  C60  1  0.49082000  0.47636000  0.65139000  1.0
  C  C61  1  0.63292000  0.52671000  0.85057000  1.0
  C  C62  1  0.61909000  0.48132000  0.77687000  1.0
  C  C63  1  0.50098000  0.51221000  0.73331000  1.0
  C  C64  1  0.39674000  0.58779000  0.76429000  1.0
  C  C65  1  0.40721000  0.62964000  0.83811000  1.0
  C  C66  1  0.83300000  0.58377000  0.92047000  1.0
  C  C67  1  0.92839000  0.63579000  0.85894000  1.0
  C  C68  1  0.01815000  0.73407000  0.89084000  1.0
  C  C69  1  0.92104000  0.77858000  0.39249000  1.0
  C  C70  1  0.02881000  0.87457000  0.37647000  1.0
  C  C71  1  0.16976000  0.81669000  0.35631000  1.0
  C  C72  1  0.72402000  0.38742000  0.75063000  1.0
  N  N73  1  0.13566000  0.48452000  0.50188000  1.0
  N  N74  1  0.84146000  0.47923000  0.50246000  1.0
  O  O75  1  0.59540000  0.66032000  0.52009000  1.0
  O  O76  1  0.36123000  0.67132000  0.51040000  1.0
  O  O77  1  0.61112000  0.51739000  0.38645000  1.0
  O  O78  1  0.37656000  0.51611000  0.38373000  1.0
  O  O79  1  0.61035000  0.29618000  0.48201000  1.0
  O  O80  1  0.37623000  0.30570000  0.49396000  1.0
  O  O81  1  0.60453000  0.44912000  0.61734000  1.0
  O  O82  1  0.37174000  0.48124000  0.62097000  1.0
  O  O83  1  0.74719000  0.48973000  0.89162000  1.0
  O  O84  1  0.78181000  0.82441000  0.39956000  1.0
  O  O85  1  0.70214000  0.27940000  0.75048000  1.0
  O  O86  1  0.84936000  0.43343000  0.73130000  1.0
