# generated using pymatgen
data_CoH24C22(NO3)2
_symmetry_space_group_name_H-M   'P 1'
_cell_length_a   5.50577000
_cell_length_b   8.69455000
_cell_length_c   10.69320000
_cell_angle_alpha   94.33110000
_cell_angle_beta   94.99820000
_cell_angle_gamma   91.53310000
_symmetry_Int_Tables_number   1
_chemical_formula_structural   CoH24C22(NO3)2
_chemical_formula_sum   'Co1 H24 C22 N2 O6'
_cell_volume   508.19644890
_cell_formula_units_Z   1
loop_
 _symmetry_equiv_pos_site_id
 _symmetry_equiv_pos_as_xyz
  1  'x, y, z'
loop_
 _atom_site_type_symbol
 _atom_site_label
 _atom_site_symmetry_multiplicity
 _atom_site_fract_x
 _atom_site_fract_y
 _atom_site_fract_z
 _atom_site_occupancy
  Co  Co0  1  0.50000000  0.50000000  0.00000000  1.0
  H  H1  1  0.12424000  0.71969000  0.06727000  1.0
  H  H2  1  0.87577000  0.28032000  0.93274000  1.0
  H  H3  1  0.08404000  0.92124000  0.23778000  1.0
  H  H4  1  0.91596000  0.07876000  0.76223000  1.0
  H  H5  1  0.79444000  0.80282000  0.40053000  1.0
  H  H6  1  0.20556000  0.19718000  0.59947000  1.0
  H  H7  1  0.81178000  0.61228000  0.22028000  1.0
  H  H8  1  0.18822000  0.38772000  0.77972000  1.0
  H  H9  1  0.22107000  0.98433000  0.47346000  1.0
  H  H10  1  0.77894000  0.01567000  0.52654000  1.0
  H  H11  1  0.40745000  0.11505000  0.40438000  1.0
  H  H12  1  0.59256000  0.88495000  0.59562000  1.0
  H  H13  1  0.84214000  0.13877000  0.34801000  1.0
  H  H14  1  0.15786000  0.86123000  0.65199000  1.0
  H  H15  1  0.07738000  0.21560000  0.26362000  1.0
  H  H16  1  0.92262000  0.78440000  0.73638000  1.0
  H  H17  1  0.63034000  0.33141000  0.49870000  1.0
  H  H18  1  0.36965000  0.66860000  0.50129000  1.0
  H  H19  1  0.29537000  0.45078000  0.33971000  1.0
  H  H20  1  0.70462000  0.54923000  0.66029000  1.0
  H  H21  1  0.32682000  0.30325000  0.11374000  1.0
  H  H22  1  0.67317000  0.69674000  0.88626000  1.0
  H  H23  1  0.08337000  0.40188000  0.08814000  1.0
  H  H24  1  0.91662000  0.59811000  0.91186000  1.0
  C  C25  1  0.26998000  0.74204000  0.14232000  1.0
  C  C26  1  0.73002000  0.25796000  0.85769000  1.0
  C  C27  1  0.24950000  0.85518000  0.23887000  1.0
  C  C28  1  0.75051000  0.14483000  0.76114000  1.0
  C  C29  1  0.43555000  0.88215000  0.33675000  1.0
  C  C30  1  0.56446000  0.11784000  0.66325000  1.0
  C  C31  1  0.64132000  0.79250000  0.32842000  1.0
  C  C32  1  0.35868000  0.20749000  0.67159000  1.0
  C  C33  1  0.65316000  0.68285000  0.22775000  1.0
  C  C34  1  0.34684000  0.31715000  0.77225000  1.0
  C  C35  1  0.40581000  0.00110000  0.44349000  1.0
  C  C36  1  0.59419000  0.99889000  0.55651000  1.0
  C  C37  1  0.71315000  0.28570000  0.20681000  1.0
  C  C38  1  0.28685000  0.71429000  0.79318000  1.0
  C  C39  1  0.90896000  0.24238000  0.30739000  1.0
  C  C40  1  0.09105000  0.75762000  0.69261000  1.0
  C  C41  1  0.95831000  0.37408000  0.40780000  1.0
  C  C42  1  0.04168000  0.62592000  0.59220000  1.0
  C  C43  1  0.79453000  0.40419000  0.49921000  1.0
  C  C44  1  0.20546000  0.59581000  0.50078000  1.0
  C  C45  1  0.16462000  0.47241000  0.40955000  1.0
  C  C46  1  0.83537000  0.52759000  0.59044000  1.0
  N  N47  1  0.46951000  0.65485000  0.13590000  1.0
  N  N48  1  0.53050000  0.34515000  0.86410000  1.0
  O  O49  1  0.49802000  0.23156000  0.21110000  1.0
  O  O50  1  0.50199000  0.76843000  0.78890000  1.0
  O  O51  1  0.77688000  0.37875000  0.12742000  1.0
  O  O52  1  0.22312000  0.62125000  0.87258000  1.0
  O  O53  1  0.23152000  0.36630000  0.04887000  1.0
  O  O54  1  0.76848000  0.63370000  0.95113000  1.0
