# generated using pymatgen
data_Zn2H17C18N2O7
_symmetry_space_group_name_H-M   'P 1'
_cell_length_a   8.35267000
_cell_length_b   9.63722000
_cell_length_c   12.38550000
_cell_angle_alpha   92.19240000
_cell_angle_beta   105.35500000
_cell_angle_gamma   91.22870000
_symmetry_Int_Tables_number   1
_chemical_formula_structural   Zn2H17C18N2O7
_chemical_formula_sum   'Zn4 H34 C36 N4 O14'
_cell_volume   960.18117275
_cell_formula_units_Z   2
loop_
 _symmetry_equiv_pos_site_id
 _symmetry_equiv_pos_as_xyz
  1  'x, y, z'
loop_
 _atom_site_type_symbol
 _atom_site_label
 _atom_site_symmetry_multiplicity
 _atom_site_fract_x
 _atom_site_fract_y
 _atom_site_fract_z
 _atom_site_occupancy
  Zn  Zn0  1  0.33862000  0.10545000  0.68636000  1.0
  Zn  Zn1  1  0.66137000  0.89456000  0.31364000  1.0
  Zn  Zn2  1  0.67412000  0.06214000  0.53756000  1.0
  Zn  Zn3  1  0.32588000  0.93786000  0.46245000  1.0
  H  H4  1  0.50175000  0.08336000  0.93974000  1.0
  H  H5  1  0.49824000  0.91665000  0.06025000  1.0
  H  H6  1  0.73962000  0.21087000  0.07268000  1.0
  H  H7  1  0.26039000  0.78912000  0.92729000  1.0
  H  H8  1  0.66462000  0.54245000  0.83742000  1.0
  H  H9  1  0.33538000  0.45756000  0.16256000  1.0
  H  H10  1  0.42784000  0.40212000  0.72054000  1.0
  H  H11  1  0.57212000  0.59790000  0.27945000  1.0
  H  H12  1  0.10604000  0.68707000  0.40903000  1.0
  H  H13  1  0.89398000  0.31291000  0.59097000  1.0
  H  H14  1  0.96884000  0.53603000  0.24241000  1.0
  H  H15  1  0.03115000  0.46396000  0.75759000  1.0
  H  H16  1  0.02971000  0.87689000  0.03839000  1.0
  H  H17  1  0.97031000  0.12310000  0.96163000  1.0
  H  H18  1  0.16671000  0.01316000  0.21701000  1.0
  H  H19  1  0.83328000  0.98682000  0.78300000  1.0
  H  H20  1  0.85627000  0.65197000  0.95364000  1.0
  H  H21  1  0.14371000  0.34805000  0.04636000  1.0
  H  H22  1  0.92368000  0.41473000  0.11503000  1.0
  H  H23  1  0.07630000  0.58527000  0.88497000  1.0
  H  H24  1  0.13845000  0.40858000  0.38736000  1.0
  H  H25  1  0.86155000  0.59141000  0.61263000  1.0
  H  H26  1  0.98981000  0.38479000  0.46412000  1.0
  H  H27  1  0.01021000  0.61521000  0.53588000  1.0
  H  H28  1  0.84170000  0.32935000  0.26789000  1.0
  H  H29  1  0.15828000  0.67065000  0.73211000  1.0
  H  H30  1  0.00682000  0.22779000  0.24588000  1.0
  H  H31  1  0.99317000  0.77220000  0.75413000  1.0
  H  H32  1  0.40201000  0.50946000  0.37653000  1.0
  H  H33  1  0.59800000  0.49054000  0.62346000  1.0
  H  H34  1  0.61868000  0.52943000  0.42798000  1.0
  H  H35  1  0.38133000  0.47057000  0.57201000  1.0
  H  H36  1  0.50990000  0.90944000  0.65062000  1.0
  H  H37  1  0.49010000  0.09056000  0.34938000  1.0
  C  C38  1  0.54266000  0.18610000  0.92180000  1.0
  C  C39  1  0.45732000  0.81390000  0.07820000  1.0
  C  C40  1  0.67607000  0.25826000  0.99487000  1.0
  C  C41  1  0.32393000  0.74174000  0.00510000  1.0
  C  C42  1  0.73265000  0.38576000  0.96425000  1.0
  C  C43  1  0.26733000  0.61424000  0.03574000  1.0
  C  C44  1  0.63601000  0.44166000  0.86633000  1.0
  C  C45  1  0.36398000  0.55836000  0.13365000  1.0
  C  C46  1  0.50178000  0.36400000  0.79901000  1.0
  C  C47  1  0.49821000  0.63601000  0.20099000  1.0
  C  C48  1  0.08589000  0.72437000  0.32503000  1.0
  C  C49  1  0.91412000  0.27561000  0.67497000  1.0
  C  C50  1  0.01002000  0.64079000  0.23066000  1.0
  C  C51  1  0.98998000  0.35921000  0.76934000  1.0
  C  C52  1  0.99403000  0.69097000  0.12429000  1.0
  C  C53  1  0.00595000  0.30903000  0.87573000  1.0
  C  C54  1  0.04336000  0.83037000  0.11911000  1.0
  C  C55  1  0.95665000  0.16963000  0.88089000  1.0
  C  C56  1  0.11927000  0.90687000  0.21738000  1.0
  C  C57  1  0.88073000  0.09314000  0.78263000  1.0
  C  C58  1  0.94678000  0.59978000  0.01921000  1.0
  C  C59  1  0.05323000  0.40023000  0.98079000  1.0
  C  C60  1  0.89951000  0.44542000  0.02818000  1.0
  C  C61  1  0.10048000  0.55458000  0.97182000  1.0
  C  C62  1  0.17131000  0.22591000  0.48132000  1.0
  C  C63  1  0.82870000  0.77409000  0.51868000  1.0
  C  C64  1  0.05817000  0.33031000  0.41198000  1.0
  C  C65  1  0.94183000  0.66970000  0.58801000  1.0
  C  C66  1  0.94011000  0.25885000  0.30793000  1.0
  C  C67  1  0.05991000  0.74114000  0.69209000  1.0
  C  C68  1  0.85200000  0.13060000  0.33626000  1.0
  C  C69  1  0.14800000  0.86939000  0.66377000  1.0
  C  C70  1  0.52969000  0.32128000  0.42734000  1.0
  C  C71  1  0.47032000  0.67870000  0.57267000  1.0
  C  C72  1  0.50827000  0.47667000  0.44242000  1.0
  C  C73  1  0.49176000  0.52333000  0.55758000  1.0
  N  N74  1  0.46011000  0.23513000  0.82270000  1.0
  N  N75  1  0.53988000  0.76488000  0.17730000  1.0
  N  N76  1  0.14514000  0.85309000  0.31877000  1.0
  N  N77  1  0.85488000  0.14689000  0.68124000  1.0
  O  O78  1  0.58843000  0.25934000  0.51853000  1.0
  O  O79  1  0.41158000  0.74066000  0.48147000  1.0
  O  O80  1  0.49253000  0.26578000  0.32925000  1.0
  O  O81  1  0.50748000  0.73420000  0.67075000  1.0
  O  O82  1  0.21446000  0.24744000  0.58852000  1.0
  O  O83  1  0.78555000  0.75256000  0.41147000  1.0
  O  O84  1  0.21657000  0.12808000  0.42742000  1.0
  O  O85  1  0.78341000  0.87191000  0.57258000  1.0
  O  O86  1  0.85272000  0.11663000  0.43672000  1.0
  O  O87  1  0.14730000  0.88336000  0.56329000  1.0
  O  O88  1  0.78165000  0.04406000  0.25413000  1.0
  O  O89  1  0.21837000  0.95594000  0.74589000  1.0
  O  O90  1  0.49444000  0.00544000  0.62089000  1.0
  O  O91  1  0.50556000  0.99456000  0.37912000  1.0
