# generated using pymatgen
data_CdH8C6N8O5
_symmetry_space_group_name_H-M   'P 1'
_cell_length_a   8.96666000
_cell_length_b   9.12192000
_cell_length_c   13.94540000
_cell_angle_alpha   108.38000000
_cell_angle_beta   90.00000000
_cell_angle_gamma   90.00000000
_symmetry_Int_Tables_number   1
_chemical_formula_structural   CdH8C6N8O5
_chemical_formula_sum   'Cd4 H32 C24 N32 O20'
_cell_volume   1082.44990111
_cell_formula_units_Z   4
loop_
 _symmetry_equiv_pos_site_id
 _symmetry_equiv_pos_as_xyz
  1  'x, y, z'
loop_
 _atom_site_type_symbol
 _atom_site_label
 _atom_site_symmetry_multiplicity
 _atom_site_fract_x
 _atom_site_fract_y
 _atom_site_fract_z
 _atom_site_occupancy
  Cd  Cd0  1  0.96249000  0.26988000  0.80670000  1.0
  Cd  Cd1  1  0.46249000  0.23012000  0.69330000  1.0
  Cd  Cd2  1  0.03751000  0.73012000  0.19330000  1.0
  Cd  Cd3  1  0.53751000  0.76988000  0.30670000  1.0
  H  H4  1  0.15079000  0.10336000  0.12047000  1.0
  H  H5  1  0.65079000  0.39664000  0.37953000  1.0
  H  H6  1  0.84921000  0.89664000  0.87953000  1.0
  H  H7  1  0.34920000  0.60336000  0.62047000  1.0
  H  H8  1  0.34356000  0.27045000  0.93628000  1.0
  H  H9  1  0.84356000  0.22955000  0.56372000  1.0
  H  H10  1  0.65644000  0.72955000  0.06372000  1.0
  H  H11  1  0.15644000  0.77045000  0.43628000  1.0
  H  H12  1  0.37428000  0.17954000  0.02796000  1.0
  H  H13  1  0.87428000  0.32046000  0.47204000  1.0
  H  H14  1  0.62572000  0.82046000  0.97204000  1.0
  H  H15  1  0.12572000  0.67954000  0.52796000  1.0
  H  H16  1  0.85223000  0.71375000  0.62997000  1.0
  H  H17  1  0.35223000  0.78625000  0.87003000  1.0
  H  H18  1  0.14778000  0.28625000  0.37003000  1.0
  H  H19  1  0.64777000  0.21375000  0.12997000  1.0
  H  H20  1  0.64326000  0.50915000  0.78767000  1.0
  H  H21  1  0.14326000  0.99085000  0.71233000  1.0
  H  H22  1  0.35674000  0.49085000  0.21233000  1.0
  H  H23  1  0.85674000  0.00915000  0.28767000  1.0
  H  H24  1  0.62004000  0.62000000  0.70507000  1.0
  H  H25  1  0.12004000  0.88000000  0.79493000  1.0
  H  H26  1  0.37996000  0.38000000  0.29493000  1.0
  H  H27  1  0.87996000  0.12000000  0.20507000  1.0
  H  H28  1  0.94057000  0.00078000  0.60749000  1.0
  H  H29  1  0.44057000  0.49922000  0.89251000  1.0
  H  H30  1  0.05943000  0.99922000  0.39251000  1.0
  H  H31  1  0.55943000  0.50078000  0.10749000  1.0
  H  H32  1  0.09460000  0.09439000  0.59986000  1.0
  H  H33  1  0.59460000  0.40561000  0.90014000  1.0
  H  H34  1  0.90540000  0.90561000  0.40014000  1.0
  H  H35  1  0.40540000  0.59439000  0.09986000  1.0
  C  C36  1  0.92418000  0.27123000  0.02447000  1.0
  C  C37  1  0.42418000  0.22877000  0.47553000  1.0
  C  C38  1  0.07582000  0.72877000  0.97553000  1.0
  C  C39  1  0.57582000  0.77123000  0.52447000  1.0
  C  C40  1  0.15802000  0.21958000  0.00556000  1.0
  C  C41  1  0.65802000  0.28042000  0.49444000  1.0
  C  C42  1  0.84198000  0.78042000  0.99444000  1.0
  C  C43  1  0.34198000  0.71958000  0.50556000  1.0
  C  C44  1  0.77728000  0.33753000  0.01037000  1.0
  C  C45  1  0.27728000  0.16247000  0.48963000  1.0
  C  C46  1  0.22272000  0.66247000  0.98963000  1.0
  C  C47  1  0.72272000  0.83753000  0.51037000  1.0
  C  C48  1  0.06724000  0.50628000  0.70451000  1.0
  C  C49  1  0.56724000  0.99373000  0.79549000  1.0
  C  C50  1  0.93276000  0.49373000  0.29549000  1.0
  C  C51  1  0.43276000  0.00627000  0.20451000  1.0
  C  C52  1  0.83252000  0.55430000  0.71821000  1.0
  C  C53  1  0.33252000  0.94570000  0.78179000  1.0
  C  C54  1  0.16748000  0.44570000  0.28179000  1.0
  C  C55  1  0.66748000  0.05430000  0.21821000  1.0
  C  C56  1  0.21019000  0.43277000  0.71611000  1.0
  C  C57  1  0.71019000  0.06723000  0.78389000  1.0
  C  C58  1  0.78981000  0.56722000  0.28389000  1.0
  C  C59  1  0.28981000  0.93277000  0.21611000  1.0
  N  N60  1  0.10179000  0.17183000  0.08142000  1.0
  N  N61  1  0.60179000  0.32817000  0.41858000  1.0
  N  N62  1  0.89821000  0.82817000  0.91858000  1.0
  N  N63  1  0.39821000  0.67183000  0.58142000  1.0
  N  N64  1  0.95354000  0.20469000  0.09421000  1.0
  N  N65  1  0.45354000  0.29531000  0.40579000  1.0
  N  N66  1  0.04646000  0.79531000  0.90579000  1.0
  N  N67  1  0.54646000  0.70469000  0.59421000  1.0
  N  N68  1  0.04529000  0.27990000  0.96604000  1.0
  N  N69  1  0.54529000  0.22010000  0.53396000  1.0
  N  N70  1  0.95471000  0.72010000  0.03396000  1.0
  N  N71  1  0.45471000  0.77990000  0.46604000  1.0
  N  N72  1  0.30287000  0.20792000  0.97951000  1.0
  N  N73  1  0.80287000  0.29208000  0.52049000  1.0
  N  N74  1  0.69713000  0.79208000  0.02049000  1.0
  N  N75  1  0.19713000  0.70792000  0.47951000  1.0
  N  N76  1  0.89874000  0.63554000  0.66317000  1.0
  N  N77  1  0.39873000  0.86447000  0.83683000  1.0
  N  N78  1  0.10127000  0.36447000  0.33683000  1.0
  N  N79  1  0.60127000  0.13553000  0.16317000  1.0
  N  N80  1  0.04743000  0.60355000  0.65218000  1.0
  N  N81  1  0.54743000  0.89645000  0.84782000  1.0
  N  N82  1  0.95258000  0.39644000  0.34781000  1.0
  N  N83  1  0.45258000  0.10355000  0.15218000  1.0
  N  N84  1  0.93891000  0.47235000  0.74650000  1.0
  N  N85  1  0.43891000  0.02765000  0.75350000  1.0
  N  N86  1  0.06109000  0.52764000  0.25350000  1.0
  N  N87  1  0.56109000  0.97235000  0.24650000  1.0
  N  N88  1  0.68614000  0.55610000  0.73647000  1.0
  N  N89  1  0.18614000  0.94390000  0.76353000  1.0
  N  N90  1  0.31386000  0.44390000  0.26353000  1.0
  N  N91  1  0.81386000  0.05610000  0.23647000  1.0
  O  O92  1  0.67198000  0.34070000  0.07212000  1.0
  O  O93  1  0.17198000  0.15930000  0.42788000  1.0
  O  O94  1  0.32802000  0.65930000  0.92789000  1.0
  O  O95  1  0.82802000  0.84070000  0.57212000  1.0
  O  O96  1  0.76741000  0.39018000  0.93626000  1.0
  O  O97  1  0.26741000  0.10982000  0.56374000  1.0
  O  O98  1  0.23259000  0.60982000  0.06374000  1.0
  O  O99  1  0.73259000  0.89018000  0.43626000  1.0
  O  O100  1  0.20681000  0.33249000  0.76259000  1.0
  O  O101  1  0.70681000  0.16751000  0.73741000  1.0
  O  O102  1  0.79319000  0.66751000  0.23741000  1.0
  O  O103  1  0.29319000  0.83249000  0.26259000  1.0
  O  O104  1  0.32890000  0.46505000  0.67705000  1.0
  O  O105  1  0.82890000  0.03494000  0.82295000  1.0
  O  O106  1  0.67110000  0.53495000  0.32295000  1.0
  O  O107  1  0.17110000  0.96505000  0.17705000  1.0
  O  O108  1  0.99762000  0.09872000  0.63687000  1.0
  O  O109  1  0.49762000  0.40129000  0.86313000  1.0
  O  O110  1  0.00238000  0.90129000  0.36313000  1.0
  O  O111  1  0.50238000  0.59872000  0.13687000  1.0
