# generated using pymatgen
data_H16PbC26(NO)4
_symmetry_space_group_name_H-M   'P 1'
_cell_length_a   9.59725000
_cell_length_b   11.16350000
_cell_length_c   11.95788314
_cell_angle_alpha   62.26722712
_cell_angle_beta   86.90796114
_cell_angle_gamma   72.91520000
_symmetry_Int_Tables_number   1
_chemical_formula_structural   H16PbC26(NO)4
_chemical_formula_sum   'H32 Pb2 C52 N8 O8'
_cell_volume   1078.74369380
_cell_formula_units_Z   2
loop_
 _symmetry_equiv_pos_site_id
 _symmetry_equiv_pos_as_xyz
  1  'x, y, z'
loop_
 _atom_site_type_symbol
 _atom_site_label
 _atom_site_symmetry_multiplicity
 _atom_site_fract_x
 _atom_site_fract_y
 _atom_site_fract_z
 _atom_site_occupancy
  H  H0  1  0.48943000  0.68283000  0.43793000  1.0
  H  H1  1  0.51057000  0.31717000  0.56207000  1.0
  H  H2  1  0.23793000  0.85523000  0.36708000  1.0
  H  H3  1  0.76207000  0.14477000  0.63292000  1.0
  H  H4  1  0.15344000  0.99302000  0.13291000  1.0
  H  H5  1  0.84656000  0.00699000  0.86709000  1.0
  H  H6  1  0.92431000  0.55301000  0.05834000  1.0
  H  H7  1  0.07568000  0.44700000  0.94166000  1.0
  H  H8  1  0.86227000  0.67404000  0.82113000  1.0
  H  H9  1  0.13773000  0.32597000  0.17887000  1.0
  H  H10  1  0.61399000  0.85065000  0.73006000  1.0
  H  H11  1  0.38602000  0.14936000  0.26994000  1.0
  H  H12  1  0.20664000  0.04180000  0.91219000  1.0
  H  H13  1  0.79336000  0.95821000  0.08781000  1.0
  H  H14  1  0.37399000  0.98979000  0.76503000  1.0
  H  H15  1  0.62601000  0.01021000  0.23498000  1.0
  H  H16  1  0.56958000  0.55969000  0.71787000  1.0
  H  H17  1  0.43042000  0.44031000  0.28213000  1.0
  H  H18  1  0.73853000  0.31251000  0.11173000  1.0
  H  H19  1  0.26148000  0.68749000  0.88827000  1.0
  H  H20  1  0.96823000  0.18842000  0.05299000  1.0
  H  H21  1  0.03178000  0.81159000  0.94700000  1.0
  H  H22  1  0.99520000  0.24852000  0.82460000  1.0
  H  H23  1  0.00480000  0.75148000  0.17539000  1.0
  H  H24  1  0.60130000  0.20514000  0.43148000  1.0
  H  H25  1  0.39870000  0.79485000  0.56852000  1.0
  H  H26  1  0.78712000  0.78415000  0.47308000  1.0
  H  H27  1  0.21288000  0.21584000  0.52692000  1.0
  H  H28  1  0.00418000  0.84856000  0.36888000  1.0
  H  H29  1  0.99582000  0.15145000  0.63111000  1.0
  H  H30  1  0.02458000  0.09309000  0.30546000  1.0
  H  H31  1  0.97542000  0.90692000  0.69453000  1.0
  Pb  Pb32  1  0.81488000  0.56842000  0.33826000  1.0
  Pb  Pb33  1  0.18512000  0.43157000  0.66174000  1.0
  C  C34  1  0.44934000  0.74406000  0.33751000  1.0
  C  C35  1  0.55065000  0.25595000  0.66249000  1.0
  C  C36  1  0.30797000  0.84170000  0.29659000  1.0
  C  C37  1  0.69203000  0.15830000  0.70341000  1.0
  C  C38  1  0.26224000  0.91609000  0.16849000  1.0
  C  C39  1  0.73776000  0.08392000  0.83151000  1.0
  C  C40  1  0.35649000  0.89165000  0.08151000  1.0
  C  C41  1  0.64350000  0.10835000  0.91849000  1.0
  C  C42  1  0.49730000  0.78965000  0.13127000  1.0
  C  C43  1  0.50269000  0.21035000  0.86873000  1.0
  C  C44  1  0.81897000  0.63336000  0.01383000  1.0
  C  C45  1  0.18103000  0.36665000  0.98617000  1.0
  C  C46  1  0.78331000  0.70003000  0.88175000  1.0
  C  C47  1  0.21669000  0.29998000  0.11825000  1.0
  C  C48  1  0.64700000  0.79897000  0.83168000  1.0
  C  C49  1  0.35301000  0.20104000  0.16832000  1.0
  C  C50  1  0.54867000  0.83223000  0.91270000  1.0
  C  C51  1  0.45133000  0.16778000  0.08730000  1.0
  C  C52  1  0.59513000  0.75971000  0.04487000  1.0
  C  C53  1  0.40487000  0.24029000  0.95513000  1.0
  C  C54  1  0.31499000  0.96386000  0.94785000  1.0
  C  C55  1  0.68501000  0.03615000  0.05215000  1.0
  C  C56  1  0.40719000  0.93519000  0.86655000  1.0
  C  C57  1  0.59281000  0.06481000  0.13345000  1.0
  C  C58  1  0.80535000  0.44877000  0.61963000  1.0
  C  C59  1  0.19465000  0.55123000  0.38037000  1.0
  C  C60  1  0.78637000  0.40977000  0.75664000  1.0
  C  C61  1  0.21364000  0.59023000  0.24336000  1.0
  C  C62  1  0.65789000  0.47863000  0.79035000  1.0
  C  C63  1  0.34211000  0.52137000  0.20965000  1.0
  C  C64  1  0.64103000  0.44239000  0.91813000  1.0
  C  C65  1  0.35898000  0.55761000  0.08187000  1.0
  C  C66  1  0.75365000  0.33809000  0.01322000  1.0
  C  C67  1  0.24636000  0.66190000  0.98679000  1.0
  C  C68  1  0.88094000  0.26955000  0.97931000  1.0
  C  C69  1  0.11907000  0.73045000  0.02069000  1.0
  C  C70  1  0.89707000  0.30386000  0.85202000  1.0
  C  C71  1  0.10293000  0.69613000  0.14798000  1.0
  C  C72  1  0.83073000  0.30308000  0.34099000  1.0
  C  C73  1  0.16926000  0.69692000  0.65901000  1.0
  C  C74  1  0.81506000  0.16292000  0.36583000  1.0
  C  C75  1  0.18494000  0.83708000  0.63417000  1.0
  C  C76  1  0.68979000  0.12833000  0.41689000  1.0
  C  C77  1  0.31021000  0.87166000  0.58311000  1.0
  C  C78  1  0.67955000  0.99247000  0.45374000  1.0
  C  C79  1  0.32045000  0.00753000  0.54626000  1.0
  C  C80  1  0.79529000  0.89082000  0.43933000  1.0
  C  C81  1  0.20472000  0.10918000  0.56067000  1.0
  C  C82  1  0.91714000  0.92831000  0.38163000  1.0
  C  C83  1  0.08286000  0.07168000  0.61837000  1.0
  C  C84  1  0.92759000  0.06345000  0.34559000  1.0
  C  C85  1  0.07241000  0.93654000  0.65441000  1.0
  N  N86  1  0.54152000  0.71984000  0.25758000  1.0
  N  N87  1  0.45848000  0.28017000  0.74241000  1.0
  N  N88  1  0.72863000  0.66184000  0.09263000  1.0
  N  N89  1  0.27137000  0.33816000  0.90738000  1.0
  N  N90  1  0.50726000  0.51878000  0.94178000  1.0
  N  N91  1  0.49275000  0.48122000  0.05822000  1.0
  N  N92  1  0.55778000  0.94916000  0.50996000  1.0
  N  N93  1  0.44222000  0.05083000  0.49005000  1.0
  O  O94  1  0.70450000  0.55246000  0.53647000  1.0
  O  O95  1  0.29549000  0.44753000  0.46353000  1.0
  O  O96  1  0.92020000  0.37958000  0.59203000  1.0
  O  O97  1  0.07979000  0.62040000  0.40797000  1.0
  O  O98  1  0.72773000  0.37847000  0.37670000  1.0
  O  O99  1  0.27226000  0.62153000  0.62329000  1.0
  O  O100  1  0.94088000  0.33975000  0.29166000  1.0
  O  O101  1  0.05911000  0.66026000  0.70833000  1.0
