# generated using pymatgen
data_Cu2Mo4H16C10N6O13
_symmetry_space_group_name_H-M   'P 1'
_cell_length_a   9.74794000
_cell_length_b   11.82910000
_cell_length_c   12.06271162
_cell_angle_alpha   112.36916111
_cell_angle_beta   106.55593749
_cell_angle_gamma   104.76100000
_symmetry_Int_Tables_number   1
_chemical_formula_structural   Cu2Mo4H16C10N6O13
_chemical_formula_sum   'Cu4 Mo8 H32 C20 N12 O26'
_cell_volume   1124.67889585
_cell_formula_units_Z   2
loop_
 _symmetry_equiv_pos_site_id
 _symmetry_equiv_pos_as_xyz
  1  'x, y, z'
loop_
 _atom_site_type_symbol
 _atom_site_label
 _atom_site_symmetry_multiplicity
 _atom_site_fract_x
 _atom_site_fract_y
 _atom_site_fract_z
 _atom_site_occupancy
  Cu  Cu0  1  0.26840000  0.76983000  0.53808000  1.0
  Cu  Cu1  1  0.73160000  0.23017000  0.46192000  1.0
  Cu  Cu2  1  0.69628000  0.69600000  0.39298000  1.0
  Cu  Cu3  1  0.30372000  0.30400000  0.60702000  1.0
  Mo  Mo4  1  0.68326000  0.25108000  0.99971000  1.0
  Mo  Mo5  1  0.31673000  0.74891000  0.00028000  1.0
  Mo  Mo6  1  0.92797000  0.56004000  0.22565000  1.0
  Mo  Mo7  1  0.29769000  0.66598000  0.22731000  1.0
  Mo  Mo8  1  0.07203000  0.43996000  0.77435000  1.0
  Mo  Mo9  1  0.70231000  0.33402000  0.77269000  1.0
  Mo  Mo10  1  0.93961000  0.63634000  0.99868000  1.0
  Mo  Mo11  1  0.06038000  0.36365000  0.00132000  1.0
  H  H12  1  0.03913000  0.78244000  0.65796000  1.0
  H  H13  1  0.61690000  0.87632000  0.65782000  1.0
  H  H14  1  0.96087000  0.21756000  0.34204000  1.0
  H  H15  1  0.38311000  0.12369000  0.34218000  1.0
  H  H16  1  0.08746000  0.82906000  0.82619000  1.0
  H  H17  1  0.73869000  0.99658000  0.82595000  1.0
  H  H18  1  0.91255000  0.17094000  0.17381000  1.0
  H  H19  1  0.26131000  0.00343000  0.17405000  1.0
  H  H20  1  0.27831000  0.98817000  0.44257000  1.0
  H  H21  1  0.16363000  0.45675000  0.44236000  1.0
  H  H22  1  0.72169000  0.01183000  0.55743000  1.0
  H  H23  1  0.83637000  0.54325000  0.55764000  1.0
  H  H24  1  0.26807000  0.06281000  0.89272000  1.0
  H  H25  1  0.62641000  0.82948000  0.89360000  1.0
  H  H26  1  0.73193000  0.93719000  0.10728000  1.0
  H  H27  1  0.37359000  0.17052000  0.10640000  1.0
  H  H28  1  0.32583000  0.93450000  0.81902000  1.0
  H  H29  1  0.49300000  0.88345000  0.81859000  1.0
  H  H30  1  0.67417000  0.06550000  0.18098000  1.0
  H  H31  1  0.50700000  0.11655000  0.18141000  1.0
  H  H32  1  0.24312000  0.21237000  0.79430000  1.0
  H  H33  1  0.55269000  0.58219000  0.79629000  1.0
  H  H34  1  0.75688000  0.78763000  0.20570000  1.0
  H  H35  1  0.44731000  0.41781000  0.20371000  1.0
  H  H36  1  0.91180000  0.93843000  0.66783000  1.0
  H  H37  1  0.75500000  0.73065000  0.66821000  1.0
  H  H38  1  0.08820000  0.06158000  0.33217000  1.0
  H  H39  1  0.24501000  0.26935000  0.33179000  1.0
  H  H40  1  0.99785000  0.02240000  0.84272000  1.0
  H  H41  1  0.84586000  0.82010000  0.84310000  1.0
  H  H42  1  0.00215000  0.97760000  0.15728000  1.0
  H  H43  1  0.15414000  0.17990000  0.15690000  1.0
  C  C44  1  0.07377000  0.86760000  0.75580000  1.0
  C  C45  1  0.68145000  0.88836000  0.75584000  1.0
  C  C46  1  0.92623000  0.13240000  0.24420000  1.0
  C  C47  1  0.31855000  0.11164000  0.24416000  1.0
  C  C48  1  0.26577000  0.01928000  0.53470000  1.0
  C  C49  1  0.26861000  0.51722000  0.53508000  1.0
  C  C50  1  0.73424000  0.98072000  0.46530000  1.0
  C  C51  1  0.73139000  0.48277000  0.46491000  1.0
  C  C52  1  0.23524000  0.97232000  0.80046000  1.0
  C  C53  1  0.56561000  0.82787000  0.80091000  1.0
  C  C54  1  0.76476000  0.02768000  0.19954000  1.0
  C  C55  1  0.43438000  0.17212000  0.19908000  1.0
  C  C56  1  0.24588000  0.13324000  0.71223000  1.0
  C  C57  1  0.46717000  0.57967000  0.71368000  1.0
  C  C58  1  0.75411000  0.86676000  0.28777000  1.0
  C  C59  1  0.53283000  0.42034000  0.28632000  1.0
  C  C60  1  0.94825000  0.92290000  0.75429000  1.0
  C  C61  1  0.80565000  0.83181000  0.75447000  1.0
  C  C62  1  0.05176000  0.07710000  0.24571000  1.0
  C  C63  1  0.19435000  0.16819000  0.24553000  1.0
  N  N64  1  0.25891000  0.94406000  0.59366000  1.0
  N  N65  1  0.33426000  0.65072000  0.59404000  1.0
  N  N66  1  0.74109000  0.05594000  0.40634000  1.0
  N  N67  1  0.66574000  0.34928000  0.40596000  1.0
  N  N68  1  0.25753000  0.13692000  0.60481000  1.0
  N  N69  1  0.34767000  0.46947000  0.60595000  1.0
  N  N70  1  0.74247000  0.86308000  0.39519000  1.0
  N  N71  1  0.65233000  0.53053000  0.39405000  1.0
  N  N72  1  0.24593000  0.01832000  0.70586000  1.0
  N  N73  1  0.46011000  0.68798000  0.70683000  1.0
  N  N74  1  0.75407000  0.98168000  0.29414000  1.0
  N  N75  1  0.53989000  0.31202000  0.29317000  1.0
  O  O76  1  0.83096000  0.37893000  0.18148000  1.0
  O  O77  1  0.35005000  0.80223000  0.18164000  1.0
  O  O78  1  0.16904000  0.62107000  0.81852000  1.0
  O  O79  1  0.64995000  0.19776000  0.81836000  1.0
  O  O80  1  0.04682000  0.62937000  0.39389000  1.0
  O  O81  1  0.34804000  0.76463000  0.39508000  1.0
  O  O82  1  0.95318000  0.37062000  0.60611000  1.0
  O  O83  1  0.65195000  0.23536000  0.60492000  1.0
  O  O84  1  0.84940000  0.45220000  0.99969000  1.0
  O  O85  1  0.15059000  0.54779000  0.00031000  1.0
  O  O86  1  0.13624000  0.49675000  0.18701000  1.0
  O  O87  1  0.05021000  0.68868000  0.18524000  1.0
  O  O88  1  0.86376000  0.50325000  0.81299000  1.0
  O  O89  1  0.94979000  0.31131000  0.81476000  1.0
  O  O90  1  0.62830000  0.10177000  0.99997000  1.0
  O  O91  1  0.37169000  0.89822000  0.00003000  1.0
  O  O92  1  0.77755000  0.61119000  0.22389000  1.0
  O  O93  1  0.44744000  0.61419000  0.22688000  1.0
  O  O94  1  0.22245000  0.38881000  0.77611000  1.0
  O  O95  1  0.55256000  0.38581000  0.77312000  1.0
  O  O96  1  0.79235000  0.68989000  0.99777000  1.0
  O  O97  1  0.20764000  0.31011000  0.00223000  1.0
  O  O98  1  0.91652000  0.23857000  0.00131000  1.0
  O  O99  1  0.08347000  0.76143000  0.99869000  1.0
  O  O100  1  0.52841000  0.29509000  0.99832000  1.0
  O  O101  1  0.47159000  0.70491000  0.00168000  1.0
