# generated using pymatgen
data_H3RhC9O5F6
_symmetry_space_group_name_H-M   'P 1'
_cell_length_a   9.30803000
_cell_length_b   12.75790000
_cell_length_c   12.75780000
_cell_angle_alpha   109.89800000
_cell_angle_beta   91.81140000
_cell_angle_gamma   91.80960000
_symmetry_Int_Tables_number   1
_chemical_formula_structural   H3RhC9O5F6
_chemical_formula_sum   'H12 Rh4 C36 O20 F24'
_cell_volume   1422.39767509
_cell_formula_units_Z   4
loop_
 _symmetry_equiv_pos_site_id
 _symmetry_equiv_pos_as_xyz
  1  'x, y, z'
loop_
 _atom_site_type_symbol
 _atom_site_label
 _atom_site_symmetry_multiplicity
 _atom_site_fract_x
 _atom_site_fract_y
 _atom_site_fract_z
 _atom_site_occupancy
  H  H0  1  0.90749000  0.20444000  0.32357000  1.0
  H  H1  1  0.09257000  0.67642000  0.79555000  1.0
  H  H2  1  0.09255000  0.79555000  0.67641000  1.0
  H  H3  1  0.90749000  0.32357000  0.20446000  1.0
  H  H4  1  0.79034000  0.83252000  0.07074000  1.0
  H  H5  1  0.20969000  0.92928000  0.16749000  1.0
  H  H6  1  0.20967000  0.16746000  0.92927000  1.0
  H  H7  1  0.79039000  0.07071000  0.83252000  1.0
  H  H8  1  0.72763000  0.74749000  0.86703000  1.0
  H  H9  1  0.27242000  0.13299000  0.25250000  1.0
  H  H10  1  0.27240000  0.25248000  0.13297000  1.0
  H  H11  1  0.72766000  0.86701000  0.74751000  1.0
  Rh  Rh12  1  0.95361000  0.99989000  0.40981000  1.0
  Rh  Rh13  1  0.04638000  0.59018000  0.00012000  1.0
  Rh  Rh14  1  0.04640000  0.00011000  0.59017000  1.0
  Rh  Rh15  1  0.95361000  0.40982000  0.99989000  1.0
  C  C16  1  0.23674000  0.91789000  0.41299000  1.0
  C  C17  1  0.76323000  0.58700000  0.08214000  1.0
  C  C18  1  0.76325000  0.08213000  0.58698000  1.0
  C  C19  1  0.23674000  0.41302000  0.91788000  1.0
  C  C20  1  0.38102000  0.87701000  0.35959000  1.0
  C  C21  1  0.61897000  0.64039000  0.12301000  1.0
  C  C22  1  0.61898000  0.12300000  0.64038000  1.0
  C  C23  1  0.38102000  0.35962000  0.87698000  1.0
  C  C24  1  0.11398000  0.19857000  0.54194000  1.0
  C  C25  1  0.88604000  0.45806000  0.80144000  1.0
  C  C26  1  0.88603000  0.80142000  0.45805000  1.0
  C  C27  1  0.11396000  0.54194000  0.19858000  1.0
  C  C28  1  0.18434000  0.31654000  0.56510000  1.0
  C  C29  1  0.81564000  0.43488000  0.68346000  1.0
  C  C30  1  0.81562000  0.68347000  0.43490000  1.0
  C  C31  1  0.18435000  0.56511000  0.31654000  1.0
  C  C32  1  0.88453000  0.16891000  0.23385000  1.0
  C  C33  1  0.11549000  0.76615000  0.83108000  1.0
  C  C34  1  0.11548000  0.83107000  0.76614000  1.0
  C  C35  1  0.88454000  0.23384000  0.16893000  1.0
  C  C36  1  0.85992000  0.04806000  0.18598000  1.0
  C  C37  1  0.14006000  0.81402000  0.95193000  1.0
  C  C38  1  0.14006000  0.95193000  0.81402000  1.0
  C  C39  1  0.85992000  0.18597000  0.04806000  1.0
  C  C40  1  0.82035000  0.99859000  0.06625000  1.0
  C  C41  1  0.17964000  0.93375000  0.00141000  1.0
  C  C42  1  0.17964000  0.00139000  0.93376000  1.0
  C  C43  1  0.82035000  0.06623000  0.99860000  1.0
  C  C44  1  0.78690000  0.88387000  0.01805000  1.0
  C  C45  1  0.21314000  0.98197000  0.11612000  1.0
  C  C46  1  0.21312000  0.11611000  0.98195000  1.0
  C  C47  1  0.78691000  0.01802000  0.88388000  1.0
  C  C48  1  0.75281000  0.83695000  0.90405000  1.0
  C  C49  1  0.24723000  0.09595000  0.16303000  1.0
  C  C50  1  0.24722000  0.16302000  0.09594000  1.0
  C  C51  1  0.75283000  0.90404000  0.83696000  1.0
  O  O52  1  0.14303000  0.93482000  0.34671000  1.0
  O  O53  1  0.85695000  0.65328000  0.06519000  1.0
  O  O54  1  0.85698000  0.06519000  0.65326000  1.0
  O  O55  1  0.14303000  0.34675000  0.93482000  1.0
  O  O56  1  0.22960000  0.93348000  0.51621000  1.0
  O  O57  1  0.77042000  0.48378000  0.06656000  1.0
  O  O58  1  0.77041000  0.06654000  0.48376000  1.0
  O  O59  1  0.22958000  0.51625000  0.93348000  1.0
  O  O60  1  0.04803000  0.15591000  0.44729000  1.0
  O  O61  1  0.95199000  0.55272000  0.84410000  1.0
  O  O62  1  0.95203000  0.84408000  0.55271000  1.0
  O  O63  1  0.04798000  0.44728000  0.15591000  1.0
  O  O64  1  0.86716000  0.84225000  0.38143000  1.0
  O  O65  1  0.13283000  0.61857000  0.15775000  1.0
  O  O66  1  0.13286000  0.15775000  0.61857000  1.0
  O  O67  1  0.86718000  0.38143000  0.84224000  1.0
  O  O68  1  0.87248000  0.98530000  0.24327000  1.0
  O  O69  1  0.12748000  0.75674000  0.01470000  1.0
  O  O70  1  0.12751000  0.01468000  0.75673000  1.0
  O  O71  1  0.87249000  0.24326000  0.98530000  1.0
  F  F72  1  0.45664000  0.82511000  0.41792000  1.0
  F  F73  1  0.54333000  0.58211000  0.17492000  1.0
  F  F74  1  0.54331000  0.17489000  0.58210000  1.0
  F  F75  1  0.45664000  0.41794000  0.82508000  1.0
  F  F76  1  0.35801000  0.80662000  0.25349000  1.0
  F  F77  1  0.64198000  0.74652000  0.19340000  1.0
  F  F78  1  0.64202000  0.19338000  0.74651000  1.0
  F  F79  1  0.35801000  0.25351000  0.80659000  1.0
  F  F80  1  0.46224000  0.96729000  0.35737000  1.0
  F  F81  1  0.53776000  0.64263000  0.03273000  1.0
  F  F82  1  0.53779000  0.03271000  0.64263000  1.0
  F  F83  1  0.46223000  0.35738000  0.96726000  1.0
  F  F84  1  0.12432000  0.36777000  0.49880000  1.0
  F  F85  1  0.87558000  0.50120000  0.63221000  1.0
  F  F86  1  0.87557000  0.63222000  0.50121000  1.0
  F  F87  1  0.12438000  0.49882000  0.36781000  1.0
  F  F88  1  0.32703000  0.30918000  0.54632000  1.0
  F  F89  1  0.67293000  0.45364000  0.69086000  1.0
  F  F90  1  0.67291000  0.69086000  0.45363000  1.0
  F  F91  1  0.32705000  0.54635000  0.30917000  1.0
  F  F92  1  0.16973000  0.38262000  0.67312000  1.0
  F  F93  1  0.83026000  0.32687000  0.61740000  1.0
  F  F94  1  0.83024000  0.61738000  0.32688000  1.0
  F  F95  1  0.16971000  0.67314000  0.38260000  1.0
