# generated using pymatgen
data_ZnH12C16(N5O2)2
_symmetry_space_group_name_H-M   'P 1'
_cell_length_a   5.52278000
_cell_length_b   9.58284000
_cell_length_c   17.53270000
_cell_angle_alpha   89.99900000
_cell_angle_beta   89.99880000
_cell_angle_gamma   92.42840000
_symmetry_Int_Tables_number   1
_chemical_formula_structural   ZnH12C16(N5O2)2
_chemical_formula_sum   'Zn2 H24 C32 N20 O8'
_cell_volume   927.06586171
_cell_formula_units_Z   2
loop_
 _symmetry_equiv_pos_site_id
 _symmetry_equiv_pos_as_xyz
  1  'x, y, z'
loop_
 _atom_site_type_symbol
 _atom_site_label
 _atom_site_symmetry_multiplicity
 _atom_site_fract_x
 _atom_site_fract_y
 _atom_site_fract_z
 _atom_site_occupancy
  Zn  Zn0  1  0.15445000  0.10306000  0.89091000  1.0
  Zn  Zn1  1  0.15445000  0.60305000  0.10910000  1.0
  H  H2  1  0.74428000  0.84613000  0.07327000  1.0
  H  H3  1  0.74429000  0.34615000  0.92674000  1.0
  H  H4  1  0.76273000  0.99487000  0.01435000  1.0
  H  H5  1  0.76274000  0.49489000  0.98565000  1.0
  H  H6  1  0.67439000  0.16496000  0.10572000  1.0
  H  H7  1  0.67442000  0.66497000  0.89428000  1.0
  H  H8  1  0.82058000  0.32021000  0.21173000  1.0
  H  H9  1  0.82062000  0.82022000  0.78826000  1.0
  H  H10  1  0.39901000  0.04432000  0.25761000  1.0
  H  H11  1  0.39903000  0.54431000  0.74239000  1.0
  H  H12  1  0.26175000  0.89301000  0.15005000  1.0
  H  H13  1  0.26177000  0.39302000  0.84996000  1.0
  H  H14  1  0.10976000  0.18834000  0.70901000  1.0
  H  H15  1  0.10974000  0.68836000  0.29099000  1.0
  H  H16  1  0.92118000  0.32845000  0.69247000  1.0
  H  H17  1  0.92114000  0.82846000  0.30753000  1.0
  H  H18  1  0.51607000  0.03899000  0.65843000  1.0
  H  H19  1  0.51608000  0.53897000  0.34157000  1.0
  H  H20  1  0.40906000  0.94788000  0.53135000  1.0
  H  H21  1  0.40907000  0.44785000  0.46866000  1.0
  H  H22  1  0.04659000  0.15707000  0.43643000  1.0
  H  H23  1  0.04660000  0.65706000  0.56357000  1.0
  H  H24  1  0.15637000  0.24984000  0.56504000  1.0
  H  H25  1  0.15636000  0.74983000  0.43496000  1.0
  C  C26  1  0.06502000  0.86678000  0.00827000  1.0
  C  C27  1  0.06503000  0.36679000  0.99173000  1.0
  C  C28  1  0.86885000  0.93082000  0.05292000  1.0
  C  C29  1  0.86887000  0.43083000  0.94709000  1.0
  C  C30  1  0.95914000  0.01925000  0.11990000  1.0
  C  C31  1  0.95916000  0.51926000  0.88010000  1.0
  C  C32  1  0.83384000  0.13891000  0.13851000  1.0
  C  C33  1  0.83387000  0.63892000  0.86149000  1.0
  C  C34  1  0.91407000  0.22606000  0.19744000  1.0
  C  C35  1  0.91410000  0.72607000  0.80256000  1.0
  C  C36  1  0.11954000  0.19141000  0.23839000  1.0
  C  C37  1  0.11957000  0.69141000  0.76160000  1.0
  C  C38  1  0.24225000  0.07018000  0.22352000  1.0
  C  C39  1  0.24228000  0.57018000  0.77648000  1.0
  C  C40  1  0.16140000  0.98536000  0.16348000  1.0
  C  C41  1  0.16143000  0.48537000  0.83652000  1.0
  C  C42  1  0.76837000  0.17219000  0.76394000  1.0
  C  C43  1  0.76836000  0.67218000  0.23606000  1.0
  C  C44  1  0.92081000  0.21350000  0.69724000  1.0
  C  C45  1  0.92079000  0.71350000  0.30276000  1.0
  C  C46  1  0.84379000  0.15196000  0.62096000  1.0
  C  C47  1  0.84379000  0.65195000  0.37904000  1.0
  C  C48  1  0.63500000  0.06580000  0.61077000  1.0
  C  C49  1  0.63500000  0.56579000  0.38923000  1.0
  C  C50  1  0.57139000  0.01454000  0.53905000  1.0
  C  C51  1  0.57140000  0.51452000  0.46095000  1.0
  C  C52  1  0.71895000  0.05012000  0.47695000  1.0
  C  C53  1  0.71895000  0.55010000  0.52305000  1.0
  C  C54  1  0.93124000  0.13366000  0.48545000  1.0
  C  C55  1  0.93123000  0.63365000  0.51456000  1.0
  C  C56  1  0.99170000  0.18433000  0.55750000  1.0
  C  C57  1  0.99170000  0.68432000  0.44250000  1.0
  N  N58  1  0.17152000  0.92084000  0.94536000  1.0
  N  N59  1  0.17152000  0.42084000  0.05464000  1.0
  N  N60  1  0.34342000  0.83199000  0.92325000  1.0
  N  N61  1  0.34341000  0.33198000  0.07675000  1.0
  N  N62  1  0.34292000  0.72795000  0.97058000  1.0
  N  N63  1  0.34290000  0.22795000  0.02943000  1.0
  N  N64  1  0.17006000  0.74657000  0.02458000  1.0
  N  N65  1  0.17005000  0.24658000  0.97542000  1.0
  N  N66  1  0.20991000  0.28613000  0.29813000  1.0
  N  N67  1  0.20992000  0.78612000  0.70185000  1.0
  N  N68  1  0.47143000  0.13136000  0.83865000  1.0
  N  N69  1  0.47143000  0.63135000  0.16135000  1.0
  N  N70  1  0.66454000  0.10075000  0.87784000  1.0
  N  N71  1  0.66454000  0.60074000  0.12216000  1.0
  N  N72  1  0.85430000  0.12543000  0.83159000  1.0
  N  N73  1  0.85429000  0.62543000  0.16841000  1.0
  N  N74  1  0.52642000  0.17684000  0.76814000  1.0
  N  N75  1  0.52641000  0.67684000  0.23186000  1.0
  N  N76  1  0.64879000  0.99881000  0.40157000  1.0
  N  N77  1  0.64880000  0.49879000  0.59844000  1.0
  O  O78  1  0.36357000  0.24396000  0.34349000  1.0
  O  O79  1  0.36358000  0.74393000  0.65649000  1.0
  O  O80  1  0.12950000  0.40561000  0.30029000  1.0
  O  O81  1  0.12950000  0.90559000  0.69968000  1.0
  O  O82  1  0.45773000  0.92635000  0.39488000  1.0
  O  O83  1  0.45774000  0.42633000  0.60512000  1.0
  O  O84  1  0.78393000  0.03029000  0.34662000  1.0
  O  O85  1  0.78393000  0.53028000  0.65339000  1.0
