# generated using pymatgen
data_LiH5C2N4O5
_symmetry_space_group_name_H-M   'P 1'
_cell_length_a   3.46582000
_cell_length_b   7.39047000
_cell_length_c   24.68850000
_cell_angle_alpha   84.53420000
_cell_angle_beta   89.99990000
_cell_angle_gamma   89.99980000
_symmetry_Int_Tables_number   1
_chemical_formula_structural   LiH5C2N4O5
_chemical_formula_sum   'Li4 H20 C8 N16 O20'
_cell_volume   629.49694541
_cell_formula_units_Z   4
loop_
 _symmetry_equiv_pos_site_id
 _symmetry_equiv_pos_as_xyz
  1  'x, y, z'
loop_
 _atom_site_type_symbol
 _atom_site_label
 _atom_site_symmetry_multiplicity
 _atom_site_fract_x
 _atom_site_fract_y
 _atom_site_fract_z
 _atom_site_occupancy
  Li  Li0  1  0.62017000  0.60774000  0.62974000  1.0
  Li  Li1  1  0.12017000  0.89226000  0.87026000  1.0
  Li  Li2  1  0.37983000  0.39226000  0.37026000  1.0
  Li  Li3  1  0.87983000  0.10774000  0.12974000  1.0
  H  H4  1  0.21067000  0.87296000  0.52800000  1.0
  H  H5  1  0.71068000  0.62704000  0.97200000  1.0
  H  H6  1  0.78932000  0.12704000  0.47200000  1.0
  H  H7  1  0.28933000  0.37296000  0.02800000  1.0
  H  H8  1  0.10051000  0.46561000  0.70137000  1.0
  H  H9  1  0.60051000  0.03439000  0.79863000  1.0
  H  H10  1  0.89949000  0.53440000  0.29863000  1.0
  H  H11  1  0.39950000  0.96561000  0.20137000  1.0
  H  H12  1  0.14302000  0.36849000  0.64721000  1.0
  H  H13  1  0.64301000  0.13151000  0.85279000  1.0
  H  H14  1  0.85698000  0.63151000  0.35280000  1.0
  H  H15  1  0.35699000  0.86849000  0.14721000  1.0
  H  H16  1  0.77107000  0.62910000  0.52599000  1.0
  H  H17  1  0.27108000  0.87091000  0.97401000  1.0
  H  H18  1  0.22893000  0.37090000  0.47401000  1.0
  H  H19  1  0.72893000  0.12910000  0.02599000  1.0
  H  H20  1  0.76989000  0.42610000  0.54805000  1.0
  H  H21  1  0.26990000  0.07390000  0.95195000  1.0
  H  H22  1  0.23011000  0.57390000  0.45195000  1.0
  H  H23  1  0.73011000  0.92610000  0.04805000  1.0
  C  C24  1  0.13515000  0.12471000  0.56564000  1.0
  C  C25  1  0.63515000  0.37529000  0.93436000  1.0
  C  C26  1  0.86484000  0.87529000  0.43436000  1.0
  C  C27  1  0.36485000  0.62471000  0.06564000  1.0
  C  C28  1  0.37914000  0.00876000  0.63968000  1.0
  C  C29  1  0.87915000  0.49123000  0.86032000  1.0
  C  C30  1  0.62086000  0.99123000  0.36032000  1.0
  C  C31  1  0.12086000  0.50877000  0.13968000  1.0
  N  N32  1  0.41664000  0.87468000  0.60794000  1.0
  N  N33  1  0.91664000  0.62532000  0.89206000  1.0
  N  N34  1  0.58335000  0.12532000  0.39206000  1.0
  N  N35  1  0.08336000  0.37468000  0.10794000  1.0
  N  N36  1  0.26512000  0.94946000  0.56068000  1.0
  N  N37  1  0.76512000  0.55054000  0.93931000  1.0
  N  N38  1  0.73488000  0.05054000  0.43931000  1.0
  N  N39  1  0.23488000  0.44946000  0.06069000  1.0
  N  N40  1  0.21282000  0.16326000  0.61747000  1.0
  N  N41  1  0.71282000  0.33673000  0.88253000  1.0
  N  N42  1  0.78718000  0.83674000  0.38253000  1.0
  N  N43  1  0.28718000  0.66327000  0.11747000  1.0
  N  N44  1  0.51254000  0.97979000  0.69488000  1.0
  N  N45  1  0.01254000  0.52021000  0.80512000  1.0
  N  N46  1  0.48746000  0.02021000  0.30512000  1.0
  N  N47  1  0.98746000  0.47979000  0.19488000  1.0
  O  O48  1  0.12135000  0.49110000  0.66156000  1.0
  O  O49  1  0.62135000  0.00890000  0.83844000  1.0
  O  O50  1  0.87865000  0.50890000  0.33844000  1.0
  O  O51  1  0.37865000  0.99110000  0.16156000  1.0
  O  O52  1  0.67085000  0.54624000  0.55622000  1.0
  O  O53  1  0.17085000  0.95377000  0.94378000  1.0
  O  O54  1  0.32915000  0.45376000  0.44379000  1.0
  O  O55  1  0.82915000  0.04624000  0.05622000  1.0
  O  O56  1  0.97057000  0.22476000  0.52763000  1.0
  O  O57  1  0.47057000  0.27524000  0.97237000  1.0
  O  O58  1  0.02943000  0.77524000  0.47237000  1.0
  O  O59  1  0.52943000  0.72475000  0.02763000  1.0
  O  O60  1  0.69620000  0.83842000  0.70834000  1.0
  O  O61  1  0.19622000  0.66157000  0.79166000  1.0
  O  O62  1  0.30378000  0.16157000  0.29165000  1.0
  O  O63  1  0.80379000  0.33844000  0.20834000  1.0
  O  O64  1  0.43586000  0.09909000  0.72573000  1.0
  O  O65  1  0.93585000  0.40090000  0.77427000  1.0
  O  O66  1  0.56415000  0.90091000  0.27427000  1.0
  O  O67  1  0.06416000  0.59910000  0.22573000  1.0
