# generated using pymatgen
data_Zn4H36C48O13
_symmetry_space_group_name_H-M   'P 1'
_cell_length_a   23.74777610
_cell_length_b   23.74590000
_cell_length_c   23.74580000
_cell_angle_alpha   113.83410000
_cell_angle_beta   107.33463649
_cell_angle_gamma   107.34039080
_symmetry_Int_Tables_number   1
_chemical_formula_structural   Zn4H36C48O13
_chemical_formula_sum   'Zn8 H72 C96 O26'
_cell_volume   10262.21142246
_cell_formula_units_Z   2
loop_
 _symmetry_equiv_pos_site_id
 _symmetry_equiv_pos_as_xyz
  1  'x, y, z'
loop_
 _atom_site_type_symbol
 _atom_site_label
 _atom_site_symmetry_multiplicity
 _atom_site_fract_x
 _atom_site_fract_y
 _atom_site_fract_z
 _atom_site_occupancy
  Zn  Zn0  1  0.94419000  0.89995000  0.45788000  1.0
  Zn  Zn1  1  0.94419000  0.04410000  0.48623000  1.0
  Zn  Zn2  1  0.05587000  0.04194000  0.59997000  1.0
  Zn  Zn3  1  0.05593000  0.01399000  0.45602000  1.0
  Zn  Zn4  1  0.05796000  0.59989000  0.04396000  1.0
  Zn  Zn5  1  0.94198000  0.45583000  0.89998000  1.0
  Zn  Zn6  1  0.05789000  0.45797000  0.01381000  1.0
  Zn  Zn7  1  0.94205000  0.48628000  0.04207000  1.0
  H  H8  1  0.07730000  0.87515000  0.29905000  1.0
  H  H9  1  0.92446000  0.62553000  0.20196000  1.0
  H  H10  1  0.07618000  0.77819000  0.20099000  1.0
  H  H11  1  0.92366000  0.72248000  0.29810000  1.0
  H  H12  1  0.07714000  0.20232000  0.77802000  1.0
  H  H13  1  0.92424000  0.29893000  0.72204000  1.0
  H  H14  1  0.07609000  0.29831000  0.87490000  1.0
  H  H15  1  0.92338000  0.20105000  0.62518000  1.0
  H  H16  1  0.09011000  0.78494000  0.89603000  1.0
  H  H17  1  0.90995000  0.60398000  0.71488000  1.0
  H  H18  1  0.09595000  0.89079000  0.78131000  1.0
  H  H19  1  0.90392000  0.71858000  0.60933000  1.0
  H  H20  1  0.90950000  0.30517000  0.19431000  1.0
  H  H21  1  0.09045000  0.30568000  0.19468000  1.0
  H  H22  1  0.90402000  0.18541000  0.29478000  1.0
  H  H23  1  0.09598000  0.20519000  0.31465000  1.0
  H  H24  1  0.39053000  0.78144000  0.18552000  1.0
  H  H25  1  0.39062000  0.60937000  0.20544000  1.0
  H  H26  1  0.61098000  0.89578000  0.30525000  1.0
  H  H27  1  0.61084000  0.71527000  0.30582000  1.0
  H  H28  1  0.60941000  0.31459000  0.71863000  1.0
  H  H29  1  0.60930000  0.29461000  0.89066000  1.0
  H  H30  1  0.38889000  0.19376000  0.60385000  1.0
  H  H31  1  0.38906000  0.19504000  0.78511000  1.0
  H  H32  1  0.13977000  0.79276000  0.99337000  1.0
  H  H33  1  0.14204000  0.71563000  0.98539000  1.0
  H  H34  1  0.09223000  0.74375000  0.01881000  1.0
  H  H35  1  0.86025000  0.50646000  0.70685000  1.0
  H  H36  1  0.85791000  0.51430000  0.78390000  1.0
  H  H37  1  0.90779000  0.48098000  0.75581000  1.0
  H  H38  1  0.10162000  0.01649000  0.75256000  1.0
  H  H39  1  0.13443000  0.98042000  0.69858000  1.0
  H  H40  1  0.15474000  0.98214000  0.77801000  1.0
  H  H41  1  0.89797000  0.74706000  0.48341000  1.0
  H  H42  1  0.86519000  0.80106000  0.51946000  1.0
  H  H43  1  0.84493000  0.72168000  0.51786000  1.0
  H  H44  1  0.85935000  0.35216000  0.15188000  1.0
  H  H45  1  0.85786000  0.34299000  0.07311000  1.0
  H  H46  1  0.90704000  0.42589000  0.15147000  1.0
  H  H47  1  0.14052000  0.34817000  0.14772000  1.0
  H  H48  1  0.14207000  0.42704000  0.15708000  1.0
  H  H49  1  0.09287000  0.34876000  0.07410000  1.0
  H  H50  1  0.89827000  0.15111000  0.41488000  1.0
  H  H51  1  0.86534000  0.06429000  0.34597000  1.0
  H  H52  1  0.84516000  0.12348000  0.32740000  1.0
  H  H53  1  0.10174000  0.08523000  0.34915000  1.0
  H  H54  1  0.13459000  0.15415000  0.43593000  1.0
  H  H55  1  0.15485000  0.17269000  0.37676000  1.0
  H  H56  1  0.23604000  0.75264000  0.15096000  1.0
  H  H57  1  0.21824000  0.69874000  0.06419000  1.0
  H  H58  1  0.29594000  0.77820000  0.12342000  1.0
  H  H59  1  0.23625000  0.48347000  0.08534000  1.0
  H  H60  1  0.21828000  0.51946000  0.15417000  1.0
  H  H61  1  0.29607000  0.51788000  0.17284000  1.0
  H  H62  1  0.70044000  0.99272000  0.35193000  1.0
  H  H63  1  0.76999000  0.98490000  0.34274000  1.0
  H  H64  1  0.77459000  0.01879000  0.42568000  1.0
  H  H65  1  0.70023000  0.70751000  0.34818000  1.0
  H  H66  1  0.76991000  0.78481000  0.42689000  1.0
  H  H67  1  0.77432000  0.75550000  0.34846000  1.0
  H  H68  1  0.76383000  0.34906000  0.74733000  1.0
  H  H69  1  0.78177000  0.43587000  0.80134000  1.0
  H  H70  1  0.70403000  0.37674000  0.72191000  1.0
  H  H71  1  0.76370000  0.41463000  0.01654000  1.0
  H  H72  1  0.78165000  0.34580000  0.98051000  1.0
  H  H73  1  0.70389000  0.32715000  0.98213000  1.0
  H  H74  1  0.29938000  0.14591000  0.50647000  1.0
  H  H75  1  0.23030000  0.15634000  0.51441000  1.0
  H  H76  1  0.22486000  0.07305000  0.48112000  1.0
  H  H77  1  0.29958000  0.15345000  0.79314000  1.0
  H  H78  1  0.23039000  0.07399000  0.71612000  1.0
  H  H79  1  0.22512000  0.15193000  0.74410000  1.0
  C  C80  1  0.82007000  0.90993000  0.40988000  1.0
  C  C81  1  0.00021000  0.13852000  0.63854000  1.0
  C  C82  1  0.99977000  0.90874000  0.59095000  1.0
  C  C83  1  0.17984000  0.08997000  0.59008000  1.0
  C  C84  1  0.00047000  0.86185000  0.36168000  1.0
  C  C85  1  0.99994000  0.09110000  0.40895000  1.0
  C  C86  1  0.99996000  0.58970000  0.90985000  1.0
  C  C87  1  0.00006000  0.36163000  0.86150000  1.0
  C  C88  1  0.18215000  0.59102000  0.09114000  1.0
  C  C89  1  0.99997000  0.41015000  0.09006000  1.0
  C  C90  1  0.00018000  0.63873000  0.13832000  1.0
  C  C91  1  0.81779000  0.40885000  0.90897000  1.0
  C  C92  1  0.00048000  0.80423000  0.30399000  1.0
  C  C93  1  0.00031000  0.69643000  0.19605000  1.0
  C  C94  1  0.04381000  0.82033000  0.27708000  1.0
  C  C95  1  0.95739000  0.68035000  0.22338000  1.0
  C  C96  1  0.04334000  0.76669000  0.22298000  1.0
  C  C97  1  0.95708000  0.73398000  0.27668000  1.0
  C  C98  1  0.00026000  0.19625000  0.69619000  1.0
  C  C99  1  0.00016000  0.30403000  0.80388000  1.0
  C  C100  1  0.04365000  0.22362000  0.76646000  1.0
  C  C101  1  0.95719000  0.27708000  0.73361000  1.0
  C  C102  1  0.04321000  0.27687000  0.82005000  1.0
  C  C103  1  0.95686000  0.22307000  0.68004000  1.0
  C  C104  1  0.99998000  0.62732000  0.87234000  1.0
  C  C105  1  0.05184000  0.69753000  0.90639000  1.0
  C  C106  1  0.05064000  0.73141000  0.87017000  1.0
  C  C107  1  0.00004000  0.69872000  0.80122000  1.0
  C  C108  1  0.94940000  0.62976000  0.76841000  1.0
  C  C109  1  0.94816000  0.59342000  0.80217000  1.0
  C  C110  1  0.00006000  0.73431000  0.76575000  1.0
  C  C111  1  0.99999000  0.76499000  0.73504000  1.0
  C  C112  1  0.99995000  0.80051000  0.69948000  1.0
  C  C113  1  0.05382000  0.86706000  0.72989000  1.0
  C  C114  1  0.05453000  0.90328000  0.69604000  1.0
  C  C115  1  0.99981000  0.87124000  0.62855000  1.0
  C  C116  1  0.94517000  0.80375000  0.59664000  1.0
  C  C117  1  0.94600000  0.77000000  0.63295000  1.0
  C  C118  1  0.99996000  0.37252000  0.12757000  1.0
  C  C119  1  0.94793000  0.35427000  0.14558000  1.0
  C  C120  1  0.94915000  0.31916000  0.18056000  1.0
  C  C121  1  0.99999000  0.30118000  0.19876000  1.0
  C  C122  1  0.05079000  0.31942000  0.18075000  1.0
  C  C123  1  0.05199000  0.35449000  0.14572000  1.0
  C  C124  1  0.00000000  0.26563000  0.23426000  1.0
  C  C125  1  0.00001000  0.23497000  0.26498000  1.0
  C  C126  1  0.00000000  0.19945000  0.30053000  1.0
  C  C127  1  0.94610000  0.17606000  0.31319000  1.0
  C  C128  1  0.94533000  0.14153000  0.34874000  1.0
  C  C129  1  0.99997000  0.12868000  0.37142000  1.0
  C  C130  1  0.05465000  0.15134000  0.35860000  1.0
  C  C131  1  0.05389000  0.18681000  0.32399000  1.0
  C  C132  1  0.25725000  0.62863000  0.12873000  1.0
  C  C133  1  0.29273000  0.69614000  0.14156000  1.0
  C  C134  1  0.36280000  0.73000000  0.17618000  1.0
  C  C135  1  0.39891000  0.69958000  0.19967000  1.0
  C  C136  1  0.36286000  0.63302000  0.18703000  1.0
  C  C137  1  0.29279000  0.59669000  0.15145000  1.0
  C  C138  1  0.46998000  0.73514000  0.23520000  1.0
  C  C139  1  0.53136000  0.76584000  0.26588000  1.0
  C  C140  1  0.60241000  0.80129000  0.30131000  1.0
  C  C141  1  0.63866000  0.87007000  0.31922000  1.0
  C  C142  1  0.70875000  0.90627000  0.35418000  1.0
  C  C143  1  0.74494000  0.87242000  0.37239000  1.0
  C  C144  1  0.70866000  0.80238000  0.35442000  1.0
  C  C145  1  0.63857000  0.76864000  0.31951000  1.0
  C  C146  1  0.74269000  0.37129000  0.87139000  1.0
  C  C147  1  0.70720000  0.35849000  0.80389000  1.0
  C  C148  1  0.63713000  0.32390000  0.77005000  1.0
  C  C149  1  0.60100000  0.30042000  0.80046000  1.0
  C  C150  1  0.63707000  0.31306000  0.86702000  1.0
  C  C151  1  0.70714000  0.34857000  0.90333000  1.0
  C  C152  1  0.52993000  0.26487000  0.76491000  1.0
  C  C153  1  0.46855000  0.23418000  0.73422000  1.0
  C  C154  1  0.39748000  0.19866000  0.69873000  1.0
  C  C155  1  0.36123000  0.18023000  0.62975000  1.0
  C  C156  1  0.29113000  0.14521000  0.59353000  1.0
  C  C157  1  0.25496000  0.12747000  0.62758000  1.0
  C  C158  1  0.29122000  0.14589000  0.69779000  1.0
  C  C159  1  0.36132000  0.18090000  0.73155000  1.0
  C  C160  1  0.10950000  0.73971000  0.98001000  1.0
  C  C161  1  0.89050000  0.51977000  0.75988000  1.0
  C  C162  1  0.11463000  0.97433000  0.73322000  1.0
  C  C163  1  0.88500000  0.76645000  0.52559000  1.0
  C  C164  1  0.89000000  0.36979000  0.12975000  1.0
  C  C165  1  0.10991000  0.37038000  0.13019000  1.0
  C  C166  1  0.88522000  0.11874000  0.35969000  1.0
  C  C167  1  0.11476000  0.14041000  0.38148000  1.0
  C  C168  1  0.25892000  0.73335000  0.11865000  1.0
  C  C169  1  0.25904000  0.52562000  0.14051000  1.0
  C  C170  1  0.74017000  0.97968000  0.36960000  1.0
  C  C171  1  0.74000000  0.76026000  0.37024000  1.0
  C  C172  1  0.74103000  0.38142000  0.76670000  1.0
  C  C173  1  0.74090000  0.35947000  0.97437000  1.0
  C  C174  1  0.25968000  0.12912000  0.51985000  1.0
  C  C175  1  0.25986000  0.13059000  0.74009000  1.0
  O  O176  1  0.00000000  0.99995000  0.50001000  1.0
  O  O177  1  0.85036000  0.87943000  0.42953000  1.0
  O  O178  1  0.95362000  0.10971000  0.57635000  1.0
  O  O179  1  0.02656000  0.97565000  0.62803000  1.0
  O  O180  1  0.85041000  0.97069000  0.42050000  1.0
  O  O181  1  0.97296000  0.87159000  0.52404000  1.0
  O  O182  1  0.04677000  0.12285000  0.65630000  1.0
  O  O183  1  0.14951000  0.06923000  0.62002000  1.0
  O  O184  1  0.04699000  0.92411000  0.39051000  1.0
  O  O185  1  0.14950000  0.08042000  0.52983000  1.0
  O  O186  1  0.95390000  0.84401000  0.37730000  1.0
  O  O187  1  0.97310000  0.10137000  0.44902000  1.0
  O  O188  1  0.02674000  0.05100000  0.39864000  1.0
  O  O189  1  0.99993000  0.49996000  0.99995000  1.0
  O  O190  1  0.05058000  0.61966000  0.97017000  1.0
  O  O191  1  0.96656000  0.39036000  0.84372000  1.0
  O  O192  1  0.15238000  0.52411000  0.05107000  1.0
  O  O193  1  0.94932000  0.52937000  0.87983000  1.0
  O  O194  1  0.15234000  0.62812000  0.10140000  1.0
  O  O195  1  0.03348000  0.37730000  0.92372000  1.0
  O  O196  1  0.05018000  0.42999000  0.07956000  1.0
  O  O197  1  0.96671000  0.57654000  0.12270000  1.0
  O  O198  1  0.94977000  0.42068000  0.07029000  1.0
  O  O199  1  0.03355000  0.65641000  0.10944000  1.0
  O  O200  1  0.84759000  0.39853000  0.87187000  1.0
  O  O201  1  0.84756000  0.44897000  0.97587000  1.0
