# generated using pymatgen
data_CoH6C12(N2F)2
_symmetry_space_group_name_H-M   'P 1'
_cell_length_a   6.73630046
_cell_length_b   6.90590000
_cell_length_c   24.84380000
_cell_angle_alpha   90.00000000
_cell_angle_beta   89.99974926
_cell_angle_gamma   103.51544738
_symmetry_Int_Tables_number   1
_chemical_formula_structural   CoH6C12(N2F)2
_chemical_formula_sum   'Co4 H24 C48 N16 F8'
_cell_volume   1123.73303503
_cell_formula_units_Z   4
loop_
 _symmetry_equiv_pos_site_id
 _symmetry_equiv_pos_as_xyz
  1  'x, y, z'
loop_
 _atom_site_type_symbol
 _atom_site_label
 _atom_site_symmetry_multiplicity
 _atom_site_fract_x
 _atom_site_fract_y
 _atom_site_fract_z
 _atom_site_occupancy
  Co  Co0  1  0.54067000  0.26160000  0.49554000  1.0
  Co  Co1  1  0.95933000  0.23841000  0.99554000  1.0
  Co  Co2  1  0.45931000  0.73843000  0.50446000  1.0
  Co  Co3  1  0.04070000  0.76158000  0.00447000  1.0
  H  H4  1  0.84188000  0.22260000  0.78550000  1.0
  H  H5  1  0.65811000  0.27742000  0.28550000  1.0
  H  H6  1  0.15811000  0.77740000  0.21449000  1.0
  H  H7  1  0.34186000  0.72257000  0.71449000  1.0
  H  H8  1  0.82275000  0.86428000  0.69867000  1.0
  H  H9  1  0.67725000  0.63574000  0.19867000  1.0
  H  H10  1  0.17725000  0.13574000  0.30134000  1.0
  H  H11  1  0.32276000  0.36424000  0.80134000  1.0
  H  H12  1  0.88346000  0.29744000  0.58564000  1.0
  H  H13  1  0.61654000  0.20256000  0.08564000  1.0
  H  H14  1  0.11654000  0.70260000  0.41435000  1.0
  H  H15  1  0.38347000  0.79740000  0.91436000  1.0
  H  H16  1  0.64923000  0.81818000  0.61870000  1.0
  H  H17  1  0.85077000  0.68182000  0.11870000  1.0
  H  H18  1  0.35072000  0.18182000  0.38130000  1.0
  H  H19  1  0.14927000  0.31817000  0.88130000  1.0
  H  H20  1  0.74661000  0.18726000  0.87936000  1.0
  H  H21  1  0.75338000  0.31276000  0.37936000  1.0
  H  H22  1  0.25341000  0.81273000  0.12064000  1.0
  H  H23  1  0.24659000  0.68726000  0.62064000  1.0
  H  H24  1  0.91982000  0.83072000  0.88861000  1.0
  H  H25  1  0.58019000  0.66929000  0.38861000  1.0
  H  H26  1  0.08019000  0.16928000  0.11139000  1.0
  H  H27  1  0.41980000  0.33072000  0.61139000  1.0
  C  C28  1  0.83392000  0.55586000  0.68408000  1.0
  C  C29  1  0.66608000  0.94414000  0.18408000  1.0
  C  C30  1  0.16607000  0.44415000  0.31592000  1.0
  C  C31  1  0.33392000  0.05583000  0.81592000  1.0
  C  C32  1  0.84335000  0.38178000  0.71209000  1.0
  C  C33  1  0.65665000  0.11823000  0.21209000  1.0
  C  C34  1  0.15664000  0.61822000  0.28791000  1.0
  C  C35  1  0.34334000  0.88175000  0.78791000  1.0
  C  C36  1  0.83630000  0.36502000  0.76755000  1.0
  C  C37  1  0.66369000  0.13501000  0.26755000  1.0
  C  C38  1  0.16370000  0.63500000  0.23245000  1.0
  C  C39  1  0.33630000  0.86499000  0.73245000  1.0
  C  C40  1  0.82093000  0.52825000  0.80000000  1.0
  C  C41  1  0.67906000  0.97177000  0.30000000  1.0
  C  C42  1  0.17907000  0.47175000  0.20000000  1.0
  C  C43  1  0.32094000  0.02824000  0.70000000  1.0
  C  C44  1  0.81976000  0.70461000  0.77195000  1.0
  C  C45  1  0.68023000  0.79541000  0.27195000  1.0
  C  C46  1  0.18025000  0.29540000  0.22805000  1.0
  C  C47  1  0.31978000  0.20458000  0.72805000  1.0
  C  C48  1  0.82574000  0.72108000  0.71656000  1.0
  C  C49  1  0.67428000  0.77892000  0.21656000  1.0
  C  C50  1  0.17428000  0.27892000  0.28344000  1.0
  C  C51  1  0.32575000  0.22107000  0.78344000  1.0
  C  C52  1  0.80094000  0.56120000  0.62613000  1.0
  C  C53  1  0.69906000  0.93879000  0.12613000  1.0
  C  C54  1  0.19904000  0.43881000  0.37387000  1.0
  C  C55  1  0.30095000  0.06118000  0.87387000  1.0
  C  C56  1  0.81624000  0.42557000  0.58488000  1.0
  C  C57  1  0.68376000  0.07443000  0.08488000  1.0
  C  C58  1  0.18374000  0.57446000  0.41512000  1.0
  C  C59  1  0.31626000  0.92554000  0.91512000  1.0
  C  C60  1  0.69582000  0.69135000  0.60159000  1.0
  C  C61  1  0.80418000  0.80865000  0.10159000  1.0
  C  C62  1  0.30414000  0.30865000  0.39842000  1.0
  C  C63  1  0.19585000  0.19134000  0.89841000  1.0
  C  C64  1  0.82142000  0.51514000  0.85856000  1.0
  C  C65  1  0.67856000  0.98487000  0.35856000  1.0
  C  C66  1  0.17859000  0.48485000  0.14144000  1.0
  C  C67  1  0.32142000  0.01514000  0.64144000  1.0
  C  C68  1  0.79502000  0.34288000  0.89074000  1.0
  C  C69  1  0.70498000  0.15713000  0.39074000  1.0
  C  C70  1  0.20501000  0.65712000  0.10926000  1.0
  C  C71  1  0.29499000  0.84288000  0.60925000  1.0
  C  C72  1  0.88196000  0.67167000  0.89570000  1.0
  C  C73  1  0.61805000  0.82833000  0.39570000  1.0
  C  C74  1  0.11806000  0.32833000  0.10430000  1.0
  C  C75  1  0.38194000  0.17167000  0.60430000  1.0
  N  N76  1  0.72004000  0.46807000  0.54001000  1.0
  N  N77  1  0.77996000  0.03192000  0.04001000  1.0
  N  N78  1  0.27993000  0.53195000  0.45999000  1.0
  N  N79  1  0.22008000  0.96806000  0.95999000  1.0
  N  N80  1  0.64388000  0.63202000  0.55090000  1.0
  N  N81  1  0.85613000  0.86798000  0.05090000  1.0
  N  N82  1  0.35609000  0.36800000  0.44910000  1.0
  N  N83  1  0.14391000  0.13200000  0.94910000  1.0
  N  N84  1  0.84480000  0.39379000  0.94239000  1.0
  N  N85  1  0.65521000  0.10623000  0.44239000  1.0
  N  N86  1  0.15524000  0.60621000  0.05761000  1.0
  N  N87  1  0.34476000  0.89380000  0.55761000  1.0
  N  N88  1  0.89936000  0.59770000  0.94517000  1.0
  N  N89  1  0.60066000  0.90232000  0.44517000  1.0
  N  N90  1  0.10067000  0.40230000  0.05483000  1.0
  N  N91  1  0.39932000  0.09772000  0.55483000  1.0
  F  F92  1  0.81203000  0.87258000  0.80077000  1.0
  F  F93  1  0.68797000  0.62743000  0.30077000  1.0
  F  F94  1  0.18798000  0.12741000  0.19924000  1.0
  F  F95  1  0.31205000  0.37258000  0.69924000  1.0
  F  F96  1  0.85295000  0.21523000  0.68293000  1.0
  F  F97  1  0.64705000  0.28478000  0.18293000  1.0
  F  F98  1  0.14703000  0.78478000  0.31707000  1.0
  F  F99  1  0.35292000  0.71518000  0.81706000  1.0
