# generated using pymatgen
data_CuH6C14N2(O2F3)2
_symmetry_space_group_name_H-M   'P 1'
_cell_length_a   5.36582000
_cell_length_b   5.49941000
_cell_length_c   12.68010000
_cell_angle_alpha   80.93920000
_cell_angle_beta   88.20430000
_cell_angle_gamma   88.76750000
_symmetry_Int_Tables_number   1
_chemical_formula_structural   CuH6C14N2(O2F3)2
_chemical_formula_sum   'Cu1 H6 C14 N2 O4 F6'
_cell_volume   369.27252231
_cell_formula_units_Z   1
loop_
 _symmetry_equiv_pos_site_id
 _symmetry_equiv_pos_as_xyz
  1  'x, y, z'
loop_
 _atom_site_type_symbol
 _atom_site_label
 _atom_site_symmetry_multiplicity
 _atom_site_fract_x
 _atom_site_fract_y
 _atom_site_fract_z
 _atom_site_occupancy
  Cu  Cu0  1  0.26940000  0.76918000  0.08199000  1.0
  H  H1  1  0.48083000  0.26420000  0.97489000  1.0
  H  H2  1  0.79043000  0.46343000  0.38620000  1.0
  H  H3  1  0.74844000  0.07630000  0.77802000  1.0
  H  H4  1  0.05824000  0.27403000  0.18954000  1.0
  H  H5  1  0.36766000  0.55247000  0.81189000  1.0
  H  H6  1  0.17222000  0.98596000  0.35245000  1.0
  C  C7  1  0.86062000  0.73842000  0.95738000  1.0
  C  C8  1  0.67805000  0.80053000  0.20658000  1.0
  C  C9  1  0.32191000  0.22885000  0.92841000  1.0
  C  C10  1  0.62723000  0.41358000  0.34595000  1.0
  C  C11  1  0.91171000  0.12576000  0.81833000  1.0
  C  C12  1  0.21728000  0.30964000  0.23589000  1.0
  C  C13  1  0.25626000  0.38968000  0.83680000  1.0
  C  C14  1  0.28311000  0.14907000  0.32752000  1.0
  C  C15  1  0.98883000  0.97416000  0.90996000  1.0
  C  C16  1  0.04915000  0.33680000  0.78144000  1.0
  C  C17  1  0.54993000  0.56486000  0.25422000  1.0
  C  C18  1  0.56556000  0.03314000  0.48276000  1.0
  C  C19  1  0.48993000  0.20245000  0.38292000  1.0
  C  C20  1  0.97308000  0.50649000  0.68179000  1.0
  N  N21  1  0.19065000  0.02628000  0.96281000  1.0
  N  N22  1  0.34807000  0.51242000  0.20145000  1.0
  O  O23  1  0.66169000  0.68262000  0.92030000  1.0
  O  O24  1  0.87685000  0.85685000  0.24360000  1.0
  O  O25  1  0.56279000  0.93124000  0.12811000  1.0
  O  O26  1  0.97609000  0.60704000  0.03564000  1.0
  F  F27  1  0.45179000  0.81174000  0.49297000  1.0
  F  F28  1  0.81665000  0.98801000  0.48354000  1.0
  F  F29  1  0.50577000  0.13336000  0.57263000  1.0
  F  F30  1  0.03284000  0.40712000  0.59172000  1.0
  F  F31  1  0.72191000  0.55101000  0.68122000  1.0
  F  F32  1  0.08642000  0.72809000  0.67177000  1.0
