# generated using pymatgen
data_LiH9(C3O4)2
_symmetry_space_group_name_H-M   'P 1'
_cell_length_a   6.58344000
_cell_length_b   7.41996000
_cell_length_c   9.03201000
_cell_angle_alpha   85.34750000
_cell_angle_beta   79.54120000
_cell_angle_gamma   72.38300000
_symmetry_Int_Tables_number   1
_chemical_formula_structural   LiH9(C3O4)2
_chemical_formula_sum   'Li2 H18 C12 O16'
_cell_volume   413.36360923
_cell_formula_units_Z   2
loop_
 _symmetry_equiv_pos_site_id
 _symmetry_equiv_pos_as_xyz
  1  'x, y, z'
loop_
 _atom_site_type_symbol
 _atom_site_label
 _atom_site_symmetry_multiplicity
 _atom_site_fract_x
 _atom_site_fract_y
 _atom_site_fract_z
 _atom_site_occupancy
  Li  Li0  1  0.96555000  0.71167000  0.49373000  1.0
  Li  Li1  1  0.03822000  0.28944000  0.50668000  1.0
  H  H2  1  0.49934000  0.17328000  0.25185000  1.0
  H  H3  1  0.16288000  0.94533000  0.33454000  1.0
  H  H4  1  0.00438000  0.96418000  0.00574000  1.0
  H  H5  1  0.71677000  0.62659000  0.21278000  1.0
  H  H6  1  0.61730000  0.62739000  0.40622000  1.0
  H  H7  1  0.32884000  0.89187000  0.07865000  1.0
  H  H8  1  0.48984000  0.66052000  0.02841000  1.0
  H  H9  1  0.97736000  0.48847000  0.99113000  1.0
  H  H10  1  0.50579000  0.82875000  0.74909000  1.0
  H  H11  1  0.84049000  0.05633000  0.66895000  1.0
  H  H12  1  0.28696000  0.37607000  0.78709000  1.0
  H  H13  1  0.38819000  0.37413000  0.59371000  1.0
  H  H14  1  0.65847000  0.11406000  0.92574000  1.0
  H  H15  1  0.50984000  0.34934000  0.97233000  1.0
  H  H16  1  0.00420000  0.78483000  0.77824000  1.0
  H  H17  1  0.14627000  0.87262000  0.65135000  1.0
  H  H18  1  0.00382000  0.21226000  0.22148000  1.0
  H  H19  1  0.85899000  0.12805000  0.34880000  1.0
  C  C20  1  0.60694000  0.89737000  0.31021000  1.0
  C  C21  1  0.58494000  0.70219000  0.29923000  1.0
  C  C22  1  0.36653000  0.69119000  0.26734000  1.0
  C  C23  1  0.34232000  0.74160000  0.10020000  1.0
  C  C24  1  0.35740000  0.48591000  0.30791000  1.0
  C  C25  1  0.15997000  0.69171000  0.05137000  1.0
  C  C26  1  0.39747000  0.10459000  0.69041000  1.0
  C  C27  1  0.41927000  0.29996000  0.70112000  1.0
  C  C28  1  0.63697000  0.31099000  0.73474000  1.0
  C  C29  1  0.65569000  0.26182000  0.90273000  1.0
  C  C30  1  0.64680000  0.51571000  0.69368000  1.0
  C  C31  1  0.84463000  0.29490000  0.95542000  1.0
  O  O32  1  0.73874000  0.92073000  0.38485000  1.0
  O  O33  1  0.48478000  0.03379000  0.23602000  1.0
  O  O34  1  0.19301000  0.80909000  0.36494000  1.0
  O  O35  1  0.51958000  0.35479000  0.24823000  1.0
  O  O36  1  0.19544000  0.46539000  0.39837000  1.0
  O  O37  1  0.15624000  0.52438000  0.05417000  1.0
  O  O38  1  0.00257000  0.82471000  0.99928000  1.0
  O  O39  1  0.26586000  0.08068000  0.61595000  1.0
  O  O40  1  0.52023000  0.96836000  0.76447000  1.0
  O  O41  1  0.81192000  0.19232000  0.63864000  1.0
  O  O42  1  0.48575000  0.64719000  0.75437000  1.0
  O  O43  1  0.80813000  0.53601000  0.60246000  1.0
  O  O44  1  0.84815000  0.47125000  0.94662000  1.0
  O  O45  1  0.98811000  0.16738000  0.00964000  1.0
  O  O46  1  0.01834000  0.82525000  0.67225000  1.0
  O  O47  1  0.98719000  0.17500000  0.32837000  1.0
