# generated using pymatgen
data_Cu2H6C7N6O
_symmetry_space_group_name_H-M   'P 1'
_cell_length_a   11.33830000
_cell_length_b   14.21820000
_cell_length_c   15.37830000
_cell_angle_alpha   98.79980000
_cell_angle_beta   111.63700000
_cell_angle_gamma   113.50600000
_symmetry_Int_Tables_number   1
_chemical_formula_structural   Cu2H6C7N6O
_chemical_formula_sum   'Cu16 H48 C56 N48 O8'
_cell_volume   1977.98089946
_cell_formula_units_Z   8
loop_
 _symmetry_equiv_pos_site_id
 _symmetry_equiv_pos_as_xyz
  1  'x, y, z'
loop_
 _atom_site_type_symbol
 _atom_site_label
 _atom_site_symmetry_multiplicity
 _atom_site_fract_x
 _atom_site_fract_y
 _atom_site_fract_z
 _atom_site_occupancy
  Cu  Cu0  1  0.90405000  0.24992000  0.24994000  1.0
  Cu  Cu1  1  0.09595000  0.75008000  0.75006000  1.0
  Cu  Cu2  1  0.91319000  0.03152000  0.54826000  1.0
  Cu  Cu3  1  0.83328000  0.46833000  0.95168000  1.0
  Cu  Cu4  1  0.08682000  0.96848000  0.45174000  1.0
  Cu  Cu5  1  0.16672000  0.53168000  0.04833000  1.0
  Cu  Cu6  1  0.20239000  0.31301000  0.67146000  1.0
  Cu  Cu7  1  0.71793000  0.18693000  0.82846000  1.0
  Cu  Cu8  1  0.79762000  0.68699000  0.32854000  1.0
  Cu  Cu9  1  0.28207000  0.81307000  0.17154000  1.0
  Cu  Cu10  1  0.41317000  0.62615000  0.48665000  1.0
  Cu  Cu11  1  0.80032000  0.87377000  0.01334000  1.0
  Cu  Cu12  1  0.58683000  0.37386000  0.51334000  1.0
  Cu  Cu13  1  0.19969000  0.12624000  0.98666000  1.0
  Cu  Cu14  1  0.65834000  0.74996000  0.75002000  1.0
  Cu  Cu15  1  0.34165000  0.25005000  0.24998000  1.0
  H  H16  1  0.75223000  0.98866000  0.23258000  1.0
  H  H17  1  0.03081000  0.51128000  0.26718000  1.0
  H  H18  1  0.24778000  0.01134000  0.76742000  1.0
  H  H19  1  0.96919000  0.48873000  0.73282000  1.0
  H  H20  1  0.64208000  0.03014000  0.26420000  1.0
  H  H21  1  0.84752000  0.46965000  0.23556000  1.0
  H  H22  1  0.35793000  0.96985000  0.73580000  1.0
  H  H23  1  0.15248000  0.53035000  0.76444000  1.0
  H  H24  1  0.70098000  0.94666000  0.32320000  1.0
  H  H25  1  0.93076000  0.55310000  0.17649000  1.0
  H  H26  1  0.29903000  0.05333000  0.67680000  1.0
  H  H27  1  0.06923000  0.44690000  0.82351000  1.0
  H  H28  1  0.50938000  0.66460000  0.87190000  1.0
  H  H29  1  0.47320000  0.83541000  0.62800000  1.0
  H  H30  1  0.49062000  0.33541000  0.12810000  1.0
  H  H31  1  0.52680000  0.16459000  0.37200000  1.0
  H  H32  1  0.53058000  0.54692000  0.86368000  1.0
  H  H33  1  0.62036000  0.95319000  0.63639000  1.0
  H  H34  1  0.46941000  0.45308000  0.13631000  1.0
  H  H35  1  0.37963000  0.04681000  0.36361000  1.0
  H  H36  1  0.36318000  0.53533000  0.85084000  1.0
  H  H37  1  0.47715000  0.96460000  0.64897000  1.0
  H  H38  1  0.63682000  0.46468000  0.14916000  1.0
  H  H39  1  0.52284000  0.03540000  0.35103000  1.0
  H  H40  1  0.57544000  0.69506000  0.35922000  1.0
  H  H41  1  0.02122000  0.80479000  0.14079000  1.0
  H  H42  1  0.42456000  0.30493000  0.64078000  1.0
  H  H43  1  0.97879000  0.19521000  0.85921000  1.0
  H  H44  1  0.72585000  0.82296000  0.38406000  1.0
  H  H45  1  0.01883000  0.67689000  0.11595000  1.0
  H  H46  1  0.27415000  0.17703000  0.61595000  1.0
  H  H47  1  0.98117000  0.32311000  0.88405000  1.0
  H  H48  1  0.55741000  0.81401000  0.36569000  1.0
  H  H49  1  0.87782000  0.68588000  0.13444000  1.0
  H  H50  1  0.44259000  0.18598000  0.63431000  1.0
  H  H51  1  0.12219000  0.31412000  0.86556000  1.0
  H  H52  1  0.46316000  0.35790000  0.86644000  1.0
  H  H53  1  0.73894000  0.14224000  0.63347000  1.0
  H  H54  1  0.53685000  0.64211000  0.13356000  1.0
  H  H55  1  0.26108000  0.85778000  0.36654000  1.0
  H  H56  1  0.47833000  0.28759000  0.95345000  1.0
  H  H57  1  0.73745000  0.21262000  0.54651000  1.0
  H  H58  1  0.52167000  0.71241000  0.04655000  1.0
  H  H59  1  0.26257000  0.78739000  0.45349000  1.0
  H  H60  1  0.40885000  0.37893000  0.95928000  1.0
  H  H61  1  0.57074000  0.12124000  0.54065000  1.0
  H  H62  1  0.59116000  0.62107000  0.04072000  1.0
  H  H63  1  0.42928000  0.87877000  0.45936000  1.0
  C  C64  1  0.73291000  0.01363000  0.29491000  1.0
  C  C65  1  0.92414000  0.48620000  0.20486000  1.0
  C  C66  1  0.26710000  0.98636000  0.70509000  1.0
  C  C67  1  0.07586000  0.51381000  0.79514000  1.0
  C  C68  1  0.86548000  0.11322000  0.37553000  1.0
  C  C69  1  0.87659000  0.38660000  0.12431000  1.0
  C  C70  1  0.13452000  0.88677000  0.62447000  1.0
  C  C71  1  0.12341000  0.61341000  0.87569000  1.0
  C  C72  1  0.04771000  0.27725000  0.45335000  1.0
  C  C73  1  0.81706000  0.22258000  0.04656000  1.0
  C  C74  1  0.95229000  0.72275000  0.54665000  1.0
  C  C75  1  0.18295000  0.77742000  0.95345000  1.0
  C  C76  1  0.15005000  0.38863000  0.46625000  1.0
  C  C77  1  0.79517000  0.11123000  0.03371000  1.0
  C  C78  1  0.84995000  0.61137000  0.53375000  1.0
  C  C79  1  0.20484000  0.88877000  0.96629000  1.0
  C  C80  1  0.26623000  0.46572000  0.56542000  1.0
  C  C81  1  0.73508000  0.03417000  0.93453000  1.0
  C  C82  1  0.73377000  0.53428000  0.43458000  1.0
  C  C83  1  0.26492000  0.96583000  0.06547000  1.0
  C  C84  1  0.39513000  0.54934000  0.72429000  1.0
  C  C85  1  0.62156000  0.95061000  0.77565000  1.0
  C  C86  1  0.60486000  0.45066000  0.27570000  1.0
  C  C87  1  0.37844000  0.04939000  0.22435000  1.0
  C  C88  1  0.45253000  0.57571000  0.83378000  1.0
  C  C89  1  0.54327000  0.92430000  0.66616000  1.0
  C  C90  1  0.54747000  0.42429000  0.16622000  1.0
  C  C91  1  0.45673000  0.07570000  0.33384000  1.0
  C  C92  1  0.63286000  0.78382000  0.39793000  1.0
  C  C93  1  0.95112000  0.71603000  0.10212000  1.0
  C  C94  1  0.36714000  0.21617000  0.60207000  1.0
  C  C95  1  0.04888000  0.28397000  0.89788000  1.0
  C  C96  1  0.68763000  0.81068000  0.50693000  1.0
  C  C97  1  0.86993000  0.68917000  0.99314000  1.0
  C  C98  1  0.31237000  0.18932000  0.49307000  1.0
  C  C99  1  0.13006000  0.31083000  0.00686000  1.0
  C  C100  1  0.82307000  0.89455000  0.66582000  1.0
  C  C101  1  0.76257000  0.60533000  0.83422000  1.0
  C  C102  1  0.17693000  0.10545000  0.33417000  1.0
  C  C103  1  0.23742000  0.39467000  0.16578000  1.0
  C  C104  1  0.93970000  0.97559000  0.76468000  1.0
  C  C105  1  0.69943000  0.52437000  0.73536000  1.0
  C  C106  1  0.06030000  0.02442000  0.23533000  1.0
  C  C107  1  0.30055000  0.47563000  0.26463000  1.0
  C  C108  1  0.05841000  0.07515000  0.77142000  1.0
  C  C109  1  0.71191000  0.42488000  0.72858000  1.0
  C  C110  1  0.94159000  0.92485000  0.22857000  1.0
  C  C111  1  0.28809000  0.57513000  0.27142000  1.0
  C  C112  1  0.26206000  0.22521000  0.83775000  1.0
  C  C113  1  0.69922000  0.27487000  0.66222000  1.0
  C  C114  1  0.73794000  0.77479000  0.16225000  1.0
  C  C115  1  0.30079000  0.72514000  0.33778000  1.0
  C  C116  1  0.41133000  0.31755000  0.90799000  1.0
  C  C117  1  0.68592000  0.18261000  0.59195000  1.0
  C  C118  1  0.58867000  0.68246000  0.09201000  1.0
  C  C119  1  0.31409000  0.81740000  0.40806000  1.0
  N  N120  1  0.93266000  0.20759000  0.36153000  1.0
  N  N121  1  0.86346000  0.29227000  0.13837000  1.0
  N  N122  1  0.06735000  0.79240000  0.63847000  1.0
  N  N123  1  0.13655000  0.70773000  0.86164000  1.0
  N  N124  1  0.93619000  0.12426000  0.47256000  1.0
  N  N125  1  0.83932000  0.37555000  0.02729000  1.0
  N  N126  1  0.06382000  0.87574000  0.52744000  1.0
  N  N127  1  0.16068000  0.62445000  0.97271000  1.0
  N  N128  1  0.05171000  0.22923000  0.52177000  1.0
  N  N129  1  0.80069000  0.27057000  0.97811000  1.0
  N  N130  1  0.94830000  0.77077000  0.47823000  1.0
  N  N131  1  0.19932000  0.72943000  0.02189000  1.0
  N  N132  1  0.28426000  0.45099000  0.65470000  1.0
  N  N133  1  0.67861000  0.04893000  0.84525000  1.0
  N  N134  1  0.71574000  0.54902000  0.34530000  1.0
  N  N135  1  0.32139000  0.95107000  0.15475000  1.0
  N  N136  1  0.36468000  0.56817000  0.58102000  1.0
  N  N137  1  0.71547000  0.93173000  0.91893000  1.0
  N  N138  1  0.63532000  0.43183000  0.41898000  1.0
  N  N139  1  0.28453000  0.06827000  0.08107000  1.0
  N  N140  1  0.44619000  0.62109000  0.68159000  1.0
  N  N141  1  0.64355000  0.87885000  0.81835000  1.0
  N  N142  1  0.55380000  0.37892000  0.31841000  1.0
  N  N143  1  0.35645000  0.12115000  0.18165000  1.0
  N  N144  1  0.71189000  0.79875000  0.65169000  1.0
  N  N145  1  0.76138000  0.70114000  0.84837000  1.0
  N  N146  1  0.28811000  0.20125000  0.34831000  1.0
  N  N147  1  0.23861000  0.29886000  0.15163000  1.0
  N  N148  1  0.62567000  0.74557000  0.55076000  1.0
  N  N149  1  0.82921000  0.75425000  0.94932000  1.0
  N  N150  1  0.37432000  0.25443000  0.44924000  1.0
  N  N151  1  0.17079000  0.24576000  0.05067000  1.0
  N  N152  1  0.81007000  0.90409000  0.57539000  1.0
  N  N153  1  0.83055000  0.59580000  0.92465000  1.0
  N  N154  1  0.18993000  0.09590000  0.42461000  1.0
  N  N155  1  0.16944000  0.40420000  0.07535000  1.0
  N  N156  1  0.18473000  0.14073000  0.85954000  1.0
  N  N157  1  0.68458000  0.35937000  0.64047000  1.0
  N  N158  1  0.81528000  0.85928000  0.14046000  1.0
  N  N159  1  0.31542000  0.64063000  0.35953000  1.0
  N  N160  1  0.18509000  0.21471000  0.74196000  1.0
  N  N161  1  0.72839000  0.28524000  0.75796000  1.0
  N  N162  1  0.81492000  0.78529000  0.25804000  1.0
  N  N163  1  0.27160000  0.71476000  0.24204000  1.0
  N  N164  1  0.05634000  0.11807000  0.69927000  1.0
  N  N165  1  0.73895000  0.38188000  0.80070000  1.0
  N  N166  1  0.94367000  0.88193000  0.30073000  1.0
  N  N167  1  0.26105000  0.61812000  0.19930000  1.0
  O  O168  1  0.13207000  0.41515000  0.39057000  1.0
  O  O169  1  0.82633000  0.08471000  0.10937000  1.0
  O  O170  1  0.86792000  0.58485000  0.60942000  1.0
  O  O171  1  0.17368000  0.91529000  0.89064000  1.0
  O  O172  1  0.94234000  0.96415000  0.84409000  1.0
  O  O173  1  0.63402000  0.53584000  0.65596000  1.0
  O  O174  1  0.05765000  0.03586000  0.15590000  1.0
  O  O175  1  0.36597000  0.46416000  0.34405000  1.0
