# generated using pymatgen
data_NiH14C10N2O5
_symmetry_space_group_name_H-M   'P 1'
_cell_length_a   5.90044000
_cell_length_b   9.26183000
_cell_length_c   11.83090000
_cell_angle_alpha   89.99950000
_cell_angle_beta   89.99970000
_cell_angle_gamma   100.56400000
_symmetry_Int_Tables_number   1
_chemical_formula_structural   NiH14C10N2O5
_chemical_formula_sum   'Ni2 H28 C20 N4 O10'
_cell_volume   635.58687390
_cell_formula_units_Z   2
loop_
 _symmetry_equiv_pos_site_id
 _symmetry_equiv_pos_as_xyz
  1  'x, y, z'
loop_
 _atom_site_type_symbol
 _atom_site_label
 _atom_site_symmetry_multiplicity
 _atom_site_fract_x
 _atom_site_fract_y
 _atom_site_fract_z
 _atom_site_occupancy
  Ni  Ni0  1  0.02809000  0.02595000  0.50995000  1.0
  Ni  Ni1  1  0.97191000  0.97406000  0.00994000  1.0
  H  H2  1  0.89202000  0.24926000  0.59108000  1.0
  H  H3  1  0.10798000  0.75076000  0.09108000  1.0
  H  H4  1  0.34023000  0.83679000  0.40270000  1.0
  H  H5  1  0.65976000  0.16322000  0.90271000  1.0
  H  H6  1  0.33880000  0.57361000  0.36862000  1.0
  H  H7  1  0.66119000  0.42640000  0.86863000  1.0
  H  H8  1  0.70265000  0.47557000  0.55670000  1.0
  H  H9  1  0.29732000  0.52443000  0.05670000  1.0
  H  H10  1  0.72133000  0.74710000  0.57656000  1.0
  H  H11  1  0.27865000  0.25290000  0.07657000  1.0
  H  H12  1  0.83906000  0.29041000  0.40048000  1.0
  H  H13  1  0.16095000  0.70960000  0.90048000  1.0
  H  H14  1  0.14007000  0.32269000  0.37635000  1.0
  H  H15  1  0.85994000  0.67732000  0.87636000  1.0
  H  H16  1  0.34190000  0.40950000  0.55436000  1.0
  H  H17  1  0.65810000  0.59051000  0.05436000  1.0
  H  H18  1  0.08565000  0.45931000  0.70951000  1.0
  H  H19  1  0.91436000  0.54069000  0.20951000  1.0
  H  H20  1  0.35416000  0.42424000  0.76208000  1.0
  H  H21  1  0.64584000  0.57574000  0.26208000  1.0
  H  H22  1  0.10071000  0.28731000  0.77202000  1.0
  H  H23  1  0.89929000  0.71268000  0.27202000  1.0
  H  H24  1  0.89254000  0.97219000  0.27046000  1.0
  H  H25  1  0.10748000  0.02779000  0.77046000  1.0
  H  H26  1  0.56627000  0.01949000  0.50952000  1.0
  H  H27  1  0.43372000  0.98050000  0.00952000  1.0
  H  H28  1  0.61629000  0.04450000  0.38065000  1.0
  H  H29  1  0.38375000  0.95550000  0.88065000  1.0
  C  C30  1  0.20062000  0.75418000  0.43526000  1.0
  C  C31  1  0.79937000  0.24583000  0.93527000  1.0
  C  C32  1  0.19960000  0.60545000  0.41778000  1.0
  C  C33  1  0.80039000  0.39456000  0.91778000  1.0
  C  C34  1  0.01710000  0.50071000  0.45844000  1.0
  C  C35  1  0.98290000  0.49930000  0.95843000  1.0
  C  C36  1  0.84369000  0.55270000  0.51857000  1.0
  C  C37  1  0.15631000  0.44730000  0.01857000  1.0
  C  C38  1  0.85461000  0.70278000  0.53177000  1.0
  C  C39  1  0.14537000  0.29722000  0.03176000  1.0
  C  C40  1  0.00677000  0.33857000  0.43749000  1.0
  C  C41  1  0.99323000  0.66144000  0.93750000  1.0
  C  C42  1  0.24788000  0.31663000  0.60373000  1.0
  C  C43  1  0.75211000  0.68337000  0.10373000  1.0
  C  C44  1  0.41840000  0.21066000  0.61492000  1.0
  C  C45  1  0.58159000  0.78934000  0.11493000  1.0
  C  C46  1  0.19395000  0.37566000  0.71900000  1.0
  C  C47  1  0.80604000  0.62433000  0.21900000  1.0
  C  C48  1  0.07726000  0.02260000  0.26043000  1.0
  C  C49  1  0.92277000  0.97741000  0.76041000  1.0
  N  N50  1  0.03009000  0.80335000  0.49037000  1.0
  N  N51  1  0.96990000  0.19666000  0.99037000  1.0
  N  N52  1  0.03653000  0.25307000  0.54042000  1.0
  N  N53  1  0.96348000  0.74694000  0.04043000  1.0
  O  O54  1  0.35370000  0.07646000  0.58170000  1.0
  O  O55  1  0.64629000  0.92353000  0.08171000  1.0
  O  O56  1  0.61338000  0.26260000  0.65418000  1.0
  O  O57  1  0.38662000  0.73739000  0.15420000  1.0
  O  O58  1  0.19008000  0.06891000  0.34917000  1.0
  O  O59  1  0.80991000  0.93110000  0.84920000  1.0
  O  O60  1  0.16086000  0.03031000  0.16198000  1.0
  O  O61  1  0.83916000  0.96967000  0.66199000  1.0
  O  O62  1  0.67092000  0.99828000  0.44688000  1.0
  O  O63  1  0.32909000  0.00171000  0.94687000  1.0
