# generated using pymatgen
data_NiH28C20(NO2)4
_symmetry_space_group_name_H-M   'P 1'
_cell_length_a   11.00250000
_cell_length_b   11.36200000
_cell_length_c   13.09930000
_cell_angle_alpha   90.00040000
_cell_angle_beta   90.00100000
_cell_angle_gamma   61.41900000
_symmetry_Int_Tables_number   1
_chemical_formula_structural   NiH28C20(NO2)4
_chemical_formula_sum   'Ni2 H56 C40 N8 O16'
_cell_volume   1437.99983186
_cell_formula_units_Z   2
loop_
 _symmetry_equiv_pos_site_id
 _symmetry_equiv_pos_as_xyz
  1  'x, y, z'
loop_
 _atom_site_type_symbol
 _atom_site_label
 _atom_site_symmetry_multiplicity
 _atom_site_fract_x
 _atom_site_fract_y
 _atom_site_fract_z
 _atom_site_occupancy
  Ni  Ni0  1  0.50000000  0.50000000  0.50000000  1.0
  Ni  Ni1  1  0.00000000  0.50000000  1.00000000  1.0
  H  H2  1  0.69773000  0.53743000  0.44365000  1.0
  H  H3  1  0.80227000  0.46257000  0.94364000  1.0
  H  H4  1  0.30228000  0.46257000  0.55635000  1.0
  H  H5  1  0.19773000  0.53743000  0.05635000  1.0
  H  H6  1  0.41021000  0.47070000  0.33364000  1.0
  H  H7  1  0.08978000  0.52930000  0.83364000  1.0
  H  H8  1  0.58979000  0.52930000  0.66636000  1.0
  H  H9  1  0.91021000  0.47070000  0.16636000  1.0
  H  H10  1  0.66589000  0.35320000  0.30311000  1.0
  H  H11  1  0.83410000  0.64680000  0.80311000  1.0
  H  H12  1  0.33410000  0.64680000  0.69689000  1.0
  H  H13  1  0.16591000  0.35319000  0.19689000  1.0
  H  H14  1  0.74427000  0.45296000  0.27222000  1.0
  H  H15  1  0.75573000  0.54704000  0.77221000  1.0
  H  H16  1  0.25574000  0.54703000  0.72778000  1.0
  H  H17  1  0.24428000  0.45295000  0.22778000  1.0
  H  H18  1  0.51591000  0.66235000  0.30338000  1.0
  H  H19  1  0.98409000  0.33766000  0.80337000  1.0
  H  H20  1  0.48410000  0.33766000  0.69663000  1.0
  H  H21  1  0.01592000  0.66233000  0.19663000  1.0
  H  H22  1  0.50009000  0.55998000  0.20830000  1.0
  H  H23  1  0.99990000  0.44003000  0.70830000  1.0
  H  H24  1  0.49991000  0.44003000  0.79170000  1.0
  H  H25  1  0.00011000  0.55996000  0.29170000  1.0
  H  H26  1  0.90270000  0.31939000  0.42783000  1.0
  H  H27  1  0.59730000  0.68061000  0.92782000  1.0
  H  H28  1  0.09731000  0.68061000  0.57217000  1.0
  H  H29  1  0.40270000  0.31939000  0.07218000  1.0
  H  H30  1  0.79394000  0.24737000  0.44970000  1.0
  H  H31  1  0.70606000  0.75262000  0.94970000  1.0
  H  H32  1  0.20606000  0.75263000  0.55030000  1.0
  H  H33  1  0.29394000  0.24737000  0.05030000  1.0
  H  H34  1  0.23877000  0.69213000  0.26958000  1.0
  H  H35  1  0.26122000  0.30788000  0.76958000  1.0
  H  H36  1  0.76123000  0.30787000  0.73042000  1.0
  H  H37  1  0.73878000  0.69213000  0.23041000  1.0
  H  H38  1  0.28638000  0.76194000  0.37285000  1.0
  H  H39  1  0.21362000  0.23806000  0.87284000  1.0
  H  H40  1  0.71362000  0.23806000  0.62715000  1.0
  H  H41  1  0.78639000  0.76193000  0.12715000  1.0
  H  H42  1  0.93001000  0.25962000  0.60371000  1.0
  H  H43  1  0.57000000  0.74038000  0.10370000  1.0
  H  H44  1  0.06999000  0.74038000  0.39629000  1.0
  H  H45  1  0.43001000  0.25962000  0.89629000  1.0
  H  H46  1  0.82825000  0.43578000  0.60188000  1.0
  H  H47  1  0.67176000  0.56421000  0.10187000  1.0
  H  H48  1  0.17176000  0.56421000  0.39812000  1.0
  H  H49  1  0.32824000  0.43578000  0.89812000  1.0
  H  H50  1  0.47736000  0.83338000  0.39644000  1.0
  H  H51  1  0.02264000  0.16663000  0.89645000  1.0
  H  H52  1  0.52262000  0.16663000  0.60356000  1.0
  H  H53  1  0.97736000  0.83337000  0.10356000  1.0
  H  H54  1  0.56625000  0.80455000  0.73436000  1.0
  H  H55  1  0.93372000  0.19547000  0.23436000  1.0
  H  H56  1  0.43374000  0.19546000  0.26565000  1.0
  H  H57  1  0.06627000  0.80452000  0.76565000  1.0
  C  C58  1  0.66221000  0.44998000  0.31841000  1.0
  C  C59  1  0.83779000  0.55002000  0.81841000  1.0
  C  C60  1  0.33779000  0.55002000  0.68159000  1.0
  C  C61  1  0.16222000  0.44997000  0.18159000  1.0
  C  C62  1  0.52044000  0.56462000  0.29040000  1.0
  C  C63  1  0.97955000  0.43538000  0.79039000  1.0
  C  C64  1  0.47956000  0.43538000  0.70960000  1.0
  C  C65  1  0.02045000  0.56461000  0.20960000  1.0
  C  C66  1  0.80827000  0.33421000  0.46826000  1.0
  C  C67  1  0.69173000  0.66579000  0.96826000  1.0
  C  C68  1  0.19173000  0.66579000  0.53173000  1.0
  C  C69  1  0.30827000  0.33421000  0.03174000  1.0
  C  C70  1  0.27725000  0.67370000  0.34908000  1.0
  C  C71  1  0.22275000  0.32630000  0.84907000  1.0
  C  C72  1  0.72275000  0.32630000  0.65093000  1.0
  C  C73  1  0.77725000  0.67369000  0.15092000  1.0
  C  C74  1  0.82743000  0.34135000  0.58308000  1.0
  C  C75  1  0.67257000  0.65864000  0.08307000  1.0
  C  C76  1  0.17257000  0.65865000  0.41692000  1.0
  C  C77  1  0.32743000  0.34135000  0.91692000  1.0
  C  C78  1  0.48757000  0.90741000  0.44270000  1.0
  C  C79  1  0.01243000  0.09259000  0.94270000  1.0
  C  C80  1  0.51243000  0.09259000  0.55730000  1.0
  C  C81  1  0.98756000  0.90742000  0.05730000  1.0
  C  C82  1  0.50367000  0.88570000  0.54806000  1.0
  C  C83  1  0.99632000  0.11431000  0.04807000  1.0
  C  C84  1  0.49631000  0.11431000  0.45194000  1.0
  C  C85  1  0.00368000  0.88569000  0.95195000  1.0
  C  C86  1  0.51650000  0.98297000  0.60847000  1.0
  C  C87  1  0.98349000  0.01705000  0.10848000  1.0
  C  C88  1  0.48348000  0.01704000  0.39152000  1.0
  C  C89  1  0.01651000  0.98296000  0.89153000  1.0
  C  C90  1  0.50856000  0.75608000  0.58256000  1.0
  C  C91  1  0.99144000  0.24393000  0.08257000  1.0
  C  C92  1  0.49144000  0.24392000  0.41744000  1.0
  C  C93  1  0.00856000  0.75608000  0.91745000  1.0
  C  C94  1  0.53281000  0.98948000  0.72377000  1.0
  C  C95  1  0.96716000  0.01054000  0.22378000  1.0
  C  C96  1  0.46717000  0.01052000  0.27622000  1.0
  C  C97  1  0.03284000  0.98947000  0.77623000  1.0
  N  N98  1  0.68628000  0.45471000  0.42895000  1.0
  N  N99  1  0.81372000  0.54529000  0.92894000  1.0
  N  N100  1  0.31372000  0.54529000  0.57105000  1.0
  N  N101  1  0.18628000  0.45470000  0.07105000  1.0
  N  N102  1  0.41544000  0.55582000  0.35460000  1.0
  N  N103  1  0.08456000  0.44418000  0.85460000  1.0
  N  N104  1  0.58456000  0.44418000  0.64540000  1.0
  N  N105  1  0.91544000  0.55581000  0.14540000  1.0
  O  O106  1  0.46844000  0.69856000  0.51831000  1.0
  O  O107  1  0.03157000  0.30144000  0.01831000  1.0
  O  O108  1  0.53157000  0.30144000  0.48169000  1.0
  O  O109  1  0.96842000  0.69856000  0.98169000  1.0
  O  O110  1  0.55639000  0.70807000  0.67108000  1.0
  O  O111  1  0.94360000  0.29194000  0.17108000  1.0
  O  O112  1  0.44361000  0.29194000  0.32893000  1.0
  O  O113  1  0.05638000  0.70806000  0.82893000  1.0
  O  O114  1  0.56441000  0.88170000  0.77962000  1.0
  O  O115  1  0.93556000  0.11833000  0.27962000  1.0
  O  O116  1  0.43557000  0.11831000  0.22038000  1.0
  O  O117  1  0.06444000  0.88168000  0.72039000  1.0
  O  O118  1  0.51886000  0.09387000  0.76287000  1.0
  O  O119  1  0.98113000  0.90615000  0.26288000  1.0
  O  O120  1  0.48113000  0.90613000  0.23712000  1.0
  O  O121  1  0.01889000  0.09385000  0.73714000  1.0
