# generated using pymatgen
data_ZnH22C28(NO5)2
_symmetry_space_group_name_H-M   'P 1'
_cell_length_a   10.08270000
_cell_length_b   10.91550000
_cell_length_c   23.68530000
_cell_angle_alpha   94.02430000
_cell_angle_beta   89.91730000
_cell_angle_gamma   89.71440000
_symmetry_Int_Tables_number   1
_chemical_formula_structural   ZnH22C28(NO5)2
_chemical_formula_sum   'Zn2 H44 C56 N4 O20'
_cell_volume   2600.28615036
_cell_formula_units_Z   2
loop_
 _symmetry_equiv_pos_site_id
 _symmetry_equiv_pos_as_xyz
  1  'x, y, z'
loop_
 _atom_site_type_symbol
 _atom_site_label
 _atom_site_symmetry_multiplicity
 _atom_site_fract_x
 _atom_site_fract_y
 _atom_site_fract_z
 _atom_site_occupancy
  Zn  Zn0  1  0.35473000  0.50039000  0.50020000  1.0
  Zn  Zn1  1  0.64793000  0.50047000  0.49893000  1.0
  H  H2  1  0.46616000  0.19896000  0.92979000  1.0
  H  H3  1  0.44108000  0.80332000  0.06931000  1.0
  H  H4  1  0.49236000  0.18811000  0.03558000  1.0
  H  H5  1  0.47646000  0.81559000  0.96406000  1.0
  H  H6  1  0.70839000  0.80669000  0.19892000  1.0
  H  H7  1  0.75073000  0.21202000  0.79710000  1.0
  H  H8  1  0.69673000  0.72623000  0.31081000  1.0
  H  H9  1  0.58880000  0.70284000  0.36814000  1.0
  H  H10  1  0.72767000  0.60671000  0.35694000  1.0
  H  H11  1  0.64823000  0.35250000  0.62046000  1.0
  H  H12  1  0.75939000  0.33975000  0.67774000  1.0
  H  H13  1  0.61763000  0.24648000  0.67265000  1.0
  H  H14  1  0.40192000  0.28365000  0.37001000  1.0
  H  H15  1  0.27240000  0.25821000  0.31943000  1.0
  H  H16  1  0.42859000  0.19020000  0.30675000  1.0
  H  H17  1  0.42680000  0.80967000  0.69198000  1.0
  H  H18  1  0.40079000  0.71508000  0.62913000  1.0
  H  H19  1  0.27216000  0.73939000  0.68044000  1.0
  H  H20  1  0.24408000  0.15491000  0.19031000  1.0
  H  H21  1  0.24495000  0.84489000  0.80961000  1.0
  H  H22  1  0.75000000  0.18961000  0.55704000  1.0
  H  H23  1  0.82900000  0.04803000  0.53585000  1.0
  H  H24  1  0.80979000  0.16343000  0.48752000  1.0
  H  H25  1  0.25917000  0.79394000  0.45827000  1.0
  H  H26  1  0.20175000  0.85304000  0.52510000  1.0
  H  H27  1  0.18328000  0.94147000  0.46564000  1.0
  H  H28  1  0.73912000  0.80743000  0.43645000  1.0
  H  H29  1  0.82335000  0.94579000  0.45707000  1.0
  H  H30  1  0.80756000  0.82817000  0.50447000  1.0
  H  H31  1  0.27039000  0.21583000  0.54888000  1.0
  H  H32  1  0.20070000  0.15591000  0.48456000  1.0
  H  H33  1  0.19114000  0.07051000  0.54532000  1.0
  H  H34  1  0.75548000  0.68016000  0.56293000  1.0
  H  H35  1  0.84834000  0.62562000  0.61905000  1.0
  H  H36  1  0.90852000  0.75078000  0.58308000  1.0
  H  H37  1  0.25036000  0.35665000  0.42325000  1.0
  H  H38  1  0.11272000  0.25718000  0.41404000  1.0
  H  H39  1  0.12305000  0.38873000  0.37481000  1.0
  H  H40  1  0.75934000  0.32121000  0.43483000  1.0
  H  H41  1  0.85061000  0.38045000  0.37951000  1.0
  H  H42  1  0.91397000  0.25337000  0.41340000  1.0
  H  H43  1  0.24662000  0.64739000  0.57586000  1.0
  H  H44  1  0.10249000  0.73718000  0.59106000  1.0
  H  H45  1  0.12794000  0.59970000  0.62489000  1.0
  C  C46  1  0.50909000  0.26693000  0.50723000  1.0
  C  C47  1  0.50413000  0.73421000  0.49263000  1.0
  C  C48  1  0.49665000  0.48154000  0.38935000  1.0
  C  C49  1  0.49787000  0.51821000  0.60979000  1.0
  C  C50  1  0.49946000  0.62770000  0.88557000  1.0
  C  C51  1  0.49660000  0.37627000  0.11427000  1.0
  C  C52  1  0.45511000  0.40194000  0.87251000  1.0
  C  C53  1  0.43852000  0.59988000  0.12660000  1.0
  C  C54  1  0.46678000  0.39534000  0.93445000  1.0
  C  C55  1  0.45440000  0.60727000  0.06483000  1.0
  C  C56  1  0.47072000  0.50479000  0.96988000  1.0
  C  C57  1  0.46820000  0.49821000  0.02954000  1.0
  C  C58  1  0.47763000  0.62069000  0.94704000  1.0
  C  C59  1  0.47996000  0.38271000  0.05252000  1.0
  C  C60  1  0.47046000  0.28218000  0.95797000  1.0
  C  C61  1  0.45311000  0.72044000  0.04130000  1.0
  C  C62  1  0.48218000  0.27604000  0.01683000  1.0
  C  C63  1  0.46996000  0.72726000  0.98265000  1.0
  C  C64  1  0.56372000  0.56533000  0.23915000  1.0
  C  C65  1  0.57625000  0.44038000  0.76021000  1.0
  C  C66  1  0.56840000  0.56689000  0.29863000  1.0
  C  C67  1  0.57606000  0.43471000  0.70047000  1.0
  C  C68  1  0.49765000  0.47617000  0.32539000  1.0
  C  C69  1  0.50223000  0.52366000  0.67369000  1.0
  C  C70  1  0.42771000  0.38253000  0.29493000  1.0
  C  C71  1  0.43153000  0.61770000  0.70439000  1.0
  C  C72  1  0.41078000  0.39159000  0.23613000  1.0
  C  C73  1  0.41673000  0.61000000  0.76331000  1.0
  C  C74  1  0.48022000  0.48141000  0.20866000  1.0
  C  C75  1  0.49062000  0.52266000  0.79088000  1.0
  C  C76  1  0.62870000  0.06268000  0.50650000  1.0
  C  C77  1  0.38312000  0.93830000  0.49649000  1.0
  C  C78  1  0.62657000  0.93546000  0.49104000  1.0
  C  C79  1  0.38509000  0.06661000  0.50785000  1.0
  C  C80  1  0.50417000  0.87192000  0.49066000  1.0
  C  C81  1  0.50778000  0.12949000  0.51009000  1.0
  C  C82  1  0.92926000  0.57610000  0.53669000  1.0
  C  C83  1  0.07081000  0.42810000  0.46140000  1.0
  C  C84  1  0.93083000  0.42543000  0.46218000  1.0
  C  C85  1  0.06919000  0.57128000  0.53868000  1.0
  C  C86  1  0.65111000  0.64496000  0.20611000  1.0
  C  C87  1  0.67155000  0.36682000  0.79263000  1.0
  C  C88  1  0.65059000  0.65628000  0.33485000  1.0
  C  C89  1  0.65421000  0.33868000  0.66561000  1.0
  C  C90  1  0.37912000  0.27391000  0.32475000  1.0
  C  C91  1  0.37914000  0.72511000  0.67451000  1.0
  C  C92  1  0.31219000  0.31422000  0.20293000  1.0
  C  C93  1  0.31623000  0.68615000  0.79660000  1.0
  C  C94  1  0.76140000  0.11920000  0.52225000  1.0
  C  C95  1  0.25000000  0.87803000  0.48591000  1.0
  C  C96  1  0.75605000  0.87587000  0.47155000  1.0
  C  C97  1  0.25519000  0.13111000  0.52230000  1.0
  C  C98  1  0.85612000  0.66303000  0.57721000  1.0
  C  C99  1  0.14392000  0.35362000  0.41634000  1.0
  C  C100  1  0.85957000  0.34022000  0.42069000  1.0
  C  C101  1  0.14099000  0.64310000  0.58468000  1.0
  N  N102  1  0.48071000  0.51778000  0.85122000  1.0
  N  N103  1  0.47049000  0.48558000  0.14827000  1.0
  N  N104  1  0.13868000  0.49939000  0.50023000  1.0
  N  N105  1  0.86164000  0.50124000  0.49913000  1.0
  O  O106  1  0.40495000  0.31725000  0.48849000  1.0
  O  O107  1  0.61048000  0.67508000  0.47942000  1.0
  O  O108  1  0.40015000  0.68414000  0.51137000  1.0
  O  O109  1  0.61582000  0.32537000  0.51949000  1.0
  O  O110  1  0.38883000  0.51699000  0.41347000  1.0
  O  O111  1  0.60185000  0.54887000  0.58415000  1.0
  O  O112  1  0.38954000  0.48256000  0.58665000  1.0
  O  O113  1  0.60258000  0.45202000  0.41395000  1.0
  O  O114  1  0.53108000  0.72365000  0.86499000  1.0
  O  O115  1  0.53053000  0.28121000  0.13529000  1.0
  O  O116  1  0.42762000  0.31195000  0.84067000  1.0
  O  O117  1  0.40303000  0.68815000  0.15815000  1.0
  O  O118  1  0.71852000  0.60640000  0.16568000  1.0
  O  O119  1  0.64927000  0.76588000  0.22457000  1.0
  O  O120  1  0.73301000  0.40844000  0.83410000  1.0
  O  O121  1  0.68672000  0.24825000  0.77186000  1.0
  O  O122  1  0.23508000  0.35434000  0.16885000  1.0
  O  O123  1  0.31229000  0.19410000  0.21481000  1.0
  O  O124  1  0.23993000  0.64487000  0.83059000  1.0
  O  O125  1  0.31371000  0.80634000  0.78490000  1.0
