# generated using pymatgen
data_CdH12C18(NO)4
_symmetry_space_group_name_H-M   'P 1'
_cell_length_a   11.08650000
_cell_length_b   14.01890000
_cell_length_c   14.08256132
_cell_angle_alpha   74.45555201
_cell_angle_beta   66.82952060
_cell_angle_gamma   89.98350000
_symmetry_Int_Tables_number   1
_chemical_formula_structural   CdH12C18(NO)4
_chemical_formula_sum   'Cd4 H48 C72 N16 O16'
_cell_volume   1924.86243898
_cell_formula_units_Z   4
loop_
 _symmetry_equiv_pos_site_id
 _symmetry_equiv_pos_as_xyz
  1  'x, y, z'
loop_
 _atom_site_type_symbol
 _atom_site_label
 _atom_site_symmetry_multiplicity
 _atom_site_fract_x
 _atom_site_fract_y
 _atom_site_fract_z
 _atom_site_occupancy
  Cd  Cd0  1  0.54737000  0.36612000  0.55087000  1.0
  Cd  Cd1  1  0.90189000  0.86603000  0.55081000  1.0
  Cd  Cd2  1  0.45265000  0.63388000  0.44912000  1.0
  Cd  Cd3  1  0.09810000  0.13398000  0.44919000  1.0
  H  H4  1  0.57679000  0.77057000  0.62832000  1.0
  H  H5  1  0.79466000  0.27044000  0.62821000  1.0
  H  H6  1  0.42321000  0.22943000  0.37168000  1.0
  H  H7  1  0.20535000  0.72956000  0.37178000  1.0
  H  H8  1  0.34933000  0.82921000  0.68584000  1.0
  H  H9  1  0.96529000  0.32902000  0.68511000  1.0
  H  H10  1  0.65067000  0.17079000  0.31417000  1.0
  H  H11  1  0.03470000  0.67097000  0.31490000  1.0
  H  H12  1  0.23783000  0.38300000  0.66590000  1.0
  H  H13  1  0.09561000  0.88327000  0.66607000  1.0
  H  H14  1  0.76219000  0.61700000  0.33409000  1.0
  H  H15  1  0.90439000  0.11673000  0.33393000  1.0
  H  H16  1  0.06153000  0.38525000  0.84055000  1.0
  H  H17  1  0.09702000  0.88527000  0.84087000  1.0
  H  H18  1  0.93848000  0.61475000  0.15944000  1.0
  H  H19  1  0.90298000  0.11474000  0.15913000  1.0
  H  H20  1  0.35969000  0.36128000  0.96974000  1.0
  H  H21  1  0.66978000  0.86120000  0.96975000  1.0
  H  H22  1  0.64032000  0.63871000  0.03026000  1.0
  H  H23  1  0.33022000  0.13880000  0.03025000  1.0
  H  H24  1  0.52312000  0.35538000  0.78888000  1.0
  H  H25  1  0.68740000  0.85544000  0.78877000  1.0
  H  H26  1  0.47687000  0.64462000  0.21113000  1.0
  H  H27  1  0.31260000  0.14456000  0.21123000  1.0
  H  H28  1  0.70421000  0.38270000  0.13193000  1.0
  H  H29  1  0.16336000  0.88286000  0.13170000  1.0
  H  H30  1  0.29580000  0.61730000  0.86806000  1.0
  H  H31  1  0.83663000  0.11714000  0.86830000  1.0
  H  H32  1  0.55183000  0.38181000  0.31783000  1.0
  H  H33  1  0.13029000  0.88151000  0.31764000  1.0
  H  H34  1  0.44818000  0.61819000  0.68217000  1.0
  H  H35  1  0.86970000  0.11849000  0.68236000  1.0
  H  H36  1  0.85800000  0.35938000  0.41926000  1.0
  H  H37  1  0.72271000  0.85942000  0.41940000  1.0
  H  H38  1  0.14201000  0.64063000  0.58073000  1.0
  H  H39  1  0.27728000  0.14058000  0.58060000  1.0
  H  H40  1  0.02127000  0.36031000  0.24090000  1.0
  H  H41  1  0.73740000  0.86073000  0.24101000  1.0
  H  H42  1  0.97874000  0.63969000  0.75909000  1.0
  H  H43  1  0.26259000  0.13928000  0.75899000  1.0
  H  H44  1  0.14390000  0.36858000  0.08753000  1.0
  H  H45  1  0.76771000  0.86843000  0.08776000  1.0
  H  H46  1  0.85610000  0.63142000  0.91247000  1.0
  H  H47  1  0.23228000  0.13157000  0.91224000  1.0
  H  H48  1  0.92556000  0.37859000  0.00214000  1.0
  H  H49  1  0.07149000  0.87900000  0.00202000  1.0
  H  H50  1  0.07444000  0.62140000  0.99786000  1.0
  H  H51  1  0.92851000  0.12100000  0.99798000  1.0
  C  C52  1  0.52796000  0.03582000  0.63980000  1.0
  C  C53  1  0.83242000  0.53570000  0.63961000  1.0
  C  C54  1  0.47204000  0.96418000  0.36020000  1.0
  C  C55  1  0.16759000  0.46431000  0.36039000  1.0
  C  C56  1  0.65506000  0.00529000  0.59975000  1.0
  C  C57  1  0.74510000  0.50524000  0.59977000  1.0
  C  C58  1  0.34494000  0.99471000  0.40025000  1.0
  C  C59  1  0.25490000  0.49476000  0.40023000  1.0
  C  C60  1  0.56174000  0.84663000  0.63169000  1.0
  C  C61  1  0.80652000  0.34652000  0.63152000  1.0
  C  C62  1  0.43826000  0.15336000  0.36831000  1.0
  C  C63  1  0.19349000  0.65349000  0.36847000  1.0
  C  C64  1  0.43700000  0.87982000  0.66425000  1.0
  C  C65  1  0.89905000  0.37966000  0.66377000  1.0
  C  C66  1  0.56299000  0.12018000  0.33576000  1.0
  C  C67  1  0.10096000  0.62034000  0.33623000  1.0
  C  C68  1  0.50664000  0.13915000  0.65359000  1.0
  C  C69  1  0.84003000  0.63898000  0.65352000  1.0
  C  C70  1  0.49337000  0.86085000  0.34641000  1.0
  C  C71  1  0.15997000  0.36102000  0.34648000  1.0
  C  C72  1  0.77794000  0.07851000  0.55509000  1.0
  C  C73  1  0.66675000  0.57848000  0.55523000  1.0
  C  C74  1  0.22205000  0.92149000  0.44492000  1.0
  C  C75  1  0.33325000  0.42152000  0.44477000  1.0
  C  C76  1  0.26000000  0.37712000  0.73592000  1.0
  C  C77  1  0.00337000  0.87728000  0.73606000  1.0
  C  C78  1  0.74000000  0.62288000  0.26408000  1.0
  C  C79  1  0.99663000  0.12272000  0.26394000  1.0
  C  C80  1  0.16216000  0.37847000  0.83407000  1.0
  C  C81  1  0.00293000  0.87850000  0.83428000  1.0
  C  C82  1  0.83784000  0.62153000  0.16593000  1.0
  C  C83  1  0.99707000  0.12151000  0.16572000  1.0
  C  C84  1  0.19530000  0.37272000  0.92205000  1.0
  C  C85  1  0.88179000  0.87271000  0.92220000  1.0
  C  C86  1  0.80470000  0.62728000  0.07795000  1.0
  C  C87  1  0.11820000  0.12729000  0.07780000  1.0
  C  C88  1  0.32860000  0.36554000  0.90439000  1.0
  C  C89  1  0.76623000  0.86555000  0.90445000  1.0
  C  C90  1  0.67140000  0.63446000  0.09561000  1.0
  C  C91  1  0.23377000  0.13445000  0.09555000  1.0
  C  C92  1  0.41987000  0.36307000  0.80392000  1.0
  C  C93  1  0.77553000  0.86313000  0.80392000  1.0
  C  C94  1  0.58012000  0.63692000  0.19609000  1.0
  C  C95  1  0.22446000  0.13686000  0.19608000  1.0
  C  C96  1  0.87787000  0.37232000  0.16869000  1.0
  C  C97  1  0.95291000  0.87258000  0.16867000  1.0
  C  C98  1  0.12213000  0.62767000  0.83131000  1.0
  C  C99  1  0.04708000  0.12742000  0.83133000  1.0
  C  C100  1  0.74250000  0.37760000  0.19334000  1.0
  C  C101  1  0.06371000  0.87771000  0.19322000  1.0
  C  C102  1  0.25749000  0.62239000  0.80666000  1.0
  C  C103  1  0.93628000  0.12229000  0.80678000  1.0
  C  C104  1  0.65704000  0.37771000  0.29662000  1.0
  C  C105  1  0.04620000  0.87757000  0.29650000  1.0
  C  C106  1  0.34296000  0.62229000  0.70338000  1.0
  C  C107  1  0.95379000  0.12243000  0.70350000  1.0
  C  C108  1  0.82686000  0.36557000  0.35386000  1.0
  C  C109  1  0.81916000  0.86558000  0.35392000  1.0
  C  C110  1  0.17314000  0.63443000  0.64614000  1.0
  C  C111  1  0.18083000  0.13442000  0.64608000  1.0
  C  C112  1  0.91865000  0.36551000  0.25278000  1.0
  C  C113  1  0.82818000  0.86573000  0.25284000  1.0
  C  C114  1  0.08134000  0.63449000  0.74722000  1.0
  C  C115  1  0.17181000  0.13427000  0.74716000  1.0
  C  C116  1  0.10114000  0.37233000  0.02878000  1.0
  C  C117  1  0.86923000  0.87235000  0.02896000  1.0
  C  C118  1  0.89887000  0.62767000  0.97121000  1.0
  C  C119  1  0.13077000  0.12765000  0.97104000  1.0
  C  C120  1  0.96942000  0.37459000  0.06019000  1.0
  C  C121  1  0.96965000  0.87487000  0.06018000  1.0
  C  C122  1  0.03058000  0.62541000  0.93981000  1.0
  C  C123  1  0.03035000  0.12514000  0.93982000  1.0
  N  N124  1  0.41883000  0.97257000  0.67081000  1.0
  N  N125  1  0.91073000  0.47238000  0.67035000  1.0
  N  N126  1  0.58116000  0.02743000  0.32920000  1.0
  N  N127  1  0.08927000  0.52762000  0.32965000  1.0
  N  N128  1  0.67023000  0.91009000  0.59921000  1.0
  N  N129  1  0.73037000  0.41004000  0.59927000  1.0
  N  N130  1  0.32976000  0.08991000  0.40080000  1.0
  N  N131  1  0.26963000  0.58996000  0.40073000  1.0
  N  N132  1  0.38704000  0.36926000  0.72047000  1.0
  N  N133  1  0.89186000  0.86941000  0.72054000  1.0
  N  N134  1  0.61296000  0.63073000  0.27953000  1.0
  N  N135  1  0.10814000  0.13059000  0.27946000  1.0
  N  N136  1  0.69794000  0.37218000  0.37594000  1.0
  N  N137  1  0.92609000  0.87203000  0.37588000  1.0
  N  N138  1  0.30206000  0.62783000  0.62406000  1.0
  N  N139  1  0.07391000  0.12797000  0.62412000  1.0
  O  O140  1  0.49652000  0.20284000  0.57337000  1.0
  O  O141  1  0.93021000  0.70271000  0.57327000  1.0
  O  O142  1  0.50348000  0.79717000  0.42663000  1.0
  O  O143  1  0.06980000  0.29730000  0.42673000  1.0
  O  O144  1  0.49395000  0.14998000  0.74226000  1.0
  O  O145  1  0.76430000  0.64976000  0.74225000  1.0
  O  O146  1  0.50604000  0.85001000  0.25775000  1.0
  O  O147  1  0.23571000  0.35024000  0.25774000  1.0
  O  O148  1  0.76542000  0.16692000  0.55467000  1.0
  O  O149  1  0.67940000  0.66683000  0.55510000  1.0
  O  O150  1  0.23458000  0.83308000  0.44533000  1.0
  O  O151  1  0.32061000  0.33318000  0.44490000  1.0
  O  O152  1  0.88857000  0.04270000  0.51933000  1.0
  O  O153  1  0.59212000  0.54274000  0.51926000  1.0
  O  O154  1  0.11143000  0.95730000  0.48067000  1.0
  O  O155  1  0.40788000  0.45727000  0.48075000  1.0
