# generated using pymatgen
data_Zn2H33C47N2O9
_symmetry_space_group_name_H-M   'P 1'
_cell_length_a   16.56860000
_cell_length_b   17.86610000
_cell_length_c   31.07550000
_cell_angle_alpha   89.93240000
_cell_angle_beta   89.45470000
_cell_angle_gamma   89.90700000
_symmetry_Int_Tables_number   1
_chemical_formula_structural   Zn2H33C47N2O9
_chemical_formula_sum   'Zn4 H66 C94 N4 O18'
_cell_volume   9198.41846609
_cell_formula_units_Z   2
loop_
 _symmetry_equiv_pos_site_id
 _symmetry_equiv_pos_as_xyz
  1  'x, y, z'
loop_
 _atom_site_type_symbol
 _atom_site_label
 _atom_site_symmetry_multiplicity
 _atom_site_fract_x
 _atom_site_fract_y
 _atom_site_fract_z
 _atom_site_occupancy
  Zn  Zn0  1  0.42223000  0.49812000  0.50502000  1.0
  Zn  Zn1  1  0.59205000  0.51181000  0.49923000  1.0
  Zn  Zn2  1  0.57771000  0.49503000  0.92395000  1.0
  Zn  Zn3  1  0.40788000  0.50958000  0.92962000  1.0
  H  H4  1  0.71283000  0.42758000  0.53987000  1.0
  H  H5  1  0.86327000  0.41347000  0.54418000  1.0
  H  H6  1  0.88255000  0.59926000  0.45543000  1.0
  H  H7  1  0.13363000  0.41581000  0.55622000  1.0
  H  H8  1  0.29957000  0.56482000  0.45661000  1.0
  H  H9  1  0.14884000  0.57278000  0.45050000  1.0
  H  H10  1  0.39312000  0.27645000  0.49329000  1.0
  H  H11  1  0.37840000  0.13751000  0.49115000  1.0
  H  H12  1  0.63730000  0.11710000  0.49444000  1.0
  H  H13  1  0.36086000  0.88546000  0.50161000  1.0
  H  H14  1  0.61481000  0.74007000  0.50366000  1.0
  H  H15  1  0.62068000  0.87931000  0.49861000  1.0
  H  H16  1  0.60052000  0.50113000  0.78695000  1.0
  H  H17  1  0.34291000  0.49768000  0.79572000  1.0
  H  H18  1  0.39942000  0.50257000  0.64189000  1.0
  H  H19  1  0.65705000  0.49911000  0.63308000  1.0
  H  H20  1  0.62670000  0.51816000  0.06304000  1.0
  H  H21  1  0.62939000  0.51430000  0.14342000  1.0
  H  H22  1  0.37756000  0.45494000  0.14433000  1.0
  H  H23  1  0.62290000  0.45582000  0.28501000  1.0
  H  H24  1  0.37314000  0.51938000  0.36576000  1.0
  H  H25  1  0.37073000  0.51465000  0.28539000  1.0
  H  H26  1  0.28711000  0.42644000  0.88884000  1.0
  H  H27  1  0.13668000  0.41285000  0.88448000  1.0
  H  H28  1  0.11737000  0.59773000  0.97365000  1.0
  H  H29  1  0.86713000  0.41422000  0.87290000  1.0
  H  H30  1  0.69967000  0.56182000  0.97253000  1.0
  H  H31  1  0.85032000  0.57090000  0.97852000  1.0
  H  H32  1  0.60601000  0.27334000  0.93592000  1.0
  H  H33  1  0.62092000  0.13441000  0.93706000  1.0
  H  H34  1  0.36217000  0.11455000  0.93220000  1.0
  H  H35  1  0.63985000  0.88206000  0.92564000  1.0
  H  H36  1  0.38562000  0.73776000  0.92373000  1.0
  H  H37  1  0.38000000  0.87710000  0.92794000  1.0
  H  H38  1  0.76211000  0.65163000  0.42600000  1.0
  H  H39  1  0.66900000  0.60068000  0.43104000  1.0
  H  H40  1  0.69509000  0.66648000  0.47049000  1.0
  H  H41  1  0.31725000  0.34762000  0.55064000  1.0
  H  H42  1  0.35000000  0.42714000  0.57880000  1.0
  H  H43  1  0.25586000  0.38339000  0.59333000  1.0
  H  H44  1  0.72157000  0.21595000  0.49483000  1.0
  H  H45  1  0.68849000  0.30097000  0.46995000  1.0
  H  H46  1  0.68674000  0.29306000  0.52629000  1.0
  H  H47  1  0.31697000  0.70811000  0.47670000  1.0
  H  H48  1  0.32611000  0.69882000  0.53264000  1.0
  H  H49  1  0.28376000  0.78266000  0.51076000  1.0
  H  H50  1  0.31924000  0.50436000  0.04892000  1.0
  H  H51  1  0.36046000  0.41896000  0.03110000  1.0
  H  H52  1  0.31105000  0.42386000  0.08243000  1.0
  H  H53  1  0.68050000  0.50668000  0.38023000  1.0
  H  H54  1  0.64010000  0.42121000  0.39839000  1.0
  H  H55  1  0.68957000  0.42595000  0.34706000  1.0
  H  H56  1  0.23771000  0.64971000  0.00303000  1.0
  H  H57  1  0.33065000  0.59819000  0.99818000  1.0
  H  H58  1  0.30523000  0.66448000  0.95874000  1.0
  H  H59  1  0.68319000  0.34533000  0.87865000  1.0
  H  H60  1  0.65100000  0.42481000  0.85009000  1.0
  H  H61  1  0.74521000  0.38054000  0.83604000  1.0
  H  H62  1  0.27777000  0.21410000  0.93633000  1.0
  H  H63  1  0.31248000  0.30355000  0.95450000  1.0
  H  H64  1  0.31035000  0.28373000  0.89908000  1.0
  H  H65  1  0.68333000  0.70478000  0.95137000  1.0
  H  H66  1  0.67439000  0.69501000  0.89545000  1.0
  H  H67  1  0.71676000  0.77888000  0.91701000  1.0
  H  H68  1  0.68028000  0.50104000  0.74585000  1.0
  H  H69  1  0.31975000  0.50167000  0.68296000  1.0
  C  C70  1  0.52225000  0.35906000  0.49817000  1.0
  C  C71  1  0.51979000  0.50114000  0.58574000  1.0
  C  C72  1  0.49089000  0.65000000  0.50438000  1.0
  C  C73  1  0.49673000  0.50224000  0.41824000  1.0
  C  C74  1  0.47720000  0.35645000  0.93064000  1.0
  C  C75  1  0.48017000  0.49862000  0.84310000  1.0
  C  C76  1  0.50935000  0.64719000  0.92391000  1.0
  C  C77  1  0.50311000  0.50006000  0.01074000  1.0
  C  C78  1  0.75336000  0.46408000  0.52172000  1.0
  C  C79  1  0.83640000  0.45651000  0.52405000  1.0
  C  C80  1  0.88513000  0.50565000  0.49973000  1.0
  C  C81  1  0.84665000  0.56018000  0.47450000  1.0
  C  C82  1  0.76253000  0.56496000  0.47395000  1.0
  C  C83  1  0.97030000  0.50090000  0.50079000  1.0
  C  C84  1  0.04375000  0.49752000  0.50189000  1.0
  C  C85  1  0.12900000  0.49458000  0.50330000  1.0
  C  C86  1  0.16867000  0.44952000  0.53359000  1.0
  C  C87  1  0.25291000  0.44784000  0.53504000  1.0
  C  C88  1  0.25984000  0.53289000  0.47789000  1.0
  C  C89  1  0.17668000  0.53712000  0.47460000  1.0
  C  C90  1  0.52221000  0.27515000  0.49526000  1.0
  C  C91  1  0.44618000  0.24040000  0.49354000  1.0
  C  C92  1  0.43786000  0.16336000  0.49236000  1.0
  C  C93  1  0.50734000  0.11774000  0.49327000  1.0
  C  C94  1  0.58361000  0.15253000  0.49405000  1.0
  C  C95  1  0.59285000  0.23033000  0.49486000  1.0
  C  C96  1  0.50047000  0.03887000  0.49428000  1.0
  C  C97  1  0.49377000  0.97087000  0.49640000  1.0
  C  C98  1  0.49067000  0.89190000  0.49912000  1.0
  C  C99  1  0.41677000  0.85309000  0.50146000  1.0
  C  C100  1  0.41253000  0.77494000  0.50363000  1.0
  C  C101  1  0.48591000  0.73394000  0.50366000  1.0
  C  C102  1  0.55953000  0.77294000  0.50243000  1.0
  C  C103  1  0.56297000  0.85018000  0.49991000  1.0
  C  C104  1  0.54326000  0.49986000  0.76987000  1.0
  C  C105  1  0.39705000  0.49825000  0.77561000  1.0
  C  C106  1  0.39082000  0.49928000  0.73136000  1.0
  C  C107  1  0.46117000  0.49995000  0.70426000  1.0
  C  C108  1  0.45674000  0.50094000  0.65896000  1.0
  C  C109  1  0.60292000  0.49936000  0.65320000  1.0
  C  C110  1  0.60915000  0.49956000  0.69746000  1.0
  C  C111  1  0.53879000  0.49975000  0.72458000  1.0
  C  C112  1  0.47375000  0.49886000  0.79499000  1.0
  C  C113  1  0.52623000  0.50044000  0.63381000  1.0
  C  C114  1  0.50066000  0.49241000  0.05873000  1.0
  C  C115  1  0.57209000  0.50547000  0.08148000  1.0
  C  C116  1  0.57386000  0.50300000  0.12609000  1.0
  C  C117  1  0.50268000  0.48597000  0.14934000  1.0
  C  C118  1  0.43192000  0.47019000  0.12627000  1.0
  C  C119  1  0.42909000  0.47313000  0.08139000  1.0
  C  C120  1  0.50146000  0.48478000  0.19489000  1.0
  C  C121  1  0.49897000  0.48490000  0.23418000  1.0
  C  C122  1  0.49760000  0.48649000  0.27974000  1.0
  C  C123  1  0.56839000  0.47110000  0.30295000  1.0
  C  C124  1  0.57108000  0.47459000  0.34781000  1.0
  C  C125  1  0.49931000  0.49397000  0.37030000  1.0
  C  C126  1  0.42786000  0.50658000  0.34744000  1.0
  C  C127  1  0.42625000  0.50361000  0.30284000  1.0
  C  C128  1  0.24657000  0.46292000  0.90703000  1.0
  C  C129  1  0.16352000  0.45563000  0.90470000  1.0
  C  C130  1  0.11479000  0.50464000  0.92914000  1.0
  C  C131  1  0.15327000  0.55880000  0.95446000  1.0
  C  C132  1  0.23740000  0.56337000  0.95500000  1.0
  C  C133  1  0.02961000  0.49996000  0.92814000  1.0
  C  C134  1  0.95619000  0.49638000  0.92712000  1.0
  C  C135  1  0.87096000  0.49293000  0.92576000  1.0
  C  C136  1  0.83174000  0.44764000  0.89552000  1.0
  C  C137  1  0.74751000  0.44540000  0.89412000  1.0
  C  C138  1  0.73973000  0.53024000  0.95124000  1.0
  C  C139  1  0.82284000  0.53507000  0.95446000  1.0
  C  C140  1  0.47698000  0.27244000  0.93308000  1.0
  C  C141  1  0.55301000  0.23746000  0.93501000  1.0
  C  C142  1  0.56146000  0.16039000  0.93564000  1.0
  C  C143  1  0.49213000  0.11488000  0.93395000  1.0
  C  C144  1  0.41583000  0.14984000  0.93307000  1.0
  C  C145  1  0.40644000  0.22769000  0.93279000  1.0
  C  C146  1  0.49931000  0.03604000  0.93252000  1.0
  C  C147  1  0.50673000  0.96810000  0.93028000  1.0
  C  C148  1  0.50998000  0.88911000  0.92776000  1.0
  C  C149  1  0.58384000  0.84998000  0.92578000  1.0
  C  C150  1  0.58796000  0.77176000  0.92402000  1.0
  C  C151  1  0.51451000  0.73110000  0.92408000  1.0
  C  C152  1  0.44095000  0.77040000  0.92489000  1.0
  C  C153  1  0.43763000  0.84768000  0.92695000  1.0
  C  C154  1  0.72038000  0.62411000  0.44853000  1.0
  C  C155  1  0.29601000  0.39907000  0.56657000  1.0
  C  C156  1  0.67714000  0.26156000  0.49640000  1.0
  C  C157  1  0.33024000  0.73943000  0.50620000  1.0
  C  C158  1  0.35082000  0.45372000  0.05977000  1.0
  C  C159  1  0.64947000  0.45577000  0.36957000  1.0
  C  C160  1  0.27954000  0.62210000  0.98057000  1.0
  C  C161  1  0.70477000  0.39656000  0.86261000  1.0
  C  C162  1  0.32201000  0.25889000  0.93087000  1.0
  C  C163  1  0.67021000  0.73588000  0.92172000  1.0
  N  N164  1  0.71707000  0.51648000  0.49734000  1.0
  N  N165  1  0.29731000  0.48995000  0.50733000  1.0
  N  N166  1  0.28286000  0.51498000  0.93151000  1.0
  N  N167  1  0.70270000  0.48712000  0.92185000  1.0
  O  O168  1  0.45522000  0.38878000  0.50960000  1.0
  O  O169  1  0.58655000  0.39516000  0.48933000  1.0
  O  O170  1  0.58478000  0.49115000  0.56426000  1.0
  O  O171  1  0.44993000  0.51163000  0.56992000  1.0
  O  O172  1  0.56034000  0.62154000  0.51112000  1.0
  O  O173  1  0.42672000  0.61253000  0.49767000  1.0
  O  O174  1  0.43066000  0.48807000  0.43779000  1.0
  O  O175  1  0.56165000  0.52414000  0.43615000  1.0
  O  O176  1  0.54449000  0.38592000  0.91958000  1.0
  O  O177  1  0.41304000  0.39293000  0.93945000  1.0
  O  O178  1  0.41517000  0.48869000  0.86455000  1.0
  O  O179  1  0.55010000  0.50839000  0.85896000  1.0
  O  O180  1  0.43981000  0.61897000  0.91740000  1.0
  O  O181  1  0.57342000  0.60950000  0.93083000  1.0
  O  O182  1  0.56918000  0.48556000  0.99124000  1.0
  O  O183  1  0.43811000  0.52178000  0.99274000  1.0
  O  O184  1  0.68504000  0.49935000  0.71458000  1.0
  O  O185  1  0.31498000  0.49944000  0.71421000  1.0
