# generated using pymatgen
data_CuH4C5BrN
_symmetry_space_group_name_H-M   'P 1'
_cell_length_a   3.85019000
_cell_length_b   9.95092000
_cell_length_c   15.52752615
_cell_angle_alpha   73.48256839
_cell_angle_beta   86.60808697
_cell_angle_gamma   81.79910000
_symmetry_Int_Tables_number   1
_chemical_formula_structural   CuH4C5BrN
_chemical_formula_sum   'Cu4 H16 C20 Br4 N4'
_cell_volume   564.41424632
_cell_formula_units_Z   4
loop_
 _symmetry_equiv_pos_site_id
 _symmetry_equiv_pos_as_xyz
  1  'x, y, z'
loop_
 _atom_site_type_symbol
 _atom_site_label
 _atom_site_symmetry_multiplicity
 _atom_site_fract_x
 _atom_site_fract_y
 _atom_site_fract_z
 _atom_site_occupancy
  Cu  Cu0  1  0.11434000  0.45993000  0.71016000  1.0
  Cu  Cu1  1  0.88567000  0.54007000  0.28984000  1.0
  Cu  Cu2  1  0.57746000  0.52597000  0.80880000  1.0
  Cu  Cu3  1  0.42251000  0.47403000  0.19120000  1.0
  H  H4  1  0.16626000  0.37401000  0.53974000  1.0
  H  H5  1  0.83375000  0.62599000  0.46025000  1.0
  H  H6  1  0.99797000  0.17546000  0.49116000  1.0
  H  H7  1  0.00211000  0.82449333  0.50884000  1.0
  H  H8  1  0.75323000  0.97562000  0.60565000  1.0
  H  H9  1  0.24682000  0.02437000  0.39435000  1.0
  H  H10  1  0.86201000  0.19688000  0.80305000  1.0
  H  H11  1  0.13799000  0.80311000  0.19695000  1.0
  H  H12  1  0.83057000  0.79038000  0.72087000  1.0
  H  H13  1  0.16941000  0.20962000  0.27913000  1.0
  H  H14  1  0.44251000  0.08396000  0.87421000  1.0
  H  H15  1  0.55746000  0.91605000  0.12579000  1.0
  H  H16  1  0.22365000  0.87963000  0.98978000  1.0
  H  H17  1  0.77634000  0.12038000  0.01022000  1.0
  H  H18  1  0.29427000  0.64385000  0.96091000  1.0
  H  H19  1  0.70571000  0.35616000  0.03909000  1.0
  C  C20  1  0.05796000  0.28646000  0.58788000  1.0
  C  C21  1  0.94207000  0.71352000  0.41212000  1.0
  C  C22  1  0.96753000  0.17358000  0.56165000  1.0
  C  C23  1  0.03251000  0.82641000  0.43835000  1.0
  C  C24  1  0.83301000  0.06325000  0.62540000  1.0
  C  C25  1  0.16703000  0.93674000  0.37460000  1.0
  C  C26  1  0.79073000  0.06811000  0.71504000  1.0
  C  C27  1  0.20928000  0.93189000  0.28495000  1.0
  C  C28  1  0.88663000  0.18621000  0.73491000  1.0
  C  C29  1  0.11338000  0.81379000  0.26509000  1.0
  C  C30  1  0.69080000  0.81711000  0.77819000  1.0
  C  C31  1  0.30918000  0.18290000  0.22181000  1.0
  C  C32  1  0.65426000  0.95462000  0.78656000  1.0
  C  C33  1  0.34571000  0.04538000  0.21344000  1.0
  C  C34  1  0.48450000  0.97819000  0.86476000  1.0
  C  C35  1  0.51548000  0.02181000  0.13524000  1.0
  C  C36  1  0.35931000  0.86578000  0.92871000  1.0
  C  C37  1  0.64067000  0.13422000  0.07130000  1.0
  C  C38  1  0.39868000  0.73304000  0.91339000  1.0
  C  C39  1  0.60130000  0.26697000  0.08661000  1.0
  Br  Br40  1  0.12996000  0.37317000  0.87965000  1.0
  Br  Br41  1  0.86999000  0.62685000  0.12035000  1.0
  Br  Br42  1  0.52531000  0.61867000  0.63785000  1.0
  Br  Br43  1  0.47470000  0.38132000  0.36216000  1.0
  N  N44  1  0.01951000  0.29249000  0.67365000  1.0
  N  N45  1  0.98050000  0.70751000  0.32634000  1.0
  N  N46  1  0.56034000  0.70911000  0.83876000  1.0
  N  N47  1  0.43963000  0.29089000  0.16124000  1.0
