# generated using pymatgen
data_CuH10C9SN3O4
_symmetry_space_group_name_H-M   'P 1'
_cell_length_a   8.17884000
_cell_length_b   8.17886000
_cell_length_c   9.30033000
_cell_angle_alpha   98.15430000
_cell_angle_beta   98.15450000
_cell_angle_gamma   112.97400000
_symmetry_Int_Tables_number   1
_chemical_formula_structural   CuH10C9SN3O4
_chemical_formula_sum   'Cu2 H20 C18 S2 N6 O8'
_cell_volume   553.56233914
_cell_formula_units_Z   2
loop_
 _symmetry_equiv_pos_site_id
 _symmetry_equiv_pos_as_xyz
  1  'x, y, z'
loop_
 _atom_site_type_symbol
 _atom_site_label
 _atom_site_symmetry_multiplicity
 _atom_site_fract_x
 _atom_site_fract_y
 _atom_site_fract_z
 _atom_site_occupancy
  Cu  Cu0  1  0.22164000  0.78004000  0.73032000  1.0
  Cu  Cu1  1  0.78005000  0.22164000  0.23032000  1.0
  H  H2  1  0.91596000  0.89823000  0.48263000  1.0
  H  H3  1  0.89822000  0.91595000  0.98263000  1.0
  H  H4  1  0.77531000  0.62383000  0.86190000  1.0
  H  H5  1  0.62383000  0.77531000  0.36190000  1.0
  H  H6  1  0.43893000  0.44179000  0.80734000  1.0
  H  H7  1  0.44179000  0.43894000  0.30734000  1.0
  H  H8  1  0.27821000  0.20682000  0.57888000  1.0
  H  H9  1  0.20682000  0.27821000  0.07888000  1.0
  H  H10  1  0.44279000  0.13910000  0.38821000  1.0
  H  H11  1  0.13910000  0.44279000  0.88821000  1.0
  H  H12  1  0.12865000  0.47643000  0.35065000  1.0
  H  H13  1  0.47643000  0.12865000  0.85064000  1.0
  H  H14  1  0.22971000  0.45352000  0.52425000  1.0
  H  H15  1  0.45352000  0.22970000  0.02425000  1.0
  H  H16  1  0.21033000  0.80916000  0.45680000  1.0
  H  H17  1  0.80916000  0.21033000  0.95680000  1.0
  H  H18  1  0.49925000  0.73133000  0.65831000  1.0
  H  H19  1  0.73132000  0.49925000  0.15830000  1.0
  H  H20  1  0.51589000  0.95528000  0.62780000  1.0
  H  H21  1  0.95527000  0.51590000  0.12779000  1.0
  C  C22  1  0.79826000  0.48328000  0.65322000  1.0
  C  C23  1  0.48328000  0.79827000  0.15322000  1.0
  C  C24  1  0.70466000  0.52027000  0.76019000  1.0
  C  C25  1  0.52028000  0.70466000  0.26020000  1.0
  C  C26  1  0.51831000  0.41836000  0.72843000  1.0
  C  C27  1  0.41836000  0.51832000  0.22843000  1.0
  C  C28  1  0.42475000  0.28192000  0.59600000  1.0
  C  C29  1  0.28192000  0.42476000  0.09601000  1.0
  C  C30  1  0.51495000  0.24184000  0.49077000  1.0
  C  C31  1  0.24184000  0.51495000  0.99077000  1.0
  C  C32  1  0.70399000  0.34533000  0.52160000  1.0
  C  C33  1  0.34533000  0.70399000  0.02161000  1.0
  C  C34  1  0.15835000  0.52619000  0.47141000  1.0
  C  C35  1  0.52619000  0.15835000  0.97141000  1.0
  C  C36  1  0.26291000  0.72961000  0.51897000  1.0
  C  C37  1  0.72961000  0.26290000  0.01896000  1.0
  C  C38  1  0.43094000  0.81084000  0.61505000  1.0
  C  C39  1  0.81084000  0.43094000  0.11505000  1.0
  S  S40  1  0.97741000  0.03297000  0.71692000  1.0
  S  S41  1  0.03296000  0.97740000  0.21692000  1.0
  N  N42  1  0.97659000  0.56254000  0.64529000  1.0
  N  N43  1  0.56254000  0.97659000  0.14529000  1.0
  N  N44  1  0.98373000  0.47463000  0.51578000  1.0
  N  N45  1  0.47464000  0.98373000  0.01578000  1.0
  N  N46  1  0.82731000  0.34419000  0.43747000  1.0
  N  N47  1  0.34420000  0.82731000  0.93747000  1.0
  O  O48  1  0.85300000  0.88453000  0.56957000  1.0
  O  O49  1  0.88453000  0.85299000  0.06957000  1.0
  O  O50  1  0.01039000  0.21192000  0.68730000  1.0
  O  O51  1  0.21192000  0.01038000  0.18730000  1.0
  O  O52  1  0.86537000  0.98361000  0.82804000  1.0
  O  O53  1  0.98360000  0.86537000  0.32804000  1.0
  O  O54  1  0.14717000  0.00818000  0.75008000  1.0
  O  O55  1  0.00817000  0.14716000  0.25007000  1.0
