# generated using pymatgen
data_Ag4H16C11(IN)4
_symmetry_space_group_name_H-M   'P 1'
_cell_length_a   4.52733000
_cell_length_b   12.59900000
_cell_length_c   18.54780000
_cell_angle_alpha   83.30270000
_cell_angle_beta   89.99980000
_cell_angle_gamma   89.99980000
_symmetry_Int_Tables_number   1
_chemical_formula_structural   Ag4H16C11(IN)4
_chemical_formula_sum   'Ag8 H32 C22 I8 N8'
_cell_volume   1050.74398415
_cell_formula_units_Z   2
loop_
 _symmetry_equiv_pos_site_id
 _symmetry_equiv_pos_as_xyz
  1  'x, y, z'
loop_
 _atom_site_type_symbol
 _atom_site_label
 _atom_site_symmetry_multiplicity
 _atom_site_fract_x
 _atom_site_fract_y
 _atom_site_fract_z
 _atom_site_occupancy
  Ag  Ag0  1  0.99142000  0.75635000  0.39242000  1.0
  Ag  Ag1  1  0.99141000  0.74365000  0.10758000  1.0
  Ag  Ag2  1  0.00860000  0.24365000  0.60758000  1.0
  Ag  Ag3  1  0.00860000  0.25636000  0.89242000  1.0
  Ag  Ag4  1  0.45561000  0.84719000  0.29531000  1.0
  Ag  Ag5  1  0.45561000  0.65281000  0.20469000  1.0
  Ag  Ag6  1  0.54439000  0.15281000  0.70469000  1.0
  Ag  Ag7  1  0.54440000  0.34719000  0.79531000  1.0
  H  H8  1  0.65990000  0.89762000  0.48480000  1.0
  H  H9  1  0.65990000  0.60239000  0.01519000  1.0
  H  H10  1  0.34011000  0.10238000  0.51520000  1.0
  H  H11  1  0.34010000  0.39762000  0.98480000  1.0
  H  H12  1  0.61192000  0.91796000  0.57736000  1.0
  H  H13  1  0.61192000  0.58204000  0.92264000  1.0
  H  H14  1  0.38809000  0.08204000  0.42264000  1.0
  H  H15  1  0.38809000  0.41796000  0.07736000  1.0
  H  H16  1  0.34706000  0.84253000  0.53354000  1.0
  H  H17  1  0.34706000  0.65747000  0.96646000  1.0
  H  H18  1  0.65294000  0.15747000  0.46646000  1.0
  H  H19  1  0.65294000  0.34253000  0.03354000  1.0
  H  H20  1  0.21480000  0.57477000  0.52918000  1.0
  H  H21  1  0.21482000  0.92523000  0.97083000  1.0
  H  H22  1  0.78519000  0.42523000  0.47082000  1.0
  H  H23  1  0.78519000  0.07477000  0.02918000  1.0
  H  H24  1  0.97497000  0.55579000  0.66833000  1.0
  H  H25  1  0.97498000  0.94421000  0.83167000  1.0
  H  H26  1  0.02501000  0.44421000  0.33166000  1.0
  H  H27  1  0.02502000  0.05579000  0.16834000  1.0
  H  H28  1  0.44683000  0.64877000  0.70423000  1.0
  H  H29  1  0.44683000  0.85123000  0.79577000  1.0
  H  H30  1  0.55316000  0.35123000  0.29577000  1.0
  H  H31  1  0.55317000  0.14877000  0.20423000  1.0
  H  H32  1  0.42200000  0.78563000  0.66954000  1.0
  H  H33  1  0.42201000  0.71437000  0.83046000  1.0
  H  H34  1  0.57799000  0.21437000  0.33046000  1.0
  H  H35  1  0.57799000  0.28563000  0.16954000  1.0
  H  H36  1  0.91074000  0.68185000  0.76933000  1.0
  H  H37  1  0.91074000  0.81815000  0.73067000  1.0
  H  H38  1  0.08925000  0.31815000  0.23067000  1.0
  H  H39  1  0.08925000  0.18185000  0.26933000  1.0
  C  C40  1  0.58379000  0.86009000  0.53791000  1.0
  C  C41  1  0.58379000  0.63991000  0.96209000  1.0
  C  C42  1  0.41621000  0.13991000  0.46209000  1.0
  C  C43  1  0.41620000  0.36009000  0.03791000  1.0
  C  C44  1  0.75792000  0.76129000  0.55797000  1.0
  C  C45  1  0.75793000  0.73871000  0.94202000  1.0
  C  C46  1  0.24209000  0.23870000  0.44202000  1.0
  C  C47  1  0.24208000  0.26130000  0.05798000  1.0
  C  C48  1  0.05882000  0.62585000  0.55313000  1.0
  C  C49  1  0.05882000  0.87415000  0.94687000  1.0
  C  C50  1  0.94117000  0.37414000  0.44687000  1.0
  C  C51  1  0.94115000  0.12586000  0.05313000  1.0
  C  C52  1  0.94348000  0.61542000  0.62194000  1.0
  C  C53  1  0.94346000  0.88457000  0.87807000  1.0
  C  C54  1  0.05654000  0.38457000  0.37807000  1.0
  C  C55  1  0.05652000  0.11542000  0.12194000  1.0
  C  C56  1  0.57784000  0.72100000  0.68731000  1.0
  C  C57  1  0.57784000  0.77900000  0.81269000  1.0
  C  C58  1  0.42217000  0.27900000  0.31269000  1.0
  C  C59  1  0.42217000  0.22100000  0.18731000  1.0
  C  C60  1  0.76835000  0.75000000  0.75000000  1.0
  C  C61  1  0.23165000  0.25000000  0.25000000  1.0
  I  I62  1  0.48472000  0.62611000  0.35960000  1.0
  I  I63  1  0.48472000  0.87389000  0.14040000  1.0
  I  I64  1  0.51529000  0.37389000  0.64040000  1.0
  I  I65  1  0.51529000  0.12612000  0.85960000  1.0
  I  I66  1  0.95184000  0.97204000  0.33360000  1.0
  I  I67  1  0.95185000  0.52796000  0.16640000  1.0
  I  I68  1  0.04816000  0.02796000  0.66640000  1.0
  I  I69  1  0.04816000  0.47204000  0.83360000  1.0
  N  N70  1  0.94286000  0.71645000  0.51408000  1.0
  N  N71  1  0.94286000  0.78355000  0.98592000  1.0
  N  N72  1  0.05715000  0.28355000  0.48592000  1.0
  N  N73  1  0.05715000  0.21645000  0.01408000  1.0
  N  N74  1  0.75386000  0.70123000  0.62446000  1.0
  N  N75  1  0.75387000  0.79877000  0.87554000  1.0
  N  N76  1  0.24611000  0.29877000  0.37554000  1.0
  N  N77  1  0.24611000  0.20123000  0.12446000  1.0
