# generated using pymatgen
data_ZnH6(C3N2)2
_symmetry_space_group_name_H-M   'P 1'
_cell_length_a   15.40910000
_cell_length_b   15.42980000
_cell_length_c   18.44900000
_cell_angle_alpha   90.00000000
_cell_angle_beta   90.00000000
_cell_angle_gamma   90.00000000
_symmetry_Int_Tables_number   1
_chemical_formula_structural   ZnH6(C3N2)2
_chemical_formula_sum   'Zn16 H96 C96 N64'
_cell_volume   4386.42190094
_cell_formula_units_Z   16
loop_
 _symmetry_equiv_pos_site_id
 _symmetry_equiv_pos_as_xyz
  1  'x, y, z'
loop_
 _atom_site_type_symbol
 _atom_site_label
 _atom_site_symmetry_multiplicity
 _atom_site_fract_x
 _atom_site_fract_y
 _atom_site_fract_z
 _atom_site_occupancy
  Zn  Zn0  1  0.20280000  0.13858000  0.40729000  1.0
  Zn  Zn1  1  0.29720000  0.86142000  0.90729000  1.0
  Zn  Zn2  1  0.79720000  0.63858000  0.09271000  1.0
  Zn  Zn3  1  0.70280000  0.36142000  0.59271000  1.0
  Zn  Zn4  1  0.79720000  0.86142000  0.59271000  1.0
  Zn  Zn5  1  0.70280000  0.13858000  0.09271000  1.0
  Zn  Zn6  1  0.20280000  0.36142000  0.90729000  1.0
  Zn  Zn7  1  0.29720000  0.63858000  0.40729000  1.0
  Zn  Zn8  1  0.50931000  0.33620000  0.31277000  1.0
  Zn  Zn9  1  0.99069000  0.66380000  0.81277000  1.0
  Zn  Zn10  1  0.49069000  0.83620000  0.18723000  1.0
  Zn  Zn11  1  0.00931000  0.16380000  0.68723000  1.0
  Zn  Zn12  1  0.49069000  0.66380000  0.68723000  1.0
  Zn  Zn13  1  0.00931000  0.33620000  0.18723000  1.0
  Zn  Zn14  1  0.50931000  0.16380000  0.81277000  1.0
  Zn  Zn15  1  0.99069000  0.83620000  0.31277000  1.0
  H  H16  1  0.31704000  0.28708000  0.34306000  1.0
  H  H17  1  0.18296000  0.71292000  0.84306000  1.0
  H  H18  1  0.68296000  0.78708000  0.15694000  1.0
  H  H19  1  0.81704000  0.21292000  0.65694000  1.0
  H  H20  1  0.68296000  0.71292000  0.65694000  1.0
  H  H21  1  0.81704000  0.28708000  0.15694000  1.0
  H  H22  1  0.31704000  0.21292000  0.84306000  1.0
  H  H23  1  0.18296000  0.78708000  0.34306000  1.0
  H  H24  1  0.39555000  0.04617000  0.42792000  1.0
  H  H25  1  0.10445000  0.95382000  0.92792000  1.0
  H  H26  1  0.60445000  0.54618000  0.07208000  1.0
  H  H27  1  0.89555000  0.45382000  0.57208000  1.0
  H  H28  1  0.60445000  0.95382000  0.57208000  1.0
  H  H29  1  0.89555000  0.04618000  0.07208000  1.0
  H  H30  1  0.39555000  0.45382000  0.92792000  1.0
  H  H31  1  0.10445000  0.54618000  0.42792000  1.0
  H  H32  1  0.54109000  0.13838000  0.38371000  1.0
  H  H33  1  0.95891000  0.86162000  0.88371000  1.0
  H  H34  1  0.45891000  0.63838000  0.11629000  1.0
  H  H35  1  0.04109000  0.36162000  0.61629000  1.0
  H  H36  1  0.45891000  0.86162000  0.61629000  1.0
  H  H37  1  0.04109000  0.13838000  0.11629000  1.0
  H  H38  1  0.54109000  0.36162000  0.88371000  1.0
  H  H39  1  0.95891000  0.63838000  0.38371000  1.0
  H  H40  1  0.05427000  0.19283000  0.51827000  1.0
  H  H41  1  0.44573000  0.80717000  0.01827000  1.0
  H  H42  1  0.94573000  0.69283000  0.98173000  1.0
  H  H43  1  0.55427000  0.30717000  0.48173000  1.0
  H  H44  1  0.94573000  0.80717000  0.48173000  1.0
  H  H45  1  0.55427000  0.19283000  0.98173000  1.0
  H  H46  1  0.05427000  0.30717000  0.01827000  1.0
  H  H47  1  0.44573000  0.69283000  0.51827000  1.0
  H  H48  1  0.27979000  0.04348000  0.55097000  1.0
  H  H49  1  0.22021000  0.95652000  0.05097000  1.0
  H  H50  1  0.72021000  0.54348000  0.94903000  1.0
  H  H51  1  0.77979000  0.45652000  0.44903000  1.0
  H  H52  1  0.72021000  0.95652000  0.44903000  1.0
  H  H53  1  0.77979000  0.04348000  0.94903000  1.0
  H  H54  1  0.27979000  0.45652000  0.05097000  1.0
  H  H55  1  0.22021000  0.54348000  0.55097000  1.0
  H  H56  1  0.18937000  0.05760000  0.68104000  1.0
  H  H57  1  0.31063000  0.94240000  0.18104000  1.0
  H  H58  1  0.81063000  0.55760000  0.81896000  1.0
  H  H59  1  0.68937000  0.44240000  0.31896000  1.0
  H  H60  1  0.81063000  0.94240000  0.31896000  1.0
  H  H61  1  0.68937000  0.05760000  0.81896000  1.0
  H  H62  1  0.18937000  0.44240000  0.18104000  1.0
  H  H63  1  0.31063000  0.55760000  0.68104000  1.0
  H  H64  1  0.05791000  0.99015000  0.41073000  1.0
  H  H65  1  0.44209000  0.00985000  0.91073000  1.0
  H  H66  1  0.94209000  0.49015000  0.08927000  1.0
  H  H67  1  0.55791000  0.50985000  0.58927000  1.0
  H  H68  1  0.94209000  0.00985000  0.58927000  1.0
  H  H69  1  0.55791000  0.99015000  0.08927000  1.0
  H  H70  1  0.05791000  0.50985000  0.91073000  1.0
  H  H71  1  0.44209000  0.49015000  0.41073000  1.0
  H  H72  1  0.24754000  0.04596000  0.25348000  1.0
  H  H73  1  0.25246000  0.95404000  0.75348000  1.0
  H  H74  1  0.75246000  0.54596000  0.24652000  1.0
  H  H75  1  0.74754000  0.45404000  0.74652000  1.0
  H  H76  1  0.75246000  0.95404000  0.74652000  1.0
  H  H77  1  0.74754000  0.04596000  0.24652000  1.0
  H  H78  1  0.24754000  0.45404000  0.75348000  1.0
  H  H79  1  0.25246000  0.54596000  0.25348000  1.0
  H  H80  1  0.14233000  0.91139000  0.20385000  1.0
  H  H81  1  0.35767000  0.08861000  0.70385000  1.0
  H  H82  1  0.85767000  0.41139000  0.29615000  1.0
  H  H83  1  0.64233000  0.58861000  0.79616000  1.0
  H  H84  1  0.85767000  0.08861000  0.79616000  1.0
  H  H85  1  0.64233000  0.91139000  0.29615000  1.0
  H  H86  1  0.14233000  0.58861000  0.70385000  1.0
  H  H87  1  0.35767000  0.41139000  0.20385000  1.0
  H  H88  1  0.09574000  0.17885000  0.26867000  1.0
  H  H89  1  0.40426000  0.82115000  0.76867000  1.0
  H  H90  1  0.90426000  0.67885000  0.23133000  1.0
  H  H91  1  0.59574000  0.32115000  0.73133000  1.0
  H  H92  1  0.90426000  0.82115000  0.73133000  1.0
  H  H93  1  0.59574000  0.17885000  0.23133000  1.0
  H  H94  1  0.09574000  0.32115000  0.76867000  1.0
  H  H95  1  0.40426000  0.67885000  0.26867000  1.0
  H  H96  1  0.05473000  0.43499000  0.33968000  1.0
  H  H97  1  0.44527000  0.56501000  0.83968000  1.0
  H  H98  1  0.94527000  0.93499000  0.16032000  1.0
  H  H99  1  0.55473000  0.06501000  0.66032000  1.0
  H  H100  1  0.94527000  0.56501000  0.66032000  1.0
  H  H101  1  0.55473000  0.43499000  0.16032000  1.0
  H  H102  1  0.05473000  0.06501000  0.83968000  1.0
  H  H103  1  0.44527000  0.93499000  0.33968000  1.0
  H  H104  1  0.14642000  0.34409000  0.44525000  1.0
  H  H105  1  0.35358000  0.65591000  0.94526000  1.0
  H  H106  1  0.85358000  0.84409000  0.05475000  1.0
  H  H107  1  0.64642000  0.15591000  0.55475000  1.0
  H  H108  1  0.85358000  0.65591000  0.55475000  1.0
  H  H109  1  0.64642000  0.34409000  0.05475000  1.0
  H  H110  1  0.14642000  0.15591000  0.94525000  1.0
  H  H111  1  0.35358000  0.84409000  0.44526000  1.0
  C  C112  1  0.35837000  0.23371000  0.35984000  1.0
  C  C113  1  0.14163000  0.76629000  0.85984000  1.0
  C  C114  1  0.64163000  0.73371000  0.14016000  1.0
  C  C115  1  0.85837000  0.26629000  0.64016000  1.0
  C  C116  1  0.64163000  0.76629000  0.64016000  1.0
  C  C117  1  0.85837000  0.23371000  0.14016000  1.0
  C  C118  1  0.35837000  0.26629000  0.85984000  1.0
  C  C119  1  0.14163000  0.73371000  0.35984000  1.0
  C  C120  1  0.40069000  0.10992000  0.40355000  1.0
  C  C121  1  0.09932000  0.89008000  0.90355000  1.0
  C  C122  1  0.59931000  0.60992000  0.09645000  1.0
  C  C123  1  0.90069000  0.39008000  0.59645000  1.0
  C  C124  1  0.59931000  0.89008000  0.59645000  1.0
  C  C125  1  0.90069000  0.10992000  0.09645000  1.0
  C  C126  1  0.40069000  0.39008000  0.90355000  1.0
  C  C127  1  0.09931000  0.60992000  0.40355000  1.0
  C  C128  1  0.47291000  0.15567000  0.38146000  1.0
  C  C129  1  0.02709000  0.84433000  0.88146000  1.0
  C  C130  1  0.52709000  0.65567000  0.11854000  1.0
  C  C131  1  0.97291000  0.34433000  0.61854000  1.0
  C  C132  1  0.52709000  0.84433000  0.61854000  1.0
  C  C133  1  0.97291000  0.15567000  0.11854000  1.0
  C  C134  1  0.47291000  0.34433000  0.88146000  1.0
  C  C135  1  0.02709000  0.65567000  0.38146000  1.0
  C  C136  1  0.10316000  0.15331000  0.54483000  1.0
  C  C137  1  0.39684000  0.84669000  0.04483000  1.0
  C  C138  1  0.89684000  0.65331000  0.95517000  1.0
  C  C139  1  0.60316000  0.34669000  0.45517000  1.0
  C  C140  1  0.89684000  0.84669000  0.45517000  1.0
  C  C141  1  0.60316000  0.15331000  0.95517000  1.0
  C  C142  1  0.10316000  0.34669000  0.04483000  1.0
  C  C143  1  0.39684000  0.65331000  0.54483000  1.0
  C  C144  1  0.21920000  0.07608000  0.56327000  1.0
  C  C145  1  0.28080000  0.92392000  0.06327000  1.0
  C  C146  1  0.78080000  0.57608000  0.93673000  1.0
  C  C147  1  0.71920000  0.42392000  0.43673000  1.0
  C  C148  1  0.78080000  0.92392000  0.43673000  1.0
  C  C149  1  0.71920000  0.07608000  0.93673000  1.0
  C  C150  1  0.21920000  0.42392000  0.06327000  1.0
  C  C151  1  0.28080000  0.57608000  0.56327000  1.0
  C  C152  1  0.17444000  0.08277000  0.62767000  1.0
  C  C153  1  0.32556000  0.91723000  0.12767000  1.0
  C  C154  1  0.82556000  0.58277000  0.87233000  1.0
  C  C155  1  0.67444000  0.41723000  0.37233000  1.0
  C  C156  1  0.82556000  0.91723000  0.37233000  1.0
  C  C157  1  0.67444000  0.08277000  0.87233000  1.0
  C  C158  1  0.17444000  0.41723000  0.12767000  1.0
  C  C159  1  0.32556000  0.58277000  0.62767000  1.0
  C  C160  1  0.09536000  0.98700000  0.36095000  1.0
  C  C161  1  0.40464000  0.01300000  0.86095000  1.0
  C  C162  1  0.90464000  0.48700000  0.13905000  1.0
  C  C163  1  0.59536000  0.51300000  0.63905000  1.0
  C  C164  1  0.90464000  0.01300000  0.63905000  1.0
  C  C165  1  0.59536000  0.98700000  0.13905000  1.0
  C  C166  1  0.09536000  0.51300000  0.86095000  1.0
  C  C167  1  0.40464000  0.48700000  0.36095000  1.0
  C  C168  1  0.19239000  0.01429000  0.27864000  1.0
  C  C169  1  0.30761000  0.98571000  0.77864000  1.0
  C  C170  1  0.80761000  0.51429000  0.22136000  1.0
  C  C171  1  0.69239000  0.48571000  0.72136000  1.0
  C  C172  1  0.80761000  0.98571000  0.72136000  1.0
  C  C173  1  0.69239000  0.01429000  0.22136000  1.0
  C  C174  1  0.19239000  0.48571000  0.77864000  1.0
  C  C175  1  0.30761000  0.51429000  0.27864000  1.0
  C  C176  1  0.14002000  0.94799000  0.25401000  1.0
  C  C177  1  0.35998000  0.05201000  0.75401000  1.0
  C  C178  1  0.85998000  0.44799000  0.24599000  1.0
  C  C179  1  0.64002000  0.55201000  0.74599000  1.0
  C  C180  1  0.85998000  0.05201000  0.74599000  1.0
  C  C181  1  0.64002000  0.94799000  0.24599000  1.0
  C  C182  1  0.14002000  0.55201000  0.75401000  1.0
  C  C183  1  0.35998000  0.44799000  0.25401000  1.0
  C  C184  1  0.09722000  0.23654000  0.30239000  1.0
  C  C185  1  0.40278000  0.76346000  0.80239000  1.0
  C  C186  1  0.90278000  0.73654000  0.19761000  1.0
  C  C187  1  0.59722000  0.26346000  0.69761000  1.0
  C  C188  1  0.90278000  0.76346000  0.69761000  1.0
  C  C189  1  0.59722000  0.23654000  0.19761000  1.0
  C  C190  1  0.09722000  0.26346000  0.80239000  1.0
  C  C191  1  0.40278000  0.73654000  0.30239000  1.0
  C  C192  1  0.07687000  0.36827000  0.34064000  1.0
  C  C193  1  0.42313000  0.63173000  0.84064000  1.0
  C  C194  1  0.92313000  0.86827000  0.15936000  1.0
  C  C195  1  0.57687000  0.13173000  0.65936000  1.0
  C  C196  1  0.92313000  0.63173000  0.65936000  1.0
  C  C197  1  0.57687000  0.36827000  0.15936000  1.0
  C  C198  1  0.07687000  0.13173000  0.84064000  1.0
  C  C199  1  0.42313000  0.86827000  0.34064000  1.0
  C  C200  1  0.12251000  0.32322000  0.39278000  1.0
  C  C201  1  0.37749000  0.67678000  0.89278000  1.0
  C  C202  1  0.87749000  0.82322000  0.10722000  1.0
  C  C203  1  0.62251000  0.17678000  0.60722000  1.0
  C  C204  1  0.87749000  0.67678000  0.60722000  1.0
  C  C205  1  0.62251000  0.32322000  0.10722000  1.0
  C  C206  1  0.12251000  0.17678000  0.89278000  1.0
  C  C207  1  0.37749000  0.82322000  0.39278000  1.0
  N  N208  1  0.44540000  0.23417000  0.35370000  1.0
  N  N209  1  0.05460000  0.76583000  0.85370000  1.0
  N  N210  1  0.55460000  0.73417000  0.14630000  1.0
  N  N211  1  0.94540000  0.26583000  0.64630000  1.0
  N  N212  1  0.55460000  0.76583000  0.64630000  1.0
  N  N213  1  0.94540000  0.23417000  0.14630000  1.0
  N  N214  1  0.44540000  0.26583000  0.85370000  1.0
  N  N215  1  0.05460000  0.73417000  0.35370000  1.0
  N  N216  1  0.32831000  0.15995000  0.38960000  1.0
  N  N217  1  0.17169000  0.84005000  0.88960000  1.0
  N  N218  1  0.67169000  0.65995000  0.11040000  1.0
  N  N219  1  0.82831000  0.34005000  0.61040000  1.0
  N  N220  1  0.67169000  0.84005000  0.61040000  1.0
  N  N221  1  0.82831000  0.15995000  0.11040000  1.0
  N  N222  1  0.32831000  0.34005000  0.88960000  1.0
  N  N223  1  0.17169000  0.65995000  0.38960000  1.0
  N  N224  1  0.10100000  0.13180000  0.61553000  1.0
  N  N225  1  0.39900000  0.86820000  0.11552000  1.0
  N  N226  1  0.89900000  0.63180000  0.88448000  1.0
  N  N227  1  0.60100000  0.36820000  0.38448000  1.0
  N  N228  1  0.89900000  0.86820000  0.38447000  1.0
  N  N229  1  0.60100000  0.13180000  0.88448000  1.0
  N  N230  1  0.10100000  0.36820000  0.11552000  1.0
  N  N231  1  0.39900000  0.63180000  0.61552000  1.0
  N  N232  1  0.17356000  0.12101000  0.51095000  1.0
  N  N233  1  0.32644000  0.87899000  0.01095000  1.0
  N  N234  1  0.82644000  0.62101000  0.98905000  1.0
  N  N235  1  0.67356000  0.37899000  0.48905000  1.0
  N  N236  1  0.82644000  0.87899000  0.48905000  1.0
  N  N237  1  0.67356000  0.12101000  0.98905000  1.0
  N  N238  1  0.17356000  0.37899000  0.01095000  1.0
  N  N239  1  0.32644000  0.62101000  0.51095000  1.0
  N  N240  1  0.07853000  0.93119000  0.30666000  1.0
  N  N241  1  0.42147000  0.06881000  0.80666000  1.0
  N  N242  1  0.92147000  0.43119000  0.19334000  1.0
  N  N243  1  0.57853000  0.56881000  0.69334000  1.0
  N  N244  1  0.92147000  0.06881000  0.69334000  1.0
  N  N245  1  0.57853000  0.93119000  0.19334000  1.0
  N  N246  1  0.07853000  0.56881000  0.80666000  1.0
  N  N247  1  0.42147000  0.43119000  0.30666000  1.0
  N  N248  1  0.16367000  0.03848000  0.34658000  1.0
  N  N249  1  0.33634000  0.96152000  0.84658000  1.0
  N  N250  1  0.83633000  0.53848000  0.15342000  1.0
  N  N251  1  0.66367000  0.46152000  0.65342000  1.0
  N  N252  1  0.83633000  0.96152000  0.65342000  1.0
  N  N253  1  0.66366000  0.03848000  0.15342000  1.0
  N  N254  1  0.16367000  0.46152000  0.84658000  1.0
  N  N255  1  0.33634000  0.53848000  0.34658000  1.0
  N  N256  1  0.06118000  0.31264000  0.28349000  1.0
  N  N257  1  0.43883000  0.68736000  0.78349000  1.0
  N  N258  1  0.93883000  0.81264000  0.21651000  1.0
  N  N259  1  0.56117000  0.18736000  0.71651000  1.0
  N  N260  1  0.93882000  0.68736000  0.71651000  1.0
  N  N261  1  0.56118000  0.31264000  0.21651000  1.0
  N  N262  1  0.06118000  0.18736000  0.78349000  1.0
  N  N263  1  0.43883000  0.81264000  0.28349000  1.0
  N  N264  1  0.13521000  0.23962000  0.36804000  1.0
  N  N265  1  0.36479000  0.76038000  0.86804000  1.0
  N  N266  1  0.86479000  0.73962000  0.13196000  1.0
  N  N267  1  0.63521000  0.26038000  0.63196000  1.0
  N  N268  1  0.86479000  0.76038000  0.63196000  1.0
  N  N269  1  0.63521000  0.23962000  0.13196000  1.0
  N  N270  1  0.13521000  0.26038000  0.86804000  1.0
  N  N271  1  0.36479000  0.73962000  0.36804000  1.0
