# generated using pymatgen
data_AgH5(C2O)2
_symmetry_space_group_name_H-M   'P 1'
_cell_length_a   6.60190000
_cell_length_b   7.70363000
_cell_length_c   8.81646000
_cell_angle_alpha   90.00130000
_cell_angle_beta   90.00100000
_cell_angle_gamma   103.56700000
_symmetry_Int_Tables_number   1
_chemical_formula_structural   AgH5(C2O)2
_chemical_formula_sum   'Ag4 H20 C16 O8'
_cell_volume   435.88093728
_cell_formula_units_Z   4
loop_
 _symmetry_equiv_pos_site_id
 _symmetry_equiv_pos_as_xyz
  1  'x, y, z'
loop_
 _atom_site_type_symbol
 _atom_site_label
 _atom_site_symmetry_multiplicity
 _atom_site_fract_x
 _atom_site_fract_y
 _atom_site_fract_z
 _atom_site_occupancy
  Ag  Ag0  1  0.04170000  0.51342000  0.15411000  1.0
  Ag  Ag1  1  0.54168000  0.51340000  0.34590000  1.0
  Ag  Ag2  1  0.95832000  0.48659000  0.84589000  1.0
  Ag  Ag3  1  0.45832000  0.48659000  0.65411000  1.0
  H  H4  1  0.46904000  0.83835000  0.81778000  1.0
  H  H5  1  0.96905000  0.83835000  0.68221000  1.0
  H  H6  1  0.53095000  0.16164000  0.18222000  1.0
  H  H7  1  0.03093000  0.16164000  0.31778000  1.0
  H  H8  1  0.30244000  0.69048000  0.94075000  1.0
  H  H9  1  0.80245000  0.69047000  0.55924000  1.0
  H  H10  1  0.69756000  0.30952000  0.05926000  1.0
  H  H11  1  0.19754000  0.30952000  0.44076000  1.0
  H  H12  1  0.51501000  0.82574000  0.16328000  1.0
  H  H13  1  0.01500000  0.82572000  0.33671000  1.0
  H  H14  1  0.48501000  0.17427000  0.83671000  1.0
  H  H15  1  0.98500000  0.17427000  0.66329000  1.0
  H  H16  1  0.84725000  0.05149000  0.12626000  1.0
  H  H17  1  0.34723000  0.05148000  0.37374000  1.0
  H  H18  1  0.15276000  0.94852000  0.87374000  1.0
  H  H19  1  0.65276000  0.94851000  0.62625000  1.0
  H  H20  1  0.79912000  0.05633000  0.92884000  1.0
  H  H21  1  0.29911000  0.05634000  0.57117000  1.0
  H  H22  1  0.20090000  0.94368000  0.07117000  1.0
  H  H23  1  0.70088000  0.94366000  0.42883000  1.0
  C  C24  1  0.40499000  0.82575000  0.93339000  1.0
  C  C25  1  0.90500000  0.82574000  0.56661000  1.0
  C  C26  1  0.59502000  0.17426000  0.06661000  1.0
  C  C27  1  0.09499000  0.17425000  0.43340000  1.0
  C  C28  1  0.71384000  0.71025000  0.02693000  1.0
  C  C29  1  0.21387000  0.71025000  0.47305000  1.0
  C  C30  1  0.28616000  0.28976000  0.97306000  1.0
  C  C31  1  0.78614000  0.28975000  0.52697000  1.0
  C  C32  1  0.58172000  0.84544000  0.04837000  1.0
  C  C33  1  0.08170000  0.84545000  0.45162000  1.0
  C  C34  1  0.41829000  0.15455000  0.95162000  1.0
  C  C35  1  0.91829000  0.15454000  0.54839000  1.0
  C  C36  1  0.72296000  0.03557000  0.04086000  1.0
  C  C37  1  0.22295000  0.03556000  0.45914000  1.0
  C  C38  1  0.27704000  0.96445000  0.95914000  1.0
  C  C39  1  0.77704000  0.96445000  0.54085000  1.0
  O  O40  1  0.79622000  0.66322000  0.14789000  1.0
  O  O41  1  0.29622000  0.66324000  0.35212000  1.0
  O  O42  1  0.20379000  0.33678000  0.85211000  1.0
  O  O43  1  0.70377000  0.33677000  0.64790000  1.0
  O  O44  1  0.74073000  0.65739000  0.89355000  1.0
  O  O45  1  0.24073000  0.65739000  0.60646000  1.0
  O  O46  1  0.25930000  0.34263000  0.10644000  1.0
  O  O47  1  0.75926000  0.34260000  0.39355000  1.0
