# generated using pymatgen
data_KZnPH4C8O7
_symmetry_space_group_name_H-M   'P 1'
_cell_length_a   5.03345000
_cell_length_b   9.42863000
_cell_length_c   25.01320000
_cell_angle_alpha   90.00000000
_cell_angle_beta   90.00000000
_cell_angle_gamma   104.63700000
_symmetry_Int_Tables_number   1
_chemical_formula_structural   KZnPH4C8O7
_chemical_formula_sum   'K4 Zn4 P4 H16 C32 O28'
_cell_volume   1148.56430396
_cell_formula_units_Z   4
loop_
 _symmetry_equiv_pos_site_id
 _symmetry_equiv_pos_as_xyz
  1  'x, y, z'
loop_
 _atom_site_type_symbol
 _atom_site_label
 _atom_site_symmetry_multiplicity
 _atom_site_fract_x
 _atom_site_fract_y
 _atom_site_fract_z
 _atom_site_occupancy
  K  K0  1  0.29122000  0.09631000  0.61043000  1.0
  K  K1  1  0.70878000  0.40369000  0.11043000  1.0
  K  K2  1  0.70878000  0.90369000  0.38957000  1.0
  K  K3  1  0.29121000  0.59631000  0.88957000  1.0
  Zn  Zn4  1  0.78430000  0.18222000  0.51823000  1.0
  Zn  Zn5  1  0.21570000  0.31778000  0.01823000  1.0
  Zn  Zn6  1  0.21570000  0.81778000  0.48177000  1.0
  Zn  Zn7  1  0.78430000  0.68222000  0.98177000  1.0
  P  P8  1  0.25785000  0.14047000  0.44903000  1.0
  P  P9  1  0.74215000  0.35953000  0.94903000  1.0
  P  P10  1  0.74215000  0.85953000  0.55097000  1.0
  P  P11  1  0.25785000  0.64047000  0.05097000  1.0
  H  H12  1  0.29297000  0.17650000  0.19497000  1.0
  H  H13  1  0.70702000  0.32350000  0.69497000  1.0
  H  H14  1  0.70703000  0.82350000  0.80503000  1.0
  H  H15  1  0.29297000  0.67650000  0.30503000  1.0
  H  H16  1  0.25579000  0.13596000  0.33024000  1.0
  H  H17  1  0.74422000  0.36403000  0.83024000  1.0
  H  H18  1  0.74422000  0.86403000  0.66976000  1.0
  H  H19  1  0.25578000  0.63597000  0.16976000  1.0
  H  H20  1  0.90774000  0.51222000  0.29246000  1.0
  H  H21  1  0.09226000  0.98778000  0.79246000  1.0
  H  H22  1  0.09226000  0.48778000  0.70754000  1.0
  H  H23  1  0.90774000  0.01221000  0.20754000  1.0
  H  H24  1  0.67696000  0.41738000  0.45694000  1.0
  H  H25  1  0.32304000  0.08262000  0.95694000  1.0
  H  H26  1  0.32304000  0.58262000  0.54306000  1.0
  H  H27  1  0.67696000  0.91738000  0.04306000  1.0
  C  C28  1  0.44862000  0.26342000  0.39884000  1.0
  C  C29  1  0.55139000  0.23658000  0.89884000  1.0
  C  C30  1  0.55139000  0.73658000  0.60116000  1.0
  C  C31  1  0.44861000  0.76342000  0.10116000  1.0
  C  C32  1  0.40991000  0.23203000  0.34420000  1.0
  C  C33  1  0.59009000  0.26797000  0.84420000  1.0
  C  C34  1  0.59009000  0.76797000  0.65580000  1.0
  C  C35  1  0.40991000  0.73203000  0.15580000  1.0
  C  C36  1  0.57326000  0.32384000  0.30633000  1.0
  C  C37  1  0.42674000  0.17616000  0.80633000  1.0
  C  C38  1  0.42674000  0.67616000  0.69367000  1.0
  C  C39  1  0.57326000  0.82384000  0.19367000  1.0
  C  C40  1  0.78090000  0.44487000  0.32289000  1.0
  C  C41  1  0.21910000  0.05512000  0.82289000  1.0
  C  C42  1  0.21910000  0.55512000  0.67711000  1.0
  C  C43  1  0.78090000  0.94488000  0.17711000  1.0
  C  C44  1  0.81825000  0.47780000  0.37722000  1.0
  C  C45  1  0.18174000  0.02220000  0.87722000  1.0
  C  C46  1  0.18175000  0.52220000  0.62278000  1.0
  C  C47  1  0.81825000  0.97780000  0.12278000  1.0
  C  C48  1  0.64759000  0.38843000  0.41481000  1.0
  C  C49  1  0.35241000  0.11157000  0.91481000  1.0
  C  C50  1  0.35242000  0.61157000  0.58519000  1.0
  C  C51  1  0.64758000  0.88843000  0.08519000  1.0
  C  C52  1  0.53318000  0.29688000  0.24781000  1.0
  C  C53  1  0.46682000  0.20312000  0.74781000  1.0
  C  C54  1  0.46683000  0.70312000  0.75219000  1.0
  C  C55  1  0.53317000  0.79688000  0.25219000  1.0
  C  C56  1  0.03667000  0.60678000  0.39693000  1.0
  C  C57  1  0.96333000  0.89322000  0.89693000  1.0
  C  C58  1  0.96332000  0.39323000  0.60307000  1.0
  C  C59  1  0.03668000  0.10677000  0.10307000  1.0
  O  O60  1  0.40024000  0.18035000  0.50346000  1.0
  O  O61  1  0.59976000  0.31965000  0.00346000  1.0
  O  O62  1  0.59976000  0.81965000  0.49654000  1.0
  O  O63  1  0.40024000  0.68035000  0.99654000  1.0
  O  O64  1  0.96099000  0.15704000  0.45065000  1.0
  O  O65  1  0.03901000  0.34296000  0.95065000  1.0
  O  O66  1  0.03901000  0.84296000  0.54935000  1.0
  O  O67  1  0.96099000  0.65704000  0.04935000  1.0
  O  O68  1  0.25679000  0.98381000  0.42991000  1.0
  O  O69  1  0.74321000  0.51619000  0.92991000  1.0
  O  O70  1  0.74321000  0.01619000  0.57009000  1.0
  O  O71  1  0.25679000  0.48381000  0.07009000  1.0
  O  O72  1  0.32396000  0.18368000  0.23552000  1.0
  O  O73  1  0.67604000  0.31632000  0.73552000  1.0
  O  O74  1  0.67604000  0.81632000  0.76448000  1.0
  O  O75  1  0.32396000  0.68368000  0.26448000  1.0
  O  O76  1  0.68172000  0.37489000  0.21420000  1.0
  O  O77  1  0.31827000  0.12511000  0.71420000  1.0
  O  O78  1  0.31828000  0.62511000  0.78580000  1.0
  O  O79  1  0.68172000  0.87489000  0.28580000  1.0
  O  O80  1  0.22803000  0.67590000  0.36689000  1.0
  O  O81  1  0.77196000  0.82410000  0.86689000  1.0
  O  O82  1  0.77196000  0.32410000  0.63311000  1.0
  O  O83  1  0.22804000  0.17590000  0.13311000  1.0
  O  O84  1  0.00860000  0.64076000  0.44612000  1.0
  O  O85  1  0.99140000  0.85924000  0.94612000  1.0
  O  O86  1  0.99140000  0.35924000  0.55388000  1.0
  O  O87  1  0.00860000  0.14076000  0.05388000  1.0
