# generated using pymatgen
data_SrH12(C2O)4
_symmetry_space_group_name_H-M   'P 1'
_cell_length_a   4.18792022
_cell_length_b   4.42061679
_cell_length_c   12.29498338
_cell_angle_alpha   80.91473643
_cell_angle_beta   82.34646489
_cell_angle_gamma   82.89148149
_symmetry_Int_Tables_number   1
_chemical_formula_structural   SrH12(C2O)4
_chemical_formula_sum   'Sr1 H12 C8 O4'
_cell_volume   221.53104629
_cell_formula_units_Z   1
loop_
 _symmetry_equiv_pos_site_id
 _symmetry_equiv_pos_as_xyz
  1  'x, y, z'
loop_
 _atom_site_type_symbol
 _atom_site_label
 _atom_site_symmetry_multiplicity
 _atom_site_fract_x
 _atom_site_fract_y
 _atom_site_fract_z
 _atom_site_occupancy
  C  C0  1  0.92883000  0.43160500  0.83800500  1.0
  C  C1  1  0.07120000  0.56839000  0.16198000  1.0
  C  C2  1  0.08303000  0.60367000  0.73171000  1.0
  C  C3  1  0.91696500  0.39630000  0.26829500  1.0
  C  C4  1  0.27474500  0.40459500  0.64981000  1.0
  C  C5  1  0.72527000  0.59540500  0.35018500  1.0
  C  C6  1  0.41047000  0.59639000  0.54316000  1.0
  C  C7  1  0.58953000  0.40365000  0.45684000  1.0
  H  H8  1  0.89077000  0.75921000  0.69310000  1.0
  H  H9  1  0.10921500  0.24074000  0.30690500  1.0
  H  H10  1  0.24102000  0.75375000  0.75767000  1.0
  H  H11  1  0.75894500  0.24627500  0.24233000  1.0
  H  H12  1  0.11858500  0.24375000  0.62942500  1.0
  H  H13  1  0.88144000  0.75624000  0.37056000  1.0
  H  H14  1  0.47329000  0.26014500  0.68931500  1.0
  H  H15  1  0.52671500  0.73986500  0.31069000  1.0
  H  H16  1  0.57391000  0.75175500  0.56300500  1.0
  H  H17  1  0.42609000  0.24824000  0.43701000  1.0
  H  H18  1  0.21068000  0.74827500  0.50663500  1.0
  H  H19  1  0.78932500  0.25177500  0.49337000  1.0
  O  O20  1  0.05686000  0.16465500  0.87654500  1.0
  O  O21  1  0.94314500  0.83530500  0.12347000  1.0
  O  O22  1  0.67097500  0.55744500  0.88744000  1.0
  O  O23  1  0.32899000  0.44256500  0.11256500  1.0
  Sr  Sr24  1  0.49999000  0.00000000  0.00000000  1.0
