# generated using pymatgen
data_Na2H12C12S2N2Cl6O7
_symmetry_space_group_name_H-M   'P 1'
_cell_length_a   6.34849000
_cell_length_b   6.34916000
_cell_length_c   30.03178786
_cell_angle_alpha   93.84151657
_cell_angle_beta   92.82574565
_cell_angle_gamma   116.70700000
_symmetry_Int_Tables_number   1
_chemical_formula_structural   Na2H12C12S2N2Cl6O7
_chemical_formula_sum   'Na4 H24 C24 S4 N4 Cl12 O14'
_cell_volume   1074.64716776
_cell_formula_units_Z   2
loop_
 _symmetry_equiv_pos_site_id
 _symmetry_equiv_pos_as_xyz
  1  'x, y, z'
loop_
 _atom_site_type_symbol
 _atom_site_label
 _atom_site_symmetry_multiplicity
 _atom_site_fract_x
 _atom_site_fract_y
 _atom_site_fract_z
 _atom_site_occupancy
  Na  Na0  1  0.14273000  0.59182000  0.73621000  1.0
  Na  Na1  1  0.85565000  0.90632000  0.76377000  1.0
  Na  Na2  1  0.85727000  0.40818000  0.26379000  1.0
  Na  Na3  1  0.14435000  0.09368000  0.23623000  1.0
  H  H4  1  0.94005000  0.58620000  0.52660000  1.0
  H  H5  1  0.05916000  0.91281000  0.97342000  1.0
  H  H6  1  0.05995000  0.41381000  0.47340000  1.0
  H  H7  1  0.94086000  0.08720000  0.02658000  1.0
  H  H8  1  0.46489000  0.89785000  0.54274000  1.0
  H  H9  1  0.35570000  0.42246000  0.95728000  1.0
  H  H10  1  0.53510000  0.10215000  0.45726000  1.0
  H  H11  1  0.64430000  0.57754000  0.04272000  1.0
  H  H12  1  0.40968000  0.77207000  0.61961000  1.0
  H  H13  1  0.15318000  0.29036000  0.88039000  1.0
  H  H14  1  0.59031000  0.22793000  0.38039000  1.0
  H  H15  1  0.84682000  0.70963000  0.11961000  1.0
  H  H16  1  0.35369000  0.10686000  0.72397000  1.0
  H  H17  1  0.38303000  0.12956000  0.77596000  1.0
  H  H18  1  0.64630000  0.89314000  0.27603000  1.0
  H  H19  1  0.61696000  0.87044000  0.22404000  1.0
  H  H20  1  0.44743000  0.77761000  0.81542000  1.0
  H  H21  1  0.96209000  0.13186000  0.68457000  1.0
  H  H22  1  0.55257000  0.22239000  0.18459000  1.0
  H  H23  1  0.03790000  0.86813000  0.31543000  1.0
  H  H24  1  0.48194000  0.54902000  0.80785000  1.0
  H  H25  1  0.74096000  0.17380000  0.69211000  1.0
  H  H26  1  0.51806000  0.45097000  0.19215000  1.0
  H  H27  1  0.25904000  0.82619000  0.30789000  1.0
  C  C28  1  0.63726000  0.60505000  0.61635000  1.0
  C  C29  1  0.98905000  0.52086000  0.88365000  1.0
  C  C30  1  0.36274000  0.39495000  0.38365000  1.0
  C  C31  1  0.01095000  0.47913000  0.11635000  1.0
  C  C32  1  0.78742000  0.55289000  0.58977000  1.0
  C  C33  1  0.96320000  0.69741000  0.91024000  1.0
  C  C34  1  0.21257000  0.44712000  0.41023000  1.0
  C  C35  1  0.03680000  0.30259000  0.08976000  1.0
  C  C36  1  0.82291000  0.62670000  0.54679000  1.0
  C  C37  1  0.07979000  0.77578000  0.95322000  1.0
  C  C38  1  0.17708000  0.37330000  0.45320000  1.0
  C  C39  1  0.92022000  0.22423000  0.04678000  1.0
  C  C40  1  0.70374000  0.74716000  0.52996000  1.0
  C  C41  1  0.21732000  0.67371000  0.97005000  1.0
  C  C42  1  0.29625000  0.25284000  0.47003000  1.0
  C  C43  1  0.78269000  0.32629000  0.02995000  1.0
  C  C44  1  0.55561000  0.80199000  0.55590000  1.0
  C  C45  1  0.24651000  0.49987000  0.94411000  1.0
  C  C46  1  0.44438000  0.19801000  0.44410000  1.0
  C  C47  1  0.75349000  0.50012000  0.05589000  1.0
  C  C48  1  0.52494000  0.73126000  0.59893000  1.0
  C  C49  1  0.13283000  0.42612000  0.90107000  1.0
  C  C50  1  0.47506000  0.26874000  0.40107000  1.0
  C  C51  1  0.86717000  0.57387000  0.09893000  1.0
  S  S52  1  0.57866000  0.51724000  0.67175000  1.0
  S  S53  1  0.84594000  0.40689000  0.82824000  1.0
  S  S54  1  0.42132000  0.48276000  0.32825000  1.0
  S  S55  1  0.15406000  0.59314000  0.17176000  1.0
  N  N56  1  0.49256000  0.23753000  0.67139000  1.0
  N  N57  1  0.56657000  0.32126000  0.82857000  1.0
  N  N58  1  0.50743000  0.76247000  0.32861000  1.0
  N  N59  1  0.43344000  0.67873000  0.17143000  1.0
  Cl  Cl60  1  0.22961000  0.07603000  0.63659000  1.0
  Cl  Cl61  1  0.43966000  0.09303000  0.86337000  1.0
  Cl  Cl62  1  0.77039000  0.92396000  0.36341000  1.0
  Cl  Cl63  1  0.56036000  0.90696000  0.13663000  1.0
  Cl  Cl64  1  0.93054000  0.39531000  0.60770000  1.0
  Cl  Cl65  1  0.78762000  0.82253000  0.89229000  1.0
  Cl  Cl66  1  0.06946000  0.60470000  0.39230000  1.0
  Cl  Cl67  1  0.21239000  0.17747000  0.10771000  1.0
  Cl  Cl68  1  0.73529000  0.82168000  0.47562000  1.0
  Cl  Cl69  1  0.34607000  0.75970000  0.02440000  1.0
  Cl  Cl70  1  0.26471000  0.17833000  0.52438000  1.0
  Cl  Cl71  1  0.65395000  0.24030000  0.97561000  1.0
  O  O72  1  0.80315000  0.62275000  0.69988000  1.0
  O  O73  1  0.92346000  0.60329000  0.80011000  1.0
  O  O74  1  0.19686000  0.37725000  0.30012000  1.0
  O  O75  1  0.07653000  0.39670000  0.19989000  1.0
  O  O76  1  0.40465000  0.59571000  0.68438000  1.0
  O  O77  1  0.91180000  0.22030000  0.81563000  1.0
  O  O78  1  0.59535000  0.40429000  0.31562000  1.0
  O  O79  1  0.08822000  0.77970000  0.18437000  1.0
  O  O80  1  0.27586000  0.02572000  0.74997000  1.0
  O  O81  1  0.72414000  0.97429000  0.25003000  1.0
  O  O82  1  0.46260000  0.67213000  0.79191000  1.0
  O  O83  1  0.87992000  0.17028000  0.70807000  1.0
  O  O84  1  0.53740000  0.32787000  0.20809000  1.0
  O  O85  1  0.12008000  0.82972000  0.29193000  1.0
