# generated using pymatgen
data_AgH10C11SN2(OF)3
_symmetry_space_group_name_H-M   'P 1'
_cell_length_a   7.83559000
_cell_length_b   9.18268000
_cell_length_c   10.07850000
_cell_angle_alpha   76.42190000
_cell_angle_beta   84.94330000
_cell_angle_gamma   68.39530000
_symmetry_Int_Tables_number   1
_chemical_formula_structural   AgH10C11SN2(OF)3
_chemical_formula_sum   'Ag2 H20 C22 S2 N4 O6 F6'
_cell_volume   655.37474771
_cell_formula_units_Z   2
loop_
 _symmetry_equiv_pos_site_id
 _symmetry_equiv_pos_as_xyz
  1  'x, y, z'
loop_
 _atom_site_type_symbol
 _atom_site_label
 _atom_site_symmetry_multiplicity
 _atom_site_fract_x
 _atom_site_fract_y
 _atom_site_fract_z
 _atom_site_occupancy
  Ag  Ag0  1  0.37636000  0.35465000  0.12289000  1.0
  Ag  Ag1  1  0.62364000  0.64535000  0.87711000  1.0
  H  H2  1  0.36027000  0.39662000  0.39640000  1.0
  H  H3  1  0.63973000  0.60337000  0.60360000  1.0
  H  H4  1  0.08982000  0.70843000  0.04812000  1.0
  H  H5  1  0.91018000  0.29157000  0.95188000  1.0
  H  H6  1  0.86279000  0.70571000  0.05027000  1.0
  H  H7  1  0.13720000  0.29429000  0.94973000  1.0
  H  H8  1  0.87749000  0.58022000  0.28504000  1.0
  H  H9  1  0.12251000  0.41978000  0.71496000  1.0
  H  H10  1  0.09375000  0.60442000  0.28176000  1.0
  H  H11  1  0.90625000  0.39558000  0.71824000  1.0
  H  H12  1  0.99490000  0.72748000  0.81658000  1.0
  H  H13  1  0.00509000  0.27252000  0.18342000  1.0
  H  H14  1  0.18563000  0.54722000  0.87153000  1.0
  H  H15  1  0.81437000  0.45278000  0.12847000  1.0
  H  H16  1  0.48741000  0.14691000  0.57344000  1.0
  H  H17  1  0.51259000  0.85309000  0.42656000  1.0
  H  H18  1  0.96728000  0.07971000  0.59578000  1.0
  H  H19  1  0.03272000  0.92030000  0.40422000  1.0
  H  H20  1  0.84312000  0.32695000  0.41657000  1.0
  H  H21  1  0.15688000  0.67305000  0.58343000  1.0
  C  C22  1  0.27733000  0.32288000  0.43578000  1.0
  C  C23  1  0.72267000  0.67713000  0.56422000  1.0
  C  C24  1  0.00891000  0.63865000  0.03312000  1.0
  C  C25  1  0.99109000  0.36135000  0.96688000  1.0
  C  C26  1  0.02670000  0.52029000  0.27558000  1.0
  C  C27  1  0.97330000  0.47971000  0.72442000  1.0
  C  C28  1  0.09724000  0.37301000  0.38819000  1.0
  C  C29  1  0.90276000  0.62698000  0.61181000  1.0
  C  C30  1  0.03830000  0.61121000  0.88926000  1.0
  C  C31  1  0.96170000  0.38879000  0.11075000  1.0
  C  C32  1  0.23725000  0.09464000  0.59267000  1.0
  C  C33  1  0.76275000  0.90536000  0.40733000  1.0
  C  C34  1  0.31446000  0.95282000  0.69443000  1.0
  C  C35  1  0.68555000  0.04718000  0.30558000  1.0
  C  C36  1  0.34846000  0.18438000  0.53628000  1.0
  C  C37  1  0.65154000  0.81562000  0.46372000  1.0
  C  C38  1  0.26783000  0.92396000  0.14727000  1.0
  C  C39  1  0.73217000  0.07604000  0.85273000  1.0
  C  C40  1  0.05454000  0.14652000  0.54929000  1.0
  C  C41  1  0.94546000  0.85348000  0.45071000  1.0
  C  C42  1  0.98616000  0.28498000  0.44768000  1.0
  C  C43  1  0.01384000  0.71502000  0.55232000  1.0
  S  S44  1  0.43471000  0.71420000  0.20000000  1.0
  S  S45  1  0.56528000  0.28580000  0.80000000  1.0
  N  N46  1  0.06815000  0.48403000  0.13611000  1.0
  N  N47  1  0.93185000  0.51597000  0.86389000  1.0
  N  N48  1  0.38774000  0.83585000  0.77508000  1.0
  N  N49  1  0.61226000  0.16416000  0.22491000  1.0
  O  O50  1  0.41289000  0.63514000  0.09437000  1.0
  O  O51  1  0.58710000  0.36486000  0.90563000  1.0
  O  O52  1  0.60898000  0.73779000  0.19349000  1.0
  O  O53  1  0.39102000  0.26220000  0.80651000  1.0
  O  O54  1  0.37067000  0.65739000  0.33502000  1.0
  O  O55  1  0.62933000  0.34262000  0.66498000  1.0
  F  F56  1  0.31151000  0.99933000  0.02485000  1.0
  F  F57  1  0.68849000  0.00066000  0.97515000  1.0
  F  F58  1  0.26740000  0.01027000  0.24140000  1.0
  F  F59  1  0.73260000  0.98974000  0.75860000  1.0
  F  F60  1  0.09284000  0.92879000  0.14011000  1.0
  F  F61  1  0.90716000  0.07121000  0.85989000  1.0
