# generated using pymatgen
data_ZnH4C18N3(ClO)4
_symmetry_space_group_name_H-M   'P 1'
_cell_length_a   14.82300000
_cell_length_b   16.16590000
_cell_length_c   19.40260000
_cell_angle_alpha   90.00390000
_cell_angle_beta   90.02340000
_cell_angle_gamma   89.56450000
_symmetry_Int_Tables_number   1
_chemical_formula_structural   ZnH4C18N3(ClO)4
_chemical_formula_sum   'Zn2 H8 C36 N6 Cl8 O8'
_cell_volume   4649.25475974
_cell_formula_units_Z   2
loop_
 _symmetry_equiv_pos_site_id
 _symmetry_equiv_pos_as_xyz
  1  'x, y, z'
loop_
 _atom_site_type_symbol
 _atom_site_label
 _atom_site_symmetry_multiplicity
 _atom_site_fract_x
 _atom_site_fract_y
 _atom_site_fract_z
 _atom_site_occupancy
  Zn  Zn0  1  0.40546000  0.50376000  0.50004000  1.0
  Zn  Zn1  1  0.59454000  0.49624000  0.49996000  1.0
  H  H2  1  0.41318000  0.39345000  0.84937000  1.0
  H  H3  1  0.58681000  0.60656000  0.15064000  1.0
  H  H4  1  0.41311000  0.39344000  0.15058000  1.0
  H  H5  1  0.58689000  0.60657000  0.84942000  1.0
  H  H6  1  0.35954000  0.92131000  0.52364000  1.0
  H  H7  1  0.64046000  0.07869000  0.47636000  1.0
  H  H8  1  0.35634000  0.07555000  0.52353000  1.0
  H  H9  1  0.64366000  0.92445000  0.47647000  1.0
  C  C10  1  0.49996000  0.66063000  0.50002000  1.0
  C  C11  1  0.50004000  0.33937000  0.49998000  1.0
  C  C12  1  0.49659000  0.17480000  0.49990000  1.0
  C  C13  1  0.50340000  0.82520000  0.50010000  1.0
  C  C14  1  0.50365000  0.74981000  0.50011000  1.0
  C  C15  1  0.49635000  0.25019000  0.49989000  1.0
  C  C16  1  0.04735000  0.50022000  0.56375000  1.0
  C  C17  1  0.95265000  0.49979000  0.43625000  1.0
  C  C18  1  0.04732000  0.49930000  0.43627000  1.0
  C  C19  1  0.95268000  0.50070000  0.56373000  1.0
  C  C20  1  0.09356000  0.49962000  0.50002000  1.0
  C  C21  1  0.90644000  0.50039000  0.49998000  1.0
  C  C22  1  0.18917000  0.49978000  0.50003000  1.0
  C  C23  1  0.81084000  0.50022000  0.49997000  1.0
  C  C24  1  0.49996000  0.50001000  0.63424000  1.0
  C  C25  1  0.50004000  0.49999000  0.36576000  1.0
  C  C26  1  0.45155000  0.44066000  0.74965000  1.0
  C  C27  1  0.54845000  0.55935000  0.25036000  1.0
  C  C28  1  0.45147000  0.44069000  0.25033000  1.0
  C  C29  1  0.54853000  0.55931000  0.74967000  1.0
  C  C30  1  0.45103000  0.44006000  0.82138000  1.0
  C  C31  1  0.54896000  0.55995000  0.17862000  1.0
  C  C32  1  0.45096000  0.44007000  0.17860000  1.0
  C  C33  1  0.54904000  0.55994000  0.82140000  1.0
  C  C34  1  0.50004000  0.50001000  0.85753000  1.0
  C  C35  1  0.49996000  0.50000000  0.14247000  1.0
  C  C36  1  0.50005000  0.49998000  0.71195000  1.0
  C  C37  1  0.49996000  0.50002000  0.28805000  1.0
  C  C38  1  0.49998000  0.50000000  0.06669000  1.0
  C  C39  1  0.50001000  0.50002000  0.93331000  1.0
  C  C40  1  0.41893000  0.04203000  0.51326000  1.0
  C  C41  1  0.58107000  0.95797000  0.48674000  1.0
  C  C42  1  0.42069000  0.95623000  0.51335000  1.0
  C  C43  1  0.57931000  0.04377000  0.48665000  1.0
  C  C44  1  0.49816000  0.08726000  0.49992000  1.0
  C  C45  1  0.50184000  0.91274000  0.50008000  1.0
  N  N46  1  0.55132000  0.55684000  0.96613000  1.0
  N  N47  1  0.44866000  0.44319000  0.03387000  1.0
  N  N48  1  0.55129000  0.55683000  0.03392000  1.0
  N  N49  1  0.44869000  0.44320000  0.96608000  1.0
  N  N50  1  0.73263000  0.49957000  0.49999000  1.0
  N  N51  1  0.26737000  0.50043000  0.50001000  1.0
  Cl  Cl52  1  0.39224000  0.36423000  0.70703000  1.0
  Cl  Cl53  1  0.60776000  0.63577000  0.29297000  1.0
  Cl  Cl54  1  0.39221000  0.36425000  0.29291000  1.0
  Cl  Cl55  1  0.60780000  0.63574000  0.70708000  1.0
  Cl  Cl56  1  0.89307000  0.50175000  0.63859000  1.0
  Cl  Cl57  1  0.10693000  0.49826000  0.36140000  1.0
  Cl  Cl58  1  0.89301000  0.49976000  0.36135000  1.0
  Cl  Cl59  1  0.10699000  0.50025000  0.63865000  1.0
  O  O60  1  0.42140000  0.62938000  0.50019000  1.0
  O  O61  1  0.57859000  0.37062000  0.49981000  1.0
  O  O62  1  0.42477000  0.37835000  0.50020000  1.0
  O  O63  1  0.57523000  0.62165000  0.49980000  1.0
  O  O64  1  0.42369000  0.50886000  0.60553000  1.0
  O  O65  1  0.57631000  0.49114000  0.39447000  1.0
  O  O66  1  0.42391000  0.50881000  0.39459000  1.0
  O  O67  1  0.57610000  0.49119000  0.60541000  1.0
