# generated using pymatgen
data_ZnMoH6C6NO4
_symmetry_space_group_name_H-M   'P 1'
_cell_length_a   8.13288000
_cell_length_b   9.60114000
_cell_length_c   10.96220000
_cell_angle_alpha   89.99990000
_cell_angle_beta   76.88400000
_cell_angle_gamma   89.99990000
_symmetry_Int_Tables_number   1
_chemical_formula_structural   ZnMoH6C6NO4
_chemical_formula_sum   'Zn4 Mo4 H24 C24 N4 O16'
_cell_volume   833.65217746
_cell_formula_units_Z   4
loop_
 _symmetry_equiv_pos_site_id
 _symmetry_equiv_pos_as_xyz
  1  'x, y, z'
loop_
 _atom_site_type_symbol
 _atom_site_label
 _atom_site_symmetry_multiplicity
 _atom_site_fract_x
 _atom_site_fract_y
 _atom_site_fract_z
 _atom_site_occupancy
  Zn  Zn0  1  0.30475000  0.47339000  0.55856000  1.0
  Zn  Zn1  1  0.19525000  0.97339000  0.44144000  1.0
  Zn  Zn2  1  0.69525000  0.52661000  0.44144000  1.0
  Zn  Zn3  1  0.80475000  0.02661000  0.55856000  1.0
  Mo  Mo4  1  0.43639000  0.79064000  0.63625000  1.0
  Mo  Mo5  1  0.06361000  0.29064000  0.36375000  1.0
  Mo  Mo6  1  0.56361000  0.20936000  0.36375000  1.0
  Mo  Mo7  1  0.93639000  0.70936000  0.63625000  1.0
  H  H8  1  0.14790000  0.51399000  0.83052000  1.0
  H  H9  1  0.35211000  0.01399000  0.16948000  1.0
  H  H10  1  0.85210000  0.48602000  0.16948000  1.0
  H  H11  1  0.64789000  0.98602000  0.83052000  1.0
  H  H12  1  0.01721000  0.36044000  0.01276000  1.0
  H  H13  1  0.48279000  0.86043000  0.98724000  1.0
  H  H14  1  0.98278000  0.63957000  0.98724000  1.0
  H  H15  1  0.51721000  0.13957000  0.01276000  1.0
  H  H16  1  0.17756000  0.00681000  0.77202000  1.0
  H  H17  1  0.32244000  0.50681000  0.22799000  1.0
  H  H18  1  0.82244000  0.99319000  0.22799000  1.0
  H  H19  1  0.67756000  0.49319000  0.77201000  1.0
  H  H20  1  0.30452000  0.17052000  0.60516000  1.0
  H  H21  1  0.19549000  0.67052000  0.39484000  1.0
  H  H22  1  0.69549000  0.82948000  0.39484000  1.0
  H  H23  1  0.80451000  0.32948000  0.60516000  1.0
  H  H24  1  0.87563000  0.11821000  0.05633000  1.0
  H  H25  1  0.62437000  0.61821000  0.94367000  1.0
  H  H26  1  0.12437000  0.88179000  0.94367000  1.0
  H  H27  1  0.37563000  0.38179000  0.05633000  1.0
  H  H28  1  0.07263000  0.09372000  0.09031000  1.0
  H  H29  1  0.42737000  0.59372000  0.90969000  1.0
  H  H30  1  0.92736000  0.90628000  0.90969000  1.0
  H  H31  1  0.57264000  0.40628000  0.09031000  1.0
  C  C32  1  0.15179000  0.40065000  0.82365000  1.0
  C  C33  1  0.34821000  0.90065000  0.17635000  1.0
  C  C34  1  0.84821000  0.59935000  0.17635000  1.0
  C  C35  1  0.65179000  0.09935000  0.82365000  1.0
  C  C36  1  0.07852000  0.31502000  0.92296000  1.0
  C  C37  1  0.42149000  0.81501000  0.07705000  1.0
  C  C38  1  0.92149000  0.68499000  0.07705000  1.0
  C  C39  1  0.57851000  0.18499000  0.92295000  1.0
  C  C40  1  0.08346000  0.16942000  0.90855000  1.0
  C  C41  1  0.41655000  0.66942000  0.09146000  1.0
  C  C42  1  0.91654000  0.83058000  0.09146000  1.0
  C  C43  1  0.58345000  0.33058000  0.90854000  1.0
  C  C44  1  0.16706000  0.11788000  0.79153000  1.0
  C  C45  1  0.33294000  0.61788000  0.20847000  1.0
  C  C46  1  0.83294000  0.88212000  0.20847000  1.0
  C  C47  1  0.66706000  0.38212000  0.79153000  1.0
  C  C48  1  0.23921000  0.20961000  0.69654000  1.0
  C  C49  1  0.26079000  0.70961000  0.30346000  1.0
  C  C50  1  0.76079000  0.79039000  0.30346000  1.0
  C  C51  1  0.73921000  0.29039000  0.69654000  1.0
  C  C52  1  0.00298000  0.07704000  0.01598000  1.0
  C  C53  1  0.49702000  0.57704000  0.98402000  1.0
  C  C54  1  0.99702000  0.92296000  0.98402000  1.0
  C  C55  1  0.50298000  0.42296000  0.01598000  1.0
  N  N56  1  0.23138000  0.34884000  0.71094000  1.0
  N  N57  1  0.26863000  0.84885000  0.28906000  1.0
  N  N58  1  0.76862000  0.65116000  0.28906000  1.0
  N  N59  1  0.73137000  0.15115000  0.71094000  1.0
  O  O60  1  0.47869000  0.62594000  0.54858000  1.0
  O  O61  1  0.02131000  0.12594000  0.45142000  1.0
  O  O62  1  0.52131000  0.37406000  0.45142000  1.0
  O  O63  1  0.97870000  0.87406000  0.54858000  1.0
  O  O64  1  0.63845000  0.86478000  0.62929000  1.0
  O  O65  1  0.86155000  0.36478000  0.37071000  1.0
  O  O66  1  0.36155000  0.13522000  0.37071000  1.0
  O  O67  1  0.13845000  0.63522000  0.62929000  1.0
  O  O68  1  0.33982000  0.76874000  0.79313000  1.0
  O  O69  1  0.16017000  0.26874000  0.20687000  1.0
  O  O70  1  0.66017000  0.23126000  0.20687000  1.0
  O  O71  1  0.83983000  0.73126000  0.79313000  1.0
  O  O72  1  0.32346000  0.91369000  0.56547000  1.0
  O  O73  1  0.17654000  0.41370000  0.43453000  1.0
  O  O74  1  0.67654000  0.08630000  0.43453000  1.0
  O  O75  1  0.82346000  0.58630000  0.56547000  1.0
