# generated using pymatgen
data_Gd2H10C16N2O15
_symmetry_space_group_name_H-M   'P 1'
_cell_length_a   9.36388000
_cell_length_b   11.90240000
_cell_length_c   22.16640000
_cell_angle_alpha   101.33600000
_cell_angle_beta   90.03130000
_cell_angle_gamma   113.14800000
_symmetry_Int_Tables_number   1
_chemical_formula_structural   Gd2H10C16N2O15
_chemical_formula_sum   'Gd8 H40 C64 N8 O60'
_cell_volume   2218.98153820
_cell_formula_units_Z   4
loop_
 _symmetry_equiv_pos_site_id
 _symmetry_equiv_pos_as_xyz
  1  'x, y, z'
loop_
 _atom_site_type_symbol
 _atom_site_label
 _atom_site_symmetry_multiplicity
 _atom_site_fract_x
 _atom_site_fract_y
 _atom_site_fract_z
 _atom_site_occupancy
  Gd  Gd0  1  0.68881000  0.90916000  0.56292000  1.0
  Gd  Gd1  1  0.77974000  0.09122000  0.93721000  1.0
  Gd  Gd2  1  0.31119000  0.09084000  0.43708000  1.0
  Gd  Gd3  1  0.22027000  0.90879000  0.06279000  1.0
  Gd  Gd4  1  0.49482000  0.69493000  0.81918000  1.0
  Gd  Gd5  1  0.80028000  0.30544000  0.68086000  1.0
  Gd  Gd6  1  0.50519000  0.30509000  0.18083000  1.0
  Gd  Gd7  1  0.19972000  0.69457000  0.31914000  1.0
  H  H8  1  0.68389000  0.07091000  0.47288000  1.0
  H  H9  1  0.61296000  0.92919000  0.02707000  1.0
  H  H10  1  0.31610000  0.92910000  0.52712000  1.0
  H  H11  1  0.38703000  0.07080000  0.97293000  1.0
  H  H12  1  0.84285000  0.15710000  0.51439000  1.0
  H  H13  1  0.68596000  0.84319000  0.98561000  1.0
  H  H14  1  0.15715000  0.84291000  0.48561000  1.0
  H  H15  1  0.31403000  0.15680000  0.01439000  1.0
  H  H16  1  0.80378000  0.74410000  0.61674000  1.0
  H  H17  1  0.05948000  0.25598000  0.88332000  1.0
  H  H18  1  0.19622000  0.25590000  0.38326000  1.0
  H  H19  1  0.94052000  0.74401000  0.11668000  1.0
  H  H20  1  0.86454000  0.72430000  0.54936000  1.0
  H  H21  1  0.14041000  0.27583000  0.95066000  1.0
  H  H22  1  0.13545000  0.27570000  0.45064000  1.0
  H  H23  1  0.85959000  0.72416000  0.04934000  1.0
  H  H24  1  0.91156000  0.93428000  0.45540000  1.0
  H  H25  1  0.97772000  0.06588000  0.04463000  1.0
  H  H26  1  0.08845000  0.06572000  0.54460000  1.0
  H  H27  1  0.02228000  0.93412000  0.95537000  1.0
  H  H28  1  0.91201000  0.82361000  0.48341000  1.0
  H  H29  1  0.08862000  0.17643000  0.01656000  1.0
  H  H30  1  0.08799000  0.17639000  0.51659000  1.0
  H  H31  1  0.91139000  0.82357000  0.98344000  1.0
  H  H32  1  0.26063000  0.53034000  0.66037000  1.0
  H  H33  1  0.73004000  0.46996000  0.83965000  1.0
  H  H34  1  0.73937000  0.46965000  0.33963000  1.0
  H  H35  1  0.26997000  0.53004000  0.16035000  1.0
  H  H36  1  0.15851000  0.48825000  0.46448000  1.0
  H  H37  1  0.66989000  0.51190000  0.03547000  1.0
  H  H38  1  0.84149000  0.51175000  0.53552000  1.0
  H  H39  1  0.33011000  0.48810000  0.96453000  1.0
  H  H40  1  0.23849000  0.34784000  0.72297000  1.0
  H  H41  1  0.89038000  0.65263000  0.77733000  1.0
  H  H42  1  0.76152000  0.65216000  0.27703000  1.0
  H  H43  1  0.10961000  0.34737000  0.22267000  1.0
  H  H44  1  0.17990000  0.98030000  0.62108000  1.0
  H  H45  1  0.19937000  0.02004000  0.87930000  1.0
  H  H46  1  0.82010000  0.01970000  0.37892000  1.0
  H  H47  1  0.80063000  0.97996000  0.12071000  1.0
  C  C48  1  0.41788000  0.66946000  0.61479000  1.0
  C  C49  1  0.74830000  0.33083000  0.88524000  1.0
  C  C50  1  0.58212000  0.33054000  0.38521000  1.0
  C  C51  1  0.25171000  0.66917000  0.11476000  1.0
  C  C52  1  0.28824000  0.56018000  0.61686000  1.0
  C  C53  1  0.72781000  0.44008000  0.88315000  1.0
  C  C54  1  0.71177000  0.43982000  0.38314000  1.0
  C  C55  1  0.27219000  0.55992000  0.11685000  1.0
  C  C56  1  0.19567000  0.49023000  0.56179000  1.0
  C  C57  1  0.70522000  0.51000000  0.93822000  1.0
  C  C58  1  0.80433000  0.50976000  0.43821000  1.0
  C  C59  1  0.29478000  0.48999000  0.06178000  1.0
  C  C60  1  0.23093000  0.53583000  0.50773000  1.0
  C  C61  1  0.69475000  0.46430000  0.99225000  1.0
  C  C62  1  0.76907000  0.46416000  0.49227000  1.0
  C  C63  1  0.30525000  0.53570000  0.00775000  1.0
  C  C64  1  0.36091000  0.64710000  0.51020000  1.0
  C  C65  1  0.71353000  0.35306000  0.98981000  1.0
  C  C66  1  0.63909000  0.35290000  0.48980000  1.0
  C  C67  1  0.28648000  0.64694000  0.01019000  1.0
  C  C68  1  0.52328000  0.75840000  0.67094000  1.0
  C  C69  1  0.76505000  0.24200000  0.82913000  1.0
  C  C70  1  0.47673000  0.24160000  0.32906000  1.0
  C  C71  1  0.23496000  0.75800000  0.17087000  1.0
  C  C72  1  0.05822000  0.36934000  0.56132000  1.0
  C  C73  1  0.68883000  0.63098000  0.93871000  1.0
  C  C74  1  0.94177000  0.63066000  0.43868000  1.0
  C  C75  1  0.31115000  0.36902000  0.06129000  1.0
  C  C76  1  0.40100000  0.71415000  0.45738000  1.0
  C  C77  1  0.68663000  0.28602000  0.04262000  1.0
  C  C78  1  0.59900000  0.28585000  0.54262000  1.0
  C  C79  1  0.31338000  0.71399000  0.95738000  1.0
  C  C80  1  0.44576000  0.31157000  0.70677000  1.0
  C  C81  1  0.13404000  0.68882000  0.79348000  1.0
  C  C82  1  0.55425000  0.68843000  0.29324000  1.0
  C  C83  1  0.86596000  0.31118000  0.20653000  1.0
  C  C84  1  0.28489000  0.27882000  0.70336000  1.0
  C  C85  1  0.00588000  0.72155000  0.79692000  1.0
  C  C86  1  0.71511000  0.72118000  0.29664000  1.0
  C  C87  1  0.99411000  0.27845000  0.20308000  1.0
  C  C88  1  0.18673000  0.15806000  0.67187000  1.0
  C  C89  1  0.02848000  0.84228000  0.82842000  1.0
  C  C90  1  0.81327000  0.84193000  0.32813000  1.0
  C  C91  1  0.97151000  0.15771000  0.17158000  1.0
  C  C92  1  0.25252000  0.07372000  0.64712000  1.0
  C  C93  1  0.17863000  0.92668000  0.85316000  1.0
  C  C94  1  0.74748000  0.92628000  0.35288000  1.0
  C  C95  1  0.82137000  0.07332000  0.14684000  1.0
  C  C96  1  0.41420000  0.11412000  0.65375000  1.0
  C  C97  1  0.29990000  0.88628000  0.84649000  1.0
  C  C98  1  0.58580000  0.88588000  0.34625000  1.0
  C  C99  1  0.70009000  0.11372000  0.15352000  1.0
  C  C100  1  0.56550000  0.44314000  0.73144000  1.0
  C  C101  1  0.12231000  0.55731000  0.76867000  1.0
  C  C102  1  0.43450000  0.55686000  0.26857000  1.0
  C  C103  1  0.87768000  0.44269000  0.23133000  1.0
  C  C104  1  0.01495000  0.12652000  0.65895000  1.0
  C  C105  1  0.88826000  0.87386000  0.84128000  1.0
  C  C106  1  0.98505000  0.87347000  0.34105000  1.0
  C  C107  1  0.11175000  0.12615000  0.15871000  1.0
  C  C108  1  0.50177000  0.04044000  0.62297000  1.0
  C  C109  1  0.46122000  0.95988000  0.87719000  1.0
  C  C110  1  0.49823000  0.95957000  0.37702000  1.0
  C  C111  1  0.53877000  0.04012000  0.12282000  1.0
  N  N112  1  0.45459000  0.70855000  0.56199000  1.0
  N  N113  1  0.74594000  0.29171000  0.93804000  1.0
  N  N114  1  0.54541000  0.29145000  0.43801000  1.0
  N  N115  1  0.25407000  0.70829000  0.06196000  1.0
  N  N116  1  0.50742000  0.23008000  0.68308000  1.0
  N  N117  1  0.27720000  0.77034000  0.81712000  1.0
  N  N118  1  0.49259000  0.76992000  0.31692000  1.0
  N  N119  1  0.72280000  0.22966000  0.18289000  1.0
  O  O120  1  0.75145000  0.07563000  0.50879000  1.0
  O  O121  1  0.67608000  0.92470000  0.99126000  1.0
  O  O122  1  0.24854000  0.92437000  0.49121000  1.0
  O  O123  1  0.32391000  0.07530000  0.00874000  1.0
  O  O124  1  0.78638000  0.74602000  0.57380000  1.0
  O  O125  1  0.04044000  0.25432000  0.92630000  1.0
  O  O126  1  0.21361000  0.25397000  0.42620000  1.0
  O  O127  1  0.95956000  0.74568000  0.07370000  1.0
  O  O128  1  0.85753000  0.87973000  0.48344000  1.0
  O  O129  1  0.97801000  0.12057000  0.01668000  1.0
  O  O130  1  0.14246000  0.12027000  0.51655000  1.0
  O  O131  1  0.02199000  0.87943000  0.98332000  1.0
  O  O132  1  0.64075000  0.85053000  0.66075000  1.0
  O  O133  1  0.79035000  0.14984000  0.83937000  1.0
  O  O134  1  0.35926000  0.14947000  0.33925000  1.0
  O  O135  1  0.20966000  0.85016000  0.16063000  1.0
  O  O136  1  0.48338000  0.73607000  0.72307000  1.0
  O  O137  1  0.74768000  0.26437000  0.77698000  1.0
  O  O138  1  0.51663000  0.26394000  0.27693000  1.0
  O  O139  1  0.25234000  0.73564000  0.22302000  1.0
  O  O140  1  0.99581000  0.35477000  0.61082000  1.0
  O  O141  1  0.64148000  0.64588000  0.88919000  1.0
  O  O142  1  0.00418000  0.64523000  0.38918000  1.0
  O  O143  1  0.35852000  0.35412000  0.11082000  1.0
  O  O144  1  0.01464000  0.28707000  0.51016000  1.0
  O  O145  1  0.72731000  0.71306000  0.98993000  1.0
  O  O146  1  0.98536000  0.71292000  0.48984000  1.0
  O  O147  1  0.27268000  0.28694000  0.01007000  1.0
  O  O148  1  0.30672000  0.66737000  0.40951000  1.0
  O  O149  1  0.63900000  0.33271000  0.09045000  1.0
  O  O150  1  0.69327000  0.33262000  0.59049000  1.0
  O  O151  1  0.36101000  0.66731000  0.90955000  1.0
  O  O152  1  0.52350000  0.81499000  0.46711000  1.0
  O  O153  1  0.70844000  0.18523000  0.03293000  1.0
  O  O154  1  0.47649000  0.18502000  0.53289000  1.0
  O  O155  1  0.29156000  0.81478000  0.96707000  1.0
  O  O156  1  0.70492000  0.46447000  0.71944000  1.0
  O  O157  1  0.24065000  0.53605000  0.78042000  1.0
  O  O158  1  0.29509000  0.53553000  0.28056000  1.0
  O  O159  1  0.75934000  0.46394000  0.21958000  1.0
  O  O160  1  0.51891000  0.52210000  0.76110000  1.0
  O  O161  1  0.99659000  0.47827000  0.73915000  1.0
  O  O162  1  0.48108000  0.47789000  0.23889000  1.0
  O  O163  1  0.00341000  0.52174000  0.26085000  1.0
  O  O164  1  0.95812000  0.19374000  0.69242000  1.0
  O  O165  1  0.76428000  0.80685000  0.80771000  1.0
  O  O166  1  0.04187000  0.80626000  0.30757000  1.0
  O  O167  1  0.23571000  0.19317000  0.19228000  1.0
  O  O168  1  0.94494000  0.03718000  0.61226000  1.0
  O  O169  1  0.90753000  0.96311000  0.88800000  1.0
  O  O170  1  0.05505000  0.96281000  0.38774000  1.0
  O  O171  1  0.09247000  0.03690000  0.11200000  1.0
  O  O172  1  0.43297000  0.93583000  0.58580000  1.0
  O  O173  1  0.49714000  0.06450000  0.91435000  1.0
  O  O174  1  0.56704000  0.06417000  0.41420000  1.0
  O  O175  1  0.50285000  0.93550000  0.08565000  1.0
  O  O176  1  0.65026000  0.08797000  0.63377000  1.0
  O  O177  1  0.56213000  0.91233000  0.86629000  1.0
  O  O178  1  0.34974000  0.91204000  0.36624000  1.0
  O  O179  1  0.43786000  0.08766000  0.13371000  1.0
