# generated using pymatgen
data_CuH5C6BrNO2
_symmetry_space_group_name_H-M   'P 1'
_cell_length_a   3.75720000
_cell_length_b   14.01060000
_cell_length_c   14.46610000
_cell_angle_alpha   73.94500000
_cell_angle_beta   89.99890000
_cell_angle_gamma   89.99900000
_symmetry_Int_Tables_number   1
_chemical_formula_structural   CuH5C6BrNO2
_chemical_formula_sum   'Cu4 H20 C24 Br4 N4 O8'
_cell_volume   731.80334295
_cell_formula_units_Z   4
loop_
 _symmetry_equiv_pos_site_id
 _symmetry_equiv_pos_as_xyz
  1  'x, y, z'
loop_
 _atom_site_type_symbol
 _atom_site_label
 _atom_site_symmetry_multiplicity
 _atom_site_fract_x
 _atom_site_fract_y
 _atom_site_fract_z
 _atom_site_occupancy
  Cu  Cu0  1  0.80760000  0.26682000  0.42969000  1.0
  Cu  Cu1  1  0.30756000  0.23318000  0.57030000  1.0
  Cu  Cu2  1  0.19241000  0.73318000  0.57030000  1.0
  Cu  Cu3  1  0.69242000  0.76682000  0.42969000  1.0
  H  H4  1  0.58736000  0.07831000  0.39941000  1.0
  H  H5  1  0.08737000  0.42170000  0.60059000  1.0
  H  H6  1  0.41263000  0.92170000  0.60059000  1.0
  H  H7  1  0.91265000  0.57830000  0.39941000  1.0
  H  H8  1  0.62954000  0.99350000  0.26955000  1.0
  H  H9  1  0.12959000  0.50651000  0.73045000  1.0
  H  H10  1  0.37045000  0.00651000  0.73045000  1.0
  H  H11  1  0.87041000  0.49349000  0.26955000  1.0
  H  H12  1  0.15748000  0.25529000  0.09396000  1.0
  H  H13  1  0.65749000  0.24470000  0.90604000  1.0
  H  H14  1  0.84251000  0.74471000  0.90604000  1.0
  H  H15  1  0.34250000  0.75529000  0.09396000  1.0
  H  H16  1  0.09439000  0.33001000  0.23145000  1.0
  H  H17  1  0.59435000  0.16999000  0.76854000  1.0
  H  H18  1  0.90565000  0.66999000  0.76855000  1.0
  H  H19  1  0.40566000  0.83001000  0.23145000  1.0
  H  H20  1  0.12798000  0.07576000  0.96767000  1.0
  H  H21  1  0.62799000  0.42423000  0.03233000  1.0
  H  H22  1  0.87205000  0.92426000  0.03233000  1.0
  H  H23  1  0.37200000  0.57575000  0.96768000  1.0
  C  C24  1  0.70910000  0.11525000  0.33038000  1.0
  C  C25  1  0.20911000  0.38476000  0.66962000  1.0
  C  C26  1  0.29088000  0.88476000  0.66962000  1.0
  C  C27  1  0.79089000  0.61524000  0.33038000  1.0
  C  C28  1  0.73360000  0.06832000  0.25781000  1.0
  C  C29  1  0.23363000  0.43169000  0.74218000  1.0
  C  C30  1  0.26639000  0.93169000  0.74219000  1.0
  C  C31  1  0.76636000  0.56831000  0.25782000  1.0
  C  C32  1  0.89638000  0.11804000  0.17094000  1.0
  C  C33  1  0.39642000  0.38197000  0.82905000  1.0
  C  C34  1  0.10360000  0.88197000  0.82905000  1.0
  C  C35  1  0.60358000  0.61802000  0.17095000  1.0
  C  C36  1  0.02658000  0.21430000  0.16010000  1.0
  C  C37  1  0.52660000  0.28570000  0.83989000  1.0
  C  C38  1  0.97341000  0.78570000  0.83990000  1.0
  C  C39  1  0.47339000  0.71429000  0.16011000  1.0
  C  C40  1  0.99236000  0.25596000  0.23624000  1.0
  C  C41  1  0.49234000  0.24404000  0.76376000  1.0
  C  C42  1  0.00765000  0.74405000  0.76376000  1.0
  C  C43  1  0.50766000  0.75596000  0.23624000  1.0
  C  C44  1  0.93460000  0.06670000  0.09481000  1.0
  C  C45  1  0.43465000  0.43330000  0.90518000  1.0
  C  C46  1  0.06539000  0.93331000  0.90518000  1.0
  C  C47  1  0.56533000  0.56669000  0.09483000  1.0
  Br  Br48  1  0.81525000  0.11667000  0.57555000  1.0
  Br  Br49  1  0.31527000  0.38333000  0.42445000  1.0
  Br  Br50  1  0.18473000  0.88333000  0.42445000  1.0
  Br  Br51  1  0.68474000  0.61668000  0.57556000  1.0
  N  N52  1  0.83749000  0.20755000  0.32076000  1.0
  N  N53  1  0.33747000  0.29245000  0.67923000  1.0
  N  N54  1  0.16253000  0.79246000  0.67923000  1.0
  N  N55  1  0.66254000  0.70754000  0.32077000  1.0
  O  O56  1  0.10072000  0.11799000  0.01630000  1.0
  O  O57  1  0.60076000  0.38201000  0.98369000  1.0
  O  O58  1  0.89929000  0.88203000  0.98370000  1.0
  O  O59  1  0.39921000  0.61797000  0.01632000  1.0
  O  O60  1  0.81788000  0.98053000  0.10645000  1.0
  O  O61  1  0.31793000  0.51947000  0.89356000  1.0
  O  O62  1  0.18217000  0.01948000  0.89355000  1.0
  O  O63  1  0.68210000  0.48051000  0.10645000  1.0
