# generated using pymatgen
data_SmH8C12(NO3)3
_symmetry_space_group_name_H-M   'P 1'
_cell_length_a   7.70755000
_cell_length_b   8.05800000
_cell_length_c   12.63860000
_cell_angle_alpha   94.45040000
_cell_angle_beta   94.26830000
_cell_angle_gamma   96.70880000
_symmetry_Int_Tables_number   1
_chemical_formula_structural   SmH8C12(NO3)3
_chemical_formula_sum   'Sm2 H16 C24 N6 O18'
_cell_volume   774.45773039
_cell_formula_units_Z   2
loop_
 _symmetry_equiv_pos_site_id
 _symmetry_equiv_pos_as_xyz
  1  'x, y, z'
loop_
 _atom_site_type_symbol
 _atom_site_label
 _atom_site_symmetry_multiplicity
 _atom_site_fract_x
 _atom_site_fract_y
 _atom_site_fract_z
 _atom_site_occupancy
  Sm  Sm0  1  0.69201000  0.20853000  0.50820000  1.0
  Sm  Sm1  1  0.30798000  0.79144000  0.49179000  1.0
  H  H2  1  0.34818000  0.37047000  0.99178000  1.0
  H  H3  1  0.65179000  0.62953000  0.00819000  1.0
  H  H4  1  0.22780000  0.49920000  0.15197000  1.0
  H  H5  1  0.77218000  0.50083000  0.84800000  1.0
  H  H6  1  0.03327000  0.03610000  0.24230000  1.0
  H  H7  1  0.96676000  0.96396000  0.75771000  1.0
  H  H8  1  0.14698000  0.88495000  0.08701000  1.0
  H  H9  1  0.85306000  0.11508000  0.91302000  1.0
  H  H10  1  0.44058000  0.23903000  0.85478000  1.0
  H  H11  1  0.55944000  0.76097000  0.14522000  1.0
  H  H12  1  0.25334000  0.62118000  0.87998000  1.0
  H  H13  1  0.74663000  0.37882000  0.12001000  1.0
  H  H14  1  0.34586000  0.36770000  0.47789000  1.0
  H  H15  1  0.65413000  0.63228000  0.52211000  1.0
  H  H16  1  0.41771000  0.41340000  0.59584000  1.0
  H  H17  1  0.58230000  0.58658000  0.40416000  1.0
  C  C18  1  0.53787000  0.06313000  0.68944000  1.0
  C  C19  1  0.46212000  0.93685000  0.31056000  1.0
  C  C20  1  0.43627000  0.00103000  0.77632000  1.0
  C  C21  1  0.56373000  0.99897000  0.22368000  1.0
  C  C22  1  0.36381000  0.84596000  0.80573000  1.0
  C  C23  1  0.63618000  0.15405000  0.19427000  1.0
  C  C24  1  0.35023000  0.67519000  0.75423000  1.0
  C  C25  1  0.64977000  0.32480000  0.24576000  1.0
  C  C26  1  0.31741000  0.03111000  0.93149000  1.0
  C  C27  1  0.68260000  0.96891000  0.06851000  1.0
  C  C28  1  0.25541000  0.11474000  0.02515000  1.0
  C  C29  1  0.74460000  0.88527000  0.97485000  1.0
  C  C30  1  0.27897000  0.29026000  0.04478000  1.0
  C  C31  1  0.72102000  0.70976000  0.95521000  1.0
  C  C32  1  0.21060000  0.36288000  0.13387000  1.0
  C  C33  1  0.78939000  0.63715000  0.86611000  1.0
  C  C34  1  0.10278000  0.10638000  0.18447000  1.0
  C  C35  1  0.89724000  0.89366000  0.81554000  1.0
  C  C36  1  0.16675000  0.02138000  0.09817000  1.0
  C  C37  1  0.83328000  0.97864000  0.90185000  1.0
  C  C38  1  0.03744000  0.04156000  0.55607000  1.0
  C  C39  1  0.96256000  0.95841000  0.44392000  1.0
  C  C40  1  0.04181000  0.44587000  0.45787000  1.0
  C  C41  1  0.95819000  0.55410000  0.54216000  1.0
  N  N42  1  0.40467000  0.11374000  0.85663000  1.0
  N  N43  1  0.59534000  0.88626000  0.14337000  1.0
  N  N44  1  0.29442000  0.86672000  0.90243000  1.0
  N  N45  1  0.70558000  0.13328000  0.09757000  1.0
  N  N46  1  0.12170000  0.27421000  0.20214000  1.0
  N  N47  1  0.87831000  0.72583000  0.79786000  1.0
  O  O48  1  0.61378000  0.21195000  0.70263000  1.0
  O  O49  1  0.38622000  0.78803000  0.29736000  1.0
  O  O50  1  0.54552000  0.96660000  0.60479000  1.0
  O  O51  1  0.45448000  0.03339000  0.39521000  1.0
  O  O52  1  0.38856000  0.63588000  0.66319000  1.0
  O  O53  1  0.61145000  0.36412000  0.33683000  1.0
  O  O54  1  0.28899000  0.55723000  0.81634000  1.0
  O  O55  1  0.71097000  0.44277000  0.18365000  1.0
  O  O56  1  0.93981000  0.12919000  0.60727000  1.0
  O  O57  1  0.06017000  0.87078000  0.39274000  1.0
  O  O58  1  0.19018000  0.01520000  0.58813000  1.0
  O  O59  1  0.80981000  0.98478000  0.41185000  1.0
  O  O60  1  0.95608000  0.30874000  0.42202000  1.0
  O  O61  1  0.04392000  0.69123000  0.57799000  1.0
  O  O62  1  0.19346000  0.50503000  0.43346000  1.0
  O  O63  1  0.80652000  0.49494000  0.56656000  1.0
  O  O64  1  0.42370000  0.33131000  0.53508000  1.0
  O  O65  1  0.57631000  0.66867000  0.46492000  1.0
