# generated using pymatgen
data_FeCuH30C19N11
_symmetry_space_group_name_H-M   'P 1'
_cell_length_a   8.19336000
_cell_length_b   8.82240552
_cell_length_c   9.76220177
_cell_angle_alpha   63.28234806
_cell_angle_beta   70.61493392
_cell_angle_gamma   62.60956167
_symmetry_Int_Tables_number   1
_chemical_formula_structural   FeCuH30C19N11
_chemical_formula_sum   'Fe1 Cu1 H30 C19 N11'
_cell_volume   552.65297583
_cell_formula_units_Z   1
loop_
 _symmetry_equiv_pos_site_id
 _symmetry_equiv_pos_as_xyz
  1  'x, y, z'
loop_
 _atom_site_type_symbol
 _atom_site_label
 _atom_site_symmetry_multiplicity
 _atom_site_fract_x
 _atom_site_fract_y
 _atom_site_fract_z
 _atom_site_occupancy
  Fe  Fe0  1  0.75471000  0.00535000  0.24864000  1.0
  Cu  Cu1  1  0.25244000  0.99911000  0.75426000  1.0
  H  H2  1  0.22685000  0.98796000  0.51266000  1.0
  H  H3  1  0.38298000  0.66511000  0.91294000  1.0
  H  H4  1  0.28562000  0.00466000  0.99596000  1.0
  H  H5  1  0.13581000  0.32940000  0.59097000  1.0
  H  H6  1  0.33020000  0.10332000  0.23496000  1.0
  H  H7  1  0.20771000  0.82900000  0.29455000  1.0
  H  H8  1  0.78836000  0.60092000  0.29824000  1.0
  H  H9  1  0.64146000  0.39560000  0.31443000  1.0
  H  H10  1  0.41808000  0.50196000  0.25744000  1.0
  H  H11  1  0.43465000  0.43032000  0.45537000  1.0
  H  H12  1  0.21032000  0.69419000  0.59673000  1.0
  H  H13  1  0.14663000  0.69239000  0.79100000  1.0
  H  H14  1  0.49012000  0.51779000  0.74103000  1.0
  H  H15  1  0.51518000  0.71882000  0.58348000  1.0
  H  H16  1  0.69353000  0.76526000  0.69263000  1.0
  H  H17  1  0.70335000  0.55473000  0.85041000  1.0
  H  H18  1  0.77844000  0.72771000  0.93764000  1.0
  H  H19  1  0.56175000  0.71415000  0.03855000  1.0
  H  H20  1  0.58674000  0.02511000  0.94770000  1.0
  H  H21  1  0.60552000  0.04502000  0.75324000  1.0
  H  H22  1  0.35895000  0.31086000  0.72838000  1.0
  H  H23  1  0.28029000  0.30014000  0.92537000  1.0
  H  H24  1  0.98481000  0.28340000  0.91945000  1.0
  H  H25  1  0.01655000  0.48201000  0.76373000  1.0
  H  H26  1  0.81349000  0.45176000  0.64022000  1.0
  H  H27  1  0.81225000  0.24514000  0.79905000  1.0
  H  H28  1  0.95624000  0.28352000  0.45349000  1.0
  H  H29  1  0.73673000  0.27768000  0.55495000  1.0
  H  H30  1  0.89467000  0.96410000  0.74433000  1.0
  H  H31  1  0.92453000  0.97876000  0.54928000  1.0
  C  C32  1  0.58463000  0.06899000  0.41976000  1.0
  C  C33  1  0.92715000  0.93506000  0.08129000  1.0
  C  C34  1  0.60312000  0.22546000  0.11181000  1.0
  C  C35  1  0.90849000  0.78716000  0.38609000  1.0
  C  C36  1  0.89460000  0.13447000  0.23012000  1.0
  C  C37  1  0.40708000  0.95834000  0.25944000  1.0
  C  C38  1  0.34453000  0.82572000  0.28588000  1.0
  C  C39  1  0.64785000  0.70151000  0.29116000  1.0
  C  C40  1  0.49804000  0.48782000  0.33572000  1.0
  C  C41  1  0.22976000  0.73861000  0.67720000  1.0
  C  C42  1  0.43078000  0.66787000  0.69471000  1.0
  C  C43  1  0.62829000  0.70350000  0.81068000  1.0
  C  C44  1  0.63307000  0.77563000  0.92359000  1.0
  C  C45  1  0.55065000  0.98245000  0.87502000  1.0
  C  C46  1  0.27104000  0.25994000  0.83726000  1.0
  C  C47  1  0.07357000  0.33192000  0.81063000  1.0
  C  C48  1  0.88428000  0.30230000  0.68261000  1.0
  C  C49  1  0.88194000  0.22842000  0.56987000  1.0
  C  C50  1  0.95708000  0.02155000  0.62395000  1.0
  N  N51  1  0.47477000  0.10232000  0.52665000  1.0
  N  N52  1  0.03694000  0.89301000  0.97777000  1.0
  N  N53  1  0.50562000  0.35996000  0.02918000  1.0
  N  N54  1  0.00579000  0.65292000  0.46933000  1.0
  N  N55  1  0.98130000  0.21881000  0.21457000  1.0
  N  N56  1  0.59656000  0.87886000  0.26314000  1.0
  N  N57  1  0.49805000  0.66461000  0.30666000  1.0
  N  N58  1  0.15927000  0.94001000  0.62331000  1.0
  N  N59  1  0.43664000  0.73793000  0.80440000  1.0
  N  N60  1  0.34679000  0.05855000  0.88412000  1.0
  N  N61  1  0.07421000  0.26230000  0.69777000  1.0
