# generated using pymatgen
data_NiH26C32(N5O3)2
_symmetry_space_group_name_H-M   'P 1'
_cell_length_a   8.34142000
_cell_length_b   9.28427000
_cell_length_c   10.61480000
_cell_angle_alpha   89.93990000
_cell_angle_beta   71.92300000
_cell_angle_gamma   76.05100000
_symmetry_Int_Tables_number   1
_chemical_formula_structural   NiH26C32(N5O3)2
_chemical_formula_sum   'Ni1 H26 C32 N10 O6'
_cell_volume   756.00408408
_cell_formula_units_Z   1
loop_
 _symmetry_equiv_pos_site_id
 _symmetry_equiv_pos_as_xyz
  1  'x, y, z'
loop_
 _atom_site_type_symbol
 _atom_site_label
 _atom_site_symmetry_multiplicity
 _atom_site_fract_x
 _atom_site_fract_y
 _atom_site_fract_z
 _atom_site_occupancy
  Ni  Ni0  1  0.50000000  0.00000000  0.00000000  1.0
  H  H1  1  0.46267000  0.36090000  0.81220000  1.0
  H  H2  1  0.53733000  0.63910000  0.18780000  1.0
  H  H3  1  0.22775000  0.42867000  0.30137000  1.0
  H  H4  1  0.77225000  0.57133000  0.69863000  1.0
  H  H5  1  0.10221000  0.52752000  0.54248000  1.0
  H  H6  1  0.89779000  0.47248000  0.45752000  1.0
  H  H7  1  0.57597000  0.27039000  0.59834000  1.0
  H  H8  1  0.42403000  0.72961000  0.40166000  1.0
  H  H9  1  0.68189000  0.18437000  0.35858000  1.0
  H  H10  1  0.31811000  0.81563000  0.64142000  1.0
  H  H11  1  0.10562000  0.69984000  0.15388000  1.0
  H  H12  1  0.89438000  0.30016000  0.84612000  1.0
  H  H13  1  0.85800000  0.89028000  0.31225000  1.0
  H  H14  1  0.14200000  0.10972000  0.68775000  1.0
  H  H15  1  0.60312000  0.01556000  0.23832000  1.0
  H  H16  1  0.39688000  0.98444000  0.76168000  1.0
  H  H17  1  0.82183000  0.77595000  0.87207000  1.0
  H  H18  1  0.17817000  0.22405000  0.12793000  1.0
  H  H19  1  0.86976000  0.26896000  0.56866000  1.0
  H  H20  1  0.13025000  0.73104000  0.43134000  1.0
  H  H21  1  0.88824000  0.81325000  0.64692000  1.0
  H  H22  1  0.11176000  0.18675000  0.35307000  1.0
  H  H23  1  0.48901000  0.74540000  0.84920000  1.0
  H  H24  1  0.51099000  0.25460000  0.15080000  1.0
  H  H25  1  0.41702000  0.73139000  0.00873000  1.0
  H  H26  1  0.58298000  0.26861000  0.99127000  1.0
  C  C27  1  0.29975000  0.39530000  0.37138000  1.0
  C  C28  1  0.70025000  0.60470000  0.62862000  1.0
  C  C29  1  0.22988000  0.44962000  0.50425000  1.0
  C  C30  1  0.77012000  0.55038000  0.49575000  1.0
  C  C31  1  0.32856000  0.40633000  0.58992000  1.0
  C  C32  1  0.67144000  0.59367000  0.41008000  1.0
  C  C33  1  0.49276000  0.30625000  0.53712000  1.0
  C  C34  1  0.50724000  0.69375000  0.46288000  1.0
  C  C35  1  0.55187000  0.25821000  0.40286000  1.0
  C  C36  1  0.44813000  0.74179000  0.59714000  1.0
  C  C37  1  0.26383000  0.47198000  0.72641000  1.0
  C  C38  1  0.73617000  0.52802000  0.27359000  1.0
  C  C39  1  0.11949000  0.61157000  0.90318000  1.0
  C  C40  1  0.88051000  0.38843000  0.09682000  1.0
  C  C41  1  0.98345000  0.72373000  0.99973000  1.0
  C  C42  1  0.01655000  0.27627000  0.00028000  1.0
  C  C43  1  0.99293000  0.75662000  0.12570000  1.0
  C  C44  1  0.00707000  0.24338000  0.87430000  1.0
  C  C45  1  0.85603000  0.86288000  0.21315000  1.0
  C  C46  1  0.14396000  0.13712000  0.78685000  1.0
  C  C47  1  0.71452000  0.93322000  0.17350000  1.0
  C  C48  1  0.28548000  0.06677000  0.82650000  1.0
  C  C49  1  0.83636000  0.79924000  0.96758000  1.0
  C  C50  1  0.16363000  0.20076000  0.03242000  1.0
  C  C51  1  0.71720000  0.09874000  0.74929000  1.0
  C  C52  1  0.28281000  0.90126000  0.25071000  1.0
  C  C53  1  0.86314000  0.04677000  0.62027000  1.0
  C  C54  1  0.13687000  0.95323000  0.37973000  1.0
  C  C55  1  0.92769000  0.15126000  0.53712000  1.0
  C  C56  1  0.07232000  0.84874000  0.46288000  1.0
  C  C57  1  0.93715000  0.89455000  0.58202000  1.0
  C  C58  1  0.06285000  0.10544000  0.41797000  1.0
  N  N59  1  0.70559000  0.90184000  0.05234000  1.0
  N  N60  1  0.29441000  0.09816000  0.94766000  1.0
  N  N61  1  0.34724000  0.44020000  0.81861000  1.0
  N  N62  1  0.65276000  0.55980000  0.18139000  1.0
  N  N63  1  0.25821000  0.52780000  0.93139000  1.0
  N  N64  1  0.74179000  0.47220000  0.06861000  1.0
  N  N65  1  0.11779000  0.58050000  0.77806000  1.0
  N  N66  1  0.88221000  0.41949000  0.22194000  1.0
  N  N67  1  0.45880000  0.30156000  0.32031000  1.0
  N  N68  1  0.54120000  0.69844000  0.67969000  1.0
  O  O69  1  0.49436000  0.77395000  0.93857000  1.0
  O  O70  1  0.50564000  0.22605000  0.06143000  1.0
  O  O71  1  0.66088000  0.99527000  0.81372000  1.0
  O  O72  1  0.33913000  0.00473000  0.18628000  1.0
  O  O73  1  0.66234000  0.23770000  0.78317000  1.0
  O  O74  1  0.33767000  0.76230000  0.21683000  1.0
