# generated using pymatgen
data_CuH4C4(NO)3
_symmetry_space_group_name_H-M   'P 1'
_cell_length_a   6.51790000
_cell_length_b   8.20183000
_cell_length_c   11.77630000
_cell_angle_alpha   90.00020000
_cell_angle_beta   90.00010000
_cell_angle_gamma   89.99990000
_symmetry_Int_Tables_number   1
_chemical_formula_structural   CuH4C4(NO)3
_chemical_formula_sum   'Cu4 H16 C16 N12 O12'
_cell_volume   629.54578015
_cell_formula_units_Z   4
loop_
 _symmetry_equiv_pos_site_id
 _symmetry_equiv_pos_as_xyz
  1  'x, y, z'
loop_
 _atom_site_type_symbol
 _atom_site_label
 _atom_site_symmetry_multiplicity
 _atom_site_fract_x
 _atom_site_fract_y
 _atom_site_fract_z
 _atom_site_occupancy
  Cu  Cu0  1  0.25000000  0.93392000  0.33997000  1.0
  Cu  Cu1  1  0.75000000  0.56608000  0.83997000  1.0
  Cu  Cu2  1  0.75000000  0.06609000  0.66003000  1.0
  Cu  Cu3  1  0.25000000  0.43391000  0.16003000  1.0
  H  H4  1  0.94341000  0.19542000  0.31427000  1.0
  H  H5  1  0.05659000  0.30459000  0.81426000  1.0
  H  H6  1  0.44341000  0.80459000  0.68574000  1.0
  H  H7  1  0.55659000  0.69540000  0.18575000  1.0
  H  H8  1  0.05659000  0.80459000  0.68573000  1.0
  H  H9  1  0.94341000  0.69540000  0.18574000  1.0
  H  H10  1  0.55658000  0.19542000  0.31427000  1.0
  H  H11  1  0.44342000  0.30458000  0.81426000  1.0
  H  H12  1  0.94029000  0.72331000  0.44535000  1.0
  H  H13  1  0.05971000  0.77669000  0.94535000  1.0
  H  H14  1  0.44029000  0.27669000  0.55465000  1.0
  H  H15  1  0.55971000  0.22331000  0.05464000  1.0
  H  H16  1  0.05971000  0.27669000  0.55465000  1.0
  H  H17  1  0.94030000  0.22331000  0.05464000  1.0
  H  H18  1  0.55971000  0.72331000  0.44535000  1.0
  H  H19  1  0.44029000  0.77668000  0.94536000  1.0
  C  C20  1  0.85619000  0.08868000  0.34046000  1.0
  C  C21  1  0.14380000  0.41133000  0.84046000  1.0
  C  C22  1  0.35621000  0.91133000  0.65953000  1.0
  C  C23  1  0.64381000  0.58866000  0.15954000  1.0
  C  C24  1  0.14379000  0.91133000  0.65953000  1.0
  C  C25  1  0.85620000  0.58866000  0.15954000  1.0
  C  C26  1  0.64380000  0.08868000  0.34046000  1.0
  C  C27  1  0.35620000  0.41133000  0.84046000  1.0
  C  C28  1  0.85611000  0.82779000  0.41289000  1.0
  C  C29  1  0.14389000  0.67222000  0.91289000  1.0
  C  C30  1  0.35612000  0.17223000  0.58711000  1.0
  C  C31  1  0.64389000  0.32777000  0.08710000  1.0
  C  C32  1  0.14388000  0.17223000  0.58711000  1.0
  C  C33  1  0.85612000  0.32778000  0.08710000  1.0
  C  C34  1  0.64388000  0.82779000  0.41289000  1.0
  C  C35  1  0.35611000  0.67222000  0.91289000  1.0
  N  N36  1  0.96530000  0.95517000  0.37163000  1.0
  N  N37  1  0.03469000  0.54484000  0.87163000  1.0
  N  N38  1  0.46530000  0.04484000  0.62837000  1.0
  N  N39  1  0.53470000  0.45516000  0.12837000  1.0
  N  N40  1  0.03470000  0.04485000  0.62836000  1.0
  N  N41  1  0.96531000  0.45516000  0.12837000  1.0
  N  N42  1  0.53469000  0.95517000  0.37163000  1.0
  N  N43  1  0.46531000  0.54484000  0.87163000  1.0
  N  N44  1  0.25000000  0.52393000  0.39270000  1.0
  N  N45  1  0.75000000  0.97607000  0.89269000  1.0
  N  N46  1  0.75000000  0.47608000  0.60732000  1.0
  N  N47  1  0.25000000  0.02392000  0.10732000  1.0
  O  O48  1  0.25000000  0.54916000  0.49741000  1.0
  O  O49  1  0.75000000  0.95084000  0.99740000  1.0
  O  O50  1  0.74999000  0.45084000  0.50259000  1.0
  O  O51  1  0.25000000  0.04915000  0.00259000  1.0
  O  O52  1  0.25000000  0.64212000  0.32131000  1.0
  O  O53  1  0.75000000  0.85787000  0.82131000  1.0
  O  O54  1  0.75000000  0.35789000  0.67870000  1.0
  O  O55  1  0.25000000  0.14212000  0.17870000  1.0
  O  O56  1  0.25001000  0.37922000  0.35217000  1.0
  O  O57  1  0.75000000  0.12077000  0.85216000  1.0
  O  O58  1  0.75000000  0.62079000  0.64783000  1.0
  O  O59  1  0.25001000  0.87921000  0.14783000  1.0
