# generated using pymatgen
data_Cd3H38C42(NO4)4
_symmetry_space_group_name_H-M   'P 1'
_cell_length_a   12.70890000
_cell_length_b   13.66360000
_cell_length_c   16.92970000
_cell_angle_alpha   78.57490000
_cell_angle_beta   76.94920000
_cell_angle_gamma   80.47100000
_symmetry_Int_Tables_number   1
_chemical_formula_structural   Cd3H38C42(NO4)4
_chemical_formula_sum   'Cd6 H76 C84 N8 O32'
_cell_volume   2784.58592555
_cell_formula_units_Z   2
loop_
 _symmetry_equiv_pos_site_id
 _symmetry_equiv_pos_as_xyz
  1  'x, y, z'
loop_
 _atom_site_type_symbol
 _atom_site_label
 _atom_site_symmetry_multiplicity
 _atom_site_fract_x
 _atom_site_fract_y
 _atom_site_fract_z
 _atom_site_occupancy
  Cd  Cd0  1  0.52197000  0.47418000  0.26219000  1.0
  Cd  Cd1  1  0.47803000  0.52582000  0.73782000  1.0
  Cd  Cd2  1  0.28071000  0.75401000  0.75960000  1.0
  Cd  Cd3  1  0.71929000  0.24599000  0.24040000  1.0
  Cd  Cd4  1  0.27808000  0.70241000  0.25115000  1.0
  Cd  Cd5  1  0.72192000  0.29759000  0.74886000  1.0
  H  H6  1  0.21022000  0.31835000  0.35005000  1.0
  H  H7  1  0.78978000  0.68165000  0.64996000  1.0
  H  H8  1  0.04141000  0.24375000  0.34858000  1.0
  H  H9  1  0.95859000  0.75624000  0.65142000  1.0
  H  H10  1  0.01062000  0.44025000  0.12228000  1.0
  H  H11  1  0.98939000  0.55975000  0.87771000  1.0
  H  H12  1  0.28132000  0.44149000  0.02909000  1.0
  H  H13  1  0.71868000  0.55851000  0.97091000  1.0
  H  H14  1  0.27869000  0.75610000  0.92646000  1.0
  H  H15  1  0.72131000  0.24390000  0.07355000  1.0
  H  H16  1  0.14779000  0.79941000  0.05025000  1.0
  H  H17  1  0.85221000  0.20060000  0.94976000  1.0
  H  H18  1  0.44548000  0.64486000  0.08551000  1.0
  H  H19  1  0.55452000  0.35514000  0.91448000  1.0
  H  H20  1  0.40796000  0.90510000  0.93802000  1.0
  H  H21  1  0.59205000  0.09490000  0.06198000  1.0
  H  H22  1  0.54674000  0.90507000  0.94357000  1.0
  H  H23  1  0.45326000  0.09492000  0.05643000  1.0
  H  H24  1  0.44120000  0.91477000  0.03335000  1.0
  H  H25  1  0.55881000  0.08523000  0.96665000  1.0
  H  H26  1  0.54781000  0.63260000  0.96641000  1.0
  H  H27  1  0.45219000  0.36739000  0.03359000  1.0
  H  H28  1  0.62942000  0.73192000  0.92195000  1.0
  H  H29  1  0.37058000  0.26808000  0.07805000  1.0
  H  H30  1  0.50915000  0.72696000  0.88508000  1.0
  H  H31  1  0.49085000  0.27304000  0.11491000  1.0
  H  H32  1  0.34668000  0.54977000  0.41326000  1.0
  H  H33  1  0.65332000  0.45023000  0.58674000  1.0
  H  H34  1  0.06009000  0.60344000  0.49557000  1.0
  H  H35  1  0.93990000  0.39656000  0.50443000  1.0
  H  H36  1  0.09053000  0.59499000  0.59525000  1.0
  H  H37  1  0.90947000  0.40501000  0.40475000  1.0
  H  H38  1  0.06183000  0.48594000  0.56536000  1.0
  H  H39  1  0.93816000  0.51406000  0.43464000  1.0
  H  H40  1  0.25600000  0.39126000  0.57820000  1.0
  H  H41  1  0.74400000  0.60874000  0.42180000  1.0
  H  H42  1  0.27442000  0.49719000  0.61821000  1.0
  H  H43  1  0.72558000  0.50282000  0.38178000  1.0
  H  H44  1  0.36743000  0.46056000  0.52915000  1.0
  H  H45  1  0.63257000  0.53944000  0.47085000  1.0
  H  H46  1  0.46388000  0.29329000  0.55230000  1.0
  H  H47  1  0.53612000  0.70671000  0.44770000  1.0
  H  H48  1  0.84986000  0.14043000  0.52873000  1.0
  H  H49  1  0.15014000  0.85957000  0.47127000  1.0
  H  H50  1  0.78889000  0.25358000  0.40883000  1.0
  H  H51  1  0.21111000  0.74642000  0.59117000  1.0
  H  H52  1  0.69589000  0.98223000  0.57850000  1.0
  H  H53  1  0.30411000  0.01777000  0.42150000  1.0
  H  H54  1  0.66771000  0.87680000  0.65811000  1.0
  H  H55  1  0.33228000  0.12320000  0.34189000  1.0
  H  H56  1  0.80385000  0.88739000  0.60254000  1.0
  H  H57  1  0.19615000  0.11261000  0.39746000  1.0
  H  H58  1  0.87060000  0.90112000  0.74603000  1.0
  H  H59  1  0.12940000  0.09888000  0.25397000  1.0
  H  H60  1  0.73980000  0.85887000  0.78097000  1.0
  H  H61  1  0.26020000  0.14113000  0.21903000  1.0
  H  H62  1  0.76571000  0.97187000  0.80919000  1.0
  H  H63  1  0.23429000  0.02813000  0.19081000  1.0
  H  H64  1  0.32024000  0.23628000  0.85337000  1.0
  H  H65  1  0.67976000  0.76373000  0.14663000  1.0
  H  H66  1  0.27363000  0.05932000  0.87341000  1.0
  H  H67  1  0.72637000  0.94068000  0.12660000  1.0
  H  H68  1  0.50493000  0.01183000  0.65337000  1.0
  H  H69  1  0.49507000  0.98817000  0.34663000  1.0
  H  H70  1  0.92258000  0.67893000  0.31943000  1.0
  H  H71  1  0.07741000  0.32107000  0.68057000  1.0
  H  H72  1  0.80922000  0.66361000  0.27693000  1.0
  H  H73  1  0.19078000  0.33639000  0.72307000  1.0
  H  H74  1  0.85917000  0.78269000  0.25751000  1.0
  H  H75  1  0.14083000  0.21731000  0.74248000  1.0
  H  H76  1  0.85663000  0.71160000  0.10670000  1.0
  H  H77  1  0.14338000  0.28840000  0.89330000  1.0
  H  H78  1  0.85772000  0.58445000  0.15866000  1.0
  H  H79  1  0.14229000  0.41555000  0.84134000  1.0
  H  H80  1  0.97204000  0.62200000  0.08100000  1.0
  H  H81  1  0.02797000  0.37800000  0.91901000  1.0
  C  C82  1  0.30408000  0.46174000  0.24232000  1.0
  C  C83  1  0.69592000  0.53826000  0.75768000  1.0
  C  C84  1  0.20124000  0.42371000  0.23910000  1.0
  C  C85  1  0.79876000  0.57628000  0.76090000  1.0
  C  C86  1  0.16405000  0.34540000  0.30130000  1.0
  C  C87  1  0.83595000  0.65460000  0.69870000  1.0
  C  C88  1  0.07214000  0.30356000  0.30011000  1.0
  C  C89  1  0.92786000  0.69644000  0.69989000  1.0
  C  C90  1  0.01741000  0.33795000  0.23478000  1.0
  C  C91  1  0.98259000  0.66205000  0.76522000  1.0
  C  C92  1  0.05453000  0.41545000  0.17251000  1.0
  C  C93  1  0.94548000  0.58455000  0.82749000  1.0
  C  C94  1  0.14469000  0.46077000  0.17425000  1.0
  C  C95  1  0.85531000  0.53922000  0.82575000  1.0
  C  C96  1  0.91713000  0.29565000  0.23263000  1.0
  C  C97  1  0.08287000  0.70435000  0.76737000  1.0
  C  C98  1  0.17969000  0.54329000  0.10575000  1.0
  C  C99  1  0.82031000  0.45671000  0.89425000  1.0
  C  C100  1  0.25181000  0.51977000  0.03475000  1.0
  C  C101  1  0.74819000  0.48023000  0.96525000  1.0
  C  C102  1  0.28802000  0.59513000  0.96992000  1.0
  C  C103  1  0.71198000  0.40487000  0.03008000  1.0
  C  C104  1  0.25080000  0.69622000  0.97586000  1.0
  C  C105  1  0.74921000  0.30378000  0.02415000  1.0
  C  C106  1  0.17690000  0.72071000  0.04543000  1.0
  C  C107  1  0.82310000  0.27929000  0.95457000  1.0
  C  C108  1  0.14026000  0.64512000  0.10983000  1.0
  C  C109  1  0.85974000  0.35488000  0.89017000  1.0
  C  C110  1  0.36516000  0.56601000  0.89509000  1.0
  C  C111  1  0.63484000  0.43399000  0.10491000  1.0
  C  C112  1  0.06423000  0.67633000  0.18440000  1.0
  C  C113  1  0.93577000  0.32367000  0.81560000  1.0
  C  C114  1  0.43008000  0.72761000  0.07404000  1.0
  C  C115  1  0.56992000  0.27238000  0.92596000  1.0
  C  C116  1  0.46847000  0.88075000  0.97765000  1.0
  C  C117  1  0.53154000  0.11925000  0.02235000  1.0
  C  C118  1  0.54553000  0.71269000  0.93999000  1.0
  C  C119  1  0.45447000  0.28730000  0.06000000  1.0
  C  C120  1  0.25844000  0.57167000  0.43124000  1.0
  C  C121  1  0.74155000  0.42833000  0.56876000  1.0
  C  C122  1  0.10011000  0.55546000  0.54297000  1.0
  C  C123  1  0.89989000  0.44454000  0.45703000  1.0
  C  C124  1  0.28219000  0.46677000  0.56147000  1.0
  C  C125  1  0.71781000  0.53323000  0.43853000  1.0
  C  C126  1  0.58468000  0.35538000  0.40514000  1.0
  C  C127  1  0.41532000  0.64462000  0.59486000  1.0
  C  C128  1  0.62266000  0.28238000  0.47438000  1.0
  C  C129  1  0.37734000  0.71763000  0.52562000  1.0
  C  C130  1  0.54829000  0.25890000  0.54781000  1.0
  C  C131  1  0.45172000  0.74110000  0.45219000  1.0
  C  C132  1  0.57985000  0.19048000  0.61389000  1.0
  C  C133  1  0.42015000  0.80952000  0.38611000  1.0
  C  C134  1  0.68991000  0.14850000  0.60659000  1.0
  C  C135  1  0.31009000  0.85150000  0.39341000  1.0
  C  C136  1  0.76471000  0.17280000  0.53330000  1.0
  C  C137  1  0.23529000  0.82720000  0.46670000  1.0
  C  C138  1  0.73117000  0.23769000  0.46669000  1.0
  C  C139  1  0.26883000  0.76231000  0.53331000  1.0
  C  C140  1  0.73041000  0.08668000  0.67981000  1.0
  C  C141  1  0.26959000  0.91331000  0.32019000  1.0
  C  C142  1  0.72675000  0.93011000  0.62853000  1.0
  C  C143  1  0.27325000  0.06990000  0.37147000  1.0
  C  C144  1  0.78251000  0.92585000  0.76062000  1.0
  C  C145  1  0.21749000  0.07415000  0.23938000  1.0
  C  C146  1  0.45581000  0.32962000  0.73163000  1.0
  C  C147  1  0.54419000  0.67038000  0.26837000  1.0
  C  C148  1  0.43979000  0.22154000  0.74330000  1.0
  C  C149  1  0.56021000  0.77846000  0.25670000  1.0
  C  C150  1  0.36147000  0.18522000  0.81084000  1.0
  C  C151  1  0.63853000  0.81478000  0.18916000  1.0
  C  C152  1  0.33585000  0.08777000  0.82209000  1.0
  C  C153  1  0.66415000  0.91223000  0.17791000  1.0
  C  C154  1  0.38708000  0.02585000  0.76400000  1.0
  C  C155  1  0.61292000  0.97415000  0.23600000  1.0
  C  C156  1  0.46793000  0.06069000  0.69846000  1.0
  C  C157  1  0.53207000  0.93931000  0.30154000  1.0
  C  C158  1  0.49680000  0.15763000  0.68770000  1.0
  C  C159  1  0.50320000  0.84237000  0.31230000  1.0
  C  C160  1  0.35065000  0.92604000  0.76823000  1.0
  C  C161  1  0.64934000  0.07396000  0.23177000  1.0
  C  C162  1  0.88258000  0.70061000  0.26647000  1.0
  C  C163  1  0.11742000  0.29939000  0.73353000  1.0
  C  C164  1  0.90848000  0.64516000  0.13156000  1.0
  C  C165  1  0.09152000  0.35484000  0.86844000  1.0
  N  N166  1  0.48202000  0.77180000  0.00117000  1.0
  N  N167  1  0.51798000  0.22820000  0.99883000  1.0
  N  N168  1  0.21485000  0.53197000  0.50813000  1.0
  N  N169  1  0.78515000  0.46804000  0.49187000  1.0
  N  N170  1  0.95741000  0.67020000  0.19389000  1.0
  N  N171  1  0.04259000  0.32979000  0.80611000  1.0
  N  N172  1  0.74443000  0.98554000  0.68853000  1.0
  N  N173  1  0.25556000  0.01446000  0.31146000  1.0
  O  O174  1  0.09939000  0.70981000  0.23655000  1.0
  O  O175  1  0.90061000  0.29020000  0.76345000  1.0
  O  O176  1  0.32430000  0.54872000  0.20372000  1.0
  O  O177  1  0.67570000  0.45128000  0.79628000  1.0
  O  O178  1  0.36831000  0.40153000  0.28296000  1.0
  O  O179  1  0.63169000  0.59847000  0.71705000  1.0
  O  O180  1  0.38896000  0.87909000  0.70732000  1.0
  O  O181  1  0.61104000  0.12091000  0.29268000  1.0
  O  O182  1  0.28099000  0.89278000  0.83049000  1.0
  O  O183  1  0.71901000  0.10722000  0.16951000  1.0
  O  O184  1  0.49825000  0.41465000  0.41883000  1.0
  O  O185  1  0.50176000  0.58535000  0.58118000  1.0
  O  O186  1  0.64456000  0.35697000  0.33205000  1.0
  O  O187  1  0.35543000  0.64303000  0.66795000  1.0
  O  O188  1  0.40406000  0.47538000  0.89297000  1.0
  O  O189  1  0.59593000  0.52463000  0.10702000  1.0
  O  O190  1  0.39100000  0.63648000  0.83311000  1.0
  O  O191  1  0.60900000  0.36352000  0.16689000  1.0
  O  O192  1  0.88691000  0.22189000  0.28804000  1.0
  O  O193  1  0.11309000  0.77811000  0.71196000  1.0
  O  O194  1  0.86354000  0.33729000  0.17685000  1.0
  O  O195  1  0.13646000  0.66271000  0.82315000  1.0
  O  O196  1  0.55236000  0.35556000  0.71108000  1.0
  O  O197  1  0.44764000  0.64444000  0.28892000  1.0
  O  O198  1  0.37203000  0.39359000  0.74321000  1.0
  O  O199  1  0.62797000  0.60642000  0.25679000  1.0
  O  O200  1  0.20413000  0.62939000  0.38292000  1.0
  O  O201  1  0.79587000  0.37061000  0.61708000  1.0
  O  O202  1  0.36907000  0.77675000  0.12618000  1.0
  O  O203  1  0.63093000  0.22325000  0.87382000  1.0
  O  O204  1  0.75217000  0.13035000  0.73201000  1.0
  O  O205  1  0.24782000  0.86965000  0.26799000  1.0
