# generated using pymatgen
data_VZn2P2H8C12N2O9
_symmetry_space_group_name_H-M   'P 1'
_cell_length_a   7.96853000
_cell_length_b   9.09500000
_cell_length_c   11.80140000
_cell_angle_alpha   81.55870000
_cell_angle_beta   71.61430000
_cell_angle_gamma   75.26200000
_symmetry_Int_Tables_number   1
_chemical_formula_structural   VZn2P2H8C12N2O9
_chemical_formula_sum   'V2 Zn4 P4 H16 C24 N4 O18'
_cell_volume   782.86328799
_cell_formula_units_Z   2
loop_
 _symmetry_equiv_pos_site_id
 _symmetry_equiv_pos_as_xyz
  1  'x, y, z'
loop_
 _atom_site_type_symbol
 _atom_site_label
 _atom_site_symmetry_multiplicity
 _atom_site_fract_x
 _atom_site_fract_y
 _atom_site_fract_z
 _atom_site_occupancy
  V  V0  1  0.77705000  0.63297000  0.15479000  1.0
  V  V1  1  0.22295000  0.36703000  0.84521000  1.0
  Zn  Zn2  1  0.06365000  0.88131000  0.17592000  1.0
  Zn  Zn3  1  0.93635000  0.11869000  0.82408000  1.0
  Zn  Zn4  1  0.47835000  0.74668000  0.96690000  1.0
  Zn  Zn5  1  0.52165000  0.25332000  0.03310000  1.0
  P  P6  1  0.72236000  0.92267000  0.05372000  1.0
  P  P7  1  0.27764000  0.07733000  0.94628000  1.0
  P  P8  1  0.21324000  0.53861000  0.07385000  1.0
  P  P9  1  0.78677000  0.46139000  0.92615000  1.0
  H  H10  1  0.80341000  0.22180000  0.17253000  1.0
  H  H11  1  0.19659000  0.77820000  0.82747000  1.0
  H  H12  1  0.54131000  0.36416000  0.32439000  1.0
  H  H13  1  0.45868000  0.63584000  0.67562000  1.0
  H  H14  1  0.47229000  0.25897000  0.54108000  1.0
  H  H15  1  0.52771000  0.74103000  0.45892000  1.0
  H  H16  1  0.56106000  0.05220000  0.69454000  1.0
  H  H17  1  0.43894000  0.94780000  0.30546000  1.0
  H  H18  1  0.76641000  0.81309000  0.73943000  1.0
  H  H19  1  0.23359000  0.18691000  0.26056000  1.0
  H  H20  1  0.03547000  0.59640000  0.66678000  1.0
  H  H21  1  0.96453000  0.40360000  0.33322000  1.0
  H  H22  1  0.28339000  0.47771000  0.49455000  1.0
  H  H23  1  0.71661000  0.52229000  0.50545000  1.0
  H  H24  1  0.29946000  0.59388000  0.28536000  1.0
  H  H25  1  0.70054000  0.40612000  0.71464000  1.0
  C  C26  1  0.76573000  0.17571000  0.26536000  1.0
  C  C27  1  0.23427000  0.82429000  0.73464000  1.0
  C  C28  1  0.61926000  0.25603000  0.35218000  1.0
  C  C29  1  0.38074000  0.74397000  0.64782000  1.0
  C  C30  1  0.58172000  0.19814000  0.47033000  1.0
  C  C31  1  0.41828000  0.80186000  0.52967000  1.0
  C  C32  1  0.69155000  0.05961000  0.50197000  1.0
  C  C33  1  0.30845000  0.94039000  0.49803000  1.0
  C  C34  1  0.83148000  0.98384000  0.40765000  1.0
  C  C35  1  0.16852000  0.01616000  0.59235000  1.0
  C  C36  1  0.66972000  0.99444000  0.62237000  1.0
  C  C37  1  0.33028000  0.00556000  0.37763000  1.0
  C  C38  1  0.78245000  0.86144000  0.64757000  1.0
  C  C39  1  0.21755000  0.13856000  0.35243000  1.0
  C  C40  1  0.92505000  0.78208000  0.55416000  1.0
  C  C41  1  0.07495000  0.21792000  0.44584000  1.0
  C  C42  1  0.94791000  0.84205000  0.43366000  1.0
  C  C43  1  0.05209000  0.15795000  0.56634000  1.0
  C  C44  1  0.04847000  0.64665000  0.57537000  1.0
  C  C45  1  0.95152000  0.35335000  0.42463000  1.0
  C  C46  1  0.18458000  0.58003000  0.47960000  1.0
  C  C47  1  0.81542000  0.41997000  0.52040000  1.0
  C  C48  1  0.19570000  0.64504000  0.36280000  1.0
  C  C49  1  0.80430000  0.35496000  0.63720000  1.0
  N  N50  1  0.86572000  0.04198000  0.29240000  1.0
  N  N51  1  0.13428000  0.95802000  0.70760000  1.0
  N  N52  1  0.07968000  0.77237000  0.34062000  1.0
  N  N53  1  0.92032000  0.22763000  0.65938000  1.0
  O  O54  1  0.24922000  0.70060000  0.07641000  1.0
  O  O55  1  0.75078000  0.29940000  0.92359000  1.0
  O  O56  1  0.85897000  0.83125000  0.12602000  1.0
  O  O57  1  0.14103000  0.16875000  0.87398000  1.0
  O  O58  1  0.59411000  0.05978000  0.11864000  1.0
  O  O59  1  0.40589000  0.94022000  0.88136000  1.0
  O  O60  1  0.81924000  0.95829000  0.92335000  1.0
  O  O61  1  0.18076000  0.04171000  0.07665000  1.0
  O  O62  1  0.62140000  0.78856000  0.06687000  1.0
  O  O63  1  0.37860000  0.21144000  0.93313000  1.0
  O  O64  1  0.65262000  0.60907000  0.29029000  1.0
  O  O65  1  0.34738000  0.39092000  0.70971000  1.0
  O  O66  1  0.02265000  0.53156000  0.15837000  1.0
  O  O67  1  0.97735000  0.46844000  0.84163000  1.0
  O  O68  1  0.22537000  0.52159000  0.94258000  1.0
  O  O69  1  0.77463000  0.47841000  0.05742000  1.0
  O  O70  1  0.35406000  0.41789000  0.12147000  1.0
  O  O71  1  0.64594000  0.58211000  0.87853000  1.0
