# generated using pymatgen
data_ErAg5H16(C2O)16
_symmetry_space_group_name_H-M   'P 1'
_cell_length_a   7.84209000
_cell_length_b   14.83660000
_cell_length_c   14.98920000
_cell_angle_alpha   64.57210000
_cell_angle_beta   81.46680000
_cell_angle_gamma   81.60420000
_symmetry_Int_Tables_number   1
_chemical_formula_structural   ErAg5H16(C2O)16
_chemical_formula_sum   'Er2 Ag10 H32 C64 O32'
_cell_volume   1550.98310305
_cell_formula_units_Z   2
loop_
 _symmetry_equiv_pos_site_id
 _symmetry_equiv_pos_as_xyz
  1  'x, y, z'
loop_
 _atom_site_type_symbol
 _atom_site_label
 _atom_site_symmetry_multiplicity
 _atom_site_fract_x
 _atom_site_fract_y
 _atom_site_fract_z
 _atom_site_occupancy
  Er  Er0  1  0.35160000  0.25112000  0.25212000  1.0
  Er  Er1  1  0.64840000  0.74888000  0.74788000  1.0
  Ag  Ag2  1  0.12758000  0.09288000  0.49663000  1.0
  Ag  Ag3  1  0.87242000  0.90713000  0.50336000  1.0
  Ag  Ag4  1  0.17857000  0.40549000  0.00333000  1.0
  Ag  Ag5  1  0.82142000  0.59451000  0.99667000  1.0
  Ag  Ag6  1  0.79946000  0.32935000  0.01915000  1.0
  Ag  Ag7  1  0.20054000  0.67065000  0.98085000  1.0
  Ag  Ag8  1  0.29186000  0.82556000  0.51700000  1.0
  Ag  Ag9  1  0.70815000  0.17444000  0.48300000  1.0
  Ag  Ag10  1  0.85323000  0.25221000  0.25167000  1.0
  Ag  Ag11  1  0.14677000  0.74779000  0.74833000  1.0
  H  H12  1  0.18214000  0.09090000  0.98565000  1.0
  H  H13  1  0.81786000  0.90910000  0.01436000  1.0
  H  H14  1  0.13604000  0.91209000  0.03767000  1.0
  H  H15  1  0.86395000  0.08790000  0.96234000  1.0
  H  H16  1  0.07447000  0.80226000  0.21807000  1.0
  H  H17  1  0.92553000  0.19774000  0.78195000  1.0
  H  H18  1  0.07633000  0.87009000  0.34310000  1.0
  H  H19  1  0.92367000  0.12991000  0.65691000  1.0
  H  H20  1  0.88799000  0.40259000  0.51273000  1.0
  H  H21  1  0.11200000  0.59742000  0.48726000  1.0
  H  H22  1  0.77346000  0.58187000  0.45919000  1.0
  H  H23  1  0.22653000  0.41814000  0.54080000  1.0
  H  H24  1  0.80613000  0.69834000  0.27960000  1.0
  H  H25  1  0.19386000  0.30166000  0.72038000  1.0
  H  H26  1  0.93678000  0.63325000  0.15558000  1.0
  H  H27  1  0.06322000  0.36676000  0.84441000  1.0
  H  H28  1  0.42450000  0.51127000  0.41627000  1.0
  H  H29  1  0.57550000  0.48872000  0.58373000  1.0
  H  H30  1  0.33491000  0.69172000  0.31553000  1.0
  H  H31  1  0.66510000  0.30828000  0.68448000  1.0
  H  H32  1  0.36818000  0.75867000  0.12987000  1.0
  H  H33  1  0.63182000  0.24133000  0.87014000  1.0
  H  H34  1  0.48130000  0.64532000  0.04820000  1.0
  H  H35  1  0.51870000  0.35468000  0.95180000  1.0
  H  H36  1  0.63683000  0.00108000  0.08457000  1.0
  H  H37  1  0.36318000  0.99892000  0.91543000  1.0
  H  H38  1  0.58910000  0.82016000  0.18262000  1.0
  H  H39  1  0.41090000  0.17984000  0.81737000  1.0
  H  H40  1  0.57003000  0.74791000  0.36865000  1.0
  H  H41  1  0.42997000  0.25208000  0.63134000  1.0
  H  H42  1  0.58838000  0.85681000  0.45321000  1.0
  H  H43  1  0.41161000  0.14318000  0.54678000  1.0
  C  C44  1  0.20405000  0.18731000  0.09342000  1.0
  C  C45  1  0.79597000  0.81269000  0.90658000  1.0
  C  C46  1  0.16496000  0.08012000  0.13376000  1.0
  C  C47  1  0.83504000  0.91987000  0.86624000  1.0
  C  C48  1  0.16203000  0.04106000  0.06408000  1.0
  C  C49  1  0.83798000  0.95893000  0.93593000  1.0
  C  C50  1  0.13344000  0.94132000  0.09339000  1.0
  C  C51  1  0.86656000  0.05868000  0.90662000  1.0
  C  C52  1  0.10125000  0.87977000  0.19419000  1.0
  C  C53  1  0.89875000  0.12023000  0.80582000  1.0
  C  C54  1  0.10288000  0.91758000  0.26439000  1.0
  C  C55  1  0.89713000  0.08242000  0.73562000  1.0
  C  C56  1  0.13627000  0.01725000  0.23595000  1.0
  C  C57  1  0.86374000  0.98275000  0.76406000  1.0
  C  C58  1  0.13286000  0.05169000  0.31637000  1.0
  C  C59  1  0.86715000  0.94832000  0.68363000  1.0
  C  C60  1  0.06685000  0.31207000  0.40741000  1.0
  C  C61  1  0.93315000  0.68794000  0.59259000  1.0
  C  C62  1  0.98441000  0.41779000  0.36590000  1.0
  C  C63  1  0.01558000  0.58221000  0.63409000  1.0
  C  C64  1  0.90001000  0.45418000  0.43459000  1.0
  C  C65  1  0.09998000  0.54582000  0.56540000  1.0
  C  C66  1  0.83630000  0.55454000  0.40437000  1.0
  C  C67  1  0.16369000  0.44546000  0.59563000  1.0
  C  C68  1  0.85405000  0.61967000  0.30401000  1.0
  C  C69  1  0.14594000  0.38033000  0.69598000  1.0
  C  C70  1  0.93007000  0.58355000  0.23440000  1.0
  C  C71  1  0.06994000  0.41645000  0.76559000  1.0
  C  C72  1  0.99564000  0.48287000  0.26351000  1.0
  C  C73  1  0.00436000  0.51713000  0.73648000  1.0
  C  C74  1  0.06078000  0.44903000  0.18301000  1.0
  C  C75  1  0.93923000  0.55097000  0.81699000  1.0
  C  C76  1  0.54375000  0.36779000  0.35259000  1.0
  C  C77  1  0.45625000  0.63220000  0.64741000  1.0
  C  C78  1  0.48644000  0.47509000  0.29061000  1.0
  C  C79  1  0.51355000  0.52491000  0.70939000  1.0
  C  C80  1  0.42925000  0.54097000  0.33576000  1.0
  C  C81  1  0.57075000  0.45902000  0.66424000  1.0
  C  C82  1  0.38228000  0.64190000  0.27909000  1.0
  C  C83  1  0.61773000  0.35809000  0.72091000  1.0
  C  C84  1  0.40058000  0.67946000  0.17553000  1.0
  C  C85  1  0.59943000  0.32054000  0.82447000  1.0
  C  C86  1  0.46105000  0.61523000  0.12938000  1.0
  C  C87  1  0.53895000  0.38477000  0.87062000  1.0
  C  C88  1  0.49897000  0.51250000  0.18623000  1.0
  C  C89  1  0.50103000  0.48750000  0.81377000  1.0
  C  C90  1  0.55107000  0.44530000  0.13300000  1.0
  C  C91  1  0.44893000  0.55470000  0.86700000  1.0
  C  C92  1  0.66764000  0.13778000  0.15305000  1.0
  C  C93  1  0.33236000  0.86222000  0.84695000  1.0
  C  C94  1  0.62765000  0.03149000  0.21254000  1.0
  C  C95  1  0.37235000  0.96851000  0.78746000  1.0
  C  C96  1  0.62206000  0.96863000  0.16532000  1.0
  C  C97  1  0.37794000  0.03138000  0.83468000  1.0
  C  C98  1  0.59692000  0.86778000  0.22036000  1.0
  C  C99  1  0.40308000  0.13222000  0.77964000  1.0
  C  C100  1  0.58524000  0.82727000  0.32405000  1.0
  C  C101  1  0.41475000  0.17273000  0.67595000  1.0
  C  C102  1  0.59161000  0.88893000  0.37210000  1.0
  C  C103  1  0.40837000  0.11107000  0.62790000  1.0
  C  C104  1  0.60568000  0.99185000  0.31699000  1.0
  C  C105  1  0.39432000  0.00815000  0.68301000  1.0
  C  C106  1  0.59276000  0.05777000  0.37134000  1.0
  C  C107  1  0.40724000  0.94222000  0.62866000  1.0
  O  O108  1  0.11920000  0.25161000  0.02323000  1.0
  O  O109  1  0.88081000  0.74839000  0.97677000  1.0
  O  O110  1  0.32486000  0.20971000  0.12652000  1.0
  O  O111  1  0.67516000  0.79028000  0.87348000  1.0
  O  O112  1  0.14325000  0.98678000  0.40473000  1.0
  O  O113  1  0.85675000  0.01322000  0.59527000  1.0
  O  O114  1  0.11656000  0.14670000  0.29541000  1.0
  O  O115  1  0.88343000  0.85331000  0.70460000  1.0
  O  O116  1  0.98214000  0.24500000  0.47757000  1.0
  O  O117  1  0.01785000  0.75500000  0.52243000  1.0
  O  O118  1  0.22194000  0.29353000  0.37545000  1.0
  O  O119  1  0.77805000  0.70647000  0.62455000  1.0
  O  O120  1  0.08631000  0.51352000  0.09451000  1.0
  O  O121  1  0.91370000  0.48648000  0.90548000  1.0
  O  O122  1  0.08405000  0.35404000  0.20379000  1.0
  O  O123  1  0.91597000  0.64596000  0.79621000  1.0
  O  O124  1  0.56769000  0.33984000  0.44205000  1.0
  O  O125  1  0.43229000  0.66016000  0.55796000  1.0
  O  O126  1  0.57238000  0.30782000  0.30800000  1.0
  O  O127  1  0.42762000  0.69217000  0.69200000  1.0
  O  O128  1  0.70464000  0.44491000  0.09145000  1.0
  O  O129  1  0.29535000  0.55509000  0.90855000  1.0
  O  O130  1  0.43597000  0.39564000  0.12812000  1.0
  O  O131  1  0.56403000  0.60436000  0.87189000  1.0
  O  O132  1  0.72357000  0.05821000  0.41188000  1.0
  O  O133  1  0.27642000  0.94179000  0.58812000  1.0
  O  O134  1  0.44724000  0.10704000  0.37733000  1.0
  O  O135  1  0.55276000  0.89296000  0.62267000  1.0
  O  O136  1  0.63651000  0.19702000  0.19820000  1.0
  O  O137  1  0.36349000  0.80298000  0.80180000  1.0
  O  O138  1  0.73474000  0.16556000  0.06486000  1.0
  O  O139  1  0.26526000  0.83444000  0.93514000  1.0
