# generated using pymatgen
data_ZnH12C16NO5
_symmetry_space_group_name_H-M   'P 1'
_cell_length_a   7.63729000
_cell_length_b   8.84693000
_cell_length_c   10.62490000
_cell_angle_alpha   88.49250000
_cell_angle_beta   80.30420000
_cell_angle_gamma   85.04240000
_symmetry_Int_Tables_number   1
_chemical_formula_structural   ZnH12C16NO5
_chemical_formula_sum   'Zn2 H24 C32 N2 O10'
_cell_volume   704.93579842
_cell_formula_units_Z   2
loop_
 _symmetry_equiv_pos_site_id
 _symmetry_equiv_pos_as_xyz
  1  'x, y, z'
loop_
 _atom_site_type_symbol
 _atom_site_label
 _atom_site_symmetry_multiplicity
 _atom_site_fract_x
 _atom_site_fract_y
 _atom_site_fract_z
 _atom_site_occupancy
  Zn  Zn0  1  0.11831000  0.51268000  0.59351000  1.0
  Zn  Zn1  1  0.88169000  0.48732000  0.40649000  1.0
  H  H2  1  0.66719000  0.82467000  0.79610000  1.0
  H  H3  1  0.33281000  0.17533000  0.20390000  1.0
  H  H4  1  0.42276000  0.79780000  0.59555000  1.0
  H  H5  1  0.57724000  0.20220000  0.40445000  1.0
  H  H6  1  0.51957000  0.01930000  0.87708000  1.0
  H  H7  1  0.48044000  0.98070000  0.12292000  1.0
  H  H8  1  0.28807000  0.18184000  0.01416000  1.0
  H  H9  1  0.71193000  0.81816000  0.98584000  1.0
  H  H10  1  0.97474000  0.20340000  0.97523000  1.0
  H  H11  1  0.02527000  0.79660000  0.02477000  1.0
  H  H12  1  0.12700000  0.90568000  0.65423000  1.0
  H  H13  1  0.87300000  0.09432000  0.34577000  1.0
  H  H14  1  0.67457000  0.09513000  0.67472000  1.0
  H  H15  1  0.32542000  0.90487000  0.32528000  1.0
  H  H16  1  0.88433000  0.00937000  0.60438000  1.0
  H  H17  1  0.11567000  0.99063000  0.39562000  1.0
  H  H18  1  0.48119000  0.38658000  0.63752000  1.0
  H  H19  1  0.51881000  0.61342000  0.36248000  1.0
  H  H20  1  0.65921000  0.37855000  0.81242000  1.0
  H  H21  1  0.34079000  0.62144000  0.18759000  1.0
  H  H22  1  0.20527000  0.61682000  0.04649000  1.0
  H  H23  1  0.79473000  0.38318000  0.95352000  1.0
  H  H24  1  0.04913000  0.61940000  0.85860000  1.0
  H  H25  1  0.95087000  0.38060000  0.14140000  1.0
  C  C26  1  0.75234000  0.67960000  0.63314000  1.0
  C  C27  1  0.24766000  0.32040000  0.36686000  1.0
  C  C28  1  0.62246000  0.78724000  0.71081000  1.0
  C  C29  1  0.37754000  0.21276000  0.28919000  1.0
  C  C30  1  0.46348000  0.84033000  0.68098000  1.0
  C  C31  1  0.53652000  0.15967000  0.31901000  1.0
  C  C32  1  0.33672000  0.94851000  0.75775000  1.0
  C  C33  1  0.66328000  0.05149000  0.24225000  1.0
  C  C34  1  0.38300000  0.02878000  0.85851000  1.0
  C  C35  1  0.61700000  0.97122000  0.14149000  1.0
  C  C36  1  0.25326000  0.12074000  0.93541000  1.0
  C  C37  1  0.74675000  0.87926000  0.06459000  1.0
  C  C38  1  0.07819000  0.13617000  0.91293000  1.0
  C  C39  1  0.92181000  0.86383000  0.08707000  1.0
  C  C40  1  0.03297000  0.06328000  0.80927000  1.0
  C  C41  1  0.96703000  0.93672000  0.19072000  1.0
  C  C42  1  0.16093000  0.96918000  0.73206000  1.0
  C  C43  1  0.83907000  0.03082000  0.26794000  1.0
  C  C44  1  0.81854000  0.10177000  0.66754000  1.0
  C  C45  1  0.18146000  0.89823000  0.33246000  1.0
  C  C46  1  0.86894000  0.25367000  0.60624000  1.0
  C  C47  1  0.13106000  0.74633000  0.39376000  1.0
  C  C48  1  0.42589000  0.43645000  0.72993000  1.0
  C  C49  1  0.57411000  0.56355000  0.27007000  1.0
  C  C50  1  0.52404000  0.43250000  0.82905000  1.0
  C  C51  1  0.47596000  0.56750000  0.17096000  1.0
  C  C52  1  0.44942000  0.49933000  0.94640000  1.0
  C  C53  1  0.55058000  0.50067000  0.05360000  1.0
  C  C54  1  0.27341000  0.56511000  0.95787000  1.0
  C  C55  1  0.72659000  0.43489000  0.04213000  1.0
  C  C56  1  0.18436000  0.56639000  0.85434000  1.0
  C  C57  1  0.81563000  0.43361000  0.14566000  1.0
  N  N58  1  0.25938000  0.50417000  0.74160000  1.0
  N  N59  1  0.74062000  0.49583000  0.25840000  1.0
  O  O60  1  0.71330000  0.62488000  0.53222000  1.0
  O  O61  1  0.28670000  0.37512000  0.46778000  1.0
  O  O62  1  0.89944000  0.64942000  0.67524000  1.0
  O  O63  1  0.10056000  0.35058000  0.32476000  1.0
  O  O64  1  0.85608000  0.08332000  0.79425000  1.0
  O  O65  1  0.14392000  0.91668000  0.20575000  1.0
  O  O66  1  0.97293000  0.32664000  0.65720000  1.0
  O  O67  1  0.02707000  0.67336000  0.34280000  1.0
  O  O68  1  0.79987000  0.29193000  0.50786000  1.0
  O  O69  1  0.20013000  0.70808000  0.49214000  1.0
