# generated using pymatgen
data_Zr3H25C31O18
_symmetry_space_group_name_H-M   'P 1'
_cell_length_a   14.75580000
_cell_length_b   14.76851874
_cell_length_c   14.77150423
_cell_angle_alpha   119.83077861
_cell_angle_beta   90.15026664
_cell_angle_gamma   119.92542616
_symmetry_Int_Tables_number   1
_chemical_formula_structural   Zr3H25C31O18
_chemical_formula_sum   'Zr6 H50 C62 O36'
_cell_volume   2281.58570117
_cell_formula_units_Z   2
loop_
 _symmetry_equiv_pos_site_id
 _symmetry_equiv_pos_as_xyz
  1  'x, y, z'
loop_
 _atom_site_type_symbol
 _atom_site_label
 _atom_site_symmetry_multiplicity
 _atom_site_fract_x
 _atom_site_fract_y
 _atom_site_fract_z
 _atom_site_occupancy
  Zr  Zr0  1  0.38046000  0.75973000  0.88475000  1.0
  Zr  Zr1  1  0.62340000  0.23602000  0.11913000  1.0
  Zr  Zr2  1  0.62028000  0.99448000  0.88090000  1.0
  Zr  Zr3  1  0.38396000  0.00162000  0.12358000  1.0
  Zr  Zr4  1  0.38340000  0.99901000  0.88266000  1.0
  Zr  Zr5  1  0.62275000  0.99809000  0.12141000  1.0
  H  H6  1  0.40442000  0.80869000  0.71960000  1.0
  H  H7  1  0.40803000  0.18636000  0.09265000  1.0
  H  H8  1  0.78558000  0.18182000  0.09323000  1.0
  H  H9  1  0.40939000  0.81381000  0.10014000  1.0
  H  H10  1  0.12603000  0.71903000  0.56082000  1.0
  H  H11  1  0.85518000  0.28760000  0.46677000  1.0
  H  H12  1  0.63751000  0.72748000  0.14361000  1.0
  H  H13  1  0.37413000  0.26868000  0.85274000  1.0
  H  H14  1  0.05018000  0.91024000  0.08697000  1.0
  H  H15  1  0.92069000  0.01719000  0.87227000  1.0
  H  H16  1  0.37984000  0.02800000  0.42491000  1.0
  H  H17  1  0.64516000  0.00255000  0.59577000  1.0
  H  H18  1  0.28674000  0.54226000  0.57658000  1.0
  H  H19  1  0.29639000  0.22722000  0.23035000  1.0
  H  H20  1  0.10488000  0.45713000  0.87536000  1.0
  H  H21  1  0.88999000  0.53922000  0.12031000  1.0
  H  H22  1  0.04272000  0.67064000  0.39875000  1.0
  H  H23  1  0.94668000  0.50950000  0.28209000  1.0
  H  H24  1  0.89745000  0.59120000  0.37445000  1.0
  H  H25  1  0.07851000  0.41352000  0.65632000  1.0
  H  H26  1  0.03784000  0.50630000  0.74919000  1.0
  H  H27  1  0.93479000  0.34428000  0.63801000  1.0
  H  H28  1  0.72611000  0.69894000  0.23887000  1.0
  H  H29  1  0.64814000  0.55641000  0.23379000  1.0
  H  H30  1  0.73937000  0.57037000  0.15770000  1.0
  H  H31  1  0.28799000  0.29768000  0.75532000  1.0
  H  H32  1  0.27426000  0.42598000  0.83562000  1.0
  H  H33  1  0.36691000  0.44068000  0.76110000  1.0
  H  H34  1  0.87726000  0.96879000  0.19151000  1.0
  H  H35  1  0.77210000  0.82075000  0.07107000  1.0
  H  H36  1  0.89055000  0.83924000  0.13105000  1.0
  H  H37  1  0.05961000  0.05419000  0.80276000  1.0
  H  H38  1  0.19053000  0.11585000  0.88595000  1.0
  H  H39  1  0.10550000  0.95431000  0.77339000  1.0
  H  H40  1  0.29069000  0.03362000  0.54824000  1.0
  H  H41  1  0.27930000  0.94167000  0.59833000  1.0
  H  H42  1  0.37054000  0.10856000  0.68583000  1.0
  H  H43  1  0.73714000  0.00218000  0.47547000  1.0
  H  H44  1  0.65566000  0.92100000  0.33674000  1.0
  H  H45  1  0.74431000  0.08804000  0.41998000  1.0
  H  H46  1  0.99508000  0.24457000  0.79066000  1.0
  H  H47  1  0.92440000  0.18453000  0.86625000  1.0
  H  H48  1  0.85093000  0.17879000  0.76779000  1.0
  H  H49  1  0.13399000  0.81095000  0.23587000  1.0
  H  H50  1  0.08585000  0.81821000  0.13286000  1.0
  H  H51  1  0.99176000  0.75106000  0.19283000  1.0
  H  H52  1  0.68574000  0.47646000  0.40170000  1.0
  H  H53  1  0.68368000  0.77929000  0.71092000  1.0
  H  H54  1  0.09877000  0.42897000  0.46638000  1.0
  H  H55  1  0.05540000  0.22529000  0.23467000  1.0
  C  C56  1  0.18894000  0.69406000  0.70679000  1.0
  C  C57  1  0.51016000  0.30531000  0.99996000  1.0
  C  C58  1  0.80383000  0.30683000  0.31020000  1.0
  C  C59  1  0.50163000  0.69120000  0.99681000  1.0
  C  C60  1  0.49703000  0.68765000  0.69652000  1.0
  C  C61  1  0.19555000  0.70082000  0.00706000  1.0
  C  C62  1  0.50139000  0.30453000  0.30549000  1.0
  C  C63  1  0.80282000  0.29590000  0.99233000  1.0
  C  C64  1  0.50398000  0.00450000  0.70085000  1.0
  C  C65  1  0.79718000  0.97777000  0.99257000  1.0
  C  C66  1  0.51424000  0.01393000  0.31366000  1.0
  C  C67  1  0.19086000  0.98397000  0.99016000  1.0
  C  C68  1  0.90011000  0.41213000  0.41549000  1.0
  C  C69  1  0.08321000  0.59344000  0.61045000  1.0
  C  C70  1  0.97476000  0.53595000  0.44087000  1.0
  C  C71  1  0.00559000  0.47134000  0.58768000  1.0
  C  C72  1  0.06501000  0.62318000  0.53878000  1.0
  C  C73  1  0.91569000  0.38371000  0.48913000  1.0
  C  C74  1  0.51254000  0.40883000  0.00249000  1.0
  C  C75  1  0.50040000  0.58754000  0.99280000  1.0
  C  C76  1  0.59003000  0.54033000  0.08778000  1.0
  C  C77  1  0.42307000  0.45603000  0.90727000  1.0
  C  C78  1  0.58029000  0.62544000  0.07954000  1.0
  C  C79  1  0.43226000  0.37086000  0.91603000  1.0
  C  C80  1  0.89041000  0.96308000  0.98487000  1.0
  C  C81  1  0.08321000  0.96968000  0.97841000  1.0
  C  C82  1  0.92279000  0.92659000  0.04388000  1.0
  C  C83  1  0.04653000  0.99748000  0.91296000  1.0
  C  C84  1  0.01963000  0.93205000  0.03875000  1.0
  C  C85  1  0.95043000  0.99353000  0.91920000  1.0
  C  C86  1  0.50542000  0.01187000  0.60349000  1.0
  C  C87  1  0.51848000  0.01669000  0.41621000  1.0
  C  C88  1  0.42795000  0.02005000  0.55694000  1.0
  C  C89  1  0.59715000  0.01071000  0.46389000  1.0
  C  C90  1  0.43776000  0.02225000  0.46393000  1.0
  C  C91  1  0.58730000  0.00850000  0.55690000  1.0
  C  C92  1  0.49472000  0.59179000  0.59115000  1.0
  C  C93  1  0.39246000  0.48573000  0.50052000  1.0
  C  C94  1  0.59609000  0.61207000  0.57935000  1.0
  C  C95  1  0.29172000  0.47613000  0.50139000  1.0
  C  C96  1  0.19999000  0.38468000  0.40688000  1.0
  C  C97  1  0.49741000  0.40647000  0.39825000  1.0
  C  C98  1  0.59737000  0.51776000  0.48198000  1.0
  C  C99  1  0.39436000  0.39320000  0.40172000  1.0
  C  C100  1  0.29767000  0.29868000  0.30665000  1.0
  C  C101  1  0.20341000  0.29670000  0.30779000  1.0
  C  C102  1  0.90286000  0.39611000  0.99039000  1.0
  C  C103  1  0.09273000  0.60044000  0.00610000  1.0
  C  C104  1  0.96221000  0.36870000  0.91783000  1.0
  C  C105  1  0.03262000  0.62768000  0.07773000  1.0
  C  C106  1  0.05619000  0.47343000  0.92897000  1.0
  C  C107  1  0.93875000  0.52295000  0.06676000  1.0
  C  C108  1  0.96517000  0.57874000  0.36991000  1.0
  C  C109  1  0.01439000  0.43182000  0.66179000  1.0
  C  C110  1  0.68065000  0.59453000  0.18491000  1.0
  C  C111  1  0.33335000  0.40208000  0.80946000  1.0
  C  C112  1  0.86216000  0.88613000  0.11261000  1.0
  C  C113  1  0.10371000  0.03270000  0.84003000  1.0
  C  C114  1  0.33712000  0.02626000  0.59938000  1.0
  C  C115  1  0.68853000  0.00529000  0.42204000  1.0
  C  C116  1  0.93184000  0.23724000  0.83110000  1.0
  C  C117  1  0.06216000  0.75884000  0.16396000  1.0
  O  O118  1  0.23022000  0.65659000  0.74479000  1.0
  O  O119  1  0.58570000  0.33889000  0.07600000  1.0
  O  O120  1  0.76395000  0.34037000  0.26563000  1.0
  O  O121  1  0.42448000  0.65780000  0.92257000  1.0
  O  O122  1  0.58040000  0.80536000  0.74319000  1.0
  O  O123  1  0.23949000  0.81789000  0.08530000  1.0
  O  O124  1  0.42427000  0.18821000  0.26479000  1.0
  O  O125  1  0.76230000  0.17872000  0.91764000  1.0
  O  O126  1  0.42687000  0.00231000  0.74120000  1.0
  O  O127  1  0.76236000  0.98826000  0.07422000  1.0
  O  O128  1  0.58722000  0.00812000  0.26913000  1.0
  O  O129  1  0.23855000  0.99427000  0.92024000  1.0
  O  O130  1  0.76004000  0.98396000  0.91871000  1.0
  O  O131  1  0.43712000  0.01473000  0.27513000  1.0
  O  O132  1  0.23095000  0.98822000  0.07031000  1.0
  O  O133  1  0.57851000  0.99872000  0.73710000  1.0
  O  O134  1  0.42035000  0.65260000  0.73653000  1.0
  O  O135  1  0.76493000  0.33434000  0.07062000  1.0
  O  O136  1  0.58569000  0.34018000  0.27203000  1.0
  O  O137  1  0.23422000  0.66266000  0.92943000  1.0
  O  O138  1  0.57871000  0.80702000  0.07477000  1.0
  O  O139  1  0.23289000  0.80975000  0.74116000  1.0
  O  O140  1  0.43209000  0.18942000  0.92317000  1.0
  O  O141  1  0.76846000  0.19192000  0.27143000  1.0
  O  O142  1  0.43584000  0.86640000  0.07234000  1.0
  O  O143  1  0.70521000  0.13042000  0.06764000  1.0
  O  O144  1  0.43650000  0.13456000  0.06923000  1.0
  O  O145  1  0.43281000  0.86133000  0.79979000  1.0
  O  O146  1  0.55247000  0.09576000  0.95092000  1.0
  O  O147  1  0.35333000  0.90065000  0.95423000  1.0
  O  O148  1  0.55302000  0.09778000  0.14983000  1.0
  O  O149  1  0.55017000  0.89760000  0.95265000  1.0
  O  O150  1  0.69824000  0.54226000  0.47838000  1.0
  O  O151  1  0.69641000  0.71607000  0.65645000  1.0
  O  O152  1  0.10001000  0.36927000  0.39632000  1.0
  O  O153  1  0.11269000  0.21154000  0.21434000  1.0
