# generated using pymatgen
data_PrH12C12NO6
_symmetry_space_group_name_H-M   'P 1'
_cell_length_a   7.75498000
_cell_length_b   9.60722000
_cell_length_c   11.43710000
_cell_angle_alpha   95.59440000
_cell_angle_beta   105.48200000
_cell_angle_gamma   103.57600000
_symmetry_Int_Tables_number   1
_chemical_formula_structural   PrH12C12NO6
_chemical_formula_sum   'Pr2 H24 C24 N2 O12'
_cell_volume   786.49314144
_cell_formula_units_Z   2
loop_
 _symmetry_equiv_pos_site_id
 _symmetry_equiv_pos_as_xyz
  1  'x, y, z'
loop_
 _atom_site_type_symbol
 _atom_site_label
 _atom_site_symmetry_multiplicity
 _atom_site_fract_x
 _atom_site_fract_y
 _atom_site_fract_z
 _atom_site_occupancy
  Pr  Pr0  1  0.29015000  0.58409000  0.52113000  1.0
  Pr  Pr1  1  0.70984000  0.41591000  0.47887000  1.0
  H  H2  1  0.04179000  0.73213000  0.69291000  1.0
  H  H3  1  0.95820000  0.26788000  0.30709000  1.0
  H  H4  1  0.95570000  0.95576000  0.75990000  1.0
  H  H5  1  0.04429000  0.04424000  0.24010000  1.0
  H  H6  1  0.08585000  0.18745000  0.69058000  1.0
  H  H7  1  0.91414000  0.81255000  0.30942000  1.0
  H  H8  1  0.36648000  0.95162000  0.49975000  1.0
  H  H9  1  0.63351000  0.04838000  0.50025000  1.0
  H  H10  1  0.71841000  0.58491000  0.19971000  1.0
  H  H11  1  0.28160000  0.41509000  0.80029000  1.0
  H  H12  1  0.77349000  0.43197000  0.14239000  1.0
  H  H13  1  0.22651000  0.56803000  0.85761000  1.0
  H  H14  1  0.01356000  0.60156000  0.06294000  1.0
  H  H15  1  0.98645000  0.39844000  0.93706000  1.0
  H  H16  1  0.93135000  0.74683000  0.10792000  1.0
  H  H17  1  0.06865000  0.25317000  0.89208000  1.0
  H  H18  1  0.68464000  0.46974000  0.92683000  1.0
  H  H19  1  0.31537000  0.53025000  0.07317000  1.0
  H  H20  1  0.61161000  0.62348000  0.96776000  1.0
  H  H21  1  0.38839000  0.37652000  0.03224000  1.0
  H  H22  1  0.84112000  0.77645000  0.87988000  1.0
  H  H23  1  0.15889000  0.22355000  0.12012000  1.0
  H  H24  1  0.90068000  0.61756000  0.83013000  1.0
  H  H25  1  0.09931000  0.38244000  0.16986000  1.0
  C  C26  1  0.09620000  0.83535000  0.66655000  1.0
  C  C27  1  0.90379000  0.16464000  0.33346000  1.0
  C  C28  1  0.05020000  0.96023000  0.70406000  1.0
  C  C29  1  0.94980000  0.03977000  0.29594000  1.0
  C  C30  1  0.12329000  0.08881000  0.66652000  1.0
  C  C31  1  0.87671000  0.91118000  0.33348000  1.0
  C  C32  1  0.24317000  0.08916000  0.59450000  1.0
  C  C33  1  0.75682000  0.91084000  0.40550000  1.0
  C  C34  1  0.27868000  0.95756000  0.55910000  1.0
  C  C35  1  0.72132000  0.04244000  0.44090000  1.0
  C  C36  1  0.33037000  0.22679000  0.55513000  1.0
  C  C37  1  0.66964000  0.77321000  0.44486000  1.0
  C  C38  1  0.98484000  0.57056000  0.29459000  1.0
  C  C39  1  0.01516000  0.42944000  0.70541000  1.0
  C  C40  1  0.83183000  0.54977000  0.17539000  1.0
  C  C41  1  0.16818000  0.45023000  0.82461000  1.0
  C  C42  1  0.88909000  0.62844000  0.07652000  1.0
  C  C43  1  0.11091000  0.37156000  0.92348000  1.0
  C  C44  1  0.73205000  0.58891000  0.95522000  1.0
  C  C45  1  0.26796000  0.41109000  0.04477000  1.0
  C  C46  1  0.78911000  0.65764000  0.85102000  1.0
  C  C47  1  0.21089000  0.34236000  0.14898000  1.0
  C  C48  1  0.62516000  0.62697000  0.73616000  1.0
  C  C49  1  0.37484000  0.37304000  0.26384000  1.0
  N  N50  1  0.20653000  0.83242000  0.59351000  1.0
  N  N51  1  0.79346000  0.16758000  0.40649000  1.0
  O  O52  1  0.95639000  0.48462000  0.37270000  1.0
  O  O53  1  0.04362000  0.51538000  0.62730000  1.0
  O  O54  1  0.13744000  0.66642000  0.31845000  1.0
  O  O55  1  0.86256000  0.33358000  0.68155000  1.0
  O  O56  1  0.62706000  0.55355000  0.63644000  1.0
  O  O57  1  0.37294000  0.44646000  0.36356000  1.0
  O  O58  1  0.48609000  0.67280000  0.74060000  1.0
  O  O59  1  0.51391000  0.32721000  0.25940000  1.0
  O  O60  1  0.46332000  0.22490000  0.51011000  1.0
  O  O61  1  0.53667000  0.77510000  0.48989000  1.0
  O  O62  1  0.26533000  0.33472000  0.57087000  1.0
  O  O63  1  0.73466000  0.66528000  0.42913000  1.0
