# generated using pymatgen
data_AlH12(C8O3)3
_symmetry_space_group_name_H-M   'P 1'
_cell_length_a   4.00389000
_cell_length_b   28.93077455
_cell_length_c   28.92950000
_cell_angle_alpha   60.00037208
_cell_angle_beta   89.99930000
_cell_angle_gamma   89.99990002
_symmetry_Int_Tables_number   1
_chemical_formula_structural   AlH12(C8O3)3
_chemical_formula_sum   'Al2 H24 C48 O18'
_cell_volume   2902.12013321
_cell_formula_units_Z   2
loop_
 _symmetry_equiv_pos_site_id
 _symmetry_equiv_pos_as_xyz
  1  'x, y, z'
loop_
 _atom_site_type_symbol
 _atom_site_label
 _atom_site_symmetry_multiplicity
 _atom_site_fract_x
 _atom_site_fract_y
 _atom_site_fract_z
 _atom_site_occupancy
  Al  Al0  1  0.99161000  0.50001000  0.99999000  1.0
  Al  Al1  1  0.99266000  0.16666000  0.66668000  1.0
  H  H2  1  0.81055000  0.30520000  0.52269000  1.0
  H  H3  1  0.83099000  0.35647000  0.42286000  1.0
  H  H4  1  0.21129000  0.18422000  0.51723000  1.0
  H  H5  1  0.21027000  0.48241000  0.14945000  1.0
  H  H6  1  0.80953000  0.36144000  0.14398000  1.0
  H  H7  1  0.83034000  0.31020000  0.24381000  1.0
  H  H8  1  0.81048000  0.17209000  0.80523000  1.0
  H  H9  1  0.83098000  0.22065000  0.85649000  1.0
  H  H10  1  0.21125000  0.29854000  0.68424000  1.0
  H  H11  1  0.21030000  0.36815000  0.98241000  1.0
  H  H12  1  0.80956000  0.49458000  0.86142000  1.0
  H  H13  1  0.83037000  0.44599000  0.81019000  1.0
  H  H14  1  0.81053000  0.02269000  0.67211000  1.0
  H  H15  1  0.83103000  0.92287000  0.72065000  1.0
  H  H16  1  0.21122000  0.01721000  0.79856000  1.0
  H  H17  1  0.21031000  0.64946000  0.86813000  1.0
  H  H18  1  0.80952000  0.64399000  0.99458000  1.0
  H  H19  1  0.83036000  0.74382000  0.94598000  1.0
  H  H20  1  0.24945000  0.25302000  0.37554000  1.0
  H  H21  1  0.24854000  0.41363000  0.29115000  1.0
  H  H22  1  0.24950000  0.37142000  0.75305000  1.0
  H  H23  1  0.24858000  0.29523000  0.91364000  1.0
  H  H24  1  0.24950000  0.87552000  0.87143000  1.0
  H  H25  1  0.24861000  0.79114000  0.79522000  1.0
  C  C26  1  0.49450000  0.58186000  0.96296000  1.0
  C  C27  1  0.49448000  0.45519000  0.08185000  1.0
  C  C28  1  0.49448000  0.46297000  0.95518000  1.0
  C  C29  1  0.49550000  0.21144000  0.58482000  1.0
  C  C30  1  0.49549000  0.20373000  0.71146000  1.0
  C  C31  1  0.49547000  0.08481000  0.70374000  1.0
  C  C32  1  0.51025000  0.24191000  0.52546000  1.0
  C  C33  1  0.68452000  0.29054000  0.49919000  1.0
  C  C34  1  0.69649000  0.31874000  0.44390000  1.0
  C  C35  1  0.54368000  0.29827000  0.41395000  1.0
  C  C36  1  0.37086000  0.24885000  0.44107000  1.0
  C  C37  1  0.35133000  0.22138000  0.49658000  1.0
  C  C38  1  0.55696000  0.32444000  0.35756000  1.0
  C  C39  1  0.55665000  0.34225000  0.30912000  1.0
  C  C40  1  0.54298000  0.36839000  0.25274000  1.0
  C  C41  1  0.36994000  0.41779000  0.22560000  1.0
  C  C42  1  0.35038000  0.44526000  0.17009000  1.0
  C  C43  1  0.50933000  0.42473000  0.14121000  1.0
  C  C44  1  0.68363000  0.37611000  0.16748000  1.0
  C  C45  1  0.69575000  0.34792000  0.22278000  1.0
  C  C46  1  0.51023000  0.23262000  0.74193000  1.0
  C  C47  1  0.68447000  0.21025000  0.79056000  1.0
  C  C48  1  0.69648000  0.23735000  0.81877000  1.0
  C  C49  1  0.54369000  0.28777000  0.79830000  1.0
  C  C50  1  0.37087000  0.31006000  0.74888000  1.0
  C  C51  1  0.35130000  0.28203000  0.72140000  1.0
  C  C52  1  0.55701000  0.31799000  0.82447000  1.0
  C  C53  1  0.55671000  0.34862000  0.84226000  1.0
  C  C54  1  0.54303000  0.37888000  0.86839000  1.0
  C  C55  1  0.36997000  0.35661000  0.91780000  1.0
  C  C56  1  0.35041000  0.38466000  0.94525000  1.0
  C  C57  1  0.50933000  0.43407000  0.92472000  1.0
  C  C58  1  0.68363000  0.45642000  0.87609000  1.0
  C  C59  1  0.69577000  0.42930000  0.84791000  1.0
  C  C60  1  0.51021000  0.02545000  0.73263000  1.0
  C  C61  1  0.68450000  0.99919000  0.71026000  1.0
  C  C62  1  0.69651000  0.94389000  0.73736000  1.0
  C  C63  1  0.54369000  0.91394000  0.78777000  1.0
  C  C64  1  0.37084000  0.94106000  0.81007000  1.0
  C  C65  1  0.35127000  0.99656000  0.78204000  1.0
  C  C66  1  0.55701000  0.85755000  0.81799000  1.0
  C  C67  1  0.55674000  0.80912000  0.84862000  1.0
  C  C68  1  0.54306000  0.75274000  0.87886000  1.0
  C  C69  1  0.37001000  0.72560000  0.85660000  1.0
  C  C70  1  0.35043000  0.67010000  0.88465000  1.0
  C  C71  1  0.50933000  0.64122000  0.93405000  1.0
  C  C72  1  0.68363000  0.66749000  0.95641000  1.0
  C  C73  1  0.69577000  0.72279000  0.92929000  1.0
  O  O74  1  0.25446000  0.45161000  0.98817000  1.0
  O  O75  1  0.25449000  0.56023000  0.95159000  1.0
  O  O76  1  0.25449000  0.48819000  0.06022000  1.0
  O  O77  1  0.72423000  0.49703000  0.94651000  1.0
  O  O78  1  0.72424000  0.44653000  0.05645000  1.0
  O  O79  1  0.72424000  0.55646000  0.99702000  1.0
  O  O80  1  0.25551000  0.10645000  0.71511000  1.0
  O  O81  1  0.25553000  0.17844000  0.60646000  1.0
  O  O82  1  0.25551000  0.21509000  0.67846000  1.0
  O  O83  1  0.72525000  0.11019000  0.66969000  1.0
  O  O84  1  0.72525000  0.16966000  0.72014000  1.0
  O  O85  1  0.72527000  0.22012000  0.61021000  1.0
  O  O86  1  0.21855000  0.22784000  0.41375000  1.0
  O  O87  1  0.21742000  0.43879000  0.25292000  1.0
  O  O88  1  0.21859000  0.35840000  0.72786000  1.0
  O  O89  1  0.21747000  0.30829000  0.93880000  1.0
  O  O90  1  0.21857000  0.91373000  0.85841000  1.0
  O  O91  1  0.21754000  0.75292000  0.80828000  1.0
