# generated using pymatgen
data_Mn2H14C14N13O2
_symmetry_space_group_name_H-M   'P 1'
_cell_length_a   13.25790000
_cell_length_b   14.81352684
_cell_length_c   14.92620000
_cell_angle_alpha   85.41848214
_cell_angle_beta   63.95340000
_cell_angle_gamma   63.75984918
_symmetry_Int_Tables_number   1
_chemical_formula_structural   Mn2H14C14N13O2
_chemical_formula_sum   'Mn8 H56 C56 N52 O8'
_cell_volume   2338.44681920
_cell_formula_units_Z   4
loop_
 _symmetry_equiv_pos_site_id
 _symmetry_equiv_pos_as_xyz
  1  'x, y, z'
loop_
 _atom_site_type_symbol
 _atom_site_label
 _atom_site_symmetry_multiplicity
 _atom_site_fract_x
 _atom_site_fract_y
 _atom_site_fract_z
 _atom_site_occupancy
  Mn  Mn0  1  0.40370000  0.59555000  0.59550000  1.0
  Mn  Mn1  1  0.09853000  0.90518000  0.90165000  1.0
  Mn  Mn2  1  0.59771000  0.40383000  0.40381000  1.0
  Mn  Mn3  1  0.90070000  0.09344000  0.09855000  1.0
  Mn  Mn4  1  0.06604000  0.75006000  0.74983000  1.0
  Mn  Mn5  1  0.43618000  0.75075000  0.74792000  1.0
  Mn  Mn6  1  0.93492000  0.24849000  0.25015000  1.0
  Mn  Mn7  1  0.56395000  0.24926000  0.25158000  1.0
  H  H8  1  0.64311000  0.75924000  0.04776000  1.0
  H  H9  1  0.55575000  0.04980000  0.75859000  1.0
  H  H10  1  0.94495000  0.74179000  0.45224000  1.0
  H  H11  1  0.85796000  0.45051000  0.74484000  1.0
  H  H12  1  0.35851000  0.24154000  0.95198000  1.0
  H  H13  1  0.44454000  0.95048000  0.24149000  1.0
  H  H14  1  0.05354000  0.25943000  0.54730000  1.0
  H  H15  1  0.14038000  0.54977000  0.25655000  1.0
  H  H16  1  0.74460000  0.57236000  0.05728000  1.0
  H  H17  1  0.62630000  0.06115000  0.57367000  1.0
  H  H18  1  0.87193000  0.92865000  0.44261000  1.0
  H  H19  1  0.75462000  0.44191000  0.93003000  1.0
  H  H20  1  0.25598000  0.42829000  0.94239000  1.0
  H  H21  1  0.37294000  0.93982000  0.42657000  1.0
  H  H22  1  0.12772000  0.07248000  0.55728000  1.0
  H  H23  1  0.24348000  0.55939000  0.07159000  1.0
  H  H24  1  0.96871000  0.46556000  0.93294000  1.0
  H  H25  1  0.63067000  0.93616000  0.46772000  1.0
  H  H26  1  0.86741000  0.03509000  0.56715000  1.0
  H  H27  1  0.53037000  0.56831000  0.03413000  1.0
  H  H28  1  0.03158000  0.53447000  0.06668000  1.0
  H  H29  1  0.36851000  0.06498000  0.53243000  1.0
  H  H30  1  0.13317000  0.96515000  0.43282000  1.0
  H  H31  1  0.46773000  0.43354000  0.96707000  1.0
  H  H32  1  0.16671000  0.45201000  0.78512000  1.0
  H  H33  1  0.59193000  0.78780000  0.45365000  1.0
  H  H34  1  0.90833000  0.04795000  0.71418000  1.0
  H  H35  1  0.33262000  0.71736000  0.04525000  1.0
  H  H36  1  0.83332000  0.54711000  0.21401000  1.0
  H  H37  1  0.40802000  0.21311000  0.54603000  1.0
  H  H38  1  0.09439000  0.95097000  0.28529000  1.0
  H  H39  1  0.66603000  0.28479000  0.95537000  1.0
  H  H40  1  0.80029000  0.90035000  0.92151000  1.0
  H  H41  1  0.38812000  0.91963000  0.89749000  1.0
  H  H42  1  0.11637000  0.60105000  0.57870000  1.0
  H  H43  1  0.70270000  0.57805000  0.60285000  1.0
  H  H44  1  0.20205000  0.09975000  0.07787000  1.0
  H  H45  1  0.61341000  0.07947000  0.10219000  1.0
  H  H46  1  0.88258000  0.39910000  0.42007000  1.0
  H  H47  1  0.29604000  0.42174000  0.39800000  1.0
  H  H48  1  0.65199000  0.90086000  0.96543000  1.0
  H  H49  1  0.49113000  0.96515000  0.89841000  1.0
  H  H50  1  0.01201000  0.59968000  0.53525000  1.0
  H  H51  1  0.85067000  0.53348000  0.60327000  1.0
  H  H52  1  0.35019000  0.09941000  0.03448000  1.0
  H  H53  1  0.50993000  0.03443000  0.10148000  1.0
  H  H54  1  0.98602000  0.40089000  0.46441000  1.0
  H  H55  1  0.14812000  0.46605000  0.39756000  1.0
  H  H56  1  0.75779000  0.87237000  0.83375000  1.0
  H  H57  1  0.54586000  0.83220000  0.86891000  1.0
  H  H58  1  0.95984000  0.62821000  0.66681000  1.0
  H  H59  1  0.74482000  0.66646000  0.63101000  1.0
  H  H60  1  0.24400000  0.12790000  0.16597000  1.0
  H  H61  1  0.45592000  0.16732000  0.13040000  1.0
  H  H62  1  0.03934000  0.37200000  0.33269000  1.0
  H  H63  1  0.25441000  0.33315000  0.36932000  1.0
  C  C64  1  0.80929000  0.75220000  0.91985000  1.0
  C  C65  1  0.52504000  0.91998000  0.75087000  1.0
  C  C66  1  0.97637000  0.74879000  0.58097000  1.0
  C  C67  1  0.69267000  0.58022000  0.75017000  1.0
  C  C68  1  0.19248000  0.24805000  0.07984000  1.0
  C  C69  1  0.47575000  0.08002000  0.24892000  1.0
  C  C70  1  0.02253000  0.25157000  0.41863000  1.0
  C  C71  1  0.30614000  0.42009000  0.25066000  1.0
  C  C72  1  0.74061000  0.71026000  0.99485000  1.0
  C  C73  1  0.55899000  0.99651000  0.70989000  1.0
  C  C74  1  0.94126000  0.79072000  0.50553000  1.0
  C  C75  1  0.76042000  0.50444000  0.79265000  1.0
  C  C76  1  0.26083000  0.29024000  0.00484000  1.0
  C  C77  1  0.44125000  0.00382000  0.29016000  1.0
  C  C78  1  0.05757000  0.21009000  0.49416000  1.0
  C  C79  1  0.23802000  0.49608000  0.20858000  1.0
  C  C80  1  0.79726000  0.60666000  0.00047000  1.0
  C  C81  1  0.59727000  0.00324000  0.60748000  1.0
  C  C82  1  0.90166000  0.89423000  0.49975000  1.0
  C  C83  1  0.70277000  0.49930000  0.89529000  1.0
  C  C84  1  0.20360000  0.39378000  0.99919000  1.0
  C  C85  1  0.40226000  0.99756000  0.39269000  1.0
  C  C86  1  0.09790000  0.10650000  0.50007000  1.0
  C  C87  1  0.29554000  0.50183000  0.10609000  1.0
  C  C88  1  0.92200000  0.54693000  0.93140000  1.0
  C  C89  1  0.59999000  0.93366000  0.54811000  1.0
  C  C90  1  0.89890000  0.95385000  0.56910000  1.0
  C  C91  1  0.57791000  0.56955000  0.95356000  1.0
  C  C92  1  0.07868000  0.45314000  0.06819000  1.0
  C  C93  1  0.39956000  0.06722000  0.45197000  1.0
  C  C94  1  0.10123000  0.04642000  0.43080000  1.0
  C  C95  1  0.42049000  0.43189000  0.04758000  1.0
  C  C96  1  0.98712000  0.59319000  0.85956000  1.0
  C  C97  1  0.56235000  0.86024000  0.59338000  1.0
  C  C98  1  0.93761000  0.90758000  0.64134000  1.0
  C  C99  1  0.51395000  0.64195000  0.90671000  1.0
  C  C100  1  0.01406000  0.40655000  0.13995000  1.0
  C  C101  1  0.43779000  0.14028000  0.40647000  1.0
  C  C102  1  0.06245000  0.09219000  0.35839000  1.0
  C  C103  1  0.48475000  0.35919000  0.09403000  1.0
  C  C104  1  0.11884000  0.53463000  0.78895000  1.0
  C  C105  1  0.55762000  0.78970000  0.53516000  1.0
  C  C106  1  0.94290000  0.96566000  0.71161000  1.0
  C  C107  1  0.38178000  0.71335000  0.96347000  1.0
  C  C108  1  0.88204000  0.46460000  0.21044000  1.0
  C  C109  1  0.44259000  0.21091000  0.46449000  1.0
  C  C110  1  0.05810000  0.03341000  0.28820000  1.0
  C  C111  1  0.61687000  0.28794000  0.03698000  1.0
  C  C112  1  0.75119000  0.86263000  0.90963000  1.0
  C  C113  1  0.48566000  0.90870000  0.86004000  1.0
  C  C114  1  0.01812000  0.63822000  0.59092000  1.0
  C  C115  1  0.75147000  0.59000000  0.64068000  1.0
  C  C116  1  0.25086000  0.13760000  0.09003000  1.0
  C  C117  1  0.51570000  0.09082000  0.13963000  1.0
  C  C118  1  0.98059000  0.36211000  0.40846000  1.0
  C  C119  1  0.24746000  0.40974000  0.36002000  1.0
  N  N120  1  0.23681000  0.73137000  0.62118000  1.0
  N  N121  1  0.41144000  0.62001000  0.72913000  1.0
  N  N122  1  0.09013000  0.77495000  0.88063000  1.0
  N  N123  1  0.26530000  0.87875000  0.76529000  1.0
  N  N124  1  0.76310000  0.26851000  0.37872000  1.0
  N  N125  1  0.58945000  0.37911000  0.27032000  1.0
  N  N126  1  0.91176000  0.22475000  0.11933000  1.0
  N  N127  1  0.73497000  0.12158000  0.23471000  1.0
  N  N128  1  0.24569000  0.78874000  0.55847000  1.0
  N  N129  1  0.40532000  0.55847000  0.78774000  1.0
  N  N130  1  0.09390000  0.71729000  0.94322000  1.0
  N  N131  1  0.25550000  0.94137000  0.70807000  1.0
  N  N132  1  0.75442000  0.21117000  0.44138000  1.0
  N  N133  1  0.59545000  0.44088000  0.21190000  1.0
  N  N134  1  0.90695000  0.28275000  0.05700000  1.0
  N  N135  1  0.74430000  0.05898000  0.29202000  1.0
  N  N136  1  0.25573000  0.84237000  0.49760000  1.0
  N  N137  1  0.39984000  0.49938000  0.84326000  1.0
  N  N138  1  0.09670000  0.66200000  0.00250000  1.0
  N  N139  1  0.24466000  0.00227000  0.65432000  1.0
  N  N140  1  0.74533000  0.15711000  0.50192000  1.0
  N  N141  1  0.60082000  0.50009000  0.15658000  1.0
  N  N142  1  0.90313000  0.33804000  0.99779000  1.0
  N  N143  1  0.75461000  0.99818000  0.34591000  1.0
  N  N144  1  0.57043000  0.44772000  0.54974000  1.0
  N  N145  1  0.42952000  0.55243000  0.44981000  1.0
  N  N146  1  0.07212000  0.04536000  0.94480000  1.0
  N  N147  1  0.92536000  0.95206000  0.05742000  1.0
  N  N148  1  0.64607000  0.41418000  0.58339000  1.0
  N  N149  1  0.35394000  0.58527000  0.41617000  1.0
  N  N150  1  0.14785000  0.07904000  0.91182000  1.0
  N  N151  1  0.84982000  0.91830000  0.08990000  1.0
  N  N152  1  0.71808000  0.38223000  0.61647000  1.0
  N  N153  1  0.28154000  0.61700000  0.38340000  1.0
  N  N154  1  0.21796000  0.11391000  0.88200000  1.0
  N  N155  1  0.77924000  0.88376000  0.11977000  1.0
  N  N156  1  0.93064000  0.69423000  0.85349000  1.0
  N  N157  1  0.52690000  0.85306000  0.69316000  1.0
  N  N158  1  0.97419000  0.80670000  0.64769000  1.0
  N  N159  1  0.57139000  0.64770000  0.80670000  1.0
  N  N160  1  0.07104000  0.30560000  0.14609000  1.0
  N  N161  1  0.47377000  0.14708000  0.30657000  1.0
  N  N162  1  0.02544000  0.19310000  0.35180000  1.0
  N  N163  1  0.42753000  0.35296000  0.19393000  1.0
  N  N164  1  0.17938000  0.58276000  0.73095000  1.0
  N  N165  1  0.50874000  0.73024000  0.58246000  1.0
  N  N166  1  0.99256000  0.91672000  0.76979000  1.0
  N  N167  1  0.32289000  0.77093000  0.91417000  1.0
  N  N168  1  0.82263000  0.41581000  0.26833000  1.0
  N  N169  1  0.49179000  0.27009000  0.41689000  1.0
  N  N170  1  0.00752000  0.08140000  0.23012000  1.0
  N  N171  1  0.67586000  0.22913000  0.08566000  1.0
  O  O172  1  0.29869000  0.52706000  0.66535000  1.0
  O  O173  1  0.50619000  0.66616000  0.52746000  1.0
  O  O174  1  0.99480000  0.97197000  0.83472000  1.0
  O  O175  1  0.20221000  0.83739000  0.96861000  1.0
  O  O176  1  0.70235000  0.47130000  0.33411000  1.0
  O  O177  1  0.49429000  0.33435000  0.47164000  1.0
  O  O178  1  0.00628000  0.02561000  0.16573000  1.0
  O  O179  1  0.79649000  0.16299000  0.03120000  1.0
