# generated using pymatgen
data_ErZnH11C12(N2O5)2
_symmetry_space_group_name_H-M   'P 1'
_cell_length_a   8.98819000
_cell_length_b   13.00229776
_cell_length_c   18.36839930
_cell_angle_alpha   71.87489993
_cell_angle_beta   75.85377671
_cell_angle_gamma   69.79961751
_symmetry_Int_Tables_number   1
_chemical_formula_structural   ErZnH11C12(N2O5)2
_chemical_formula_sum   'Er4 Zn4 H44 C48 N16 O40'
_cell_volume   1891.94272169
_cell_formula_units_Z   4
loop_
 _symmetry_equiv_pos_site_id
 _symmetry_equiv_pos_as_xyz
  1  'x, y, z'
loop_
 _atom_site_type_symbol
 _atom_site_label
 _atom_site_symmetry_multiplicity
 _atom_site_fract_x
 _atom_site_fract_y
 _atom_site_fract_z
 _atom_site_occupancy
  Er  Er0  1  0.76164000  0.58618000  0.49587000  1.0
  Er  Er1  1  0.84364000  0.91379000  0.00413000  1.0
  Er  Er2  1  0.23837000  0.41381000  0.50412000  1.0
  Er  Er3  1  0.15636000  0.08621000  0.99587000  1.0
  Zn  Zn4  1  0.79401000  0.08557000  0.33837000  1.0
  Zn  Zn5  1  0.21791000  0.41452000  0.16162000  1.0
  Zn  Zn6  1  0.20599000  0.91443000  0.66163000  1.0
  Zn  Zn7  1  0.78208000  0.58548000  0.83838000  1.0
  H  H8  1  0.46372000  0.61699000  0.43920000  1.0
  H  H9  1  0.51985000  0.88314000  0.06077000  1.0
  H  H10  1  0.53628000  0.38301000  0.56080000  1.0
  H  H11  1  0.48012000  0.11688000  0.93923000  1.0
  H  H12  1  0.59241000  0.51923000  0.40826000  1.0
  H  H13  1  0.51999000  0.98096000  0.09163000  1.0
  H  H14  1  0.40760000  0.48076000  0.59173000  1.0
  H  H15  1  0.48000000  0.01905000  0.90837000  1.0
  H  H16  1  0.01617000  0.55581000  0.36641000  1.0
  H  H17  1  0.93854000  0.94404000  0.13361000  1.0
  H  H18  1  0.98382000  0.44419000  0.63359000  1.0
  H  H19  1  0.06144000  0.05597000  0.86639000  1.0
  H  H20  1  0.86646000  0.61286000  0.32056000  1.0
  H  H21  1  0.79976000  0.88720000  0.17945000  1.0
  H  H22  1  0.13353000  0.38715000  0.67943000  1.0
  H  H23  1  0.20023000  0.11280000  0.82055000  1.0
  H  H24  1  0.26689000  0.81000000  0.48308000  1.0
  H  H25  1  0.55965000  0.69032000  0.01683000  1.0
  H  H26  1  0.73310000  0.18999000  0.51693000  1.0
  H  H27  1  0.44034000  0.30969000  0.98317000  1.0
  H  H28  1  0.10636000  0.11543000  0.41572000  1.0
  H  H29  1  0.63721000  0.38492000  0.08405000  1.0
  H  H30  1  0.89367000  0.88456000  0.58427000  1.0
  H  H31  1  0.36278000  0.61508000  0.91594000  1.0
  H  H32  1  0.23737000  0.05635000  0.34028000  1.0
  H  H33  1  0.63407000  0.44386000  0.15954000  1.0
  H  H34  1  0.76265000  0.94364000  0.65972000  1.0
  H  H35  1  0.36593000  0.55614000  0.84046000  1.0
  H  H36  1  0.28949000  0.00614000  0.43500000  1.0
  H  H37  1  0.73034000  0.49427000  0.06476000  1.0
  H  H38  1  0.71053000  0.99384000  0.56500000  1.0
  H  H39  1  0.26965000  0.50573000  0.93524000  1.0
  H  H40  1  0.39194000  0.93411000  0.79851000  1.0
  H  H41  1  0.12444000  0.56539000  0.70199000  1.0
  H  H42  1  0.60805000  0.06589000  0.20149000  1.0
  H  H43  1  0.87561000  0.43459000  0.29803000  1.0
  H  H44  1  0.49431000  0.81438000  0.86724000  1.0
  H  H45  1  0.17654000  0.68482000  0.63317000  1.0
  H  H46  1  0.50568000  0.18562000  0.13276000  1.0
  H  H47  1  0.82350000  0.31516000  0.36684000  1.0
  H  H48  1  0.29506000  0.83262000  0.85657000  1.0
  H  H49  1  0.98480000  0.66680000  0.64361000  1.0
  H  H50  1  0.70492000  0.16739000  0.14343000  1.0
  H  H51  1  0.01524000  0.33317000  0.35640000  1.0
  C  C52  1  0.76621000  0.85866000  0.42622000  1.0
  C  C53  1  0.05089000  0.64134000  0.07379000  1.0
  C  C54  1  0.23379000  0.14134000  0.57378000  1.0
  C  C55  1  0.94910000  0.35867000  0.92622000  1.0
  C  C56  1  0.92791000  0.86122000  0.43232000  1.0
  C  C57  1  0.22125000  0.63891000  0.06766000  1.0
  C  C58  1  0.07209000  0.13878000  0.56768000  1.0
  C  C59  1  0.77875000  0.36109000  0.93234000  1.0
  C  C60  1  0.06465000  0.77973000  0.45903000  1.0
  C  C61  1  0.30315000  0.72046000  0.04091000  1.0
  C  C62  1  0.93535000  0.22027000  0.54097000  1.0
  C  C63  1  0.69683000  0.27955000  0.95910000  1.0
  C  C64  1  0.11674000  0.65608000  0.47992000  1.0
  C  C65  1  0.25251000  0.84405000  0.02007000  1.0
  C  C66  1  0.88325000  0.34392000  0.52008000  1.0
  C  C67  1  0.74747000  0.15597000  0.97993000  1.0
  C  C68  1  0.10447000  0.94961000  0.42053000  1.0
  C  C69  1  0.47438000  0.55065000  0.07943000  1.0
  C  C70  1  0.89553000  0.05039000  0.57947000  1.0
  C  C71  1  0.52560000  0.44936000  0.92058000  1.0
  C  C72  1  0.18881000  0.03672000  0.40243000  1.0
  C  C73  1  0.62777000  0.46359000  0.09741000  1.0
  C  C74  1  0.81120000  0.96327000  0.59757000  1.0
  C  C75  1  0.37221000  0.53642000  0.90259000  1.0
  C  C76  1  0.44617000  0.72593000  0.59045000  1.0
  C  C77  1  0.76243000  0.77421000  0.90951000  1.0
  C  C78  1  0.55383000  0.27407000  0.40955000  1.0
  C  C79  1  0.23756000  0.22579000  0.09049000  1.0
  C  C80  1  0.49939000  0.72394000  0.66051000  1.0
  C  C81  1  0.88367000  0.77618000  0.83946000  1.0
  C  C82  1  0.50060000  0.27606000  0.33949000  1.0
  C  C83  1  0.11633000  0.22382000  0.16054000  1.0
  C  C84  1  0.62172000  0.64959000  0.70266000  1.0
  C  C85  1  0.97391000  0.85047000  0.79731000  1.0
  C  C86  1  0.37827000  0.35041000  0.29734000  1.0
  C  C87  1  0.02610000  0.14952000  0.20269000  1.0
  C  C88  1  0.76028000  0.55234000  0.68966000  1.0
  C  C89  1  0.00228000  0.94775000  0.81028000  1.0
  C  C90  1  0.23973000  0.44766000  0.31033000  1.0
  C  C91  1  0.99774000  0.05224000  0.18972000  1.0
  C  C92  1  0.47603000  0.77824000  0.76495000  1.0
  C  C93  1  0.01935000  0.72154000  0.73519000  1.0
  C  C94  1  0.52397000  0.22176000  0.23505000  1.0
  C  C95  1  0.98066000  0.27845000  0.26482000  1.0
  C  C96  1  0.41185000  0.84333000  0.82520000  1.0
  C  C97  1  0.08071000  0.65614000  0.67512000  1.0
  C  C98  1  0.58814000  0.15667000  0.17480000  1.0
  C  C99  1  0.91933000  0.34384000  0.32489000  1.0
  N  N100  1  0.95640000  0.96489000  0.40809000  1.0
  N  N101  1  0.32917000  0.53531000  0.09192000  1.0
  N  N102  1  0.04360000  0.03511000  0.59191000  1.0
  N  N103  1  0.67081000  0.46470000  0.90808000  1.0
  N  N104  1  0.17250000  0.83856000  0.45097000  1.0
  N  N105  1  0.46177000  0.66172000  0.04895000  1.0
  N  N106  1  0.82749000  0.16143000  0.54904000  1.0
  N  N107  1  0.53821000  0.33829000  0.95106000  1.0
  N  N108  1  0.41062000  0.80432000  0.70038000  1.0
  N  N109  1  0.91524000  0.69566000  0.79969000  1.0
  N  N110  1  0.58938000  0.19568000  0.29962000  1.0
  N  N111  1  0.08476000  0.30434000  0.20032000  1.0
  N  N112  1  0.60380000  0.68501000  0.76836000  1.0
  N  N113  1  0.05729000  0.81486000  0.73171000  1.0
  N  N114  1  0.39619000  0.31500000  0.23164000  1.0
  N  N115  1  0.94272000  0.18513000  0.26830000  1.0
  O  O116  1  0.72378000  0.76908000  0.46114000  1.0
  O  O117  1  0.95367000  0.73083000  0.03887000  1.0
  O  O118  1  0.27623000  0.23092000  0.53885000  1.0
  O  O119  1  0.04633000  0.26917000  0.96113000  1.0
  O  O120  1  0.67892000  0.94820000  0.38852000  1.0
  O  O121  1  0.01561000  0.55176000  0.11153000  1.0
  O  O122  1  0.32108000  0.05181000  0.61148000  1.0
  O  O123  1  0.98438000  0.44825000  0.88849000  1.0
  O  O124  1  0.01802000  0.59804000  0.49579000  1.0
  O  O125  1  0.11157000  0.90204000  0.00429000  1.0
  O  O126  1  0.98197000  0.40196000  0.50421000  1.0
  O  O127  1  0.88843000  0.09797000  0.99571000  1.0
  O  O128  1  0.26587000  0.60362000  0.48107000  1.0
  O  O129  1  0.35034000  0.89654000  0.01891000  1.0
  O  O130  1  0.73411000  0.39638000  0.51894000  1.0
  O  O131  1  0.64965000  0.10347000  0.98109000  1.0
  O  O132  1  0.51281000  0.64293000  0.55823000  1.0
  O  O133  1  0.71370000  0.85731000  0.94165000  1.0
  O  O134  1  0.48719000  0.35707000  0.44177000  1.0
  O  O135  1  0.28630000  0.14269000  0.05835000  1.0
  O  O136  1  0.32880000  0.80907000  0.56670000  1.0
  O  O137  1  0.70475000  0.69088000  0.93338000  1.0
  O  O138  1  0.67120000  0.19093000  0.43330000  1.0
  O  O139  1  0.29524000  0.30912000  0.06662000  1.0
  O  O140  1  0.79912000  0.52519000  0.62394000  1.0
  O  O141  1  0.94828000  0.97492000  0.87601000  1.0
  O  O142  1  0.20088000  0.47481000  0.37606000  1.0
  O  O143  1  0.05172000  0.02508000  0.12399000  1.0
  O  O144  1  0.84393000  0.49947000  0.74362000  1.0
  O  O145  1  0.08704000  0.00059000  0.75633000  1.0
  O  O146  1  0.15609000  0.50052000  0.25637000  1.0
  O  O147  1  0.91296000  0.99941000  0.24367000  1.0
  O  O148  1  0.57789000  0.59376000  0.41536000  1.0
  O  O149  1  0.58697000  0.90637000  0.08462000  1.0
  O  O150  1  0.42210000  0.40624000  0.58464000  1.0
  O  O151  1  0.41301000  0.09364000  0.91538000  1.0
  O  O152  1  0.89690000  0.59409000  0.37126000  1.0
  O  O153  1  0.86241000  0.90570000  0.12878000  1.0
  O  O154  1  0.10310000  0.40590000  0.62873000  1.0
  O  O155  1  0.13758000  0.09432000  0.87121000  1.0
