# generated using pymatgen
data_KVH2C7(NO4)2
_symmetry_space_group_name_H-M   'P 1'
_cell_length_a   8.54697000
_cell_length_b   10.69810000
_cell_length_c   11.45320000
_cell_angle_alpha   89.99150000
_cell_angle_beta   83.78520000
_cell_angle_gamma   89.99430000
_symmetry_Int_Tables_number   1
_chemical_formula_structural   KVH2C7(NO4)2
_chemical_formula_sum   'K4 V4 H8 C28 N8 O32'
_cell_volume   1041.08408484
_cell_formula_units_Z   4
loop_
 _symmetry_equiv_pos_site_id
 _symmetry_equiv_pos_as_xyz
  1  'x, y, z'
loop_
 _atom_site_type_symbol
 _atom_site_label
 _atom_site_symmetry_multiplicity
 _atom_site_fract_x
 _atom_site_fract_y
 _atom_site_fract_z
 _atom_site_occupancy
  K  K0  1  0.70583000  0.57917000  0.39413000  1.0
  K  K1  1  0.29418000  0.07917000  0.10586000  1.0
  K  K2  1  0.29417000  0.42083000  0.60585000  1.0
  K  K3  1  0.70581000  0.92081000  0.89412000  1.0
  V  V4  1  0.58826000  0.89336000  0.24593000  1.0
  V  V5  1  0.41177000  0.39338000  0.25412000  1.0
  V  V6  1  0.41172000  0.10664000  0.75405000  1.0
  V  V7  1  0.58821000  0.60662000  0.74587000  1.0
  H  H8  1  0.06236000  0.12373000  0.39450000  1.0
  H  H9  1  0.93768000  0.62378000  0.10548000  1.0
  H  H10  1  0.93764000  0.87623000  0.60552000  1.0
  H  H11  1  0.06231000  0.37623000  0.89452000  1.0
  H  H12  1  0.60290000  0.27311000  0.52223000  1.0
  H  H13  1  0.39712000  0.77315000  0.97777000  1.0
  H  H14  1  0.39711000  0.72687000  0.47778000  1.0
  H  H15  1  0.60289000  0.22686000  0.02222000  1.0
  C  C16  1  0.92641000  0.93373000  0.25165000  1.0
  C  C17  1  0.07364000  0.43377000  0.24842000  1.0
  C  C18  1  0.07361000  0.06624000  0.74837000  1.0
  C  C19  1  0.92639000  0.56625000  0.75157000  1.0
  C  C20  1  0.85640000  0.03647000  0.33094000  1.0
  C  C21  1  0.14362000  0.53648000  0.16907000  1.0
  C  C22  1  0.14360000  0.96352000  0.66905000  1.0
  C  C23  1  0.85638000  0.46354000  0.83094000  1.0
  C  C24  1  0.93454000  0.12251000  0.39518000  1.0
  C  C25  1  0.06549000  0.62255000  0.10481000  1.0
  C  C26  1  0.06546000  0.87748000  0.60481000  1.0
  C  C27  1  0.93451000  0.37747000  0.89521000  1.0
  C  C28  1  0.83859000  0.20803000  0.46136000  1.0
  C  C29  1  0.16144000  0.70808000  0.03863000  1.0
  C  C30  1  0.16140000  0.79195000  0.53865000  1.0
  C  C31  1  0.83857000  0.29194000  0.96138000  1.0
  C  C32  1  0.67525000  0.20881000  0.46646000  1.0
  C  C33  1  0.32477000  0.70883000  0.03353000  1.0
  C  C34  1  0.32475000  0.79118000  0.53353000  1.0
  C  C35  1  0.67523000  0.29119000  0.96648000  1.0
  C  C36  1  0.60868000  0.11725000  0.40106000  1.0
  C  C37  1  0.39135000  0.61726000  0.09893000  1.0
  C  C38  1  0.39132000  0.88275000  0.59891000  1.0
  C  C39  1  0.60866000  0.38278000  0.90109000  1.0
  C  C40  1  0.43655000  0.08817000  0.39900000  1.0
  C  C41  1  0.56348000  0.58818000  0.10101000  1.0
  C  C42  1  0.56345000  0.91184000  0.60096000  1.0
  C  C43  1  0.43654000  0.41186000  0.89900000  1.0
  N  N44  1  0.69934000  0.03630000  0.33625000  1.0
  N  N45  1  0.30068000  0.53630000  0.16375000  1.0
  N  N46  1  0.30065000  0.96369000  0.66374000  1.0
  N  N47  1  0.69933000  0.46372000  0.83626000  1.0
  N  N48  1  0.91262000  0.30108000  0.53246000  1.0
  N  N49  1  0.08741000  0.80116000  0.96752000  1.0
  N  N50  1  0.08739000  0.69888000  0.46757000  1.0
  N  N51  1  0.91260000  0.19885000  0.03249000  1.0
  O  O52  1  0.53074000  0.75394000  0.29238000  1.0
  O  O53  1  0.46928000  0.25394000  0.20767000  1.0
  O  O54  1  0.46924000  0.24606000  0.70761000  1.0
  O  O55  1  0.53071000  0.74606000  0.79234000  1.0
  O  O56  1  0.54359000  0.91760000  0.11210000  1.0
  O  O57  1  0.45649000  0.41751000  0.38792000  1.0
  O  O58  1  0.45639000  0.08239000  0.88785000  1.0
  O  O59  1  0.54353000  0.58248000  0.61209000  1.0
  O  O60  1  0.81790000  0.86089000  0.21555000  1.0
  O  O61  1  0.18212000  0.36091000  0.28452000  1.0
  O  O62  1  0.18208000  0.13908000  0.78444000  1.0
  O  O63  1  0.81789000  0.63909000  0.71548000  1.0
  O  O64  1  0.41551000  0.99201000  0.33044000  1.0
  O  O65  1  0.58456000  0.49201000  0.16958000  1.0
  O  O66  1  0.58449000  0.00800000  0.66952000  1.0
  O  O67  1  0.41547000  0.50804000  0.83045000  1.0
  O  O68  1  0.06943000  0.92255000  0.22474000  1.0
  O  O69  1  0.93058000  0.42262000  0.27538000  1.0
  O  O70  1  0.93055000  0.07739000  0.77533000  1.0
  O  O71  1  0.06942000  0.57738000  0.72462000  1.0
  O  O72  1  0.33074000  0.14382000  0.45927000  1.0
  O  O73  1  0.66931000  0.64386000  0.04075000  1.0
  O  O74  1  0.66927000  0.85619000  0.54070000  1.0
  O  O75  1  0.33069000  0.35619000  0.95926000  1.0
  O  O76  1  0.03954000  0.27244000  0.56760000  1.0
  O  O77  1  0.96055000  0.77250000  0.93229000  1.0
  O  O78  1  0.96046000  0.72753000  0.43241000  1.0
  O  O79  1  0.03944000  0.22751000  0.06771000  1.0
  O  O80  1  0.84258000  0.40131000  0.55322000  1.0
  O  O81  1  0.15737000  0.90142000  0.94681000  1.0
  O  O82  1  0.15742000  0.59866000  0.44681000  1.0
  O  O83  1  0.84263000  0.09859000  0.05319000  1.0
