# generated using pymatgen
data_TlH9C12N2(ClO2)2
_symmetry_space_group_name_H-M   'P 1'
_cell_length_a   7.92119000
_cell_length_b   12.82880000
_cell_length_c   14.65870000
_cell_angle_alpha   87.01890000
_cell_angle_beta   89.99980000
_cell_angle_gamma   89.99990000
_symmetry_Int_Tables_number   1
_chemical_formula_structural   TlH9C12N2(ClO2)2
_chemical_formula_sum   'Tl4 H36 C48 N8 Cl8 O16'
_cell_volume   1487.59192561
_cell_formula_units_Z   4
loop_
 _symmetry_equiv_pos_site_id
 _symmetry_equiv_pos_as_xyz
  1  'x, y, z'
loop_
 _atom_site_type_symbol
 _atom_site_label
 _atom_site_symmetry_multiplicity
 _atom_site_fract_x
 _atom_site_fract_y
 _atom_site_fract_z
 _atom_site_occupancy
  Tl  Tl0  1  0.06233000  0.51919000  0.21341000  1.0
  Tl  Tl1  1  0.43767000  0.01919000  0.71341000  1.0
  Tl  Tl2  1  0.93767000  0.48081000  0.78659000  1.0
  Tl  Tl3  1  0.56233000  0.98081000  0.28659000  1.0
  H  H4  1  0.12179000  0.42867000  0.56470000  1.0
  H  H5  1  0.37821000  0.92867000  0.06470000  1.0
  H  H6  1  0.87821000  0.57133000  0.43530000  1.0
  H  H7  1  0.62179000  0.07133000  0.93530000  1.0
  H  H8  1  0.30341000  0.38721000  0.68772000  1.0
  H  H9  1  0.19659000  0.88721000  0.18773000  1.0
  H  H10  1  0.69659000  0.61279000  0.31227000  1.0
  H  H11  1  0.80341000  0.11279000  0.81227000  1.0
  H  H12  1  0.58139000  0.32734000  0.67554000  1.0
  H  H13  1  0.91861000  0.82735000  0.17554000  1.0
  H  H14  1  0.41861000  0.67265000  0.32446000  1.0
  H  H15  1  0.08139000  0.17265000  0.82446000  1.0
  H  H16  1  0.71317000  0.31894000  0.52046000  1.0
  H  H17  1  0.78684000  0.81894000  0.02046000  1.0
  H  H18  1  0.28684000  0.68106000  0.47954000  1.0
  H  H19  1  0.21316000  0.18106000  0.97954000  1.0
  H  H20  1  0.53510000  0.36986000  0.38183000  1.0
  H  H21  1  0.96490000  0.86986000  0.88184000  1.0
  H  H22  1  0.46490000  0.63014000  0.61816000  1.0
  H  H23  1  0.03510000  0.13014000  0.11816000  1.0
  H  H24  1  0.45449000  0.53098000  0.20893000  1.0
  H  H25  1  0.04551000  0.03098000  0.70893000  1.0
  H  H26  1  0.54551000  0.46902000  0.79107000  1.0
  H  H27  1  0.95449000  0.96902000  0.29107000  1.0
  H  H28  1  0.12507000  0.62473000  0.00045000  1.0
  H  H29  1  0.37493000  0.12473000  0.50045000  1.0
  H  H30  1  0.87493000  0.37527000  0.99955000  1.0
  H  H31  1  0.62507000  0.87527000  0.49955000  1.0
  H  H32  1  0.36354000  0.68411000  0.89879000  1.0
  H  H33  1  0.13646000  0.18411000  0.39879000  1.0
  H  H34  1  0.63646000  0.31589000  0.10121000  1.0
  H  H35  1  0.86353000  0.81589000  0.60121000  1.0
  H  H36  1  0.66316000  0.66328000  0.95724000  1.0
  H  H37  1  0.83684000  0.16328000  0.45724000  1.0
  H  H38  1  0.33684000  0.33672000  0.04276000  1.0
  H  H39  1  0.16315000  0.83671000  0.54276000  1.0
  C  C40  1  0.20794000  0.43538000  0.38161000  1.0
  C  C41  1  0.29206000  0.93538000  0.88161000  1.0
  C  C42  1  0.79206000  0.56462000  0.61839000  1.0
  C  C43  1  0.70794000  0.06463000  0.11839000  1.0
  C  C44  1  0.31514000  0.40059000  0.46222000  1.0
  C  C45  1  0.18487000  0.90059000  0.96222000  1.0
  C  C46  1  0.68487000  0.59941000  0.53778000  1.0
  C  C47  1  0.81513000  0.09942000  0.03778000  1.0
  C  C48  1  0.24997000  0.40347000  0.55009000  1.0
  C  C49  1  0.25003000  0.90347000  0.05010000  1.0
  C  C50  1  0.75003000  0.59653000  0.44991000  1.0
  C  C51  1  0.74997000  0.09653000  0.94991000  1.0
  C  C52  1  0.51204000  0.34715000  0.61309000  1.0
  C  C53  1  0.98797000  0.84716000  0.11310000  1.0
  C  C54  1  0.48796000  0.65285000  0.38691000  1.0
  C  C55  1  0.01203000  0.15285000  0.88691000  1.0
  C  C56  1  0.58197000  0.34247000  0.52682000  1.0
  C  C57  1  0.91803000  0.84247000  0.02682000  1.0
  C  C58  1  0.41803000  0.65752000  0.47318000  1.0
  C  C59  1  0.08197000  0.15753000  0.97318000  1.0
  C  C60  1  0.48353000  0.37038000  0.45068000  1.0
  C  C61  1  0.01647000  0.87038000  0.95069000  1.0
  C  C62  1  0.51647000  0.62962000  0.54932000  1.0
  C  C63  1  0.98353000  0.12962000  0.04932000  1.0
  C  C64  1  0.75113000  0.58071000  0.12983000  1.0
  C  C65  1  0.74887000  0.08071000  0.62983000  1.0
  C  C66  1  0.24887000  0.41929000  0.87017000  1.0
  C  C67  1  0.25113000  0.91929000  0.37017000  1.0
  C  C68  1  0.58001000  0.59832000  0.08882000  1.0
  C  C69  1  0.91999000  0.09832000  0.58881000  1.0
  C  C70  1  0.41999000  0.40168000  0.91118000  1.0
  C  C71  1  0.08001000  0.90168000  0.41118000  1.0
  C  C72  1  0.43952000  0.56719000  0.14066000  1.0
  C  C73  1  0.06048000  0.06719000  0.64066000  1.0
  C  C74  1  0.56048000  0.43281000  0.85934000  1.0
  C  C75  1  0.93952000  0.93281000  0.35934000  1.0
  C  C76  1  0.25562000  0.61933000  0.02373000  1.0
  C  C77  1  0.24438000  0.11933000  0.52373000  1.0
  C  C78  1  0.74438000  0.38067000  0.97627000  1.0
  C  C79  1  0.75561000  0.88067000  0.47627000  1.0
  C  C80  1  0.38987000  0.65203000  0.96766000  1.0
  C  C81  1  0.11012000  0.15203000  0.46766000  1.0
  C  C82  1  0.61013000  0.34797000  0.03234000  1.0
  C  C83  1  0.88987000  0.84796000  0.53234000  1.0
  C  C84  1  0.55489000  0.64101000  0.00005000  1.0
  C  C85  1  0.94511000  0.14101000  0.50004000  1.0
  C  C86  1  0.44511000  0.35899000  0.99995000  1.0
  C  C87  1  0.05489000  0.85898000  0.49996000  1.0
  N  N88  1  0.35017000  0.37769000  0.62198000  1.0
  N  N89  1  0.14984000  0.87769000  0.12198000  1.0
  N  N90  1  0.64984000  0.62231000  0.37802000  1.0
  N  N91  1  0.85016000  0.12231000  0.87802000  1.0
  N  N92  1  0.28185000  0.57738000  0.10868000  1.0
  N  N93  1  0.21815000  0.07738000  0.60868000  1.0
  N  N94  1  0.71815000  0.42262000  0.89132000  1.0
  N  N95  1  0.78185000  0.92262000  0.39131000  1.0
  Cl  Cl96  1  0.02138000  0.33870000  0.16588000  1.0
  Cl  Cl97  1  0.47862000  0.83870000  0.66588000  1.0
  Cl  Cl98  1  0.97862000  0.66131000  0.83412000  1.0
  Cl  Cl99  1  0.52138000  0.16131000  0.33412000  1.0
  Cl  Cl100  1  0.07728000  0.68792000  0.29552000  1.0
  Cl  Cl101  1  0.42272000  0.18792000  0.79552000  1.0
  Cl  Cl102  1  0.92272000  0.31208000  0.70448000  1.0
  Cl  Cl103  1  0.57728000  0.81207000  0.20448000  1.0
  O  O104  1  0.05025000  0.44114000  0.38990000  1.0
  O  O105  1  0.44976000  0.94114000  0.88991000  1.0
  O  O106  1  0.94976000  0.55887000  0.61010000  1.0
  O  O107  1  0.55024000  0.05886000  0.11010000  1.0
  O  O108  1  0.29091000  0.45963000  0.30832000  1.0
  O  O109  1  0.20910000  0.95963000  0.80832000  1.0
  O  O110  1  0.70910000  0.54037000  0.69168000  1.0
  O  O111  1  0.79090000  0.04038000  0.19168000  1.0
  O  O112  1  0.88064000  0.59428000  0.08069000  1.0
  O  O113  1  0.61936000  0.09428000  0.58069000  1.0
  O  O114  1  0.11936000  0.40572000  0.91930000  1.0
  O  O115  1  0.38064000  0.90572000  0.41931000  1.0
  O  O116  1  0.75832000  0.54839000  0.21465000  1.0
  O  O117  1  0.74168000  0.04839000  0.71465000  1.0
  O  O118  1  0.24168000  0.45161000  0.78535000  1.0
  O  O119  1  0.25832000  0.95161000  0.28535000  1.0
