# generated using pymatgen
data_AgH11C12(N3O2)2
_symmetry_space_group_name_H-M   'P 1'
_cell_length_a   4.95502000
_cell_length_b   11.22130000
_cell_length_c   13.07640000
_cell_angle_alpha   90.00000000
_cell_angle_beta   89.99730000
_cell_angle_gamma   102.26700000
_symmetry_Int_Tables_number   1
_chemical_formula_structural   AgH11C12(N3O2)2
_chemical_formula_sum   'Ag2 H22 C24 N12 O8'
_cell_volume   710.47052691
_cell_formula_units_Z   2
loop_
 _symmetry_equiv_pos_site_id
 _symmetry_equiv_pos_as_xyz
  1  'x, y, z'
loop_
 _atom_site_type_symbol
 _atom_site_label
 _atom_site_symmetry_multiplicity
 _atom_site_fract_x
 _atom_site_fract_y
 _atom_site_fract_z
 _atom_site_occupancy
  Ag  Ag0  1  0.32442000  0.50632000  0.25496000  1.0
  Ag  Ag1  1  0.67557000  0.49368000  0.75497000  1.0
  H  H2  1  0.89854000  0.62687000  0.13546000  1.0
  H  H3  1  0.10150000  0.37315000  0.63546000  1.0
  H  H4  1  0.65800000  0.61654000  0.96499000  1.0
  H  H5  1  0.34201000  0.38346000  0.46499000  1.0
  H  H6  1  0.03661000  0.33911000  0.87270000  1.0
  H  H7  1  0.96338000  0.66087000  0.37270000  1.0
  H  H8  1  0.22822000  0.12385000  0.02471000  1.0
  H  H9  1  0.77168000  0.87615000  0.52471000  1.0
  H  H10  1  0.55842000  0.20730000  0.98649000  1.0
  H  H11  1  0.44153000  0.79265000  0.48649000  1.0
  H  H12  1  0.26490000  0.21840000  0.91459000  1.0
  H  H13  1  0.73512000  0.78160000  0.41459000  1.0
  H  H14  1  0.83346000  0.22398000  0.47501000  1.0
  H  H15  1  0.16651000  0.77604000  0.97503000  1.0
  H  H16  1  0.15983000  0.08544000  0.51648000  1.0
  H  H17  1  0.84013000  0.91457000  0.01649000  1.0
  H  H18  1  0.28486000  0.95532000  0.37240000  1.0
  H  H19  1  0.71512000  0.04469000  0.87240000  1.0
  H  H20  1  0.10024000  0.97344000  0.19996000  1.0
  H  H21  1  0.89978000  0.02656000  0.69996000  1.0
  H  H22  1  0.61000000  0.18495000  0.14781000  1.0
  H  H23  1  0.38999000  0.81503000  0.64783000  1.0
  C  C24  1  0.92824000  0.56051000  0.07804000  1.0
  C  C25  1  0.07179000  0.43949000  0.57804000  1.0
  C  C26  1  0.79755000  0.55664000  0.98330000  1.0
  C  C27  1  0.20247000  0.44336000  0.48331000  1.0
  C  C28  1  0.00719000  0.40119000  0.93362000  1.0
  C  C29  1  0.99282000  0.59880000  0.43362000  1.0
  C  C30  1  0.13011000  0.40133000  0.03027000  1.0
  C  C31  1  0.86990000  0.59867000  0.53028000  1.0
  C  C32  1  0.30203000  0.31432000  0.06017000  1.0
  C  C33  1  0.69798000  0.68568000  0.56018000  1.0
  C  C34  1  0.33901000  0.21127000  0.99255000  1.0
  C  C35  1  0.66097000  0.78872000  0.49256000  1.0
  C  C36  1  0.66070000  0.27062000  0.28652000  1.0
  C  C37  1  0.33932000  0.72938000  0.78654000  1.0
  C  C38  1  0.82683000  0.17935000  0.31483000  1.0
  C  C39  1  0.17318000  0.82065000  0.81484000  1.0
  C  C40  1  0.90703000  0.17011000  0.41636000  1.0
  C  C41  1  0.09295000  0.82990000  0.91637000  1.0
  C  C42  1  0.07952000  0.09034000  0.43916000  1.0
  C  C43  1  0.92045000  0.90967000  0.93917000  1.0
  C  C44  1  0.15198000  0.01983000  0.36012000  1.0
  C  C45  1  0.84800000  0.98017000  0.86012000  1.0
  C  C46  1  0.04927000  0.03067000  0.26145000  1.0
  C  C47  1  0.95076000  0.96932000  0.76145000  1.0
  N  N48  1  0.42386000  0.78563000  0.19293000  1.0
  N  N49  1  0.57615000  0.21438000  0.69293000  1.0
  N  N50  1  0.08827000  0.48307000  0.10155000  1.0
  N  N51  1  0.91177000  0.51694000  0.60156000  1.0
  N  N52  1  0.83905000  0.47740000  0.91128000  1.0
  N  N53  1  0.16095000  0.52259000  0.41128000  1.0
  N  N54  1  0.41187000  0.33278000  0.15075000  1.0
  N  N55  1  0.58816000  0.66722000  0.65077000  1.0
  N  N56  1  0.56366000  0.25717000  0.18744000  1.0
  N  N57  1  0.43635000  0.74282000  0.68746000  1.0
  N  N58  1  0.89284000  0.11051000  0.23810000  1.0
  N  N59  1  0.10718000  0.88950000  0.73811000  1.0
  O  O60  1  0.56100000  0.70183000  0.17811000  1.0
  O  O61  1  0.43903000  0.29818000  0.67811000  1.0
  O  O62  1  0.45910000  0.87585000  0.13353000  1.0
  O  O63  1  0.54091000  0.12416000  0.63353000  1.0
  O  O64  1  0.61452000  0.35000000  0.34563000  1.0
  O  O65  1  0.38551000  0.65001000  0.84566000  1.0
  O  O66  1  0.25465000  0.77528000  0.26659000  1.0
  O  O67  1  0.74535000  0.22473000  0.76659000  1.0
