# generated using pymatgen
data_CuP4H18C6N6Cl
_symmetry_space_group_name_H-M   'P 1'
_cell_length_a   10.75620000
_cell_length_b   11.11180000
_cell_length_c   12.68170000
_cell_angle_alpha   104.00200000
_cell_angle_beta   91.24410000
_cell_angle_gamma   102.69200000
_symmetry_Int_Tables_number   1
_chemical_formula_structural   CuP4H18C6N6Cl
_chemical_formula_sum   'Cu4 P16 H72 C24 N24 Cl4'
_cell_volume   1430.25864001
_cell_formula_units_Z   4
loop_
 _symmetry_equiv_pos_site_id
 _symmetry_equiv_pos_as_xyz
  1  'x, y, z'
loop_
 _atom_site_type_symbol
 _atom_site_label
 _atom_site_symmetry_multiplicity
 _atom_site_fract_x
 _atom_site_fract_y
 _atom_site_fract_z
 _atom_site_occupancy
  Cu  Cu0  1  0.79020000  0.16422000  0.37911000  1.0
  Cu  Cu1  1  0.20980000  0.83578000  0.62089000  1.0
  Cu  Cu2  1  0.71727000  0.32984000  0.62611000  1.0
  Cu  Cu3  1  0.28273000  0.67016000  0.37389000  1.0
  P  P4  1  0.96346000  0.24472000  0.30128000  1.0
  P  P5  1  0.03654000  0.75528000  0.69872000  1.0
  P  P6  1  0.06296000  0.27536000  0.08674000  1.0
  P  P7  1  0.93704000  0.72464000  0.91326000  1.0
  P  P8  1  0.18006000  0.46790000  0.29591000  1.0
  P  P9  1  0.81994000  0.53210000  0.70409000  1.0
  P  P10  1  0.22440000  0.20195000  0.24811000  1.0
  P  P11  1  0.77560000  0.79805000  0.75189000  1.0
  P  P12  1  0.56186000  0.23855000  0.71597000  1.0
  P  P13  1  0.43814000  0.76145000  0.28403000  1.0
  P  P14  1  0.34540000  0.28462000  0.85681000  1.0
  P  P15  1  0.65460000  0.71538000  0.14319000  1.0
  P  P16  1  0.33402000  0.02224000  0.71537000  1.0
  P  P17  1  0.66598000  0.97776000  0.28463000  1.0
  P  P18  1  0.52540000  0.13022000  0.91187000  1.0
  P  P19  1  0.47460000  0.86978000  0.08813000  1.0
  H  H20  1  0.74285000  0.14952000  0.11352000  1.0
  H  H21  1  0.25715000  0.85048000  0.88647000  1.0
  H  H22  1  0.82210000  0.26699000  0.04809000  1.0
  H  H23  1  0.17790000  0.73301000  0.95191000  1.0
  H  H24  1  0.77988000  0.31500000  0.18357000  1.0
  H  H25  1  0.22012000  0.68500000  0.81643000  1.0
  H  H26  1  0.00635000  0.58394000  0.42290000  1.0
  H  H27  1  0.99365000  0.41606000  0.57710000  1.0
  H  H28  1  0.87387000  0.45093000  0.41207000  1.0
  H  H29  1  0.12613000  0.54907000  0.58793000  1.0
  H  H30  1  0.91791000  0.50840000  0.29494000  1.0
  H  H31  1  0.08209000  0.49160000  0.70506000  1.0
  H  H32  1  0.13070000  0.20267000  0.47987000  1.0
  H  H33  1  0.86930000  0.79732000  0.52013000  1.0
  H  H34  1  0.15955000  0.05856000  0.39533000  1.0
  H  H35  1  0.84045000  0.94144000  0.60467000  1.0
  H  H36  1  0.00145000  0.07113000  0.42464000  1.0
  H  H37  1  0.99855000  0.92887000  0.57536000  1.0
  H  H38  1  0.15532000  0.59770000  0.10509000  1.0
  H  H39  1  0.84468000  0.40230000  0.89491000  1.0
  H  H40  1  0.17711000  0.46056000  0.00677000  1.0
  H  H41  1  0.82289000  0.53944000  0.99323000  1.0
  H  H42  1  0.29901000  0.54383000  0.11182000  1.0
  H  H43  1  0.70099000  0.45617000  0.88818000  1.0
  H  H44  1  0.26016000  0.04794000  0.04054000  1.0
  H  H45  1  0.73984000  0.95206000  0.95946000  1.0
  H  H46  1  0.13917000  0.07560000  0.95918000  1.0
  H  H47  1  0.86083000  0.92440000  0.04082000  1.0
  H  H48  1  0.09523000  0.99268000  0.06155000  1.0
  H  H49  1  0.90477000  0.00732000  0.93845000  1.0
  H  H50  1  0.39896000  0.48880000  0.43604000  1.0
  H  H51  1  0.60104000  0.51120000  0.56396000  1.0
  H  H52  1  0.41116000  0.32682000  0.40583000  1.0
  H  H53  1  0.58884000  0.67318000  0.59417000  1.0
  H  H54  1  0.27944000  0.37495000  0.47528000  1.0
  H  H55  1  0.72056000  0.62505000  0.52472000  1.0
  H  H56  1  0.52282000  0.50135000  0.71972000  1.0
  H  H57  1  0.47718000  0.49865000  0.28028000  1.0
  H  H58  1  0.36299000  0.46959000  0.75806000  1.0
  H  H59  1  0.63701000  0.53041000  0.24194000  1.0
  H  H60  1  0.40146000  0.37884000  0.63304000  1.0
  H  H61  1  0.59854000  0.62116000  0.36696000  1.0
  H  H62  1  0.35985000  0.00412000  0.49253000  1.0
  H  H63  1  0.64015000  0.99588000  0.50747000  1.0
  H  H64  1  0.48919000  0.13770000  0.49526000  1.0
  H  H65  1  0.51081000  0.86230000  0.50474000  1.0
  H  H66  1  0.33875000  0.16210000  0.54005000  1.0
  H  H67  1  0.66125000  0.83790000  0.45995000  1.0
  H  H68  1  0.72896000  0.06321000  0.73952000  1.0
  H  H69  1  0.27104000  0.93679000  0.26048000  1.0
  H  H70  1  0.77106000  0.12952000  0.88145000  1.0
  H  H71  1  0.22894000  0.87048000  0.11855000  1.0
  H  H72  1  0.81714000  0.22339000  0.78638000  1.0
  H  H73  1  0.18286000  0.77661000  0.21362000  1.0
  H  H74  1  0.10676000  0.13711000  0.66822000  1.0
  H  H75  1  0.89325000  0.86289000  0.33178000  1.0
  H  H76  1  0.09422000  0.20466000  0.80867000  1.0
  H  H77  1  0.90578000  0.79534000  0.19133000  1.0
  H  H78  1  0.06818000  0.03664000  0.75942000  1.0
  H  H79  1  0.93182000  0.96336000  0.24058000  1.0
  H  H80  1  0.55984000  0.41715000  0.02367000  1.0
  H  H81  1  0.44017000  0.58285000  0.97633000  1.0
  H  H82  1  0.53254000  0.30283000  0.10282000  1.0
  H  H83  1  0.46746000  0.69717000  0.89718000  1.0
  H  H84  1  0.41083000  0.38212000  0.08319000  1.0
  H  H85  1  0.58917000  0.61788000  0.91681000  1.0
  H  H86  1  0.40968000  0.80626000  0.76569000  1.0
  H  H87  1  0.59032000  0.19374000  0.23431000  1.0
  H  H88  1  0.53865000  0.89394000  0.86527000  1.0
  H  H89  1  0.46135000  0.10606000  0.13473000  1.0
  H  H90  1  0.54583000  0.90370000  0.72742000  1.0
  H  H91  1  0.45417000  0.09630000  0.27258000  1.0
  C  C92  1  0.81408000  0.24013000  0.12608000  1.0
  C  C93  1  0.18592000  0.75987000  0.87392000  1.0
  C  C94  1  0.95502000  0.49164000  0.37070000  1.0
  C  C95  1  0.04497000  0.50836000  0.62930000  1.0
  C  C96  1  0.09451000  0.12334000  0.40759000  1.0
  C  C97  1  0.90549000  0.87666000  0.59241000  1.0
  C  C98  1  0.19502000  0.51287000  0.09322000  1.0
  C  C99  1  0.80498000  0.48713000  0.90678000  1.0
  C  C100  1  0.16585000  0.07062000  0.04174000  1.0
  C  C101  1  0.83415000  0.92938000  0.95826000  1.0
  C  C102  1  0.34435000  0.38957000  0.41124000  1.0
  C  C103  1  0.65565000  0.61043000  0.58876000  1.0
  C  C104  1  0.43767000  0.42558000  0.71820000  1.0
  C  C105  1  0.56233000  0.57442000  0.28180000  1.0
  C  C106  1  0.40740000  0.10125000  0.53816000  1.0
  C  C107  1  0.59260000  0.89875000  0.46184000  1.0
  C  C108  1  0.74099000  0.15042000  0.80583000  1.0
  C  C109  1  0.25901000  0.84958000  0.19417000  1.0
  C  C110  1  0.12571000  0.12803000  0.75113000  1.0
  C  C111  1  0.87429000  0.87197000  0.24887000  1.0
  C  C112  1  0.48718000  0.34103000  0.04393000  1.0
  C  C113  1  0.51282000  0.65897000  0.95607000  1.0
  C  C114  1  0.48178000  0.89614000  0.79297000  1.0
  C  C115  1  0.51822000  0.10386000  0.20703000  1.0
  N  N116  1  0.94037000  0.22751000  0.16353000  1.0
  N  N117  1  0.05963000  0.77249000  0.83647000  1.0
  N  N118  1  0.04221000  0.40380000  0.34959000  1.0
  N  N119  1  0.95779000  0.59620000  0.65042000  1.0
  N  N120  1  0.08141000  0.16627000  0.30742000  1.0
  N  N121  1  0.91858000  0.83373000  0.69258000  1.0
  N  N122  1  0.13372000  0.42862000  0.15994000  1.0
  N  N123  1  0.86628000  0.57138000  0.84006000  1.0
  N  N124  1  0.17249000  0.19534000  0.11814000  1.0
  N  N125  1  0.82751000  0.80466000  0.88186000  1.0
  N  N126  1  0.27523000  0.36491000  0.30323000  1.0
  N  N127  1  0.72477000  0.63509000  0.69677000  1.0
  N  N128  1  0.46682000  0.33635000  0.77923000  1.0
  N  N129  1  0.53318000  0.66365000  0.22077000  1.0
  N  N130  1  0.45305000  0.09942000  0.64836000  1.0
  N  N131  1  0.54695000  0.90058000  0.35164000  1.0
  N  N132  1  0.62270000  0.19623000  0.82306000  1.0
  N  N133  1  0.37730000  0.80376000  0.17694000  1.0
  N  N134  1  0.26203000  0.13921000  0.77882000  1.0
  N  N135  1  0.73797000  0.86079000  0.22118000  1.0
  N  N136  1  0.43153000  0.23631000  0.94797000  1.0
  N  N137  1  0.56847000  0.76369000  0.05203000  1.0
  N  N138  1  0.41951000  0.00433000  0.82345000  1.0
  N  N139  1  0.58049000  0.99567000  0.17655000  1.0
  Cl  Cl140  1  0.65958000  0.31322000  0.43812000  1.0
  Cl  Cl141  1  0.34042000  0.68678000  0.56188000  1.0
  Cl  Cl142  1  0.85106000  0.18438000  0.56627000  1.0
  Cl  Cl143  1  0.14894000  0.81561000  0.43373000  1.0
