# generated using pymatgen
data_Al6H62C102O31
_symmetry_space_group_name_H-M   'P 1'
_cell_length_a   12.63381365
_cell_length_b   12.70760000
_cell_length_c   27.81880000
_cell_angle_alpha   89.80900000
_cell_angle_beta   89.36596346
_cell_angle_gamma   61.34039883
_symmetry_Int_Tables_number   1
_chemical_formula_structural   Al6H62C102O31
_chemical_formula_sum   'Al6 H62 C102 O31'
_cell_volume   3918.75562677
_cell_formula_units_Z   1
loop_
 _symmetry_equiv_pos_site_id
 _symmetry_equiv_pos_as_xyz
  1  'x, y, z'
loop_
 _atom_site_type_symbol
 _atom_site_label
 _atom_site_symmetry_multiplicity
 _atom_site_fract_x
 _atom_site_fract_y
 _atom_site_fract_z
 _atom_site_occupancy
  Al  Al0  1  0.41014000  0.39986000  0.50239000  1.0
  Al  Al1  1  0.41170000  0.65079000  0.50336000  1.0
  Al  Al2  1  0.65059000  0.42659000  0.50138000  1.0
  Al  Al3  1  0.92546000  0.91562000  0.01484000  1.0
  Al  Al4  1  0.66976000  0.92023000  0.01651000  1.0
  Al  Al5  1  0.89472000  0.68088000  0.01724000  1.0
  H  H6  1  0.17976000  0.47690000  0.80605000  1.0
  H  H7  1  0.11984000  0.83933000  0.71656000  1.0
  H  H8  1  0.43827000  0.78319000  0.37713000  1.0
  H  H9  1  0.80089000  0.50187000  0.22312000  1.0
  H  H10  1  0.82598000  0.52689000  0.13596000  1.0
  H  H11  1  0.46258000  0.80862000  0.29003000  1.0
  H  H12  1  0.53158000  0.87470000  0.23262000  1.0
  H  H13  1  0.55081000  0.89509000  0.14466000  1.0
  H  H14  1  0.83570000  0.53557000  0.29741000  1.0
  H  H15  1  0.46277000  0.83983000  0.80478000  1.0
  H  H16  1  0.80723000  0.50589000  0.38379000  1.0
  H  H17  1  0.72100000  0.35538000  0.36437000  1.0
  H  H18  1  0.51079000  0.14569000  0.23076000  1.0
  H  H19  1  0.52962000  0.09057000  0.14401000  1.0
  H  H20  1  0.73709000  0.31130000  0.27678000  1.0
  H  H21  1  0.84058000  0.16648000  0.21974000  1.0
  H  H22  1  0.85571000  0.11478000  0.13260000  1.0
  H  H23  1  0.60167000  0.06258000  0.30269000  1.0
  H  H24  1  0.23467000  0.45911000  0.38295000  1.0
  H  H25  1  0.82254000  0.53807000  0.80399000  1.0
  H  H26  1  0.00531000  0.86325000  0.24352000  1.0
  H  H27  1  0.95708000  0.88672000  0.15655000  1.0
  H  H28  1  0.16964000  0.48372000  0.29727000  1.0
  H  H29  1  0.23848000  0.48491000  0.22083000  1.0
  H  H30  1  0.15816000  0.82807000  0.29361000  1.0
  H  H31  1  0.21976000  0.80359000  0.37941000  1.0
  H  H32  1  0.85761000  0.14735000  0.71457000  1.0
  H  H33  1  0.86007000  0.12073000  0.80348000  1.0
  H  H34  1  0.49643000  0.19212000  0.71115000  1.0
  H  H35  1  0.20880000  0.46739000  0.71691000  1.0
  H  H36  1  0.42270000  0.00378000  0.74079000  1.0
  H  H37  1  0.24390000  0.15053000  0.69621000  1.0
  H  H38  1  0.14332000  0.07942000  0.63776000  1.0
  H  H39  1  0.22072000  0.85972000  0.62626000  1.0
  H  H40  1  0.39598000  0.71393000  0.67205000  1.0
  H  H41  1  0.98128000  0.87188000  0.86933000  1.0
  H  H42  1  0.95713000  0.05080000  0.91126000  1.0
  H  H43  1  0.04035000  0.17668000  0.87516000  1.0
  H  H44  1  0.15307000  0.11423000  0.79667000  1.0
  H  H45  1  0.19437000  0.92425000  0.75876000  1.0
  H  H46  1  0.71211000  0.04639000  0.44953000  1.0
  H  H47  1  0.63999000  0.93999000  0.50453000  1.0
  H  H48  1  0.45775000  0.92245000  0.48423000  1.0
  H  H49  1  0.34654000  0.01454000  0.40884000  1.0
  H  H50  1  0.41812000  0.12253000  0.35408000  1.0
  H  H51  1  0.23110000  0.34695000  0.17052000  1.0
  H  H52  1  0.35385000  0.37456000  0.15609000  1.0
  H  H53  1  0.34391000  0.32378000  0.06940000  1.0
  H  H54  1  0.36609000  0.20168000  0.10690000  1.0
  H  H55  1  0.22043000  0.29800000  0.08339000  1.0
  H  H56  1  0.78879000  0.36373000  0.71916000  1.0
  H  H57  1  0.89431000  0.36572000  0.76075000  1.0
  H  H58  1  0.04431000  0.31995000  0.69285000  1.0
  H  H59  1  0.00240000  0.20569000  0.69972000  1.0
  H  H60  1  0.94006000  0.31240000  0.65216000  1.0
  H  H61  1  0.56218000  0.03883000  0.85767000  1.0
  H  H62  1  0.53263000  0.98041000  0.80442000  1.0
  H  H63  1  0.30907000  0.10542000  0.82178000  1.0
  H  H64  1  0.38367000  0.00520000  0.86991000  1.0
  H  H65  1  0.34262000  0.15946000  0.87548000  1.0
  H  H66  1  0.34466000  0.26555000  0.52920000  1.0
  H  H67  1  0.00651000  0.03974000  0.03735000  1.0
  C  C68  1  0.27923000  0.60426000  0.57267000  1.0
  C  C69  1  0.74137000  0.59900000  0.78473000  1.0
  C  C70  1  0.73473000  0.58814000  0.73520000  1.0
  C  C71  1  0.63064000  0.66959000  0.70963000  1.0
  C  C72  1  0.64404000  0.69146000  0.80990000  1.0
  C  C73  1  0.65502000  0.70616000  0.85979000  1.0
  C  C74  1  0.62752000  0.65546000  0.65944000  1.0
  C  C75  1  0.67024000  0.71861000  0.90219000  1.0
  C  C76  1  0.65924000  0.22374000  0.61478000  1.0
  C  C77  1  0.77960000  0.15201000  0.73345000  1.0
  C  C78  1  0.78124000  0.13651000  0.78272000  1.0
  C  C79  1  0.59692000  0.61534000  0.56921000  1.0
  C  C80  1  0.57825000  0.15847000  0.78069000  1.0
  C  C81  1  0.57606000  0.17688000  0.73124000  1.0
  C  C82  1  0.67575000  0.17476000  0.70723000  1.0
  C  C83  1  0.68082000  0.14091000  0.80742000  1.0
  C  C84  1  0.68555000  0.12514000  0.85768000  1.0
  C  C85  1  0.66946000  0.19823000  0.65736000  1.0
  C  C86  1  0.69223000  0.10519000  0.90076000  1.0
  C  C87  1  0.22201000  0.63438000  0.61923000  1.0
  C  C88  1  0.18298000  0.55027000  0.73661000  1.0
  C  C89  1  0.16684000  0.55588000  0.78596000  1.0
  C  C90  1  0.62788000  0.27674000  0.56790000  1.0
  C  C91  1  0.11898000  0.76803000  0.78689000  1.0
  C  C92  1  0.13345000  0.76044000  0.73681000  1.0
  C  C93  1  0.16712000  0.65344000  0.71143000  1.0
  C  C94  1  0.13614000  0.66254000  0.81182000  1.0
  C  C95  1  0.12303000  0.66048000  0.86224000  1.0
  C  C96  1  0.19193000  0.64629000  0.66149000  1.0
  C  C97  1  0.10707000  0.65926000  0.90555000  1.0
  C  C98  1  0.62084000  0.64283000  0.38580000  1.0
  C  C99  1  0.52500000  0.73000000  0.35926000  1.0
  C  C100  1  0.53969000  0.74422000  0.31053000  1.0
  C  C101  1  0.27859000  0.60851000  0.43573000  1.0
  C  C102  1  0.65075000  0.67335000  0.28687000  1.0
  C  C103  1  0.74752000  0.58886000  0.31435000  1.0
  C  C104  1  0.73274000  0.57298000  0.36295000  1.0
  C  C105  1  0.74674000  0.58908000  0.20638000  1.0
  C  C106  1  0.75990000  0.60176000  0.15735000  1.0
  C  C107  1  0.60434000  0.80925000  0.16233000  1.0
  C  C108  1  0.59356000  0.79683000  0.21149000  1.0
  C  C109  1  0.66406000  0.68642000  0.23465000  1.0
  C  C110  1  0.68820000  0.71211000  0.13475000  1.0
  C  C111  1  0.64750000  0.23868000  0.38212000  1.0
  C  C112  1  0.59915000  0.61621000  0.43576000  1.0
  C  C113  1  0.69579000  0.29066000  0.35031000  1.0
  C  C114  1  0.70490000  0.26561000  0.30140000  1.0
  C  C115  1  0.66744000  0.18581000  0.28334000  1.0
  C  C116  1  0.62390000  0.13036000  0.31580000  1.0
  C  C117  1  0.61288000  0.15510000  0.36513000  1.0
  C  C118  1  0.58701000  0.13831000  0.20941000  1.0
  C  C119  1  0.59624000  0.10894000  0.16096000  1.0
  C  C120  1  0.77989000  0.12343000  0.15449000  1.0
  C  C121  1  0.77063000  0.15257000  0.20299000  1.0
  C  C122  1  0.67485000  0.15926000  0.23149000  1.0
  C  C123  1  0.61692000  0.28936000  0.43166000  1.0
  C  C124  1  0.69316000  0.10026000  0.13308000  1.0
  C  C125  1  0.23068000  0.62991000  0.38615000  1.0
  C  C126  1  0.21659000  0.53970000  0.36284000  1.0
  C  C127  1  0.18168000  0.55361000  0.31503000  1.0
  C  C128  1  0.15992000  0.65743000  0.28923000  1.0
  C  C129  1  0.17282000  0.74791000  0.31328000  1.0
  C  C130  1  0.20781000  0.73446000  0.36107000  1.0
  C  C131  1  0.04637000  0.78561000  0.21969000  1.0
  C  C132  1  0.01796000  0.79877000  0.17121000  1.0
  C  C133  1  0.14301000  0.58520000  0.15821000  1.0
  C  C134  1  0.62177000  0.64240000  0.61627000  1.0
  C  C135  1  0.17352000  0.57225000  0.20697000  1.0
  C  C136  1  0.12561000  0.67180000  0.23811000  1.0
  C  C137  1  0.06402000  0.70039000  0.13988000  1.0
  C  C138  1  0.72127000  0.04808000  0.94688000  1.0
  C  C139  1  0.70026000  0.74213000  0.94915000  1.0
  C  C140  1  0.05117000  0.69231000  0.95219000  1.0
  C  C141  1  0.71160000  0.05492000  0.08291000  1.0
  C  C142  1  0.70889000  0.73107000  0.08363000  1.0
  C  C143  1  0.02355000  0.72391000  0.08913000  1.0
  C  C144  1  0.53141000  0.76214000  0.73521000  1.0
  C  C145  1  0.53931000  0.77116000  0.78486000  1.0
  C  C146  1  0.42226000  0.84857000  0.70940000  1.0
  C  C147  1  0.37713000  0.97230000  0.71627000  1.0
  C  C148  1  0.27700000  0.05483000  0.69084000  1.0
  C  C149  1  0.22047000  0.01501000  0.65822000  1.0
  C  C150  1  0.26377000  0.89217000  0.65157000  1.0
  C  C151  1  0.36365000  0.80953000  0.67712000  1.0
  C  C152  1  0.09218000  0.88165000  0.81127000  1.0
  C  C153  1  0.02328000  0.92160000  0.85390000  1.0
  C  C154  1  0.00646000  0.02570000  0.87718000  1.0
  C  C155  1  0.05328000  0.09550000  0.85688000  1.0
  C  C156  1  0.11710000  0.06010000  0.81331000  1.0
  C  C157  1  0.13854000  0.95343000  0.79123000  1.0
  C  C158  1  0.57027000  0.09116000  0.39790000  1.0
  C  C159  1  0.63173000  0.03953000  0.44060000  1.0
  C  C160  1  0.59148000  0.97927000  0.47141000  1.0
  C  C161  1  0.48914000  0.96950000  0.46003000  1.0
  C  C162  1  0.42762000  0.02017000  0.41757000  1.0
  C  C163  1  0.46806000  0.08018000  0.38664000  1.0
  C  C164  1  0.27271000  0.37495000  0.14154000  1.0
  C  C165  1  0.30246000  0.29486000  0.09774000  1.0
  C  C166  1  0.86657000  0.37993000  0.72280000  1.0
  C  C167  1  0.96922000  0.29992000  0.68974000  1.0
  C  C168  1  0.49619000  0.05755000  0.82927000  1.0
  C  C169  1  0.37561000  0.08375000  0.85025000  1.0
  O  O170  1  0.52858000  0.29358000  0.55096000  1.0
  O  O171  1  0.49881000  0.68780000  0.45612000  1.0
  O  O172  1  0.67939000  0.51838000  0.45458000  1.0
  O  O173  1  0.69387000  0.31325000  0.45252000  1.0
  O  O174  1  0.49218000  0.49319000  0.50311000  1.0
  O  O175  1  0.03342000  0.79167000  0.96913000  1.0
  O  O176  1  0.82977000  0.00607000  0.95958000  1.0
  O  O177  1  0.63709000  0.03927000  0.97036000  1.0
  O  O178  1  0.62741000  0.84363000  0.96836000  1.0
  O  O179  1  0.79935000  0.66335000  0.96716000  1.0
  O  O180  1  0.01706000  0.62073000  0.97178000  1.0
  O  O181  1  0.31516000  0.49844000  0.55817000  1.0
  O  O182  1  0.00425000  0.82384000  0.07177000  1.0
  O  O183  1  0.80702000  0.03632000  0.06089000  1.0
  O  O184  1  0.63026000  0.03147000  0.06575000  1.0
  O  O185  1  0.63637000  0.83102000  0.06415000  1.0
  O  O186  1  0.80304000  0.64858000  0.06250000  1.0
  O  O187  1  0.00448000  0.64589000  0.06694000  1.0
  O  O188  1  0.82812000  0.83849000  0.01601000  1.0
  O  O189  1  0.29308000  0.68673000  0.55055000  1.0
  O  O190  1  0.49413000  0.68818000  0.55128000  1.0
  O  O191  1  0.67590000  0.51771000  0.54957000  1.0
  O  O192  1  0.70190000  0.30730000  0.54792000  1.0
  O  O193  1  0.51482000  0.31276000  0.44829000  1.0
  O  O194  1  0.30074000  0.51081000  0.45568000  1.0
  O  O195  1  0.29935000  0.68969000  0.45473000  1.0
  O  O196  1  0.18859000  0.49379000  0.12601000  1.0
  O  O197  1  0.82823000  0.50300000  0.70898000  1.0
  O  O198  1  0.47805000  0.16261000  0.80164000  1.0
  O  O199  1  0.33373000  0.31557000  0.50145000  1.0
  O  O200  1  0.01312000  0.98879000  0.01052000  1.0
