# generated using pymatgen
data_Zn2H45C51I5N4O17
_symmetry_space_group_name_H-M   'P 1'
_cell_length_a   9.34035000
_cell_length_b   10.87840000
_cell_length_c   23.42240000
_cell_angle_alpha   91.32970000
_cell_angle_beta   91.12490000
_cell_angle_gamma   107.67380000
_symmetry_Int_Tables_number   1
_chemical_formula_structural   Zn2H45C51I5N4O17
_chemical_formula_sum   'Zn2 H45 C51 I5 N4 O17'
_cell_volume   2266.07433635
_cell_formula_units_Z   1
loop_
 _symmetry_equiv_pos_site_id
 _symmetry_equiv_pos_as_xyz
  1  'x, y, z'
loop_
 _atom_site_type_symbol
 _atom_site_label
 _atom_site_symmetry_multiplicity
 _atom_site_fract_x
 _atom_site_fract_y
 _atom_site_fract_z
 _atom_site_occupancy
  Zn  Zn0  1  0.65500000  0.55992000  0.49929000  1.0
  Zn  Zn1  1  0.34251000  0.47882000  0.49668000  1.0
  H  H2  1  0.47492000  0.17360000  0.03251000  1.0
  H  H3  1  0.73611000  0.51006000  0.33018000  1.0
  H  H4  1  0.76794000  0.51829000  0.22444000  1.0
  H  H5  1  0.63636000  0.95247000  0.47985000  1.0
  H  H6  1  0.37914000  0.12870000  0.44331000  1.0
  H  H7  1  0.84987000  0.50545000  0.41653000  1.0
  H  H8  1  0.14831000  0.53893000  0.41823000  1.0
  H  H9  1  0.60897000  0.83504000  0.96083000  1.0
  H  H10  1  0.33448000  0.62634000  0.79153000  1.0
  H  H11  1  0.69521000  0.51176000  0.66442000  1.0
  H  H12  1  0.27755000  0.04478000  0.95506000  1.0
  H  H13  1  0.45454000  0.02062000  0.97227000  1.0
  H  H14  1  0.33057000  0.99730000  0.84969000  1.0
  H  H15  1  0.47517000  0.93872000  0.87631000  1.0
  H  H16  1  0.27960000  0.77809000  0.93621000  1.0
  H  H17  1  0.24430000  0.75389000  0.86155000  1.0
  H  H18  1  0.13792000  0.83194000  0.90268000  1.0
  H  H19  1  0.97213000  0.26016000  0.59480000  1.0
  H  H20  1  0.16576000  0.32247000  0.57781000  1.0
  H  H21  1  0.92352000  0.10611000  0.51168000  1.0
  H  H22  1  0.11406000  0.16841000  0.49145000  1.0
  H  H23  1  0.19991000  0.09838000  0.58465000  1.0
  H  H24  1  0.07651000  0.96511000  0.54550000  1.0
  H  H25  1  0.00943000  0.03402000  0.60468000  1.0
  H  H26  1  0.40492000  0.86907000  0.68951000  1.0
  H  H27  1  0.32132000  0.79743000  0.75323000  1.0
  H  H28  1  0.15493000  0.83779000  0.64462000  1.0
  H  H29  1  0.06574000  0.74608000  0.70299000  1.0
  H  H30  1  0.15809000  0.94417000  0.76791000  1.0
  H  H31  1  0.04875000  0.97080000  0.70953000  1.0
  H  H32  1  0.24757000  0.03585000  0.70964000  1.0
  H  H33  1  0.96584000  0.51827000  0.78264000  1.0
  H  H34  1  0.89756000  0.55501000  0.71577000  1.0
  H  H35  1  0.81325000  0.28204000  0.76236000  1.0
  H  H36  1  0.78387000  0.32296000  0.69140000  1.0
  H  H37  1  0.07017000  0.41011000  0.68093000  1.0
  H  H38  1  0.01048000  0.24388000  0.69727000  1.0
  H  H39  1  0.09391000  0.36176000  0.75126000  1.0
  H  H40  1  0.27594000  0.55585000  0.16155000  1.0
  H  H41  1  0.16853000  0.50986000  0.22394000  1.0
  H  H42  1  0.08205000  0.37178000  0.10695000  1.0
  H  H43  1  0.97296000  0.34332000  0.16887000  1.0
  H  H44  1  0.96168000  0.57649000  0.16612000  1.0
  H  H45  1  0.87921000  0.48351000  0.10391000  1.0
  H  H46  1  0.06180000  0.59654000  0.10193000  1.0
  C  C47  1  0.50530000  0.29104000  0.52130000  1.0
  C  C48  1  0.49236000  0.26674000  0.01299000  1.0
  C  C49  1  0.48632000  0.27652000  0.95288000  1.0
  C  C50  1  0.51134000  0.39932000  0.92905000  1.0
  C  C51  1  0.54244000  0.50978000  0.96623000  1.0
  C  C52  1  0.56889000  0.63473000  0.94409000  1.0
  C  C53  1  0.59002000  0.74155000  0.98018000  1.0
  C  C54  1  0.58560000  0.73062000  0.03989000  1.0
  C  C55  1  0.49449000  0.41379000  0.86677000  1.0
  C  C56  1  0.57288000  0.65518000  0.88180000  1.0
  C  C57  1  0.41390000  0.60243000  0.76322000  1.0
  C  C58  1  0.49177000  0.57532000  0.60522000  1.0
  C  C59  1  0.40442000  0.61913000  0.70446000  1.0
  C  C60  1  0.50468000  0.58163000  0.66912000  1.0
  C  C61  1  0.61886000  0.53830000  0.69336000  1.0
  C  C62  1  0.63297000  0.52823000  0.75236000  1.0
  C  C63  1  0.52479000  0.55704000  0.78676000  1.0
  C  C64  1  0.38510000  0.40725000  0.22847000  1.0
  C  C65  1  0.36843000  0.39706000  0.28793000  1.0
  C  C66  1  0.49581000  0.43835000  0.32502000  1.0
  C  C67  1  0.63865000  0.47931000  0.30113000  1.0
  C  C68  1  0.65670000  0.48475000  0.24249000  1.0
  C  C69  1  0.51068000  0.74985000  0.47140000  1.0
  C  C70  1  0.52990000  0.45131000  0.20652000  1.0
  C  C71  1  0.41546000  0.94466000  0.46103000  1.0
  C  C72  1  0.52329000  0.88819000  0.46984000  1.0
  C  C73  1  0.43425000  0.07965000  0.47281000  1.0
  C  C74  1  0.50206000  0.15234000  0.51900000  1.0
  C  C75  1  0.92704000  0.52865000  0.45412000  1.0
  C  C76  1  0.06855000  0.49846000  0.45140000  1.0
  C  C77  1  0.48935000  0.45294000  0.38896000  1.0
  C  C78  1  0.56361000  0.59260000  0.12648000  1.0
  C  C79  1  0.52594000  0.35549000  0.11140000  1.0
  C  C80  1  0.52148000  0.37451000  0.04901000  1.0
  C  C81  1  0.54513000  0.49931000  0.02688000  1.0
  C  C82  1  0.56663000  0.60989000  0.06388000  1.0
  C  C83  1  0.38676000  0.04507000  0.93779000  1.0
  C  C84  1  0.36644000  0.95218000  0.88664000  1.0
  C  C85  1  0.25075000  0.82207000  0.89755000  1.0
  C  C86  1  0.05210000  0.27495000  0.56002000  1.0
  C  C87  1  0.03970000  0.14913000  0.52813000  1.0
  C  C88  1  0.08383000  0.05650000  0.56801000  1.0
  C  C89  1  0.30589000  0.79659000  0.70644000  1.0
  C  C90  1  0.16238000  0.82771000  0.69126000  1.0
  C  C91  1  0.15424000  0.95170000  0.72121000  1.0
  C  C92  1  0.87347000  0.48572000  0.75052000  1.0
  C  C93  1  0.86197000  0.34996000  0.72868000  1.0
  C  C94  1  0.01730000  0.34104000  0.71356000  1.0
  C  C95  1  0.19496000  0.47435000  0.18215000  1.0
  C  C96  1  0.05370000  0.41902000  0.14533000  1.0
  C  C97  1  0.98525000  0.52446000  0.12838000  1.0
  I  I98  1  0.14741000  0.30754000  0.31465000  1.0
  I  I99  1  0.19476000  0.84888000  0.42865000  1.0
  I  I100  1  0.60241000  0.09113000  0.58936000  1.0
  I  I101  1  0.00801000  0.64200000  0.57038000  1.0
  I  I102  1  0.60238000  0.90427000  0.08505000  1.0
  N  N103  1  0.54329000  0.46657000  0.14579000  1.0
  N  N104  1  0.53199000  0.54283000  0.84741000  1.0
  N  N105  1  0.87877000  0.58016000  0.49672000  1.0
  N  N106  1  0.11004000  0.42411000  0.48611000  1.0
  O  O107  1  0.62680000  0.37706000  0.53510000  1.0
  O  O108  1  0.51573000  0.25085000  0.13247000  1.0
  O  O109  1  0.44833000  0.32425000  0.83177000  1.0
  O  O110  1  0.60694000  0.76347000  0.86149000  1.0
  O  O111  1  0.38127000  0.30812000  0.50615000  1.0
  O  O112  1  0.61289000  0.62062000  0.57835000  1.0
  O  O113  1  0.36266000  0.51764000  0.58292000  1.0
  O  O114  1  0.63317000  0.72217000  0.46501000  1.0
  O  O115  1  0.38332000  0.67104000  0.48224000  1.0
  O  O116  1  0.60916000  0.46283000  0.41839000  1.0
  O  O117  1  0.36731000  0.46007000  0.40919000  1.0
  O  O118  1  0.57652000  0.68113000  0.16172000  1.0
  O  O119  1  0.46010000  0.17311000  0.91742000  1.0
  O  O120  1  0.00548000  0.36634000  0.52518000  1.0
  O  O121  1  0.29794000  0.67085000  0.68204000  1.0
  O  O122  1  0.74273000  0.49296000  0.78044000  1.0
  O  O123  1  0.26395000  0.37286000  0.19099000  1.0
