# generated using pymatgen
data_Zn2H55C43N7O8
_symmetry_space_group_name_H-M   'P 1'
_cell_length_a   12.57530000
_cell_length_b   13.73430000
_cell_length_c   15.98220000
_cell_angle_alpha   90.08940000
_cell_angle_beta   91.96300000
_cell_angle_gamma   94.44680000
_symmetry_Int_Tables_number   1
_chemical_formula_structural   Zn2H55C43N7O8
_chemical_formula_sum   'Zn2 H55 C43 N7 O8'
_cell_volume   2750.38388304
_cell_formula_units_Z   1
loop_
 _symmetry_equiv_pos_site_id
 _symmetry_equiv_pos_as_xyz
  1  'x, y, z'
loop_
 _atom_site_type_symbol
 _atom_site_label
 _atom_site_symmetry_multiplicity
 _atom_site_fract_x
 _atom_site_fract_y
 _atom_site_fract_z
 _atom_site_occupancy
  Zn  Zn0  1  0.60966000  0.49742000  0.50092000  1.0
  Zn  Zn1  1  0.39095000  0.51555000  0.49711000  1.0
  H  H2  1  0.39247000  0.38035000  0.94037000  1.0
  H  H3  1  0.68648000  0.59730000  0.15720000  1.0
  H  H4  1  0.80563000  0.48207000  0.17691000  1.0
  H  H5  1  0.76470000  0.42229000  0.08201000  1.0
  H  H6  1  0.67861000  0.41616000  0.16893000  1.0
  H  H7  1  0.84152000  0.54630000  0.00436000  1.0
  H  H8  1  0.87211000  0.47049000  0.91923000  1.0
  H  H9  1  0.83268000  0.58958000  0.90022000  1.0
  H  H10  1  0.69449000  0.41131000  0.96300000  1.0
  H  H11  1  0.68657000  0.46479000  0.86396000  1.0
  H  H12  1  0.37382000  0.88782000  0.47381000  1.0
  H  H13  1  0.61925000  0.04162000  0.50731000  1.0
  H  H14  1  0.19620000  0.92913000  0.46724000  1.0
  H  H15  1  0.24790000  0.00987000  0.38835000  1.0
  H  H16  1  0.23774000  0.05290000  0.49281000  1.0
  H  H17  1  0.90503000  0.52858000  0.37999000  1.0
  H  H18  1  0.00274000  0.57094000  0.26073000  1.0
  H  H19  1  0.06406000  0.46412000  0.29564000  1.0
  H  H20  1  0.12371000  0.58295000  0.32149000  1.0
  H  H21  1  0.09433000  0.47051000  0.61844000  1.0
  H  H22  1  0.99609000  0.42993000  0.73806000  1.0
  H  H23  1  0.87440000  0.42498000  0.67798000  1.0
  H  H24  1  0.57541000  0.63243000  0.06228000  1.0
  H  H25  1  0.94127000  0.54068000  0.70522000  1.0
  H  H26  1  0.24627000  0.61326000  0.15280000  1.0
  H  H27  1  0.19117000  0.61194000  0.04917000  1.0
  H  H28  1  0.13717000  0.52818000  0.12379000  1.0
  H  H29  1  0.25351000  0.43827000  0.03320000  1.0
  H  H30  1  0.30891000  0.44930000  0.13548000  1.0
  H  H31  1  0.48469000  0.69756000  0.82029000  1.0
  H  H32  1  0.34752000  0.71981000  0.82254000  1.0
  H  H33  1  0.44523000  0.80456000  0.86834000  1.0
  H  H34  1  0.34684000  0.70072000  0.97538000  1.0
  H  H35  1  0.40557000  0.61188000  0.07810000  1.0
  H  H36  1  0.48608000  0.70319000  0.98291000  1.0
  H  H37  1  0.30595000  0.40048000  0.82504000  1.0
  H  H38  1  0.23530000  0.38185000  0.91886000  1.0
  H  H39  1  0.17732000  0.44176000  0.83319000  1.0
  H  H40  1  0.23526000  0.57061000  0.92939000  1.0
  H  H41  1  0.30824000  0.57725000  0.83832000  1.0
  H  H42  1  0.48024000  0.17517000  0.01594000  1.0
  H  H43  1  0.56343000  0.20588000  0.10553000  1.0
  H  H44  1  0.43296000  0.15011000  0.11729000  1.0
  H  H45  1  0.43271000  0.32349000  0.15187000  1.0
  H  H46  1  0.58849000  0.36906000  0.05068000  1.0
  H  H47  1  0.35459000  0.30044000  0.05949000  1.0
  H  H48  1  0.38845000  0.20818000  0.89892000  1.0
  H  H49  1  0.39583000  0.27599000  0.80461000  1.0
  H  H50  1  0.48203000  0.18179000  0.82282000  1.0
  H  H51  1  0.57447000  0.34902000  0.84391000  1.0
  H  H52  1  0.58317000  0.27632000  0.93362000  1.0
  H  H53  1  0.66414000  0.63784000  0.86066000  1.0
  H  H54  1  0.65018000  0.75949000  0.00987000  1.0
  H  H55  1  0.72441000  0.78026000  0.91928000  1.0
  H  H56  1  0.77113000  0.70235000  0.99986000  1.0
  C  C57  1  0.53858000  0.69469000  0.49802000  1.0
  C  C58  1  0.44985000  0.02189000  0.48782000  1.0
  C  C59  1  0.55118000  0.98834000  0.49844000  1.0
  C  C60  1  0.50184000  0.50124000  0.33630000  1.0
  C  C61  1  0.56163000  0.88850000  0.49867000  1.0
  C  C62  1  0.44005000  0.12383000  0.48948000  1.0
  C  C63  1  0.55444000  0.79886000  0.49736000  1.0
  C  C64  1  0.97109000  0.48552000  0.53450000  1.0
  C  C65  1  0.02809000  0.51816000  0.46496000  1.0
  C  C66  1  0.13998000  0.52790000  0.47640000  1.0
  C  C67  1  0.85918000  0.47788000  0.52296000  1.0
  C  C68  1  0.61466000  0.54880000  0.95660000  1.0
  C  C69  1  0.45400000  0.31802000  0.49594000  1.0
  C  C70  1  0.50556000  0.50557000  0.66188000  1.0
  C  C71  1  0.59924000  0.55811000  0.05269000  1.0
  C  C72  1  0.39668000  0.53992000  0.04687000  1.0
  C  C73  1  0.40356000  0.56161000  0.95001000  1.0
  C  C74  1  0.50552000  0.50695000  0.75201000  1.0
  C  C75  1  0.49838000  0.49052000  0.07948000  1.0
  C  C76  1  0.69961000  0.72390000  0.96486000  1.0
  C  C77  1  0.73632000  0.46393000  0.13428000  1.0
  C  C78  1  0.70273000  0.48176000  0.93078000  1.0
  C  C79  1  0.50101000  0.50488000  0.91839000  1.0
  C  C80  1  0.81860000  0.52484000  0.93980000  1.0
  C  C81  1  0.25554000  0.98975000  0.45499000  1.0
  C  C82  1  0.04724000  0.53912000  0.31265000  1.0
  C  C83  1  0.95313000  0.46491000  0.68697000  1.0
  C  C84  1  0.29107000  0.49110000  0.07879000  1.0
  C  C85  1  0.21191000  0.56515000  0.10206000  1.0
  C  C86  1  0.41689000  0.67592000  0.94388000  1.0
  C  C87  1  0.42367000  0.72612000  0.85862000  1.0
  C  C88  1  0.29811000  0.53597000  0.89663000  1.0
  C  C89  1  0.25321000  0.43380000  0.86815000  1.0
  C  C90  1  0.47904000  0.39440000  0.94710000  1.0
  C  C91  1  0.43714000  0.30425000  0.08526000  1.0
  C  C92  1  0.48080000  0.20348000  0.08020000  1.0
  C  C93  1  0.52714000  0.31508000  0.89396000  1.0
  C  C94  1  0.44371000  0.24120000  0.85317000  1.0
  C  C95  1  0.50503000  0.38657000  0.04176000  1.0
  C  C96  1  0.50322000  0.50774000  0.82800000  1.0
  C  C97  1  0.49828000  0.49078000  0.17013000  1.0
  C  C98  1  0.49909000  0.49669000  0.24604000  1.0
  C  C99  1  0.44151000  0.21258000  0.49231000  1.0
  N  N100  1  0.76783000  0.47497000  0.50762000  1.0
  N  N101  1  0.23167000  0.53384000  0.49068000  1.0
  N  N102  1  0.63763000  0.64570000  0.91949000  1.0
  N  N103  1  0.69688000  0.55608000  0.10552000  1.0
  N  N104  1  0.36044000  0.95981000  0.47784000  1.0
  N  N105  1  0.98523000  0.54338000  0.38791000  1.0
  N  N106  1  0.01371000  0.45885000  0.61113000  1.0
  O  O107  1  0.62035000  0.64581000  0.50892000  1.0
  O  O108  1  0.44150000  0.65968000  0.48753000  1.0
  O  O109  1  0.59401000  0.50695000  0.37265000  1.0
  O  O110  1  0.41191000  0.49884000  0.37095000  1.0
  O  O111  1  0.55003000  0.35413000  0.49091000  1.0
  O  O112  1  0.37083000  0.36391000  0.50370000  1.0
  O  O113  1  0.59333000  0.48995000  0.62856000  1.0
  O  O114  1  0.41717000  0.51981000  0.62393000  1.0
