# generated using pymatgen
data_Zn2H22C31(NO2)4
_symmetry_space_group_name_H-M   'P 1'
_cell_length_a   8.68177000
_cell_length_b   12.86280000
_cell_length_c   13.95900000
_cell_angle_alpha   93.79240000
_cell_angle_beta   98.69920000
_cell_angle_gamma   107.56800000
_symmetry_Int_Tables_number   1
_chemical_formula_structural   Zn2H22C31(NO2)4
_chemical_formula_sum   'Zn4 H44 C62 N8 O16'
_cell_volume   1458.65357999
_cell_formula_units_Z   2
loop_
 _symmetry_equiv_pos_site_id
 _symmetry_equiv_pos_as_xyz
  1  'x, y, z'
loop_
 _atom_site_type_symbol
 _atom_site_label
 _atom_site_symmetry_multiplicity
 _atom_site_fract_x
 _atom_site_fract_y
 _atom_site_fract_z
 _atom_site_occupancy
  Zn  Zn0  1  0.28990000  0.46123000  0.93137000  1.0
  Zn  Zn1  1  0.71010000  0.53877000  0.06863000  1.0
  Zn  Zn2  1  0.92819000  0.99767000  0.58970000  1.0
  Zn  Zn3  1  0.07181000  0.00233000  0.41030000  1.0
  H  H4  1  0.05898000  0.31012000  0.73796000  1.0
  H  H5  1  0.94102000  0.68989000  0.26205000  1.0
  H  H6  1  0.74771000  0.17131000  0.74851000  1.0
  H  H7  1  0.25229000  0.82869000  0.25149000  1.0
  H  H8  1  0.97437000  0.34623000  0.02725000  1.0
  H  H9  1  0.02563000  0.65378000  0.97276000  1.0
  H  H10  1  0.57686000  0.14945000  0.88696000  1.0
  H  H11  1  0.42313000  0.85055000  0.11304000  1.0
  H  H12  1  0.67198000  0.22682000  0.00212000  1.0
  H  H13  1  0.32802000  0.77318000  0.99788000  1.0
  H  H14  1  0.90446000  0.17825000  0.10195000  1.0
  H  H15  1  0.09553000  0.82175000  0.89805000  1.0
  H  H16  1  0.96131000  0.02431000  0.18253000  1.0
  H  H17  1  0.03869000  0.97569000  0.81747000  1.0
  H  H18  1  0.82385000  0.83160000  0.10549000  1.0
  H  H19  1  0.17614000  0.16840000  0.89451000  1.0
  H  H20  1  0.61205000  0.79374000  0.95574000  1.0
  H  H21  1  0.38795000  0.20626000  0.04427000  1.0
  H  H22  1  0.43281000  0.84825000  0.84705000  1.0
  H  H23  1  0.56719000  0.15175000  0.15295000  1.0
  H  H24  1  0.41699000  0.98176000  0.86073000  1.0
  H  H25  1  0.58301000  0.01824000  0.13927000  1.0
  H  H26  1  0.38160000  0.01945000  0.68710000  1.0
  H  H27  1  0.61839000  0.98054000  0.31290000  1.0
  H  H28  1  0.60282000  0.05859000  0.55634000  1.0
  H  H29  1  0.39718000  0.94141000  0.44366000  1.0
  H  H30  1  0.79104000  0.92084000  0.79483000  1.0
  H  H31  1  0.20896000  0.07916000  0.20517000  1.0
  H  H32  1  0.33912000  0.24907000  0.79244000  1.0
  H  H33  1  0.66088000  0.75093000  0.20756000  1.0
  H  H34  1  0.46815000  0.28891000  0.50951000  1.0
  H  H35  1  0.53185000  0.71108000  0.49049000  1.0
  H  H36  1  0.77020000  0.50924000  0.76125000  1.0
  H  H37  1  0.22980000  0.49077000  0.23875000  1.0
  H  H38  1  0.68679000  0.53701000  0.53456000  1.0
  H  H39  1  0.31321000  0.46299000  0.46544000  1.0
  H  H40  1  0.86034000  0.52108000  0.60682000  1.0
  H  H41  1  0.13966000  0.47892000  0.39318000  1.0
  H  H42  1  0.84207000  0.29368000  0.56560000  1.0
  H  H43  1  0.15794000  0.70633000  0.43440000  1.0
  H  H44  1  0.85147000  0.23713000  0.26033000  1.0
  H  H45  1  0.14852000  0.76287000  0.73967000  1.0
  H  H46  1  0.68835000  0.50030000  0.36553000  1.0
  H  H47  1  0.31165000  0.49970000  0.63447000  1.0
  C  C48  1  0.99604000  0.29603000  0.79959000  1.0
  C  C49  1  0.00396000  0.70397000  0.20042000  1.0
  C  C50  1  0.84392000  0.22578000  0.80418000  1.0
  C  C51  1  0.15609000  0.77423000  0.19583000  1.0
  C  C52  1  0.96008000  0.31631000  0.95085000  1.0
  C  C53  1  0.03991000  0.68369000  0.04915000  1.0
  C  C54  1  0.68818000  0.17278000  0.94278000  1.0
  C  C55  1  0.31182000  0.82722000  0.05722000  1.0
  C  C56  1  0.72485000  0.07422000  0.98324000  1.0
  C  C57  1  0.27515000  0.92578000  0.01676000  1.0
  C  C58  1  0.84377000  0.09387000  0.06807000  1.0
  C  C59  1  0.15623000  0.90613000  0.93193000  1.0
  C  C60  1  0.87789000  0.00758000  0.11280000  1.0
  C  C61  1  0.12211000  0.99242000  0.88720000  1.0
  C  C62  1  0.79710000  0.89939000  0.07127000  1.0
  C  C63  1  0.20289000  0.10061000  0.92873000  1.0
  C  C64  1  0.67866000  0.87858000  0.98671000  1.0
  C  C65  1  0.32134000  0.12142000  0.01329000  1.0
  C  C66  1  0.63928000  0.96465000  0.94303000  1.0
  C  C67  1  0.36072000  0.03535000  0.05697000  1.0
  C  C68  1  0.50365000  0.93599000  0.85468000  1.0
  C  C69  1  0.49635000  0.06401000  0.14532000  1.0
  C  C70  1  0.49880000  0.00525000  0.68829000  1.0
  C  C71  1  0.50120000  0.99475000  0.31171000  1.0
  C  C72  1  0.60723000  0.02252000  0.62418000  1.0
  C  C73  1  0.39276000  0.97747000  0.37582000  1.0
  C  C74  1  0.71209000  0.95285000  0.74599000  1.0
  C  C75  1  0.28791000  0.04715000  0.25401000  1.0
  C  C76  1  0.55800000  0.38300000  0.78715000  1.0
  C  C77  1  0.44200000  0.61700000  0.21285000  1.0
  C  C78  1  0.42162000  0.29285000  0.74658000  1.0
  C  C79  1  0.57838000  0.70715000  0.25342000  1.0
  C  C80  1  0.39096000  0.25880000  0.64674000  1.0
  C  C81  1  0.60904000  0.74120000  0.35326000  1.0
  C  C82  1  0.49538000  0.31703000  0.58746000  1.0
  C  C83  1  0.50463000  0.68297000  0.41254000  1.0
  C  C84  1  0.63187000  0.40843000  0.62691000  1.0
  C  C85  1  0.36813000  0.59157000  0.37309000  1.0
  C  C86  1  0.66380000  0.43947000  0.72774000  1.0
  C  C87  1  0.33620000  0.56053000  0.27226000  1.0
  C  C88  1  0.74004000  0.47462000  0.56203000  1.0
  C  C89  1  0.25996000  0.52538000  0.43797000  1.0
  C  C90  1  0.76580000  0.40728000  0.47654000  1.0
  C  C91  1  0.23421000  0.59272000  0.52345000  1.0
  C  C92  1  0.82146000  0.31731000  0.49233000  1.0
  C  C93  1  0.17854000  0.68269000  0.50767000  1.0
  C  C94  1  0.85068000  0.25538000  0.41498000  1.0
  C  C95  1  0.14931000  0.74462000  0.58502000  1.0
  C  C96  1  0.82562000  0.28360000  0.32048000  1.0
  C  C97  1  0.17438000  0.71640000  0.67952000  1.0
  C  C98  1  0.76560000  0.37087000  0.30293000  1.0
  C  C99  1  0.23440000  0.62913000  0.69706000  1.0
  C  C100  1  0.73539000  0.43231000  0.38089000  1.0
  C  C101  1  0.26461000  0.56769000  0.61910000  1.0
  C  C102  1  0.58364000  0.42182000  0.89254000  1.0
  C  C103  1  0.41636000  0.57819000  0.10746000  1.0
  C  C104  1  0.24636000  0.16043000  0.60302000  1.0
  C  C105  1  0.75364000  0.83957000  0.39698000  1.0
  C  C106  1  0.90466000  0.15764000  0.43327000  1.0
  C  C107  1  0.09534000  0.84236000  0.56673000  1.0
  C  C108  1  0.73857000  0.39869000  0.20064000  1.0
  C  C109  1  0.26143000  0.60131000  0.79936000  1.0
  N  N110  1  0.06700000  0.35151000  0.89162000  1.0
  N  N111  1  0.93300000  0.64850000  0.10838000  1.0
  N  N112  1  0.82352000  0.23938000  0.89995000  1.0
  N  N113  1  0.17648000  0.76062000  0.10005000  1.0
  N  N114  1  0.56816000  0.96196000  0.76512000  1.0
  N  N115  1  0.43184000  0.03804000  0.23488000  1.0
  N  N116  1  0.73971000  0.98977000  0.66148000  1.0
  N  N117  1  0.26029000  0.01023000  0.33852000  1.0
  O  O118  1  0.46754000  0.38556000  0.94086000  1.0
  O  O119  1  0.53246000  0.61444000  0.05914000  1.0
  O  O120  1  0.72118000  0.49206000  0.93230000  1.0
  O  O121  1  0.27882000  0.50794000  0.06770000  1.0
  O  O122  1  0.14384000  0.11863000  0.65776000  1.0
  O  O123  1  0.85617000  0.88137000  0.34224000  1.0
  O  O124  1  0.23883000  0.12582000  0.51473000  1.0
  O  O125  1  0.76117000  0.87418000  0.48527000  1.0
  O  O126  1  0.87982000  0.11905000  0.51304000  1.0
  O  O127  1  0.12018000  0.88095000  0.48696000  1.0
  O  O128  1  0.96870000  0.11962000  0.36823000  1.0
  O  O129  1  0.03130000  0.88038000  0.63177000  1.0
  O  O130  1  0.78461000  0.35184000  0.13371000  1.0
  O  O131  1  0.21538000  0.64816000  0.86628000  1.0
  O  O132  1  0.66904000  0.47413000  0.18840000  1.0
  O  O133  1  0.33096000  0.52586000  0.81160000  1.0
