# generated using pymatgen
data_LiH9(C3O2)2
_symmetry_space_group_name_H-M   'P 1'
_cell_length_a   7.44793000
_cell_length_b   8.14726000
_cell_length_c   11.49450000
_cell_angle_alpha   86.36300000
_cell_angle_beta   89.99980000
_cell_angle_gamma   89.99970000
_symmetry_Int_Tables_number   1
_chemical_formula_structural   LiH9(C3O2)2
_chemical_formula_sum   'Li4 H36 C24 O16'
_cell_volume   696.08405173
_cell_formula_units_Z   4
loop_
 _symmetry_equiv_pos_site_id
 _symmetry_equiv_pos_as_xyz
  1  'x, y, z'
loop_
 _atom_site_type_symbol
 _atom_site_label
 _atom_site_symmetry_multiplicity
 _atom_site_fract_x
 _atom_site_fract_y
 _atom_site_fract_z
 _atom_site_occupancy
  Li  Li0  1  0.98451000  0.94626000  0.88808000  1.0
  Li  Li1  1  0.48452000  0.05373000  0.61192000  1.0
  Li  Li2  1  0.01548000  0.05374000  0.11192000  1.0
  Li  Li3  1  0.51548000  0.94627000  0.38808000  1.0
  H  H4  1  0.20226000  0.23892000  0.93040000  1.0
  H  H5  1  0.70226000  0.76108000  0.56960000  1.0
  H  H6  1  0.79774000  0.76108000  0.06960000  1.0
  H  H7  1  0.29774000  0.23893000  0.43040000  1.0
  H  H8  1  0.03731000  0.33163000  0.83998000  1.0
  H  H9  1  0.53731000  0.66837000  0.66002000  1.0
  H  H10  1  0.96269000  0.66837000  0.16002000  1.0
  H  H11  1  0.46269000  0.33163000  0.33998000  1.0
  H  H12  1  0.43617000  0.42921000  0.83921000  1.0
  H  H13  1  0.93617000  0.57078000  0.66079000  1.0
  H  H14  1  0.56383000  0.57079000  0.16079000  1.0
  H  H15  1  0.06383000  0.42922000  0.33921000  1.0
  H  H16  1  0.27122000  0.52540000  0.74878000  1.0
  H  H17  1  0.77122000  0.47459000  0.75123000  1.0
  H  H18  1  0.72878000  0.47460000  0.25123000  1.0
  H  H19  1  0.22878000  0.52541000  0.24877000  1.0
  H  H20  1  0.25591000  0.50658000  0.01655000  1.0
  H  H21  1  0.75591000  0.49342000  0.48345000  1.0
  H  H22  1  0.74409000  0.49342000  0.98345000  1.0
  H  H23  1  0.24409000  0.50658000  0.51655000  1.0
  H  H24  1  0.10125000  0.61032000  0.92163000  1.0
  H  H25  1  0.60125000  0.38968000  0.57837000  1.0
  H  H26  1  0.89875000  0.38968000  0.07837000  1.0
  H  H27  1  0.39876000  0.61032000  0.42163000  1.0
  H  H28  1  0.50322000  0.69796000  0.93837000  1.0
  H  H29  1  0.00322000  0.30204000  0.56163000  1.0
  H  H30  1  0.49678000  0.30204000  0.06163000  1.0
  H  H31  1  0.99678000  0.69797000  0.43837000  1.0
  H  H32  1  0.34434000  0.79877000  0.84296000  1.0
  H  H33  1  0.84434000  0.20123000  0.65704000  1.0
  H  H34  1  0.65566000  0.20123000  0.15704000  1.0
  H  H35  1  0.15566000  0.79877000  0.34296000  1.0
  H  H36  1  0.38094000  0.94784000  0.16653000  1.0
  H  H37  1  0.88095000  0.05216000  0.33347000  1.0
  H  H38  1  0.61905000  0.05217000  0.83347000  1.0
  H  H39  1  0.11905000  0.94784000  0.66653000  1.0
  C  C40  1  0.22169000  0.18216000  0.75316000  1.0
  C  C41  1  0.72170000  0.81783000  0.74684000  1.0
  C  C42  1  0.77830000  0.81784000  0.24684000  1.0
  C  C43  1  0.27831000  0.18217000  0.25316000  1.0
  C  C44  1  0.18206000  0.30360000  0.84431000  1.0
  C  C45  1  0.68206000  0.69640000  0.65569000  1.0
  C  C46  1  0.81794000  0.69640000  0.15569000  1.0
  C  C47  1  0.31794000  0.30361000  0.34431000  1.0
  C  C48  1  0.29266000  0.46105000  0.83478000  1.0
  C  C49  1  0.79266000  0.53895000  0.66522000  1.0
  C  C50  1  0.70734000  0.53895000  0.16522000  1.0
  C  C51  1  0.20734000  0.46105000  0.33478000  1.0
  C  C52  1  0.24320000  0.57425000  0.93078000  1.0
  C  C53  1  0.74320000  0.42575000  0.56922000  1.0
  C  C54  1  0.75680000  0.42575000  0.06922000  1.0
  C  C55  1  0.25680000  0.57425000  0.43078000  1.0
  C  C56  1  0.36075000  0.72941000  0.92767000  1.0
  C  C57  1  0.86075000  0.27059000  0.57232000  1.0
  C  C58  1  0.63925000  0.27059000  0.07232000  1.0
  C  C59  1  0.13925000  0.72941000  0.42768000  1.0
  C  C60  1  0.30519000  0.84160000  0.02020000  1.0
  C  C61  1  0.80519000  0.15841000  0.47979000  1.0
  C  C62  1  0.69481000  0.15841000  0.97980000  1.0
  C  C63  1  0.19481000  0.84159000  0.52021000  1.0
  O  O64  1  0.13339000  0.04421000  0.76375000  1.0
  O  O65  1  0.63339000  0.95579000  0.73625000  1.0
  O  O66  1  0.86661000  0.95579000  0.23625000  1.0
  O  O67  1  0.36661000  0.04421000  0.26375000  1.0
  O  O68  1  0.33253000  0.21567000  0.67287000  1.0
  O  O69  1  0.83253000  0.78433000  0.82713000  1.0
  O  O70  1  0.66747000  0.78433000  0.32713000  1.0
  O  O71  1  0.16748000  0.21568000  0.17287000  1.0
  O  O72  1  0.42408000  0.86675000  0.10030000  1.0
  O  O73  1  0.92408000  0.13325000  0.39970000  1.0
  O  O74  1  0.57592000  0.13325000  0.89970000  1.0
  O  O75  1  0.07592000  0.86675000  0.60030000  1.0
  O  O76  1  0.15049000  0.90277000  0.01978000  1.0
  O  O77  1  0.65049000  0.09722000  0.48022000  1.0
  O  O78  1  0.84951000  0.09723000  0.98022000  1.0
  O  O79  1  0.34951000  0.90277000  0.51978000  1.0
