# generated using pymatgen
data_RbH6C6S2NO5
_symmetry_space_group_name_H-M   'P 1'
_cell_length_a   7.02719000
_cell_length_b   11.68540000
_cell_length_c   13.25550000
_cell_angle_alpha   89.99990000
_cell_angle_beta   89.99990000
_cell_angle_gamma   72.63800000
_symmetry_Int_Tables_number   1
_chemical_formula_structural   RbH6C6S2NO5
_chemical_formula_sum   'Rb4 H24 C24 S8 N4 O20'
_cell_volume   1038.88941198
_cell_formula_units_Z   4
loop_
 _symmetry_equiv_pos_site_id
 _symmetry_equiv_pos_as_xyz
  1  'x, y, z'
loop_
 _atom_site_type_symbol
 _atom_site_label
 _atom_site_symmetry_multiplicity
 _atom_site_fract_x
 _atom_site_fract_y
 _atom_site_fract_z
 _atom_site_occupancy
  Rb  Rb0  1  0.82312000  0.48961000  0.36105000  1.0
  Rb  Rb1  1  0.32312000  0.48961000  0.13895000  1.0
  Rb  Rb2  1  0.17688000  0.51039000  0.63895000  1.0
  Rb  Rb3  1  0.67688000  0.51039000  0.86105000  1.0
  H  H4  1  0.79361000  0.27110000  0.19216000  1.0
  H  H5  1  0.29361000  0.27110000  0.30784000  1.0
  H  H6  1  0.20639000  0.72890000  0.80784000  1.0
  H  H7  1  0.70639000  0.72890000  0.69216000  1.0
  H  H8  1  0.64388000  0.27136000  0.28089000  1.0
  H  H9  1  0.14388000  0.27136000  0.21911000  1.0
  H  H10  1  0.35612000  0.72864000  0.71911000  1.0
  H  H11  1  0.85612000  0.72864000  0.78089000  1.0
  H  H12  1  0.69053000  0.95318000  0.51130000  1.0
  H  H13  1  0.19053000  0.95318000  0.98870000  1.0
  H  H14  1  0.30947000  0.04682000  0.48870000  1.0
  H  H15  1  0.80947000  0.04682000  0.01130000  1.0
  H  H16  1  0.96101000  0.84432000  0.62662000  1.0
  H  H17  1  0.46100000  0.84432000  0.87338000  1.0
  H  H18  1  0.03899000  0.15568000  0.37338000  1.0
  H  H19  1  0.53899000  0.15568000  0.12662000  1.0
  H  H20  1  0.14445000  0.95421000  0.73008000  1.0
  H  H21  1  0.64445000  0.95421000  0.76992000  1.0
  H  H22  1  0.85555000  0.04579000  0.26992000  1.0
  H  H23  1  0.35555000  0.04579000  0.23008000  1.0
  H  H24  1  0.05841000  0.17738000  0.71987000  1.0
  H  H25  1  0.55841000  0.17738000  0.78013000  1.0
  H  H26  1  0.94159000  0.82262000  0.28013000  1.0
  H  H27  1  0.44159000  0.82262000  0.21987000  1.0
  C  C28  1  0.82489000  0.18848000  0.61057000  1.0
  C  C29  1  0.32489000  0.18848000  0.88943000  1.0
  C  C30  1  0.17511000  0.81152000  0.38943000  1.0
  C  C31  1  0.67511000  0.81152000  0.11057000  1.0
  C  C32  1  0.72141000  0.12696000  0.55292000  1.0
  C  C33  1  0.22142000  0.12696000  0.94708000  1.0
  C  C34  1  0.27859000  0.87304000  0.44708000  1.0
  C  C35  1  0.77859000  0.87304000  0.05292000  1.0
  C  C36  1  0.76702000  0.00274000  0.55756000  1.0
  C  C37  1  0.26702000  0.00274000  0.94244000  1.0
  C  C38  1  0.23298000  0.99726000  0.44244000  1.0
  C  C39  1  0.73298000  0.99726000  0.05756000  1.0
  C  C40  1  0.92093000  0.94180000  0.62234000  1.0
  C  C41  1  0.42093000  0.94181000  0.87766000  1.0
  C  C42  1  0.07907000  0.05820000  0.37766000  1.0
  C  C43  1  0.57907000  0.05819000  0.12233000  1.0
  C  C44  1  0.02411000  0.00367000  0.68084000  1.0
  C  C45  1  0.52412000  0.00367000  0.81916000  1.0
  C  C46  1  0.97589000  0.99633000  0.31916000  1.0
  C  C47  1  0.47588000  0.99633000  0.18084000  1.0
  C  C48  1  0.97743000  0.12852000  0.67568000  1.0
  C  C49  1  0.47743000  0.12852000  0.82432000  1.0
  C  C50  1  0.02257000  0.87148000  0.32432000  1.0
  C  C51  1  0.52257000  0.87148000  0.17568000  1.0
  S  S52  1  0.72284000  0.34638000  0.59465000  1.0
  S  S53  1  0.22284000  0.34638000  0.90535000  1.0
  S  S54  1  0.27716000  0.65362000  0.40536000  1.0
  S  S55  1  0.77716000  0.65362000  0.09465000  1.0
  S  S56  1  0.52426000  0.22882000  0.48420000  1.0
  S  S57  1  0.02426000  0.22882000  0.01580000  1.0
  S  S58  1  0.47574000  0.77118000  0.51580000  1.0
  S  S59  1  0.97574000  0.77118000  0.98420000  1.0
  N  N60  1  0.58856000  0.34836000  0.49610000  1.0
  N  N61  1  0.08856000  0.34836000  0.00390000  1.0
  N  N62  1  0.41144000  0.65164000  0.50390000  1.0
  N  N63  1  0.91144000  0.65164000  0.99610000  1.0
  O  O64  1  0.67944000  0.32238000  0.22975000  1.0
  O  O65  1  0.17944000  0.32238000  0.27025000  1.0
  O  O66  1  0.32056000  0.67762000  0.77025000  1.0
  O  O67  1  0.82056000  0.67762000  0.72975000  1.0
  O  O68  1  0.87493000  0.40346000  0.57109000  1.0
  O  O69  1  0.37494000  0.40346000  0.92890000  1.0
  O  O70  1  0.12507000  0.59654000  0.42891000  1.0
  O  O71  1  0.62507000  0.59654000  0.07109000  1.0
  O  O72  1  0.60512000  0.39120000  0.68506000  1.0
  O  O73  1  0.10512000  0.39120000  0.81494000  1.0
  O  O74  1  0.39488000  0.60880000  0.31494000  1.0
  O  O75  1  0.89488000  0.60881000  0.18507000  1.0
  O  O76  1  0.53316000  0.19521000  0.37689000  1.0
  O  O77  1  0.03316000  0.19520000  0.12311000  1.0
  O  O78  1  0.46684000  0.80479000  0.62311000  1.0
  O  O79  1  0.96684000  0.80479000  0.87689000  1.0
  O  O80  1  0.33663000  0.23327000  0.53313000  1.0
  O  O81  1  0.83664000  0.23328000  0.96687000  1.0
  O  O82  1  0.66336000  0.76673000  0.46687000  1.0
  O  O83  1  0.16336000  0.76673000  0.03313000  1.0
