# generated using pymatgen
data_CuH24C24(NO)4
_symmetry_space_group_name_H-M   'P 1'
_cell_length_a   5.70483000
_cell_length_b   8.98446000
_cell_length_c   10.88199671
_cell_angle_alpha   79.89215516
_cell_angle_beta   76.24559064
_cell_angle_gamma   74.43700000
_symmetry_Int_Tables_number   1
_chemical_formula_structural   CuH24C24(NO)4
_chemical_formula_sum   'Cu1 H24 C24 N4 O4'
_cell_volume   518.16470039
_cell_formula_units_Z   1
loop_
 _symmetry_equiv_pos_site_id
 _symmetry_equiv_pos_as_xyz
  1  'x, y, z'
loop_
 _atom_site_type_symbol
 _atom_site_label
 _atom_site_symmetry_multiplicity
 _atom_site_fract_x
 _atom_site_fract_y
 _atom_site_fract_z
 _atom_site_occupancy
  Cu  Cu0  1  0.99999000  0.50000000  0.49999000  1.0
  H  H1  1  0.54541000  0.40374000  0.40057000  1.0
  H  H2  1  0.45459000  0.59626000  0.59943000  1.0
  H  H3  1  0.90354000  0.20209000  0.45684000  1.0
  H  H4  1  0.09644000  0.79793000  0.54317000  1.0
  H  H5  1  0.82906000  0.99408000  0.64430000  1.0
  H  H6  1  0.17091000  0.00593000  0.35572000  1.0
  H  H7  1  0.04868000  0.21144000  0.68719000  1.0
  H  H8  1  0.95131000  0.78856000  0.31280000  1.0
  H  H9  1  0.38364000  0.85375000  0.73918000  1.0
  H  H10  1  0.61630000  0.14628000  0.26081000  1.0
  H  H11  1  0.54142000  0.91978000  0.83216000  1.0
  H  H12  1  0.45856000  0.08022000  0.16783000  1.0
  H  H13  1  0.15899000  0.22161000  0.88571000  1.0
  H  H14  1  0.84094000  0.77841000  0.11429000  1.0
  H  H15  1  0.29787000  0.07804000  0.99896000  1.0
  H  H16  1  0.70212000  0.92198000  0.00103000  1.0
  H  H17  1  0.25670000  0.80364000  0.00790000  1.0
  H  H18  1  0.74328000  0.19638000  0.99212000  1.0
  H  H19  1  0.10182000  0.76672000  0.89594000  1.0
  H  H20  1  0.89817000  0.23328000  0.10409000  1.0
  H  H21  1  0.58201000  0.58837000  0.18672000  1.0
  H  H22  1  0.41806000  0.41158000  0.81330000  1.0
  H  H23  1  0.14609000  0.37812000  0.02955000  1.0
  H  H24  1  0.85400000  0.62184000  0.97046000  1.0
  C  C25  1  0.51829000  0.31202000  0.47857000  1.0
  C  C26  1  0.48171000  0.68798000  0.52141000  1.0
  C  C27  1  0.71864000  0.19686000  0.51147000  1.0
  C  C28  1  0.28135000  0.80314000  0.48852000  1.0
  C  C29  1  0.67564000  0.08305000  0.61290000  1.0
  C  C30  1  0.32435000  0.91696000  0.38710000  1.0
  C  C31  1  0.43167000  0.08376000  0.67706000  1.0
  C  C32  1  0.56831000  0.91625000  0.32293000  1.0
  C  C33  1  0.24102000  0.20359000  0.63840000  1.0
  C  C34  1  0.75898000  0.79641000  0.36159000  1.0
  C  C35  1  0.38190000  0.95620000  0.78258000  1.0
  C  C36  1  0.61805000  0.04381000  0.21743000  1.0
  C  C37  1  0.13955000  0.11375000  0.94860000  1.0
  C  C38  1  0.86041000  0.88626000  0.05141000  1.0
  C  C39  1  0.10352000  0.85346000  0.95533000  1.0
  C  C40  1  0.89647000  0.14655000  0.04468000  1.0
  C  C41  1  0.17929000  0.45981000  0.24797000  1.0
  C  C42  1  0.82077000  0.54018000  0.75202000  1.0
  C  C43  1  0.34689000  0.48100000  0.12039000  1.0
  C  C44  1  0.65316000  0.51898000  0.87961000  1.0
  C  C45  1  0.54687000  0.55008000  0.10465000  1.0
  C  C46  1  0.45318000  0.44990000  0.89535000  1.0
  C  C47  1  0.30225000  0.43112000  0.01504000  1.0
  C  C48  1  0.69780000  0.56886000  0.98496000  1.0
  N  N49  1  0.28338000  0.31644000  0.54210000  1.0
  N  N50  1  0.71661000  0.68356000  0.45788000  1.0
  N  N51  1  0.14536000  0.99443000  0.87139000  1.0
  N  N52  1  0.85462000  0.00558000  0.12862000  1.0
  O  O53  1  0.19898000  0.54126000  0.33146000  1.0
  O  O54  1  0.80101000  0.45875000  0.66854000  1.0
  O  O55  1  0.03573000  0.37062000  0.26890000  1.0
  O  O56  1  0.96434000  0.62936000  0.73109000  1.0
