# generated using pymatgen
data_H10Pb2C12I2N2O5
_symmetry_space_group_name_H-M   'P 1'
_cell_length_a   7.92544000
_cell_length_b   11.14400000
_cell_length_c   11.14390000
_cell_angle_alpha   112.93600000
_cell_angle_beta   93.08810000
_cell_angle_gamma   93.08900000
_symmetry_Int_Tables_number   1
_chemical_formula_structural   H10Pb2C12I2N2O5
_chemical_formula_sum   'H20 Pb4 C24 I4 N4 O10'
_cell_volume   902.10625456
_cell_formula_units_Z   2
loop_
 _symmetry_equiv_pos_site_id
 _symmetry_equiv_pos_as_xyz
  1  'x, y, z'
loop_
 _atom_site_type_symbol
 _atom_site_label
 _atom_site_symmetry_multiplicity
 _atom_site_fract_x
 _atom_site_fract_y
 _atom_site_fract_z
 _atom_site_occupancy
  H  H0  1  0.79028000  0.99449000  0.48376000  1.0
  H  H1  1  0.70970000  0.51624000  0.00551000  1.0
  H  H2  1  0.20971000  0.00552000  0.51623000  1.0
  H  H3  1  0.29026000  0.48375000  0.99448000  1.0
  H  H4  1  0.56453000  0.98827000  0.80931000  1.0
  H  H5  1  0.93546000  0.19071000  0.01175000  1.0
  H  H6  1  0.43546000  0.01174000  0.19070000  1.0
  H  H7  1  0.06451000  0.80930000  0.98825000  1.0
  H  H8  1  0.43540000  0.19889000  0.84683000  1.0
  H  H9  1  0.06459000  0.15317000  0.80113000  1.0
  H  H10  1  0.56461000  0.80113000  0.15318000  1.0
  H  H11  1  0.93539000  0.84682000  0.19888000  1.0
  H  H12  1  0.66463000  0.20109000  0.50444000  1.0
  H  H13  1  0.83536000  0.49557000  0.79892000  1.0
  H  H14  1  0.33536000  0.79893000  0.49557000  1.0
  H  H15  1  0.16464000  0.50443000  0.20107000  1.0
  H  H16  1  0.85062000  0.44212000  0.56000000  1.0
  H  H17  1  0.64936000  0.44001000  0.55788000  1.0
  H  H18  1  0.14937000  0.55787000  0.44000000  1.0
  H  H19  1  0.35063000  0.56000000  0.44211000  1.0
  Pb  Pb20  1  0.79032000  0.74892000  0.59942000  1.0
  Pb  Pb21  1  0.70973000  0.40052000  0.25099000  1.0
  Pb  Pb22  1  0.20976000  0.25102000  0.40056000  1.0
  Pb  Pb23  1  0.29029000  0.59944000  0.74895000  1.0
  C  C24  1  0.46347000  0.34244000  0.69658000  1.0
  C  C25  1  0.03649000  0.30340000  0.65755000  1.0
  C  C26  1  0.53655000  0.65756000  0.30343000  1.0
  C  C27  1  0.96349000  0.69659000  0.34245000  1.0
  C  C28  1  0.70992000  0.04209000  0.56216000  1.0
  C  C29  1  0.79006000  0.43784000  0.95791000  1.0
  C  C30  1  0.29007000  0.95791000  0.43783000  1.0
  C  C31  1  0.20992000  0.56217000  0.04208000  1.0
  C  C32  1  0.58463000  0.03910000  0.74433000  1.0
  C  C33  1  0.91536000  0.25568000  0.96091000  1.0
  C  C34  1  0.41539000  0.96091000  0.25568000  1.0
  C  C35  1  0.08461000  0.74432000  0.03909000  1.0
  C  C36  1  0.51199000  0.15569000  0.76464000  1.0
  C  C37  1  0.98801000  0.23537000  0.84431000  1.0
  C  C38  1  0.48804000  0.84432000  0.23538000  1.0
  C  C39  1  0.01197000  0.76463000  0.15569000  1.0
  C  C40  1  0.63991000  0.15771000  0.57474000  1.0
  C  C41  1  0.86008000  0.42527000  0.84229000  1.0
  C  C42  1  0.36010000  0.84231000  0.42528000  1.0
  C  C43  1  0.13991000  0.57473000  0.15770000  1.0
  C  C44  1  0.53950000  0.21636000  0.67810000  1.0
  C  C45  1  0.96048000  0.32190000  0.78363000  1.0
  C  C46  1  0.46053000  0.78365000  0.32192000  1.0
  C  C47  1  0.03950000  0.67810000  0.21636000  1.0
  I  I48  1  0.63424000  0.75689000  0.87671000  1.0
  I  I49  1  0.86579000  0.12330000  0.24313000  1.0
  I  I50  1  0.36577000  0.24312000  0.12327000  1.0
  I  I51  1  0.13421000  0.87675000  0.75690000  1.0
  N  N52  1  0.68192000  0.98304000  0.64508000  1.0
  N  N53  1  0.81807000  0.35492000  0.01696000  1.0
  N  N54  1  0.31809000  0.01696000  0.35492000  1.0
  N  N55  1  0.18191000  0.64508000  0.98303000  1.0
  O  O56  1  0.39720000  0.40344000  0.80163000  1.0
  O  O57  1  0.10279000  0.19836000  0.59656000  1.0
  O  O58  1  0.60281000  0.59656000  0.19838000  1.0
  O  O59  1  0.89723000  0.80164000  0.40345000  1.0
  O  O60  1  0.46831000  0.38251000  0.60256000  1.0
  O  O61  1  0.03165000  0.39742000  0.61747000  1.0
  O  O62  1  0.53171000  0.61751000  0.39746000  1.0
  O  O63  1  0.96833000  0.60256000  0.38251000  1.0
  O  O64  1  0.75000000  0.47314000  0.52685000  1.0
  O  O65  1  0.25000000  0.52685000  0.47313000  1.0
