# generated using pymatgen
data_ZnH14C32(NO4)2
_symmetry_space_group_name_H-M   'P 1'
_cell_length_a   14.25480000
_cell_length_b   15.20910000
_cell_length_c   23.79740000
_cell_angle_alpha   92.38640000
_cell_angle_beta   89.51880000
_cell_angle_gamma   89.57270000
_symmetry_Int_Tables_number   1
_chemical_formula_structural   ZnH14C32(NO4)2
_chemical_formula_sum   'Zn2 H28 C64 N4 O16'
_cell_volume   5154.52639639
_cell_formula_units_Z   2
loop_
 _symmetry_equiv_pos_site_id
 _symmetry_equiv_pos_as_xyz
  1  'x, y, z'
loop_
 _atom_site_type_symbol
 _atom_site_label
 _atom_site_symmetry_multiplicity
 _atom_site_fract_x
 _atom_site_fract_y
 _atom_site_fract_z
 _atom_site_occupancy
  Zn  Zn0  1  0.60140000  0.49860000  0.49860000  1.0
  Zn  Zn1  1  0.39860000  0.50140000  0.50140000  1.0
  H  H2  1  0.91849000  0.32201000  0.40843000  1.0
  H  H3  1  0.08151000  0.67799000  0.59157000  1.0
  H  H4  1  0.90964000  0.67730000  0.59094000  1.0
  H  H5  1  0.09036000  0.32269000  0.40907000  1.0
  H  H6  1  0.42563000  0.29061000  0.94128000  1.0
  H  H7  1  0.57437000  0.70939000  0.05872000  1.0
  H  H8  1  0.65104000  0.49866000  0.67924000  1.0
  H  H9  1  0.65010000  0.49508000  0.31889000  1.0
  H  H10  1  0.61895000  0.77379000  0.44181000  1.0
  H  H11  1  0.38105000  0.22621000  0.55819000  1.0
  H  H12  1  0.42575000  0.29020000  0.04762000  1.0
  H  H13  1  0.57425000  0.70980000  0.95238000  1.0
  H  H14  1  0.67710000  0.07602000  0.40366000  1.0
  H  H15  1  0.32290000  0.92398000  0.59634000  1.0
  H  H16  1  0.67169000  0.60690000  0.57627000  1.0
  H  H17  1  0.32831000  0.39309000  0.42373000  1.0
  H  H18  1  0.67733000  0.39274000  0.42157000  1.0
  H  H19  1  0.32267000  0.60726000  0.57843000  1.0
  H  H20  1  0.65146000  0.49784000  0.78457000  1.0
  H  H21  1  0.65037000  0.49610000  0.21360000  1.0
  H  H22  1  0.34990000  0.50491000  0.68111000  1.0
  H  H23  1  0.34896000  0.50134000  0.32077000  1.0
  H  H24  1  0.34963000  0.50390000  0.78640000  1.0
  H  H25  1  0.34854000  0.50216000  0.21543000  1.0
  H  H26  1  0.38466000  0.78129000  0.55743000  1.0
  H  H27  1  0.61534000  0.21871000  0.44257000  1.0
  H  H28  1  0.67949000  0.91312000  0.40375000  1.0
  H  H29  1  0.32051000  0.08687000  0.59625000  1.0
  C  C30  1  0.49860000  0.32939000  0.50157000  1.0
  C  C31  1  0.50140000  0.67061000  0.49842000  1.0
  C  C32  1  0.58573000  0.49932000  0.76154000  1.0
  C  C33  1  0.58465000  0.49694000  0.23738000  1.0
  C  C34  1  0.58544000  0.50011000  0.70306000  1.0
  C  C35  1  0.58450000  0.49632000  0.29581000  1.0
  C  C36  1  0.50043000  0.50242000  0.67402000  1.0
  C  C37  1  0.49957000  0.49758000  0.32598000  1.0
  C  C38  1  0.41549000  0.50367000  0.70420000  1.0
  C  C39  1  0.41455000  0.49989000  0.29694000  1.0
  C  C40  1  0.41535000  0.50305000  0.76262000  1.0
  C  C41  1  0.41427000  0.50068000  0.23847000  1.0
  C  C42  1  0.50060000  0.50090000  0.79089000  1.0
  C  C43  1  0.49940000  0.49910000  0.20911000  1.0
  C  C44  1  0.43596000  0.81607000  0.53260000  1.0
  C  C45  1  0.56404000  0.18393000  0.46740000  1.0
  C  C46  1  0.50191000  0.76864000  0.49943000  1.0
  C  C47  1  0.49809000  0.23136000  0.50057000  1.0
  C  C48  1  0.56780000  0.81217000  0.46699000  1.0
  C  C49  1  0.43221000  0.18783000  0.53301000  1.0
  C  C50  1  0.56696000  0.90425000  0.46557000  1.0
  C  C51  1  0.43304000  0.09575000  0.53442000  1.0
  C  C52  1  0.49937000  0.50362000  0.61114000  1.0
  C  C53  1  0.50063000  0.49638000  0.38887000  1.0
  C  C54  1  0.50068000  0.95329000  0.50005000  1.0
  C  C55  1  0.49932000  0.04671000  0.49995000  1.0
  C  C56  1  0.43561000  0.90831000  0.53452000  1.0
  C  C57  1  0.56439000  0.09169000  0.46548000  1.0
  C  C58  1  0.63015000  0.95109000  0.43058000  1.0
  C  C59  1  0.36986000  0.04891000  0.56941000  1.0
  C  C60  1  0.62886000  0.04089000  0.43046000  1.0
  C  C61  1  0.37114000  0.95911000  0.56954000  1.0
  C  C62  1  0.79889000  0.56305000  0.52872000  1.0
  C  C63  1  0.20111000  0.43695000  0.47128000  1.0
  C  C64  1  0.80198000  0.43548000  0.46953000  1.0
  C  C65  1  0.19802000  0.56452000  0.53048000  1.0
  C  C66  1  0.90156000  0.43357000  0.46788000  1.0
  C  C67  1  0.09844000  0.56643000  0.53212000  1.0
  C  C68  1  0.89836000  0.56560000  0.53131000  1.0
  C  C69  1  0.10164000  0.43440000  0.46870000  1.0
  C  C70  1  0.95004000  0.49977000  0.49982000  1.0
  C  C71  1  0.04997000  0.50023000  0.50018000  1.0
  C  C72  1  0.95527000  0.37089000  0.43429000  1.0
  C  C73  1  0.04473000  0.62911000  0.56571000  1.0
  C  C74  1  0.94881000  0.62872000  0.56533000  1.0
  C  C75  1  0.05119000  0.37128000  0.43467000  1.0
  C  C76  1  0.52758000  0.57787000  0.12350000  1.0
  C  C77  1  0.47242000  0.42213000  0.87650000  1.0
  C  C78  1  0.47227000  0.42111000  0.11932000  1.0
  C  C79  1  0.52773000  0.57889000  0.88068000  1.0
  C  C80  1  0.47269000  0.42292000  0.05707000  1.0
  C  C81  1  0.52731000  0.57707000  0.94293000  1.0
  C  C82  1  0.50000000  0.49988000  0.02993000  1.0
  C  C83  1  0.50000000  0.50012000  0.97007000  1.0
  C  C84  1  0.52731000  0.57658000  0.06116000  1.0
  C  C85  1  0.47269000  0.42342000  0.93884000  1.0
  C  C86  1  0.44628000  0.34843000  0.02547000  1.0
  C  C87  1  0.55372000  0.65157000  0.97453000  1.0
  C  C88  1  0.44622000  0.34867000  0.96647000  1.0
  C  C89  1  0.55378000  0.65133000  0.03353000  1.0
  C  C90  1  0.73973000  0.63093000  0.56065000  1.0
  C  C91  1  0.26027000  0.36907000  0.43935000  1.0
  C  C92  1  0.74558000  0.36854000  0.43658000  1.0
  C  C93  1  0.25442000  0.63146000  0.56342000  1.0
  N  N94  1  0.49947000  0.49950000  0.14846000  1.0
  N  N95  1  0.50053000  0.50050000  0.85154000  1.0
  N  N96  1  0.75327000  0.49906000  0.49900000  1.0
  N  N97  1  0.24673000  0.50094000  0.50100000  1.0
  O  O98  1  0.57823000  0.36669000  0.49809000  1.0
  O  O99  1  0.42177000  0.63331000  0.50191000  1.0
  O  O100  1  0.58039000  0.63069000  0.49409000  1.0
  O  O101  1  0.41962000  0.36931000  0.50591000  1.0
  O  O102  1  0.57830000  0.50247000  0.58534000  1.0
  O  O103  1  0.42170000  0.49753000  0.41466000  1.0
  O  O104  1  0.58080000  0.49397000  0.41203000  1.0
  O  O105  1  0.41919000  0.50603000  0.58797000  1.0
  O  O106  1  0.55041000  0.64267000  0.15259000  1.0
  O  O107  1  0.44959000  0.35733000  0.84741000  1.0
  O  O108  1  0.45006000  0.35586000  0.14492000  1.0
  O  O109  1  0.54994000  0.64414000  0.85509000  1.0
  O  O110  1  0.76609000  0.70636000  0.57033000  1.0
  O  O111  1  0.23391000  0.29364000  0.42968000  1.0
  O  O112  1  0.77343000  0.29333000  0.42553000  1.0
  O  O113  1  0.22657000  0.70667000  0.57447000  1.0
