# generated using pymatgen
data_NiH46C44(NO3)2
_symmetry_space_group_name_H-M   'P 1'
_cell_length_a   7.83408000
_cell_length_b   10.75610000
_cell_length_c   11.38670000
_cell_angle_alpha   82.49970000
_cell_angle_beta   81.91240000
_cell_angle_gamma   70.66170000
_symmetry_Int_Tables_number   1
_chemical_formula_structural   NiH46C44(NO3)2
_chemical_formula_sum   'Ni1 H46 C44 N2 O6'
_cell_volume   892.72537773
_cell_formula_units_Z   1
loop_
 _symmetry_equiv_pos_site_id
 _symmetry_equiv_pos_as_xyz
  1  'x, y, z'
loop_
 _atom_site_type_symbol
 _atom_site_label
 _atom_site_symmetry_multiplicity
 _atom_site_fract_x
 _atom_site_fract_y
 _atom_site_fract_z
 _atom_site_occupancy
  Ni  Ni0  1  0.00000000  0.49999000  0.00001000  1.0
  H  H1  1  0.53006000  0.26783000  0.13042000  1.0
  H  H2  1  0.46994000  0.73217000  0.86957000  1.0
  H  H3  1  0.48603000  0.42094000  0.18780000  1.0
  H  H4  1  0.51396000  0.57906000  0.81220000  1.0
  H  H5  1  0.76804000  0.32894000  0.29235000  1.0
  H  H6  1  0.23196000  0.67105000  0.70765000  1.0
  H  H7  1  0.71158000  0.96354000  0.82529000  1.0
  H  H8  1  0.28842000  0.03644000  0.17470000  1.0
  H  H9  1  0.64870000  0.38137000  0.47739000  1.0
  H  H10  1  0.35132000  0.61862000  0.52261000  1.0
  H  H11  1  0.45836000  0.85097000  0.16789000  1.0
  H  H12  1  0.54168000  0.14903000  0.83213000  1.0
  H  H13  1  0.92127000  0.73671000  0.82807000  1.0
  H  H14  1  0.07874000  0.26327000  0.17193000  1.0
  H  H15  1  0.68329000  0.62810000  0.15523000  1.0
  H  H16  1  0.31674000  0.37189000  0.84478000  1.0
  H  H17  1  0.74685000  0.09143000  0.09704000  1.0
  H  H18  1  0.25312000  0.90857000  0.90296000  1.0
  H  H19  1  0.25351000  0.09906000  0.50372000  1.0
  H  H20  1  0.74647000  0.90095000  0.49629000  1.0
  H  H21  1  0.96127000  0.13501000  0.41185000  1.0
  H  H22  1  0.03873000  0.86499000  0.58814000  1.0
  H  H23  1  0.45495000  0.11892000  0.31843000  1.0
  H  H24  1  0.54503000  0.88108000  0.68158000  1.0
  H  H25  1  0.24872000  0.21954000  0.67703000  1.0
  H  H26  1  0.75127000  0.78046000  0.32297000  1.0
  H  H27  1  0.18970000  0.77542000  0.23601000  1.0
  H  H28  1  0.81030000  0.22458000  0.76397000  1.0
  H  H29  1  0.45013000  0.36053000  0.66298000  1.0
  H  H30  1  0.54988000  0.63946000  0.33702000  1.0
  H  H31  1  0.18812000  0.91080000  0.39928000  1.0
  H  H32  1  0.81188000  0.08919000  0.60070000  1.0
  H  H33  1  0.97120000  0.86769000  0.08557000  1.0
  H  H34  1  0.02879000  0.13231000  0.91442000  1.0
  H  H35  1  0.81264000  0.53067000  0.53319000  1.0
  H  H36  1  0.18737000  0.46937000  0.46682000  1.0
  H  H37  1  0.72077000  0.43380000  0.64628000  1.0
  H  H38  1  0.27923000  0.56624000  0.35371000  1.0
  H  H39  1  0.94879000  0.36722000  0.58123000  1.0
  H  H40  1  0.05121000  0.63280000  0.41876000  1.0
  H  H41  1  0.03120000  0.54238000  0.66761000  1.0
  H  H42  1  0.96882000  0.45762000  0.33240000  1.0
  H  H43  1  0.80432000  0.60321000  0.73413000  1.0
  H  H44  1  0.19570000  0.39681000  0.26588000  1.0
  H  H45  1  0.85664000  0.40251000  0.85203000  1.0
  H  H46  1  0.14336000  0.59750000  0.14797000  1.0
  C  C47  1  0.71678000  0.37451000  0.06085000  1.0
  C  C48  1  0.28322000  0.62548000  0.93915000  1.0
  C  C49  1  0.56327000  0.93176000  0.99793000  1.0
  C  C50  1  0.43675000  0.06823000  0.00207000  1.0
  C  C51  1  0.56495000  0.25270000  0.38467000  1.0
  C  C52  1  0.43503000  0.74728000  0.61533000  1.0
  C  C53  1  0.83529000  0.12849000  0.25692000  1.0
  C  C54  1  0.16469000  0.87151000  0.74307000  1.0
  C  C55  1  0.59539000  0.33023000  0.16354000  1.0
  C  C56  1  0.40460000  0.66977000  0.83646000  1.0
  C  C57  1  0.69438000  0.26363000  0.27383000  1.0
  C  C58  1  0.30561000  0.73637000  0.72617000  1.0
  C  C59  1  0.69582000  0.89416000  0.90114000  1.0
  C  C60  1  0.30419000  0.10583000  0.09886000  1.0
  C  C61  1  0.56239000  0.31892000  0.48318000  1.0
  C  C62  1  0.43761000  0.68107000  0.51681000  1.0
  C  C63  1  0.55823000  0.83241000  0.09023000  1.0
  C  C64  1  0.44180000  0.16759000  0.90978000  1.0
  C  C65  1  0.81575000  0.76617000  0.90119000  1.0
  C  C66  1  0.18426000  0.23382000  0.09881000  1.0
  C  C67  1  0.68273000  0.70643000  0.08461000  1.0
  C  C68  1  0.31729000  0.29356000  0.91540000  1.0
  C  C69  1  0.84104000  0.05233000  0.16483000  1.0
  C  C70  1  0.15894000  0.94767000  0.83517000  1.0
  C  C71  1  0.33916000  0.16194000  0.49769000  1.0
  C  C72  1  0.66082000  0.83806000  0.50231000  1.0
  C  C73  1  0.96266000  0.07584000  0.34050000  1.0
  C  C74  1  0.03733000  0.92416000  0.65949000  1.0
  C  C75  1  0.45196000  0.17368000  0.39335000  1.0
  C  C76  1  0.54801000  0.82632000  0.60665000  1.0
  C  C77  1  0.33800000  0.22810000  0.59591000  1.0
  C  C78  1  0.66199000  0.77189000  0.40409000  1.0
  C  C79  1  0.09190000  0.87401000  0.24234000  1.0
  C  C80  1  0.90809000  0.12599000  0.75765000  1.0
  C  C81  1  0.45038000  0.30678000  0.58796000  1.0
  C  C82  1  0.54962000  0.69321000  0.41204000  1.0
  C  C83  1  0.08968000  0.94985000  0.33382000  1.0
  C  C84  1  0.91031000  0.05015000  0.66617000  1.0
  C  C85  1  0.96823000  0.92598000  0.15767000  1.0
  C  C86  1  0.03176000  0.07402000  0.84232000  1.0
  C  C87  1  0.84495000  0.45785000  0.61042000  1.0
  C  C88  1  0.15506000  0.54218000  0.38958000  1.0
  C  C89  1  0.91106000  0.51309000  0.70470000  1.0
  C  C90  1  0.08896000  0.48692000  0.29531000  1.0
  N  N91  1  0.81222000  0.67281000  0.99229000  1.0
  N  N92  1  0.18779000  0.32717000  0.00772000  1.0
  O  O93  1  0.82961000  0.42312000  0.09649000  1.0
  O  O94  1  0.17040000  0.57687000  0.90352000  1.0
  O  O95  1  0.69878000  0.36533000  0.95496000  1.0
  O  O96  1  0.30123000  0.63467000  0.04504000  1.0
  O  O97  1  0.96561000  0.41816000  0.80318000  1.0
  O  O98  1  0.03439000  0.58185000  0.19683000  1.0
