# generated using pymatgen
data_ZnH17C28NO4
_symmetry_space_group_name_H-M   'P 1'
_cell_length_a   16.61020000
_cell_length_b   17.16480000
_cell_length_c   17.66620000
_cell_angle_alpha   88.17100000
_cell_angle_beta   89.17840000
_cell_angle_gamma   85.44480000
_symmetry_Int_Tables_number   1
_chemical_formula_structural   ZnH17C28NO4
_chemical_formula_sum   'Zn2 H34 C56 N2 O8'
_cell_volume   5018.00360890
_cell_formula_units_Z   2
loop_
 _symmetry_equiv_pos_site_id
 _symmetry_equiv_pos_as_xyz
  1  'x, y, z'
loop_
 _atom_site_type_symbol
 _atom_site_label
 _atom_site_symmetry_multiplicity
 _atom_site_fract_x
 _atom_site_fract_y
 _atom_site_fract_z
 _atom_site_occupancy
  Zn  Zn0  1  0.41456000  0.48478000  0.49804000  1.0
  Zn  Zn1  1  0.58818000  0.49259000  0.48905000  1.0
  H  H2  1  0.58751000  0.71060000  0.57598000  1.0
  H  H3  1  0.33973000  0.74479000  0.50964000  1.0
  H  H4  1  0.58567000  0.97964000  0.59628000  1.0
  H  H5  1  0.40433000  0.99527000  0.55989000  1.0
  H  H6  1  0.33893000  0.88668000  0.53708000  1.0
  H  H7  1  0.63833000  0.10669000  0.61829000  1.0
  H  H8  1  0.41446000  0.09872000  0.49893000  1.0
  H  H9  1  0.58731000  0.85059000  0.60719000  1.0
  H  H10  1  0.38460000  0.59253000  0.85290000  1.0
  H  H11  1  0.61619000  0.49020000  0.11009000  1.0
  H  H12  1  0.39387000  0.56252000  0.71511000  1.0
  H  H13  1  0.41692000  0.23903000  0.46427000  1.0
  H  H14  1  0.61244000  0.46614000  0.25021000  1.0
  H  H15  1  0.63848000  0.46703000  0.74294000  1.0
  H  H16  1  0.36837000  0.56826000  0.25935000  1.0
  H  H17  1  0.62880000  0.49146000  0.88187000  1.0
  H  H18  1  0.37143000  0.59429000  0.11937000  1.0
  H  H19  1  0.23655000  0.47952000  0.71844000  1.0
  H  H20  1  0.31030000  0.40617000  0.82306000  1.0
  H  H21  1  0.40534000  0.29088000  0.79507000  1.0
  H  H22  1  0.42640000  0.24919000  0.66163000  1.0
  H  H23  1  0.35499000  0.32420000  0.55733000  1.0
  H  H24  1  0.13642000  0.55893000  0.40130000  1.0
  H  H25  1  0.65505000  0.56369000  0.33376000  1.0
  H  H26  1  0.57668000  0.67246000  0.26589000  1.0
  H  H27  1  0.57543000  0.80827000  0.31277000  1.0
  H  H28  1  0.65529000  0.83433000  0.42611000  1.0
  H  H29  1  0.73609000  0.72536000  0.49239000  1.0
  H  H30  1  0.87179000  0.39843000  0.55433000  1.0
  H  H31  1  0.28727000  0.53288000  0.40275000  1.0
  H  H32  1  0.72296000  0.39765000  0.53220000  1.0
  H  H33  1  0.13080000  0.44192000  0.62147000  1.0
  H  H34  1  0.85908000  0.62942000  0.44800000  1.0
  H  H35  1  0.64117000  0.24744000  0.58000000  1.0
  C  C36  1  0.48873000  0.50045000  0.34733000  1.0
  C  C37  1  0.42233000  0.55156000  0.22602000  1.0
  C  C38  1  0.57777000  0.50776000  0.84497000  1.0
  C  C39  1  0.42409000  0.56610000  0.14818000  1.0
  C  C40  1  0.50562000  0.54259000  0.87687000  1.0
  C  C41  1  0.49382000  0.54326000  0.10514000  1.0
  C  C42  1  0.49947000  0.55116000  0.95615000  1.0
  C  C43  1  0.49559000  0.55145000  0.02526000  1.0
  C  C44  1  0.16636000  0.52866000  0.44947000  1.0
  C  C45  1  0.83821000  0.44850000  0.52722000  1.0
  C  C46  1  0.24957000  0.51394000  0.44985000  1.0
  C  C47  1  0.52068000  0.49390000  0.63919000  1.0
  C  C48  1  0.75619000  0.44766000  0.51465000  1.0
  C  C49  1  0.24763000  0.45048000  0.56873000  1.0
  C  C50  1  0.74828000  0.57239000  0.45708000  1.0
  C  C51  1  0.46807000  0.63727000  0.51358000  1.0
  C  C52  1  0.52766000  0.33783000  0.49987000  1.0
  C  C53  1  0.16347000  0.46401000  0.57249000  1.0
  C  C54  1  0.83089000  0.57750000  0.46850000  1.0
  C  C55  1  0.12130000  0.50274000  0.51220000  1.0
  C  C56  1  0.87758000  0.51479000  0.50297000  1.0
  C  C57  1  0.03584000  0.51177000  0.51256000  1.0
  C  C58  1  0.43980000  0.56424000  0.82887000  1.0
  C  C59  1  0.96234000  0.51565000  0.50979000  1.0
  C  C60  1  0.46463000  0.72002000  0.53827000  1.0
  C  C61  1  0.52896000  0.25236000  0.52018000  1.0
  C  C62  1  0.53342000  0.75003000  0.56801000  1.0
  C  C63  1  0.46480000  0.20963000  0.49867000  1.0
  C  C64  1  0.53286000  0.82842000  0.58502000  1.0
  C  C65  1  0.46326000  0.13117000  0.51918000  1.0
  C  C66  1  0.46378000  0.87996000  0.57118000  1.0
  C  C67  1  0.52532000  0.09204000  0.56306000  1.0
  C  C68  1  0.39347000  0.84786000  0.54633000  1.0
  C  C69  1  0.56220000  0.50771000  0.14311000  1.0
  C  C70  1  0.58944000  0.13556000  0.58448000  1.0
  C  C71  1  0.39363000  0.76908000  0.53037000  1.0
  C  C72  1  0.59145000  0.21424000  0.56312000  1.0
  C  C73  1  0.46309000  0.96467000  0.57285000  1.0
  C  C74  1  0.52683000  0.00828000  0.58045000  1.0
  C  C75  1  0.29085000  0.40631000  0.63107000  1.0
  C  C76  1  0.27748000  0.42837000  0.70633000  1.0
  C  C77  1  0.31900000  0.38724000  0.76497000  1.0
  C  C78  1  0.37271000  0.32281000  0.74915000  1.0
  C  C79  1  0.38483000  0.29958000  0.67451000  1.0
  C  C80  1  0.44494000  0.54795000  0.75236000  1.0
  C  C81  1  0.34433000  0.34128000  0.61564000  1.0
  C  C82  1  0.70078000  0.63740000  0.41720000  1.0
  C  C83  1  0.65590000  0.62312000  0.35321000  1.0
  C  C84  1  0.61148000  0.68447000  0.31552000  1.0
  C  C85  1  0.61110000  0.76046000  0.34166000  1.0
  C  C86  1  0.65637000  0.77524000  0.40498000  1.0
  C  C87  1  0.70180000  0.71414000  0.44215000  1.0
  C  C88  1  0.56009000  0.49428000  0.22093000  1.0
  C  C89  1  0.51617000  0.51195000  0.72149000  1.0
  C  C90  1  0.49001000  0.51531000  0.26327000  1.0
  C  C91  1  0.58301000  0.49358000  0.76809000  1.0
  N  N92  1  0.28984000  0.47567000  0.50751000  1.0
  N  N93  1  0.71181000  0.50750000  0.48014000  1.0
  O  O94  1  0.42060000  0.50634000  0.38142000  1.0
  O  O95  1  0.59004000  0.48983000  0.60743000  1.0
  O  O96  1  0.55705000  0.48358000  0.37835000  1.0
  O  O97  1  0.45366000  0.48480000  0.60758000  1.0
  O  O98  1  0.40167000  0.60586000  0.50741000  1.0
  O  O99  1  0.59342000  0.37085000  0.50311000  1.0
  O  O100  1  0.53843000  0.60476000  0.50031000  1.0
  O  O101  1  0.45893000  0.37155000  0.48198000  1.0
