# generated using pymatgen
data_Cu3H4C8N7
_symmetry_space_group_name_H-M   'P 1'
_cell_length_a   8.46743000
_cell_length_b   8.46748000
_cell_length_c   8.62304000
_cell_angle_alpha   63.70260000
_cell_angle_beta   63.70250000
_cell_angle_gamma   88.80110000
_symmetry_Int_Tables_number   1
_chemical_formula_structural   Cu3H4C8N7
_chemical_formula_sum   'Cu6 H8 C16 N14'
_cell_volume   484.93352910
_cell_formula_units_Z   2
loop_
 _symmetry_equiv_pos_site_id
 _symmetry_equiv_pos_as_xyz
  1  'x, y, z'
loop_
 _atom_site_type_symbol
 _atom_site_label
 _atom_site_symmetry_multiplicity
 _atom_site_fract_x
 _atom_site_fract_y
 _atom_site_fract_z
 _atom_site_occupancy
  Cu  Cu0  1  0.71842000  0.91456000  0.40610000  1.0
  Cu  Cu1  1  0.08544000  0.28158000  0.09390000  1.0
  Cu  Cu2  1  0.28158000  0.08544000  0.59390000  1.0
  Cu  Cu3  1  0.91456000  0.71842000  0.90609000  1.0
  Cu  Cu4  1  0.94648000  0.05353000  0.75000000  1.0
  Cu  Cu5  1  0.05352000  0.94647000  0.25000000  1.0
  H  H6  1  0.63756000  0.09983000  0.05603000  1.0
  H  H7  1  0.90017000  0.36244000  0.44398000  1.0
  H  H8  1  0.36244000  0.90017000  0.94397000  1.0
  H  H9  1  0.09983000  0.63756000  0.55602000  1.0
  H  H10  1  0.42047000  0.30269000  0.06955000  1.0
  H  H11  1  0.69731000  0.57953000  0.43045000  1.0
  H  H12  1  0.57954000  0.69732000  0.93045000  1.0
  H  H13  1  0.30269000  0.42047000  0.56955000  1.0
  C  C14  1  0.64537000  0.20772000  0.92093000  1.0
  C  C15  1  0.79228000  0.35463000  0.57908000  1.0
  C  C16  1  0.35463000  0.79229000  0.07907000  1.0
  C  C17  1  0.20772000  0.64536000  0.42093000  1.0
  C  C18  1  0.52528000  0.32172000  0.92733000  1.0
  C  C19  1  0.67828000  0.47472000  0.57268000  1.0
  C  C20  1  0.47472000  0.67828000  0.07267000  1.0
  C  C21  1  0.32172000  0.52528000  0.42733000  1.0
  C  C22  1  0.54097000  0.45903000  0.75000000  1.0
  C  C23  1  0.45903000  0.54097000  0.25000000  1.0
  C  C24  1  0.41758000  0.58242000  0.75000000  1.0
  C  C25  1  0.58242000  0.41758000  0.25000000  1.0
  C  C26  1  0.83604000  0.86556000  0.03493000  1.0
  C  C27  1  0.13444000  0.16396000  0.46507000  1.0
  C  C28  1  0.16397000  0.13444000  0.96507000  1.0
  C  C29  1  0.86556000  0.83604000  0.53493000  1.0
  N  N30  1  0.46664000  0.76231000  0.62734000  1.0
  N  N31  1  0.23768000  0.53336000  0.87266000  1.0
  N  N32  1  0.53336000  0.23769000  0.37266000  1.0
  N  N33  1  0.76232000  0.46664000  0.12733000  1.0
  N  N34  1  0.31407000  0.82356000  0.67725000  1.0
  N  N35  1  0.17643000  0.68593000  0.82275000  1.0
  N  N36  1  0.68593000  0.17644000  0.32275000  1.0
  N  N37  1  0.82357000  0.31408000  0.17724000  1.0
  N  N38  1  0.77750000  0.22249000  0.75000000  1.0
  N  N39  1  0.22249000  0.77751000  0.25000000  1.0
  N  N40  1  0.76796000  0.87591000  0.18267000  1.0
  N  N41  1  0.12408000  0.23204000  0.31733000  1.0
  N  N42  1  0.23205000  0.12409000  0.81733000  1.0
  N  N43  1  0.87592000  0.76796000  0.68267000  1.0
