# generated using pymatgen
data_TbH6(CO3)3
_symmetry_space_group_name_H-M   'P 1'
_cell_length_a   9.21629000
_cell_length_b   9.91424000
_cell_length_c   11.19760000
_cell_angle_alpha   114.39300000
_cell_angle_beta   89.99990000
_cell_angle_gamma   89.99990000
_symmetry_Int_Tables_number   1
_chemical_formula_structural   TbH6(CO3)3
_chemical_formula_sum   'Tb4 H24 C12 O36'
_cell_volume   931.82019552
_cell_formula_units_Z   4
loop_
 _symmetry_equiv_pos_site_id
 _symmetry_equiv_pos_as_xyz
  1  'x, y, z'
loop_
 _atom_site_type_symbol
 _atom_site_label
 _atom_site_symmetry_multiplicity
 _atom_site_fract_x
 _atom_site_fract_y
 _atom_site_fract_z
 _atom_site_occupancy
  Tb  Tb0  1  0.04191000  0.33746000  0.19706000  1.0
  Tb  Tb1  1  0.54191000  0.16254000  0.80295000  1.0
  Tb  Tb2  1  0.95808000  0.66254000  0.80295000  1.0
  Tb  Tb3  1  0.45809000  0.83746000  0.19706000  1.0
  H  H4  1  0.29330000  0.17002000  0.24908000  1.0
  H  H5  1  0.79329000  0.32998000  0.75092000  1.0
  H  H6  1  0.70670000  0.82999000  0.75092000  1.0
  H  H7  1  0.20670000  0.67002000  0.24908000  1.0
  H  H8  1  0.36457000  0.31447000  0.11688000  1.0
  H  H9  1  0.86457000  0.18553000  0.88312000  1.0
  H  H10  1  0.63542000  0.68553000  0.88312000  1.0
  H  H11  1  0.13543000  0.81447000  0.11688000  1.0
  H  H12  1  0.32359000  0.48689000  0.21000000  1.0
  H  H13  1  0.82360000  0.01312000  0.79000000  1.0
  H  H14  1  0.67640000  0.51312000  0.79000000  1.0
  H  H15  1  0.17641000  0.98689000  0.21000000  1.0
  H  H16  1  0.74920000  0.40375000  0.12823000  1.0
  H  H17  1  0.24919000  0.09625000  0.87176000  1.0
  H  H18  1  0.25081000  0.59625000  0.87175000  1.0
  H  H19  1  0.75080000  0.90375000  0.12824000  1.0
  H  H20  1  0.19918000  0.20336000  0.37450000  1.0
  H  H21  1  0.69918000  0.29665000  0.62550000  1.0
  H  H22  1  0.80082000  0.79665000  0.62550000  1.0
  H  H23  1  0.30082000  0.70336000  0.37450000  1.0
  H  H24  1  0.77965000  0.54629000  0.25177000  1.0
  H  H25  1  0.27965000  0.95371000  0.74823000  1.0
  H  H26  1  0.22035000  0.45370000  0.74822000  1.0
  H  H27  1  0.72035000  0.04629000  0.25177000  1.0
  C  C28  1  0.02563000  0.57396000  0.05356000  1.0
  C  C29  1  0.52562000  0.92603000  0.94644000  1.0
  C  C30  1  0.97438000  0.42603000  0.94644000  1.0
  C  C31  1  0.47437000  0.07396000  0.05356000  1.0
  C  C32  1  0.05196000  0.56250000  0.50164000  1.0
  C  C33  1  0.55197000  0.93752000  0.49836000  1.0
  C  C34  1  0.94803000  0.43751000  0.49836000  1.0
  C  C35  1  0.44804000  0.06250000  0.50164000  1.0
  C  C36  1  0.92571000  0.00263000  0.03273000  1.0
  C  C37  1  0.42571000  0.49737000  0.96728000  1.0
  C  C38  1  0.07429000  0.99736000  0.96728000  1.0
  C  C39  1  0.57429000  0.50263000  0.03273000  1.0
  O  O40  1  0.06057000  0.57443000  0.16276000  1.0
  O  O41  1  0.56056000  0.92556000  0.83724000  1.0
  O  O42  1  0.93944000  0.42555000  0.83724000  1.0
  O  O43  1  0.43943000  0.07444000  0.16276000  1.0
  O  O44  1  0.02861000  0.68342000  0.02257000  1.0
  O  O45  1  0.52860000  0.81656000  0.97743000  1.0
  O  O46  1  0.97140000  0.31656000  0.97742000  1.0
  O  O47  1  0.47139000  0.18342000  0.02257000  1.0
  O  O48  1  0.10986000  0.54422000  0.39302000  1.0
  O  O49  1  0.60986000  0.95579000  0.60698000  1.0
  O  O50  1  0.89014000  0.45579000  0.60698000  1.0
  O  O51  1  0.39014000  0.04422000  0.39302000  1.0
  O  O52  1  0.06986000  0.67108000  0.61055000  1.0
  O  O53  1  0.56987000  0.82893000  0.38945000  1.0
  O  O54  1  0.93013000  0.32894000  0.38945000  1.0
  O  O55  1  0.43013000  0.17108000  0.61055000  1.0
  O  O56  1  0.88933000  0.12323000  0.12565000  1.0
  O  O57  1  0.38933000  0.37675000  0.87436000  1.0
  O  O58  1  0.11067000  0.87676000  0.87436000  1.0
  O  O59  1  0.61067000  0.62323000  0.12565000  1.0
  O  O60  1  0.85223000  0.88357000  0.98851000  1.0
  O  O61  1  0.35224000  0.61643000  0.01149000  1.0
  O  O62  1  0.14777000  0.11642000  0.01149000  1.0
  O  O63  1  0.64777000  0.38356000  0.98851000  1.0
  O  O64  1  0.28595000  0.38510000  0.16658000  1.0
  O  O65  1  0.78595000  0.11490000  0.83342000  1.0
  O  O66  1  0.71405000  0.61490000  0.83342000  1.0
  O  O67  1  0.21405000  0.88510000  0.16658000  1.0
  O  O68  1  0.79984000  0.44019000  0.21455000  1.0
  O  O69  1  0.29983000  0.05981000  0.78544000  1.0
  O  O70  1  0.20017000  0.55981000  0.78544000  1.0
  O  O71  1  0.70016000  0.94019000  0.21455000  1.0
  O  O72  1  0.19138000  0.18933000  0.28326000  1.0
  O  O73  1  0.69138000  0.31068000  0.71674000  1.0
  O  O74  1  0.80862000  0.81068000  0.71674000  1.0
  O  O75  1  0.30862000  0.68933000  0.28326000  1.0
