# generated using pymatgen
data_ZnH10C14NO4
_symmetry_space_group_name_H-M   'P 1'
_cell_length_a   10.99880000
_cell_length_b   10.99970000
_cell_length_c   13.91600000
_cell_angle_alpha   95.06890000
_cell_angle_beta   99.26660000
_cell_angle_gamma   101.11000000
_symmetry_Int_Tables_number   1
_chemical_formula_structural   ZnH10C14NO4
_chemical_formula_sum   'Zn4 H40 C56 N4 O16'
_cell_volume   1618.05847659
_cell_formula_units_Z   4
loop_
 _symmetry_equiv_pos_site_id
 _symmetry_equiv_pos_as_xyz
  1  'x, y, z'
loop_
 _atom_site_type_symbol
 _atom_site_label
 _atom_site_symmetry_multiplicity
 _atom_site_fract_x
 _atom_site_fract_y
 _atom_site_fract_z
 _atom_site_occupancy
  Zn  Zn0  1  0.65799000  0.27660000  0.11480000  1.0
  Zn  Zn1  1  0.34201000  0.72340000  0.88520000  1.0
  Zn  Zn2  1  0.71635000  0.31646000  0.32790000  1.0
  Zn  Zn3  1  0.28365000  0.68354000  0.67210000  1.0
  H  H4  1  0.73507000  0.94436000  0.37211000  1.0
  H  H5  1  0.26493000  0.05564000  0.62788000  1.0
  H  H6  1  0.74687000  0.71834000  0.37833000  1.0
  H  H7  1  0.25313000  0.28166000  0.62166000  1.0
  H  H8  1  0.63670000  0.64932000  0.06465000  1.0
  H  H9  1  0.36330000  0.35068000  0.93535000  1.0
  H  H10  1  0.62776000  0.87287000  0.05829000  1.0
  H  H11  1  0.37224000  0.12713000  0.94171000  1.0
  H  H12  1  0.13228000  0.35181000  0.38744000  1.0
  H  H13  1  0.86772000  0.64819000  0.61256000  1.0
  H  H14  1  0.35446000  0.33986000  0.37370000  1.0
  H  H15  1  0.64554000  0.66014000  0.62630000  1.0
  H  H16  1  0.24303000  0.24678000  0.06154000  1.0
  H  H17  1  0.75697000  0.75322000  0.93846000  1.0
  H  H18  1  0.02161000  0.26480000  0.07508000  1.0
  H  H19  1  0.97839000  0.73520000  0.92492000  1.0
  H  H20  1  0.63355000  0.08201000  0.94434000  1.0
  H  H21  1  0.36645000  0.91799000  0.05566000  1.0
  H  H22  1  0.72610000  0.47962000  0.80868000  1.0
  H  H23  1  0.27390000  0.52038000  0.19132000  1.0
  H  H24  1  0.69903000  0.46780000  0.98389000  1.0
  H  H25  1  0.30096000  0.53220000  0.01611000  1.0
  H  H26  1  0.50405000  0.22956000  0.62050000  1.0
  H  H27  1  0.49595000  0.77044000  0.37950000  1.0
  H  H28  1  0.52089000  0.25281000  0.44393000  1.0
  H  H29  1  0.47911000  0.74719000  0.55607000  1.0
  H  H30  1  0.90839000  0.36496000  0.51501000  1.0
  H  H31  1  0.09161000  0.63504000  0.48498000  1.0
  H  H32  1  0.55748000  0.01531000  0.70266000  1.0
  H  H33  1  0.44252000  0.98469000  0.29734000  1.0
  H  H34  1  0.65794000  0.96592000  0.79714000  1.0
  H  H35  1  0.34206000  0.03408000  0.20286000  1.0
  H  H36  1  0.72172000  0.04280000  0.70324000  1.0
  H  H37  1  0.27828000  0.95720000  0.29676000  1.0
  H  H38  1  0.93878000  0.40286000  0.78253000  1.0
  H  H39  1  0.06122000  0.59714000  0.21747000  1.0
  H  H40  1  0.02059000  0.40927000  0.68211000  1.0
  H  H41  1  0.97941000  0.59073000  0.31789000  1.0
  H  H42  1  0.97566000  0.26574000  0.72918000  1.0
  H  H43  1  0.02434000  0.73426000  0.27082000  1.0
  C  C44  1  0.67347000  0.05634000  0.21203000  1.0
  C  C45  1  0.32653000  0.94366000  0.78797000  1.0
  C  C46  1  0.68056000  0.92193000  0.21517000  1.0
  C  C47  1  0.31944000  0.07807000  0.78483000  1.0
  C  C48  1  0.71407000  0.87840000  0.30547000  1.0
  C  C49  1  0.28593000  0.12161000  0.69453000  1.0
  C  C50  1  0.72079000  0.75374000  0.30888000  1.0
  C  C51  1  0.27921000  0.24626000  0.69112000  1.0
  C  C52  1  0.69366000  0.67076000  0.22201000  1.0
  C  C53  1  0.30635000  0.32923000  0.77799000  1.0
  C  C54  1  0.65972000  0.71429000  0.13186000  1.0
  C  C55  1  0.34029000  0.28571000  0.86813000  1.0
  C  C56  1  0.65395000  0.83910000  0.12834000  1.0
  C  C57  1  0.34605000  0.16090000  0.87165000  1.0
  C  C58  1  0.69958000  0.53617000  0.22568000  1.0
  C  C59  1  0.30042000  0.46383000  0.77431000  1.0
  C  C60  1  0.93090000  0.31544000  0.23903000  1.0
  C  C61  1  0.06910000  0.68456000  0.76097000  1.0
  C  C62  1  0.06423000  0.30900000  0.23185000  1.0
  C  C63  1  0.93577000  0.69100000  0.76815000  1.0
  C  C64  1  0.15765000  0.32971000  0.31638000  1.0
  C  C65  1  0.84235000  0.67029000  0.68362000  1.0
  C  C66  1  0.28051000  0.32159000  0.30882000  1.0
  C  C67  1  0.71949000  0.67840000  0.69118000  1.0
  C  C68  1  0.31143000  0.29078000  0.21703000  1.0
  C  C69  1  0.68858000  0.70922000  0.78297000  1.0
  C  C70  1  0.21791000  0.27002000  0.13249000  1.0
  C  C71  1  0.78209000  0.72998000  0.86751000  1.0
  C  C72  1  0.09540000  0.27987000  0.13991000  1.0
  C  C73  1  0.90460000  0.72013000  0.86009000  1.0
  C  C74  1  0.44428000  0.28234000  0.20979000  1.0
  C  C75  1  0.55572000  0.71766000  0.79021000  1.0
  C  C76  1  0.65439000  0.16778000  0.91064000  1.0
  C  C77  1  0.34561000  0.83222000  0.08936000  1.0
  C  C78  1  0.66703000  0.16366000  0.81210000  1.0
  C  C79  1  0.33297000  0.83634000  0.18790000  1.0
  C  C80  1  0.69420000  0.27873000  0.77476000  1.0
  C  C81  1  0.30580000  0.72127000  0.22524000  1.0
  C  C82  1  0.70624000  0.38964000  0.83629000  1.0
  C  C83  1  0.29376000  0.61036000  0.16371000  1.0
  C  C84  1  0.69114000  0.38437000  0.93291000  1.0
  C  C85  1  0.30886000  0.61563000  0.06708000  1.0
  C  C86  1  0.70559000  0.28624000  0.67055000  1.0
  C  C87  1  0.29441000  0.71376000  0.32945000  1.0
  C  C88  1  0.59551000  0.25881000  0.59943000  1.0
  C  C89  1  0.40449000  0.74119000  0.40057000  1.0
  C  C90  1  0.60343000  0.27170000  0.50232000  1.0
  C  C91  1  0.39657000  0.72830000  0.49768000  1.0
  C  C92  1  0.82101000  0.33526000  0.54224000  1.0
  C  C93  1  0.17899000  0.66474000  0.45776000  1.0
  C  C94  1  0.82287000  0.32502000  0.64192000  1.0
  C  C95  1  0.17713000  0.67499000  0.35808000  1.0
  C  C96  1  0.65071000  0.04052000  0.75063000  1.0
  C  C97  1  0.34929000  0.95948000  0.24937000  1.0
  C  C98  1  0.94592000  0.35278000  0.71258000  1.0
  C  C99  1  0.05408000  0.64722000  0.28742000  1.0
  N  N100  1  0.66572000  0.27477000  0.96925000  1.0
  N  N101  1  0.33428000  0.72523000  0.03075000  1.0
  N  N102  1  0.71480000  0.31002000  0.47443000  1.0
  N  N103  1  0.28520000  0.68998000  0.52557000  1.0
  O  O104  1  0.69510000  0.12502000  0.29399000  1.0
  O  O105  1  0.30490000  0.87499000  0.70601000  1.0
  O  O106  1  0.64607000  0.09124000  0.12768000  1.0
  O  O107  1  0.35394000  0.90877000  0.87232000  1.0
  O  O108  1  0.67210000  0.46625000  0.14398000  1.0
  O  O109  1  0.32791000  0.53374000  0.85602000  1.0
  O  O110  1  0.73094000  0.50212000  0.30971000  1.0
  O  O111  1  0.26906000  0.49788000  0.69029000  1.0
  O  O112  1  0.90525000  0.33315000  0.32480000  1.0
  O  O113  1  0.09475000  0.66684000  0.67520000  1.0
  O  O114  1  0.85353000  0.30167000  0.15865000  1.0
  O  O115  1  0.14647000  0.69832000  0.84135000  1.0
  O  O116  1  0.52220000  0.29910000  0.29043000  1.0
  O  O117  1  0.47780000  0.70090000  0.70957000  1.0
  O  O118  1  0.46914000  0.25944000  0.12463000  1.0
  O  O119  1  0.53087000  0.74057000  0.87538000  1.0
