# generated using pymatgen
data_Zn4H12C26S4O13
_symmetry_space_group_name_H-M   'P 1'
_cell_length_a   19.64640000
_cell_length_b   19.65450000
_cell_length_c   33.36860000
_cell_angle_alpha   79.10240000
_cell_angle_beta   79.13780000
_cell_angle_gamma   63.97580000
_symmetry_Int_Tables_number   1
_chemical_formula_structural   Zn4H12C26S4O13
_chemical_formula_sum   'Zn16 H48 C104 S16 O52'
_cell_volume   11288.18093344
_cell_formula_units_Z   4
loop_
 _symmetry_equiv_pos_site_id
 _symmetry_equiv_pos_as_xyz
  1  'x, y, z'
loop_
 _atom_site_type_symbol
 _atom_site_label
 _atom_site_symmetry_multiplicity
 _atom_site_fract_x
 _atom_site_fract_y
 _atom_site_fract_z
 _atom_site_occupancy
  Zn  Zn0  1  0.05216000  0.40223000  0.47637000  1.0
  Zn  Zn1  1  0.98654000  0.48170000  0.56045000  1.0
  Zn  Zn2  1  0.06023000  0.55847000  0.48265000  1.0
  Zn  Zn3  1  0.89876000  0.55462000  0.47999000  1.0
  Zn  Zn4  1  0.69477000  0.34691000  0.27315000  1.0
  Zn  Zn5  1  0.68936000  0.18790000  0.26587000  1.0
  Zn  Zn6  1  0.76210000  0.27227000  0.18998000  1.0
  Zn  Zn7  1  0.84854000  0.19153000  0.27031000  1.0
  Zn  Zn8  1  0.26832000  0.76363000  0.68956000  1.0
  Zn  Zn9  1  0.34772000  0.69809000  0.77379000  1.0
  Zn  Zn10  1  0.19567000  0.85153000  0.76992000  1.0
  Zn  Zn11  1  0.19095000  0.69072000  0.76747000  1.0
  Zn  Zn12  1  0.56195000  0.06070000  0.98408000  1.0
  Zn  Zn13  1  0.40297000  0.05545000  0.97689000  1.0
  Zn  Zn14  1  0.55874000  0.90163000  0.97941000  1.0
  Zn  Zn15  1  0.47768000  0.98728000  0.05987000  1.0
  H  H16  1  0.74779000  0.44014000  0.35071000  1.0
  H  H17  1  0.99700000  0.30164000  0.40296000  1.0
  H  H18  1  0.20454000  0.69608000  0.60206000  1.0
  H  H19  1  0.05638000  0.54287000  0.64835000  1.0
  H  H20  1  0.28768000  0.50540000  0.41131000  1.0
  H  H21  1  0.45877000  0.24053000  0.33568000  1.0
  H  H22  1  0.77476000  0.54618000  0.65278000  1.0
  H  H23  1  0.48149000  0.69754000  0.60521000  1.0
  H  H24  1  0.05242000  0.26837000  0.64494000  1.0
  H  H25  1  0.20404000  0.97557000  0.59704000  1.0
  H  H26  1  0.79405000  0.78471000  0.40983000  1.0
  H  H27  1  0.95566000  0.95924000  0.33784000  1.0
  H  H28  1  0.64516000  0.15112000  0.04979000  1.0
  H  H29  1  0.59624000  0.10635000  0.20032000  1.0
  H  H30  1  0.70659000  0.48377000  0.10643000  1.0
  H  H31  1  0.53637000  0.77757000  0.15105000  1.0
  H  H32  1  0.08113000  0.10449000  0.20558000  1.0
  H  H33  1  0.15795000  0.15295000  0.03606000  1.0
  H  H34  1  0.30845000  0.00241000  0.89967000  1.0
  H  H35  1  0.44898000  0.75389000  0.84705000  1.0
  H  H36  1  0.44357000  0.48012000  0.85540000  1.0
  H  H37  1  0.30886000  0.27433000  0.89752000  1.0
  H  H38  1  0.97374000  0.73600000  0.84807000  1.0
  H  H39  1  0.78197000  0.01710000  0.90397000  1.0
  H  H40  1  0.78700000  0.56470000  0.39099000  1.0
  H  H41  1  0.74730000  0.52122000  0.43379000  1.0
  H  H42  1  0.71262000  0.53956000  0.38532000  1.0
  H  H43  1  0.99478000  0.22016000  0.31973000  1.0
  H  H44  1  0.95852000  0.17643000  0.36389000  1.0
  H  H45  1  0.03311000  0.20318000  0.36697000  1.0
  H  H46  1  0.11988000  0.69753000  0.52150000  1.0
  H  H47  1  0.20237000  0.61159000  0.52067000  1.0
  H  H48  1  0.20539000  0.69295000  0.53536000  1.0
  H  H49  1  0.05392000  0.62725000  0.72918000  1.0
  H  H50  1  0.14128000  0.54634000  0.72949000  1.0
  H  H51  1  0.06084000  0.54095000  0.71516000  1.0
  H  H52  1  0.76539000  0.19324000  0.09470000  1.0
  H  H53  1  0.68066000  0.27663000  0.09070000  1.0
  H  H54  1  0.71496000  0.21513000  0.05137000  1.0
  H  H55  1  0.55171000  0.98682000  0.15380000  1.0
  H  H56  1  0.47095000  0.07251000  0.16132000  1.0
  H  H57  1  0.53704000  0.03159000  0.19848000  1.0
  H  H58  1  0.18491000  0.96153000  0.85903000  1.0
  H  H59  1  0.22760000  0.00297000  0.81668000  1.0
  H  H60  1  0.20861000  0.03637000  0.86555000  1.0
  H  H61  1  0.53029000  0.75638000  0.93020000  1.0
  H  H62  1  0.57340000  0.79377000  0.88623000  1.0
  H  H63  1  0.54765000  0.71872000  0.88275000  1.0
  C  C64  1  0.06571000  0.31431000  0.55866000  1.0
  C  C65  1  0.07514000  0.56636000  0.56815000  1.0
  C  C66  1  0.18045000  0.43926000  0.43534000  1.0
  C  C67  1  0.93652000  0.68322000  0.43957000  1.0
  C  C68  1  0.92247000  0.43205000  0.43242000  1.0
  C  C69  1  0.81887000  0.55891000  0.56514000  1.0
  C  C70  1  0.56584000  0.30770000  0.31167000  1.0
  C  C71  1  0.67571000  0.18730000  0.17934000  1.0
  C  C72  1  0.68677000  0.43913000  0.19232000  1.0
  C  C73  1  0.92935000  0.19173000  0.18561000  1.0
  C  C74  1  0.82242000  0.31050000  0.32086000  1.0
  C  C75  1  0.81299000  0.06119000  0.30823000  1.0
  C  C76  1  0.43588000  0.68509000  0.69153000  1.0
  C  C77  1  0.31828000  0.82743000  0.81776000  1.0
  C  C78  1  0.19056000  0.93111000  0.68468000  1.0
  C  C79  1  0.06751000  0.81374000  0.81123000  1.0
  C  C80  1  0.18275000  0.67573000  0.68217000  1.0
  C  C81  1  0.31053000  0.56960000  0.81436000  1.0
  C  C82  1  0.44173000  0.18420000  0.93817000  1.0
  C  C83  1  0.43846000  0.92858000  0.92936000  1.0
  C  C84  1  0.68822000  0.93881000  0.94111000  1.0
  C  C85  1  0.55695000  0.82023000  0.06396000  1.0
  C  C86  1  0.56357000  0.07242000  0.07072000  1.0
  C  C87  1  0.31070000  0.06456000  0.05758000  1.0
  C  C88  1  0.89341000  0.40320000  0.40391000  1.0
  C  C89  1  0.85114000  0.33845000  0.34997000  1.0
  C  C90  1  0.82120000  0.44450000  0.38938000  1.0
  C  C91  1  0.92331000  0.29710000  0.36450000  1.0
  C  C92  1  0.80270000  0.41013000  0.36268000  1.0
  C  C93  1  0.94187000  0.33148000  0.39121000  1.0
  C  C94  1  0.10530000  0.59499000  0.59621000  1.0
  C  C95  1  0.15451000  0.64507000  0.65418000  1.0
  C  C96  1  0.14815000  0.63881000  0.58190000  1.0
  C  C97  1  0.11214000  0.60079000  0.66850000  1.0
  C  C98  1  0.17148000  0.66228000  0.61180000  1.0
  C  C99  1  0.08904000  0.57708000  0.63860000  1.0
  C  C100  1  0.30312000  0.45056000  0.40112000  1.0
  C  C101  1  0.44301000  0.29563000  0.34563000  1.0
  C  C102  1  0.25559000  0.41315000  0.41068000  1.0
  C  C103  1  0.49031000  0.33333333  0.33598000  1.0
  C  C104  1  0.37466000  0.33835000  0.36923000  1.0
  C  C105  1  0.37120000  0.40802000  0.37733000  1.0
  C  C106  1  0.72958000  0.57403000  0.63296000  1.0
  C  C107  1  0.52663000  0.66914000  0.62501000  1.0
  C  C108  1  0.74431000  0.58351000  0.59050000  1.0
  C  C109  1  0.51159000  0.65946000  0.66739000  1.0
  C  C110  1  0.60584000  0.63777000  0.61248000  1.0
  C  C111  1  0.65028000  0.60485000  0.64564000  1.0
  C  C112  1  0.08092000  0.22334000  0.62511000  1.0
  C  C113  1  0.17594000  0.02060000  0.61692000  1.0
  C  C114  1  0.09108000  0.23859000  0.58275000  1.0
  C  C115  1  0.16604000  0.00568000  0.65935000  1.0
  C  C116  1  0.14524000  0.09990000  0.60432000  1.0
  C  C117  1  0.11202000  0.14412000  0.63754000  1.0
  C  C118  1  0.84103000  0.80178000  0.40124000  1.0
  C  C119  1  0.90857000  0.94231000  0.34637000  1.0
  C  C120  1  0.91233000  0.75749000  0.41398000  1.0
  C  C121  1  0.83724000  0.98668000  0.33363000  1.0
  C  C122  1  0.91006000  0.87503000  0.37100000  1.0
  C  C123  1  0.83952000  0.86911000  0.37666000  1.0
  C  C124  1  0.64790000  0.15924000  0.14991000  1.0
  C  C125  1  0.59110000  0.10067000  0.10018000  1.0
  C  C126  1  0.66307000  0.17313000  0.10667000  1.0
  C  C127  1  0.57603000  0.08665000  0.14341000  1.0
  C  C128  1  0.63409000  0.14253000  0.08317000  1.0
  C  C129  1  0.60575000  0.11652000  0.16692000  1.0
  C  C130  1  0.67411000  0.52916000  0.12575000  1.0
  C  C131  1  0.56855000  0.73196000  0.13182000  1.0
  C  C132  1  0.66093000  0.51478000  0.16806000  1.0
  C  C133  1  0.58171000  0.74584000  0.08945000  1.0
  C  C134  1  0.60188000  0.65300000  0.14517000  1.0
  C  C135  1  0.64031000  0.60801000  0.11257000  1.0
  C  C136  1  0.07425000  0.12433000  0.17329000  1.0
  C  C137  1  0.16462000  0.13251000  0.06834000  1.0
  C  C138  1  0.00338000  0.16714000  0.15978000  1.0
  C  C139  1  0.23532000  0.08954000  0.08208000  1.0
  C  C140  1  0.10571000  0.14491000  0.10148000  1.0
  C  C141  1  0.13279000  0.11131000  0.14005000  1.0
  C  C142  1  0.34680000  0.85682000  0.84625000  1.0
  C  C143  1  0.41084000  0.89973000  0.90019000  1.0
  C  C144  1  0.30487000  0.92884000  0.86084000  1.0
  C  C145  1  0.45286000  0.82781000  0.88554000  1.0
  C  C146  1  0.33893000  0.94766000  0.88759000  1.0
  C  C147  1  0.41874000  0.80888000  0.85886000  1.0
  C  C148  1  0.40245000  0.45612000  0.85737000  1.0
  C  C149  1  0.35013000  0.29815000  0.89546000  1.0
  C  C150  1  0.33592000  0.49438000  0.83897000  1.0
  C  C151  1  0.41674000  0.25970000  0.91379000  1.0
  C  C152  1  0.34493000  0.36955000  0.87486000  1.0
  C  C153  1  0.40783000  0.38458000  0.87790000  1.0
  C  C154  1  0.95265000  0.79538000  0.85292000  1.0
  C  C155  1  0.80305000  0.95763000  0.89927000  1.0
  C  C156  1  0.99299000  0.83896000  0.83651000  1.0
  C  C157  1  0.76283000  0.91399000  0.91585000  1.0
  C  C158  1  0.87220000  0.91455000  0.87640000  1.0
  C  C159  1  0.88355000  0.83844000  0.87582000  1.0
  C  C160  1  0.76383000  0.52166000  0.40045000  1.0
  C  C161  1  0.98066000  0.22010000  0.35317000  1.0
  C  C162  1  0.17024000  0.66148000  0.53747000  1.0
  C  C163  1  0.09087000  0.57748000  0.71296000  1.0
  C  C164  1  0.70848000  0.21685000  0.08461000  1.0
  C  C165  1  0.53174000  0.04180000  0.16549000  1.0
  C  C166  1  0.22732000  0.98558000  0.84996000  1.0
  C  C167  1  0.53017000  0.77100000  0.89677000  1.0
  S  S168  1  0.29317000  0.32636000  0.39094000  1.0
  S  S169  1  0.45236000  0.42038000  0.35544000  1.0
  S  S170  1  0.66236000  0.62987000  0.56588000  1.0
  S  S171  1  0.59327000  0.61240000  0.69221000  1.0
  S  S172  1  0.13828000  0.15712000  0.55782000  1.0
  S  S173  1  0.11944000  0.08739000  0.68408000  1.0
  S  S174  1  0.97770000  0.79718000  0.39632000  1.0
  S  S175  1  0.77187000  0.94702000  0.35138000  1.0
  S  S176  1  0.60766000  0.59685000  0.19202000  1.0
  S  S177  1  0.63434000  0.66357000  0.06566000  1.0
  S  S178  1  0.00747000  0.19175000  0.10676000  1.0
  S  S179  1  0.23078000  0.06410000  0.13502000  1.0
  S  S180  1  0.27968000  0.44402000  0.84648000  1.0
  S  S181  1  0.47319000  0.30986000  0.90615000  1.0
  S  S182  1  0.94746000  0.93210000  0.84865000  1.0
  S  S183  1  0.80853000  0.82076000  0.90376000  1.0
  O  O184  1  0.99902000  0.49926000  0.50007000  1.0
  O  O185  1  0.08459000  0.31576000  0.51974000  1.0
  O  O186  1  0.04019000  0.52453000  0.58495000  1.0
  O  O187  1  0.15766000  0.50180000  0.45049000  1.0
  O  O188  1  0.02713000  0.37145000  0.57875000  1.0
  O  O189  1  0.14476000  0.39683000  0.43950000  1.0
  O  O190  1  0.08587000  0.58579000  0.52955000  1.0
  O  O191  1  0.00550000  0.65312000  0.44793000  1.0
  O  O192  1  0.88207000  0.49953000  0.44212000  1.0
  O  O193  1  0.88706000  0.65553000  0.45098000  1.0
  O  O194  1  0.98662000  0.38649000  0.44504000  1.0
  O  O195  1  0.87835000  0.52624000  0.58383000  1.0
  O  O196  1  0.81678000  0.57275000  0.52618000  1.0
  O  O197  1  0.74872000  0.24940000  0.25001000  1.0
  O  O198  1  0.59844000  0.35323000  0.30595000  1.0
  O  O199  1  0.66848000  0.16113000  0.21727000  1.0
  O  O200  1  0.72642000  0.38221000  0.17217000  1.0
  O  O201  1  0.59182000  0.24289000  0.29852000  1.0
  O  O202  1  0.66732000  0.43690000  0.23122000  1.0
  O  O203  1  0.70441000  0.23523000  0.16474000  1.0
  O  O204  1  0.86990000  0.22628000  0.16676000  1.0
  O  O205  1  0.86237000  0.24293000  0.31119000  1.0
  O  O206  1  0.93119000  0.17642000  0.22444000  1.0
  O  O207  1  0.75913000  0.35712000  0.30766000  1.0
  O  O208  1  0.74364000  0.09237000  0.30044000  1.0
  O  O209  1  0.86290000  0.08825000  0.29638000  1.0
  O  O210  1  0.25085000  0.75123000  0.74994000  1.0
  O  O211  1  0.37867000  0.72333000  0.67142000  1.0
  O  O212  1  0.36289000  0.76191000  0.80652000  1.0
  O  O213  1  0.17639000  0.93321000  0.72362000  1.0
  O  O214  1  0.43453000  0.66674000  0.73050000  1.0
  O  O215  1  0.22348000  0.87163000  0.66602000  1.0
  O  O216  1  0.25199000  0.86902000  0.80669000  1.0
  O  O217  1  0.09554000  0.86311000  0.79988000  1.0
  O  O218  1  0.16135000  0.66724000  0.72067000  1.0
  O  O219  1  0.09744000  0.74494000  0.80299000  1.0
  O  O220  1  0.22625000  0.70886000  0.66539000  1.0
  O  O221  1  0.35303000  0.60501000  0.81024000  1.0
  O  O222  1  0.24780000  0.59263000  0.79913000  1.0
  O  O223  1  0.50054000  0.00128000  0.99990000  1.0
  O  O224  1  0.50562000  0.15923000  0.95246000  1.0
  O  O225  1  0.39081000  0.99052000  0.94360000  1.0
  O  O226  1  0.66171000  0.88835000  0.95340000  1.0
  O  O227  1  0.39738000  0.15065000  0.94289000  1.0
  O  O228  1  0.65648000  0.00820000  0.94846000  1.0
  O  O229  1  0.50687000  0.89000000  0.93802000  1.0
  O  O230  1  0.57223000  0.81867000  0.02501000  1.0
  O  O231  1  0.51462000  0.04491000  0.08516000  1.0
  O  O232  1  0.52282000  0.87940000  0.08286000  1.0
  O  O233  1  0.59099000  0.07829000  0.03293000  1.0
  O  O234  1  0.31311000  0.08553000  0.01890000  1.0
  O  O235  1  0.36765000  0.02356000  0.07773000  1.0
