# generated using pymatgen
data_TmH4C3O8
_symmetry_space_group_name_H-M   'P 1'
_cell_length_a   6.30325000
_cell_length_b   6.55032000
_cell_length_c   8.91045000
_cell_angle_alpha   85.40320000
_cell_angle_beta   76.39850000
_cell_angle_gamma   80.38710000
_symmetry_Int_Tables_number   1
_chemical_formula_structural   TmH4C3O8
_chemical_formula_sum   'Tm2 H8 C6 O16'
_cell_volume   352.23785468
_cell_formula_units_Z   2
loop_
 _symmetry_equiv_pos_site_id
 _symmetry_equiv_pos_as_xyz
  1  'x, y, z'
loop_
 _atom_site_type_symbol
 _atom_site_label
 _atom_site_symmetry_multiplicity
 _atom_site_fract_x
 _atom_site_fract_y
 _atom_site_fract_z
 _atom_site_occupancy
  Tm  Tm0  1  0.33082000  0.25601000  0.29575000  1.0
  Tm  Tm1  1  0.66919000  0.74397000  0.70426000  1.0
  H  H2  1  0.69415000  0.91685000  0.28894000  1.0
  H  H3  1  0.30586000  0.08317000  0.71105000  1.0
  H  H4  1  0.62660000  0.88838000  0.12962000  1.0
  H  H5  1  0.37341000  0.11163000  0.87037000  1.0
  H  H6  1  0.96721000  0.59970000  0.31862000  1.0
  H  H7  1  0.03280000  0.40028000  0.68139000  1.0
  H  H8  1  0.88818000  0.45574000  0.21405000  1.0
  H  H9  1  0.11181000  0.54426000  0.78597000  1.0
  C  C10  1  0.01371000  0.04272000  0.57490000  1.0
  C  C11  1  0.98613000  0.95743000  0.42508000  1.0
  C  C12  1  0.58854000  0.40682000  0.50961000  1.0
  C  C13  1  0.41149000  0.59323000  0.49034000  1.0
  C  C14  1  0.57373000  0.55045000  0.04006000  1.0
  C  C15  1  0.42627000  0.44954000  0.95995000  1.0
  O  O16  1  0.14946000  0.17242000  0.55707000  1.0
  O  O17  1  0.85058000  0.82748000  0.44294000  1.0
  O  O18  1  0.90354000  0.97933000  0.70145000  1.0
  O  O19  1  0.09659000  0.02058000  0.29853000  1.0
  O  O20  1  0.58395000  0.24185000  0.44675000  1.0
  O  O21  1  0.41599000  0.75818000  0.55327000  1.0
  O  O22  1  0.72525000  0.43531000  0.58587000  1.0
  O  O23  1  0.27475000  0.56464000  0.41415000  1.0
  O  O24  1  0.61200000  0.46024000  0.16362000  1.0
  O  O25  1  0.38800000  0.53979000  0.83638000  1.0
  O  O26  1  0.64184000  0.71526000  0.97607000  1.0
  O  O27  1  0.35817000  0.28473000  0.02392000  1.0
  O  O28  1  0.59534000  0.97582000  0.22013000  1.0
  O  O29  1  0.40466000  0.02419000  0.77986000  1.0
  O  O30  1  0.01619000  0.47861000  0.25281000  1.0
  O  O31  1  0.98380000  0.52140000  0.74719000  1.0
