# generated using pymatgen
data_HgH7C7N(ClO)2
_symmetry_space_group_name_H-M   'P 1'
_cell_length_a   7.46869000
_cell_length_b   9.35723000
_cell_length_c   14.18990000
_cell_angle_alpha   89.99990000
_cell_angle_beta   92.11090000
_cell_angle_gamma   90.00000000
_symmetry_Int_Tables_number   1
_chemical_formula_structural   HgH7C7N(ClO)2
_chemical_formula_sum   'Hg4 H28 C28 N4 Cl8 O8'
_cell_volume   991.00595192
_cell_formula_units_Z   4
loop_
 _symmetry_equiv_pos_site_id
 _symmetry_equiv_pos_as_xyz
  1  'x, y, z'
loop_
 _atom_site_type_symbol
 _atom_site_label
 _atom_site_symmetry_multiplicity
 _atom_site_fract_x
 _atom_site_fract_y
 _atom_site_fract_z
 _atom_site_occupancy
  Hg  Hg0  1  0.24380000  0.06236000  0.48721000  1.0
  Hg  Hg1  1  0.25620000  0.56236000  0.01280000  1.0
  Hg  Hg2  1  0.75620000  0.93764000  0.51279000  1.0
  Hg  Hg3  1  0.74380000  0.43764000  0.98721000  1.0
  H  H4  1  0.09557000  0.15511000  0.67876000  1.0
  H  H5  1  0.40442000  0.65511000  0.82124000  1.0
  H  H6  1  0.90442000  0.84489000  0.32124000  1.0
  H  H7  1  0.59557000  0.34489000  0.17876000  1.0
  H  H8  1  0.03070000  0.37314000  0.77645000  1.0
  H  H9  1  0.46930000  0.87314000  0.72355000  1.0
  H  H10  1  0.96930000  0.62686000  0.22355000  1.0
  H  H11  1  0.53070000  0.12686000  0.27645000  1.0
  H  H12  1  0.08858000  0.61561000  0.70650000  1.0
  H  H13  1  0.41142000  0.11561000  0.79351000  1.0
  H  H14  1  0.91142000  0.38439000  0.29350000  1.0
  H  H15  1  0.58858000  0.88439000  0.20649000  1.0
  H  H16  1  0.21510000  0.63026000  0.54663000  1.0
  H  H17  1  0.28490000  0.13026000  0.95337000  1.0
  H  H18  1  0.78491000  0.36974000  0.45337000  1.0
  H  H19  1  0.71510000  0.86974000  0.04663000  1.0
  H  H20  1  0.35512000  0.66002000  0.28665000  1.0
  H  H21  1  0.14487000  0.16002000  0.21336000  1.0
  H  H22  1  0.64488000  0.33997000  0.71336000  1.0
  H  H23  1  0.85512000  0.83998000  0.78665000  1.0
  H  H24  1  0.30311000  0.47639000  0.25766000  1.0
  H  H25  1  0.19688000  0.97639000  0.24234000  1.0
  H  H26  1  0.69689000  0.52361000  0.74234000  1.0
  H  H27  1  0.80311000  0.02362000  0.75766000  1.0
  H  H28  1  0.52108000  0.52324000  0.30533000  1.0
  H  H29  1  0.97892000  0.02324000  0.19467000  1.0
  H  H30  1  0.47893000  0.47676000  0.69467000  1.0
  H  H31  1  0.02108000  0.97676000  0.80533000  1.0
  C  C32  1  0.12175000  0.26294000  0.65359000  1.0
  C  C33  1  0.37825000  0.76294000  0.84641000  1.0
  C  C34  1  0.87825000  0.73706000  0.34641000  1.0
  C  C35  1  0.62175000  0.23706000  0.15359000  1.0
  C  C36  1  0.08494000  0.38418000  0.70664000  1.0
  C  C37  1  0.41507000  0.88419000  0.79336000  1.0
  C  C38  1  0.91507000  0.61582000  0.29336000  1.0
  C  C39  1  0.58493000  0.11581000  0.20664000  1.0
  C  C40  1  0.11799000  0.51809000  0.66798000  1.0
  C  C41  1  0.38202000  0.01809000  0.83202000  1.0
  C  C42  1  0.88202000  0.48191000  0.33202000  1.0
  C  C43  1  0.61799000  0.98191000  0.16797000  1.0
  C  C44  1  0.18858000  0.52693000  0.57849000  1.0
  C  C45  1  0.31142000  0.02693000  0.92151000  1.0
  C  C46  1  0.81142000  0.47307000  0.42151000  1.0
  C  C47  1  0.68858000  0.97307000  0.07849000  1.0
  C  C48  1  0.22475000  0.40053000  0.53021000  1.0
  C  C49  1  0.27525000  0.90053000  0.96979000  1.0
  C  C50  1  0.77525000  0.59947000  0.46979000  1.0
  C  C51  1  0.72475000  0.09947000  0.03021000  1.0
  C  C52  1  0.30225000  0.40164000  0.43411000  1.0
  C  C53  1  0.19775000  0.90165000  0.06589000  1.0
  C  C54  1  0.69775000  0.59835000  0.56589000  1.0
  C  C55  1  0.80225000  0.09836000  0.93411000  1.0
  C  C56  1  0.37804000  0.54829000  0.30559000  1.0
  C  C57  1  0.12196000  0.04830000  0.19441000  1.0
  C  C58  1  0.62196000  0.45170000  0.69442000  1.0
  C  C59  1  0.87804000  0.95171000  0.80559000  1.0
  N  N60  1  0.19058000  0.27165000  0.56788000  1.0
  N  N61  1  0.30942000  0.77166000  0.93213000  1.0
  N  N62  1  0.80943000  0.72834000  0.43213000  1.0
  N  N63  1  0.69058000  0.22835000  0.06788000  1.0
  Cl  Cl64  1  0.08290000  0.89501000  0.60977000  1.0
  Cl  Cl65  1  0.41709000  0.39502000  0.89023000  1.0
  Cl  Cl66  1  0.91710000  0.10498000  0.39023000  1.0
  Cl  Cl67  1  0.58290000  0.60499000  0.10977000  1.0
  Cl  Cl68  1  0.41098000  0.89864000  0.39068000  1.0
  Cl  Cl69  1  0.08901000  0.39864000  0.10932000  1.0
  Cl  Cl70  1  0.58901000  0.10135000  0.60931000  1.0
  Cl  Cl71  1  0.91099000  0.60136000  0.89068000  1.0
  O  O72  1  0.34739000  0.29417000  0.39110000  1.0
  O  O73  1  0.15261000  0.79418000  0.10890000  1.0
  O  O74  1  0.65261000  0.70582000  0.60890000  1.0
  O  O75  1  0.84739000  0.20583000  0.89110000  1.0
  O  O76  1  0.31441000  0.53452000  0.40077000  1.0
  O  O77  1  0.18558000  0.03452000  0.09923000  1.0
  O  O78  1  0.68558000  0.46548000  0.59923000  1.0
  O  O79  1  0.81442000  0.96549000  0.90077000  1.0
