# generated using pymatgen
data_CdH16C22(NO2)2
_symmetry_space_group_name_H-M   'P 1'
_cell_length_a   8.37910000
_cell_length_b   12.38940000
_cell_length_c   18.91320000
_cell_angle_alpha   101.99400000
_cell_angle_beta   89.99970000
_cell_angle_gamma   89.99930000
_symmetry_Int_Tables_number   1
_chemical_formula_structural   CdH16C22(NO2)2
_chemical_formula_sum   'Cd4 H64 C88 N8 O16'
_cell_volume   1920.55487979
_cell_formula_units_Z   4
loop_
 _symmetry_equiv_pos_site_id
 _symmetry_equiv_pos_as_xyz
  1  'x, y, z'
loop_
 _atom_site_type_symbol
 _atom_site_label
 _atom_site_symmetry_multiplicity
 _atom_site_fract_x
 _atom_site_fract_y
 _atom_site_fract_z
 _atom_site_occupancy
  Cd  Cd0  1  0.48917000  0.64585000  0.55370000  1.0
  Cd  Cd1  1  0.98917000  0.85415000  0.94630000  1.0
  Cd  Cd2  1  0.51083000  0.35415000  0.44630000  1.0
  Cd  Cd3  1  0.01083000  0.14585000  0.05370000  1.0
  H  H4  1  0.24119000  0.52654000  0.78227000  1.0
  H  H5  1  0.74118000  0.97345000  0.71773000  1.0
  H  H6  1  0.75881000  0.47345000  0.21773000  1.0
  H  H7  1  0.25881000  0.02654000  0.28227000  1.0
  H  H8  1  0.13768000  0.62690000  0.74339000  1.0
  H  H9  1  0.63768000  0.87310000  0.75661000  1.0
  H  H10  1  0.86231000  0.37310000  0.25661000  1.0
  H  H11  1  0.36232000  0.12689000  0.24338000  1.0
  H  H12  1  0.48469000  0.58550000  0.85898000  1.0
  H  H13  1  0.98470000  0.91449000  0.64102000  1.0
  H  H14  1  0.51530000  0.41450000  0.14102000  1.0
  H  H15  1  0.01531000  0.08550000  0.35898000  1.0
  H  H16  1  0.61759000  0.74060000  0.94599000  1.0
  H  H17  1  0.11760000  0.75939000  0.55401000  1.0
  H  H18  1  0.38240000  0.25940000  0.05401000  1.0
  H  H19  1  0.88240000  0.24060000  0.44599000  1.0
  H  H20  1  0.54160000  0.93281000  0.94826000  1.0
  H  H21  1  0.04160000  0.56718000  0.55174000  1.0
  H  H22  1  0.45840000  0.06719000  0.05173000  1.0
  H  H23  1  0.95840000  0.43281000  0.44826000  1.0
  H  H24  1  0.18615000  0.82126000  0.78465000  1.0
  H  H25  1  0.68616000  0.67874000  0.71535000  1.0
  H  H26  1  0.81384000  0.17874000  0.21535000  1.0
  H  H27  1  0.31384000  0.32126000  0.28465000  1.0
  H  H28  1  0.22563000  0.01186000  0.82435000  1.0
  H  H29  1  0.72562000  0.48813000  0.67565000  1.0
  H  H30  1  0.77436000  0.98814000  0.17565000  1.0
  H  H31  1  0.27438000  0.51186000  0.32435000  1.0
  H  H32  1  0.41595000  0.05778000  0.86019000  1.0
  H  H33  1  0.91594000  0.44221000  0.63981000  1.0
  H  H34  1  0.58405000  0.94222000  0.13981000  1.0
  H  H35  1  0.08406000  0.55778000  0.36019000  1.0
  H  H36  1  0.73918000  0.58324000  0.41828000  1.0
  H  H37  1  0.23916000  0.91677000  0.08172000  1.0
  H  H38  1  0.26083000  0.41677000  0.58172000  1.0
  H  H39  1  0.76085000  0.08324000  0.91828000  1.0
  H  H40  1  0.92441000  0.67646000  0.34505000  1.0
  H  H41  1  0.42440000  0.82355000  0.15495000  1.0
  H  H42  1  0.07560000  0.32354000  0.65495000  1.0
  H  H43  1  0.57561000  0.17646000  0.84506000  1.0
  H  H44  1  0.95971000  0.88147000  0.38045000  1.0
  H  H45  1  0.45970000  0.61854000  0.11955000  1.0
  H  H46  1  0.04030000  0.11854000  0.61955000  1.0
  H  H47  1  0.54030000  0.38147000  0.88045000  1.0
  H  H48  1  0.88448000  0.05968000  0.46268000  1.0
  H  H49  1  0.38448000  0.44033000  0.03733000  1.0
  H  H50  1  0.11552000  0.94034000  0.53732000  1.0
  H  H51  1  0.61552000  0.55967000  0.96267000  1.0
  H  H52  1  0.71918000  0.16267000  0.56220000  1.0
  H  H53  1  0.21918000  0.33734000  0.93781000  1.0
  H  H54  1  0.28082000  0.83734000  0.43781000  1.0
  H  H55  1  0.78082000  0.66267000  0.06219000  1.0
  H  H56  1  0.50853000  0.16068000  0.65625000  1.0
  H  H57  1  0.00853000  0.33932000  0.84375000  1.0
  H  H58  1  0.49148000  0.83932000  0.34376000  1.0
  H  H59  1  0.99147000  0.66068000  0.15625000  1.0
  H  H60  1  0.31741000  0.05066000  0.71631000  1.0
  H  H61  1  0.81741000  0.44935000  0.78369000  1.0
  H  H62  1  0.68259000  0.94933000  0.28369000  1.0
  H  H63  1  0.18259000  0.55067000  0.21631000  1.0
  H  H64  1  0.31448000  0.84340000  0.67520000  1.0
  H  H65  1  0.81447000  0.65660000  0.82480000  1.0
  H  H66  1  0.68553000  0.15658000  0.32480000  1.0
  H  H67  1  0.18552000  0.34341000  0.17521000  1.0
  C  C68  1  0.36444000  0.57539000  0.69392000  1.0
  C  C69  1  0.86444000  0.92461000  0.80608000  1.0
  C  C70  1  0.63556000  0.42461000  0.30608000  1.0
  C  C71  1  0.13556000  0.07538000  0.19392000  1.0
  C  C72  1  0.25458000  0.60150000  0.76055000  1.0
  C  C73  1  0.75458000  0.89850000  0.73945000  1.0
  C  C74  1  0.74541000  0.39850000  0.23945000  1.0
  C  C75  1  0.24542000  0.10150000  0.26055000  1.0
  C  C76  1  0.32751000  0.69331000  0.81581000  1.0
  C  C77  1  0.82752000  0.80669000  0.68420000  1.0
  C  C78  1  0.67248000  0.30669000  0.18419000  1.0
  C  C79  1  0.17248000  0.19331000  0.31580000  1.0
  C  C80  1  0.44872000  0.67111000  0.86184000  1.0
  C  C81  1  0.94873000  0.82888000  0.63817000  1.0
  C  C82  1  0.55127000  0.32889000  0.13816000  1.0
  C  C83  1  0.05128000  0.17111000  0.36184000  1.0
  C  C84  1  0.52356000  0.75705000  0.90982000  1.0
  C  C85  1  0.02356000  0.74294000  0.59019000  1.0
  C  C86  1  0.47644000  0.24295000  0.09018000  1.0
  C  C87  1  0.97644000  0.25706000  0.40982000  1.0
  C  C88  1  0.47966000  0.86613000  0.91174000  1.0
  C  C89  1  0.97965000  0.63386000  0.58826000  1.0
  C  C90  1  0.52034000  0.13387000  0.08825000  1.0
  C  C91  1  0.02035000  0.36614000  0.41174000  1.0
  C  C92  1  0.35816000  0.89054000  0.86660000  1.0
  C  C93  1  0.85816000  0.60946000  0.63340000  1.0
  C  C94  1  0.64183000  0.10946000  0.13340000  1.0
  C  C95  1  0.14184000  0.39054000  0.36660000  1.0
  C  C96  1  0.28220000  0.80329000  0.81955000  1.0
  C  C97  1  0.78220000  0.69670000  0.68045000  1.0
  C  C98  1  0.71780000  0.19670000  0.18045000  1.0
  C  C99  1  0.21780000  0.30330000  0.31955000  1.0
  C  C100  1  0.31130000  0.00819000  0.86794000  1.0
  C  C101  1  0.81130000  0.49181000  0.63206000  1.0
  C  C102  1  0.68869000  0.99181000  0.13206000  1.0
  C  C103  1  0.18870000  0.50819000  0.36793000  1.0
  C  C104  1  0.22621000  0.06795000  0.93589000  1.0
  C  C105  1  0.72620000  0.43205000  0.56411000  1.0
  C  C106  1  0.77380000  0.93205000  0.06411000  1.0
  C  C107  1  0.27379000  0.56794000  0.43588000  1.0
  C  C108  1  0.75542000  0.67232000  0.43101000  1.0
  C  C109  1  0.25541000  0.82768000  0.06899000  1.0
  C  C110  1  0.24459000  0.32768000  0.56899000  1.0
  C  C111  1  0.74460000  0.17232000  0.93102000  1.0
  C  C112  1  0.85993000  0.72509000  0.39075000  1.0
  C  C113  1  0.35992000  0.77492000  0.10925000  1.0
  C  C114  1  0.14008000  0.27492000  0.60925000  1.0
  C  C115  1  0.64009000  0.22509000  0.89075000  1.0
  C  C116  1  0.87852000  0.83802000  0.41003000  1.0
  C  C117  1  0.37851000  0.66198000  0.08997000  1.0
  C  C118  1  0.12149000  0.16199000  0.58997000  1.0
  C  C119  1  0.62149000  0.33802000  0.91003000  1.0
  C  C120  1  0.79046000  0.89861000  0.46878000  1.0
  C  C121  1  0.29046000  0.60140000  0.03122000  1.0
  C  C122  1  0.20953000  0.10140000  0.53122000  1.0
  C  C123  1  0.70954000  0.39860000  0.96878000  1.0
  C  C124  1  0.80221000  0.01588000  0.49140000  1.0
  C  C125  1  0.30221000  0.48412000  0.00860000  1.0
  C  C126  1  0.19779000  0.98412000  0.50860000  1.0
  C  C127  1  0.69779000  0.51588000  0.99140000  1.0
  C  C128  1  0.71175000  0.07277000  0.54691000  1.0
  C  C129  1  0.21175000  0.42724000  0.95309000  1.0
  C  C130  1  0.28825000  0.92723000  0.45309000  1.0
  C  C131  1  0.78825000  0.57277000  0.04691000  1.0
  C  C132  1  0.60211000  0.01556000  0.58414000  1.0
  C  C133  1  0.10211000  0.48445000  0.91587000  1.0
  C  C134  1  0.39790000  0.98444000  0.41587000  1.0
  C  C135  1  0.89789000  0.51556000  0.08413000  1.0
  C  C136  1  0.50234000  0.07084000  0.64040000  1.0
  C  C137  1  0.00234000  0.42917000  0.85960000  1.0
  C  C138  1  0.49766000  0.92916000  0.35960000  1.0
  C  C139  1  0.99765000  0.57084000  0.14040000  1.0
  C  C140  1  0.39740000  0.01060000  0.67338000  1.0
  C  C141  1  0.89740000  0.48940000  0.82662000  1.0
  C  C142  1  0.60260000  0.98939000  0.32662000  1.0
  C  C143  1  0.10259000  0.51061000  0.17338000  1.0
  C  C144  1  0.39306000  0.89508000  0.65035000  1.0
  C  C145  1  0.89306000  0.60492000  0.84965000  1.0
  C  C146  1  0.60694000  0.10491000  0.34965000  1.0
  C  C147  1  0.10694000  0.39509000  0.15036000  1.0
  C  C148  1  0.58776000  0.89878000  0.56379000  1.0
  C  C149  1  0.08775000  0.60123000  0.93621000  1.0
  C  C150  1  0.41225000  0.10122000  0.43621000  1.0
  C  C151  1  0.91225000  0.39878000  0.06379000  1.0
  C  C152  1  0.68439000  0.83902000  0.50509000  1.0
  C  C153  1  0.18439000  0.66099000  0.99491000  1.0
  C  C154  1  0.31561000  0.16098000  0.49491000  1.0
  C  C155  1  0.81561000  0.33902000  0.00509000  1.0
  N  N156  1  0.67017000  0.72782000  0.48599000  1.0
  N  N157  1  0.17016000  0.77218000  0.01401000  1.0
  N  N158  1  0.32984000  0.27218000  0.51401000  1.0
  N  N159  1  0.82984000  0.22782000  0.98599000  1.0
  N  N160  1  0.48513000  0.84156000  0.59715000  1.0
  N  N161  1  0.98512000  0.65844000  0.90285000  1.0
  N  N162  1  0.51488000  0.15843000  0.40284000  1.0
  N  N163  1  0.01487000  0.34157000  0.09716000  1.0
  O  O164  1  0.35463000  0.64754000  0.65371000  1.0
  O  O165  1  0.85462000  0.85246000  0.84629000  1.0
  O  O166  1  0.64537000  0.35246000  0.34629000  1.0
  O  O167  1  0.14537000  0.14754000  0.15371000  1.0
  O  O168  1  0.45294000  0.49244000  0.68415000  1.0
  O  O169  1  0.95294000  0.00756000  0.81585000  1.0
  O  O170  1  0.54706000  0.50756000  0.31585000  1.0
  O  O171  1  0.04707000  0.99243000  0.18415000  1.0
  O  O172  1  0.22206000  0.17141000  0.95121000  1.0
  O  O173  1  0.72205000  0.32859000  0.54879000  1.0
  O  O174  1  0.77796000  0.82860000  0.04879000  1.0
  O  O175  1  0.27794000  0.67140000  0.45120000  1.0
  O  O176  1  0.15619000  0.00920000  0.97601000  1.0
  O  O177  1  0.65619000  0.49081000  0.52399000  1.0
  O  O178  1  0.84381000  0.99081000  0.02399000  1.0
  O  O179  1  0.34381000  0.50919000  0.47601000  1.0
