# generated using pymatgen
data_ZnPH15C14(NO)4
_symmetry_space_group_name_H-M   'P 1'
_cell_length_a   8.52910000
_cell_length_b   9.76647000
_cell_length_c   10.53150000
_cell_angle_alpha   82.47030000
_cell_angle_beta   74.78350000
_cell_angle_gamma   69.01410000
_symmetry_Int_Tables_number   1
_chemical_formula_structural   ZnPH15C14(NO)4
_chemical_formula_sum   'Zn2 P2 H30 C28 N8 O8'
_cell_volume   789.69099368
_cell_formula_units_Z   2
loop_
 _symmetry_equiv_pos_site_id
 _symmetry_equiv_pos_as_xyz
  1  'x, y, z'
loop_
 _atom_site_type_symbol
 _atom_site_label
 _atom_site_symmetry_multiplicity
 _atom_site_fract_x
 _atom_site_fract_y
 _atom_site_fract_z
 _atom_site_occupancy
  Zn  Zn0  1  0.88252000  0.56611000  0.17304000  1.0
  Zn  Zn1  1  0.11748000  0.43388000  0.82696000  1.0
  P  P2  1  0.72352000  0.52844000  0.95497000  1.0
  P  P3  1  0.27648000  0.47156000  0.04503000  1.0
  H  H4  1  0.58552000  0.36829000  0.96072000  1.0
  H  H5  1  0.41448000  0.63171000  0.03928000  1.0
  H  H6  1  0.76544000  0.21649000  0.43745000  1.0
  H  H7  1  0.23456000  0.78352000  0.56255000  1.0
  H  H8  1  0.65257000  0.01890000  0.42617000  1.0
  H  H9  1  0.34743000  0.98111000  0.57382000  1.0
  H  H10  1  0.64744000  0.83024000  0.61182000  1.0
  H  H11  1  0.35256000  0.16977000  0.38817000  1.0
  H  H12  1  0.75546000  0.84109000  0.80346000  1.0
  H  H13  1  0.24454000  0.15891000  0.19653000  1.0
  H  H14  1  0.03530000  0.00168000  0.82030000  1.0
  H  H15  1  0.96470000  0.99832000  0.17970000  1.0
  H  H16  1  0.85186000  0.15666000  0.87557000  1.0
  H  H17  1  0.14814000  0.84333000  0.12443000  1.0
  H  H18  1  0.04346000  0.74652000  0.93547000  1.0
  H  H19  1  0.95655000  0.25348000  0.06452000  1.0
  H  H20  1  0.59076000  0.88685000  0.23839000  1.0
  H  H21  1  0.40925000  0.11314000  0.76161000  1.0
  H  H22  1  0.59654000  0.12114000  0.05729000  1.0
  H  H23  1  0.40345000  0.87885000  0.94271000  1.0
  H  H24  1  0.03795000  0.22152000  0.60616000  1.0
  H  H25  1  0.96205000  0.77848000  0.39384000  1.0
  H  H26  1  0.85563000  0.30207000  0.73498000  1.0
  H  H27  1  0.14437000  0.69793000  0.26503000  1.0
  H  H28  1  0.03363000  0.33639000  0.36952000  1.0
  H  H29  1  0.96636000  0.66361000  0.63048000  1.0
  H  H30  1  0.56869000  0.69515000  0.45173000  1.0
  H  H31  1  0.43131000  0.30485000  0.54827000  1.0
  H  H32  1  0.60099000  0.51643000  0.68084000  1.0
  H  H33  1  0.39901000  0.48357000  0.31917000  1.0
  C  C34  1  0.82248000  0.03597000  0.73096000  1.0
  C  C35  1  0.17752000  0.96404000  0.26903000  1.0
  C  C36  1  0.82484000  0.14297000  0.62713000  1.0
  C  C37  1  0.17516000  0.85703000  0.37287000  1.0
  C  C38  1  0.76378000  0.13454000  0.51835000  1.0
  C  C39  1  0.23622000  0.86547000  0.48164000  1.0
  C  C40  1  0.69987000  0.02314000  0.51179000  1.0
  C  C41  1  0.30013000  0.97686000  0.48820000  1.0
  C  C42  1  0.69696000  0.91804000  0.61502000  1.0
  C  C43  1  0.30304000  0.08197000  0.38497000  1.0
  C  C44  1  0.75839000  0.92447000  0.72383000  1.0
  C  C45  1  0.24161000  0.07553000  0.27616000  1.0
  C  C46  1  0.89294000  0.04267000  0.84694000  1.0
  C  C47  1  0.10706000  0.95733000  0.15306000  1.0
  C  C48  1  0.92211000  0.81651000  0.99401000  1.0
  C  C49  1  0.07789000  0.18349000  0.00598000  1.0
  C  C50  1  0.68729000  0.89332000  0.14963000  1.0
  C  C51  1  0.31272000  0.10667000  0.85037000  1.0
  C  C52  1  0.68775000  0.00971000  0.06105000  1.0
  C  C53  1  0.31225000  0.99028000  0.93895000  1.0
  C  C54  1  0.89600000  0.26286000  0.63449000  1.0
  C  C55  1  0.10400000  0.73714000  0.36551000  1.0
  C  C56  1  0.91134000  0.41022000  0.42180000  1.0
  C  C57  1  0.08866000  0.58978000  0.57820000  1.0
  C  C58  1  0.67038000  0.59452000  0.46873000  1.0
  C  C59  1  0.32962000  0.40548000  0.53128000  1.0
  C  C60  1  0.68258000  0.50729000  0.58184000  1.0
  C  C61  1  0.31742000  0.49272000  0.41816000  1.0
  N  N62  1  0.83781000  0.95861000  0.96381000  1.0
  N  N63  1  0.16218000  0.04139000  0.03619000  1.0
  N  N64  1  0.83382000  0.77429000  0.10718000  1.0
  N  N65  1  0.16619000  0.22570000  0.89281000  1.0
  N  N66  1  0.83576000  0.39120000  0.54966000  1.0
  N  N67  1  0.16424000  0.60880000  0.45034000  1.0
  N  N68  1  0.81380000  0.53295000  0.36984000  1.0
  N  N69  1  0.18620000  0.46706000  0.63017000  1.0
  O  O70  1  0.55979000  0.66392000  0.96458000  1.0
  O  O71  1  0.44021000  0.33607000  0.03543000  1.0
  O  O72  1  0.76855000  0.47401000  0.09087000  1.0
  O  O73  1  0.23145000  0.52599000  0.90913000  1.0
  O  O74  1  0.69727000  0.39362000  0.90316000  1.0
  O  O75  1  0.30273000  0.60638000  0.09685000  1.0
  O  O76  1  0.87516000  0.55903000  0.85239000  1.0
  O  O77  1  0.12484000  0.44096000  0.14762000  1.0
