# generated using pymatgen
data_CuH8Pt(C7N3)2
_symmetry_space_group_name_H-M   'P 1'
_cell_length_a   6.87526000
_cell_length_b   9.23933000
_cell_length_c   11.58020000
_cell_angle_alpha   89.33880000
_cell_angle_beta   88.05850000
_cell_angle_gamma   68.15730000
_symmetry_Int_Tables_number   1
_chemical_formula_structural   CuH8Pt(C7N3)2
_chemical_formula_sum   'Cu2 H16 Pt2 C28 N12'
_cell_volume   682.40418261
_cell_formula_units_Z   2
loop_
 _symmetry_equiv_pos_site_id
 _symmetry_equiv_pos_as_xyz
  1  'x, y, z'
loop_
 _atom_site_type_symbol
 _atom_site_label
 _atom_site_symmetry_multiplicity
 _atom_site_fract_x
 _atom_site_fract_y
 _atom_site_fract_z
 _atom_site_occupancy
  Cu  Cu0  1  0.35911000  0.28153000  0.75010000  1.0
  Cu  Cu1  1  0.64089000  0.71847000  0.24990000  1.0
  H  H2  1  0.21164000  0.85627000  0.71299000  1.0
  H  H3  1  0.06884000  0.14375000  0.21294000  1.0
  H  H4  1  0.78837000  0.14373000  0.28701000  1.0
  H  H5  1  0.93116000  0.85625000  0.78706000  1.0
  H  H6  1  0.54093000  0.83375000  0.60427000  1.0
  H  H7  1  0.37562000  0.16622000  0.10429000  1.0
  H  H8  1  0.45909000  0.16624000  0.39573000  1.0
  H  H9  1  0.62438000  0.83378000  0.89571000  1.0
  H  H10  1  0.80562000  0.56607000  0.55807000  1.0
  H  H11  1  0.37227000  0.43389000  0.05806000  1.0
  H  H12  1  0.19439000  0.43391000  0.44194000  1.0
  H  H13  1  0.62773000  0.56611000  0.94194000  1.0
  H  H14  1  0.72690000  0.33509000  0.62078000  1.0
  H  H15  1  0.06210000  0.66489000  0.12061000  1.0
  H  H16  1  0.27310000  0.66490000  0.37923000  1.0
  H  H17  1  0.93790000  0.33511000  0.87939000  1.0
  Pt  Pt18  1  0.99999000  0.00000000  0.00000000  1.0
  Pt  Pt19  1  0.99999000  0.00000000  0.50000000  1.0
  C  C20  1  0.74404000  0.16817000  0.94507000  1.0
  C  C21  1  0.91236000  0.83165000  0.44496000  1.0
  C  C22  1  0.25595000  0.83184000  0.05493000  1.0
  C  C23  1  0.08764000  0.16835000  0.55504000  1.0
  C  C24  1  0.17574000  0.07317000  0.89393000  1.0
  C  C25  1  0.24913000  0.92680000  0.39399000  1.0
  C  C26  1  0.82424000  0.92685000  0.10606000  1.0
  C  C27  1  0.75086000  0.07320000  0.60601000  1.0
  C  C28  1  0.29083000  0.60702000  0.71911000  1.0
  C  C29  1  0.89836000  0.39297000  0.21896000  1.0
  C  C30  1  0.70917000  0.39298000  0.28089000  1.0
  C  C31  1  0.10164000  0.60703000  0.78104000  1.0
  C  C32  1  0.32650000  0.74227000  0.68905000  1.0
  C  C33  1  0.06953000  0.25772000  0.18896000  1.0
  C  C34  1  0.67350000  0.25772000  0.31094000  1.0
  C  C35  1  0.93047000  0.74228000  0.81104000  1.0
  C  C36  1  0.51127000  0.72962000  0.62925000  1.0
  C  C37  1  0.24173000  0.27035000  0.12923000  1.0
  C  C38  1  0.48874000  0.27037000  0.37075000  1.0
  C  C39  1  0.75827000  0.72965000  0.87076000  1.0
  C  C40  1  0.65813000  0.58182000  0.60355000  1.0
  C  C41  1  0.24057000  0.41815000  0.10353000  1.0
  C  C42  1  0.34188000  0.41817000  0.39645000  1.0
  C  C43  1  0.75943000  0.58185000  0.89647000  1.0
  C  C44  1  0.61420000  0.45191000  0.63740000  1.0
  C  C45  1  0.06645000  0.54806000  0.13729000  1.0
  C  C46  1  0.38580000  0.54808000  0.36261000  1.0
  C  C47  1  0.93355000  0.45195000  0.86271000  1.0
  N  N48  1  0.59341000  0.26747000  0.91157000  1.0
  N  N49  1  0.86111000  0.73214000  0.41163000  1.0
  N  N50  1  0.40658000  0.73254000  0.08842000  1.0
  N  N51  1  0.13889000  0.26785000  0.58836000  1.0
  N  N52  1  0.27209000  0.12627000  0.83352000  1.0
  N  N53  1  0.39868000  0.87375000  0.33352000  1.0
  N  N54  1  0.72791000  0.87373000  0.16648000  1.0
  N  N55  1  0.60131000  0.12624000  0.66648000  1.0
  N  N56  1  0.43436000  0.46371000  0.69220000  1.0
  N  N57  1  0.89834000  0.53627000  0.19202000  1.0
  N  N58  1  0.56564000  0.53629000  0.30780000  1.0
  N  N59  1  0.10165000  0.46373000  0.80798000  1.0
