# generated using pymatgen
data_ZnSiH2C8S4(NF2)4
_symmetry_space_group_name_H-M   'P 1'
_cell_length_a   7.65511000
_cell_length_b   8.88332000
_cell_length_c   8.88334000
_cell_angle_alpha   90.13070000
_cell_angle_beta   90.88090000
_cell_angle_gamma   90.87900000
_symmetry_Int_Tables_number   1
_chemical_formula_structural   ZnSiH2C8S4(NF2)4
_chemical_formula_sum   'Zn1 Si1 H2 C8 S4 N4 F8'
_cell_volume   603.94753073
_cell_formula_units_Z   1
loop_
 _symmetry_equiv_pos_site_id
 _symmetry_equiv_pos_as_xyz
  1  'x, y, z'
loop_
 _atom_site_type_symbol
 _atom_site_label
 _atom_site_symmetry_multiplicity
 _atom_site_fract_x
 _atom_site_fract_y
 _atom_site_fract_z
 _atom_site_occupancy
  Zn  Zn0  1  0.48807000  0.49892000  0.49891000  1.0
  Si  Si1  1  0.98375000  0.51529000  0.51530000  1.0
  H  H2  1  0.75593000  0.43070000  0.78086000  1.0
  H  H3  1  0.75592000  0.78086000  0.43067000  1.0
  C  C4  1  0.37733000  0.53366000  0.15581000  1.0
  C  C5  1  0.63125000  0.46098000  0.83066000  1.0
  C  C6  1  0.58999000  0.47371000  0.98548000  1.0
  C  C7  1  0.41674000  0.52011000  0.00185000  1.0
  C  C8  1  0.37734000  0.15582000  0.53365000  1.0
  C  C9  1  0.63124000  0.83063000  0.46094000  1.0
  C  C10  1  0.58996000  0.98544000  0.47368000  1.0
  C  C11  1  0.41671000  0.00184000  0.52007000  1.0
  S  S12  1  0.68644000  0.45125000  0.16110000  1.0
  S  S13  1  0.31518000  0.54064000  0.83122000  1.0
  S  S14  1  0.68644000  0.16109000  0.45126000  1.0
  S  S15  1  0.31516000  0.83122000  0.54061000  1.0
  N  N16  1  0.50326000  0.49882000  0.25155000  1.0
  N  N17  1  0.49661000  0.49318000  0.74026000  1.0
  N  N18  1  0.50328000  0.25154000  0.49885000  1.0
  N  N19  1  0.49660000  0.74026000  0.49315000  1.0
  F  F20  1  0.21807000  0.53533000  0.53535000  1.0
  F  F21  1  0.75394000  0.48882000  0.48882000  1.0
  F  F22  1  0.97719000  0.38394000  0.65313000  1.0
  F  F23  1  0.97722000  0.65312000  0.38395000  1.0
  F  F24  1  0.95582000  0.64885000  0.64884000  1.0
  F  F25  1  0.01566000  0.38302000  0.38306000  1.0
  F  F26  1  0.22527000  0.58128000  0.20500000  1.0
  F  F27  1  0.22526000  0.20501000  0.58128000  1.0
