# generated using pymatgen
data_CdH22C14(SN4)2
_symmetry_space_group_name_H-M   'P 1'
_cell_length_a   7.66281000
_cell_length_b   8.02709833
_cell_length_c   8.81307000
_cell_angle_alpha   78.81767277
_cell_angle_beta   81.48860000
_cell_angle_gamma   61.53286361
_symmetry_Int_Tables_number   1
_chemical_formula_structural   CdH22C14(SN4)2
_chemical_formula_sum   'Cd1 H22 C14 S2 N8'
_cell_volume   466.53021095
_cell_formula_units_Z   1
loop_
 _symmetry_equiv_pos_site_id
 _symmetry_equiv_pos_as_xyz
  1  'x, y, z'
loop_
 _atom_site_type_symbol
 _atom_site_label
 _atom_site_symmetry_multiplicity
 _atom_site_fract_x
 _atom_site_fract_y
 _atom_site_fract_z
 _atom_site_occupancy
  Cd  Cd0  1  0.50000000  0.00000000  0.50000000  1.0
  H  H1  1  0.60086000  0.67826000  0.81919000  1.0
  H  H2  1  0.39913000  0.32175000  0.18081000  1.0
  H  H3  1  0.82120000  0.55234000  0.70724000  1.0
  H  H4  1  0.17880000  0.44767000  0.29276000  1.0
  H  H5  1  0.50540000  0.42145000  0.84081000  1.0
  H  H6  1  0.49461000  0.57855000  0.15919000  1.0
  H  H7  1  0.69134000  0.30757000  0.70003000  1.0
  H  H8  1  0.30866000  0.69244000  0.29997000  1.0
  H  H9  1  0.76987000  0.34923000  0.02110000  1.0
  H  H10  1  0.23014000  0.65076000  0.97890000  1.0
  H  H11  1  0.77558000  0.14397000  0.97029000  1.0
  H  H12  1  0.22441000  0.85603000  0.02971000  1.0
  H  H13  1  0.11064000  0.27495000  0.05245000  1.0
  H  H14  1  0.88935000  0.72506000  0.94754000  1.0
  H  H15  1  0.46942000  0.12057000  0.87018000  1.0
  H  H16  1  0.53057000  0.87944000  0.12982000  1.0
  H  H17  1  0.02165000  0.10205000  0.65892000  1.0
  H  H18  1  0.97835000  0.89794000  0.34108000  1.0
  H  H19  1  0.42145000  0.69081000  0.60117000  1.0
  H  H20  1  0.57855000  0.30919000  0.39883000  1.0
  H  H21  1  0.63838000  0.59861000  0.50083000  1.0
  H  H22  1  0.36162000  0.40140000  0.49917000  1.0
  C  C23  1  0.66573000  0.57988000  0.73179000  1.0
  C  C24  1  0.33428000  0.42012000  0.26821000  1.0
  C  C25  1  0.65739000  0.39210000  0.79484000  1.0
  C  C26  1  0.34261000  0.60790000  0.20516000  1.0
  C  C27  1  0.79739000  0.27058000  0.92391000  1.0
  C  C28  1  0.20262000  0.72942000  0.07609000  1.0
  C  C29  1  0.14888000  0.21551000  0.94472000  1.0
  C  C30  1  0.85110000  0.78451000  0.05528000  1.0
  C  C31  1  0.32324000  0.13967000  0.85372000  1.0
  C  C32  1  0.67677000  0.86034000  0.14628000  1.0
  C  C33  1  0.09758000  0.12766000  0.73925000  1.0
  C  C34  1  0.90243000  0.87233000  0.26076000  1.0
  C  C35  1  0.93076000  0.82572000  0.64791000  1.0
  C  C36  1  0.06927000  0.17425000  0.35208000  1.0
  S  S37  1  0.13683000  0.63104000  0.68384000  1.0
  S  S38  1  0.86319000  0.36893000  0.31616000  1.0
  N  N39  1  0.56236000  0.67946000  0.58818000  1.0
  N  N40  1  0.43765000  0.32054000  0.41182000  1.0
  N  N41  1  0.00724000  0.20697000  0.87039000  1.0
  N  N42  1  0.99275000  0.79304000  0.12962000  1.0
  N  N43  1  0.28899000  0.08611000  0.72599000  1.0
  N  N44  1  0.71100000  0.91389000  0.27402000  1.0
  N  N45  1  0.77663000  0.96642000  0.62613000  1.0
  N  N46  1  0.22337000  0.03356000  0.37386000  1.0
