# generated using pymatgen
data_CaH4(C3O2)3
_symmetry_space_group_name_H-M   'P 1'
_cell_length_a   6.74878000
_cell_length_b   9.13093418
_cell_length_c   10.09690000
_cell_angle_alpha   103.95165269
_cell_angle_beta   101.65290000
_cell_angle_gamma   110.74254753
_symmetry_Int_Tables_number   1
_chemical_formula_structural   CaH4(C3O2)3
_chemical_formula_sum   'Ca2 H8 C18 O12'
_cell_volume   535.64751063
_cell_formula_units_Z   2
loop_
 _symmetry_equiv_pos_site_id
 _symmetry_equiv_pos_as_xyz
  1  'x, y, z'
loop_
 _atom_site_type_symbol
 _atom_site_label
 _atom_site_symmetry_multiplicity
 _atom_site_fract_x
 _atom_site_fract_y
 _atom_site_fract_z
 _atom_site_occupancy
  Ca  Ca0  1  0.29931000  0.53934000  0.11366000  1.0
  Ca  Ca1  1  0.70070000  0.46066000  0.88634000  1.0
  H  H2  1  0.46639000  0.71847000  0.44248000  1.0
  H  H3  1  0.53361000  0.28153000  0.55751000  1.0
  H  H4  1  0.83244000  0.08089000  0.23410000  1.0
  H  H5  1  0.16755000  0.91912000  0.76590000  1.0
  H  H6  1  0.82288000  0.10529000  0.66485000  1.0
  H  H7  1  0.17710000  0.89470000  0.33515000  1.0
  H  H8  1  0.29854000  0.51596000  0.59494000  1.0
  H  H9  1  0.70148000  0.48403000  0.40507000  1.0
  C  C10  1  0.07212000  0.30746000  0.40428000  1.0
  C  C11  1  0.92790000  0.69255000  0.59572000  1.0
  C  C12  1  0.06716000  0.32126000  0.64627000  1.0
  C  C13  1  0.93285000  0.67875000  0.35373000  1.0
  C  C14  1  0.89706000  0.14777000  0.34963000  1.0
  C  C15  1  0.10295000  0.85224000  0.65037000  1.0
  C  C16  1  0.63156000  0.90117000  0.38559000  1.0
  C  C17  1  0.36842000  0.09884000  0.61442000  1.0
  C  C18  1  0.89230000  0.16173000  0.59158000  1.0
  C  C19  1  0.10770000  0.83828000  0.40843000  1.0
  C  C20  1  0.16829000  0.38335000  0.30307000  1.0
  C  C21  1  0.83173000  0.61666000  0.69693000  1.0
  C  C22  1  0.15301000  0.41024000  0.80504000  1.0
  C  C23  1  0.84700000  0.58976000  0.19497000  1.0
  C  C24  1  0.15910000  0.39327000  0.55273000  1.0
  C  C25  1  0.84090000  0.60672000  0.44728000  1.0
  C  C26  1  0.80911000  0.07394000  0.44338000  1.0
  C  C27  1  0.19088000  0.92606000  0.55662000  1.0
  O  O28  1  0.32572000  0.53241000  0.35448000  1.0
  O  O29  1  0.67431000  0.46760000  0.64553000  1.0
  O  O30  1  0.01301000  0.39420000  0.87488000  1.0
  O  O31  1  0.98698000  0.60578000  0.12512000  1.0
  O  O32  1  0.57770000  0.84082000  0.48663000  1.0
  O  O33  1  0.42228000  0.15917000  0.51336000  1.0
  O  O34  1  0.36242000  0.49761000  0.86919000  1.0
  O  O35  1  0.63760000  0.50240000  0.13080000  1.0
  O  O36  1  0.54452000  0.82096000  0.25425000  1.0
  O  O37  1  0.45546000  0.17904000  0.74573000  1.0
  O  O38  1  0.09400000  0.30174000  0.16956000  1.0
  O  O39  1  0.90600000  0.69825000  0.83044000  1.0
