# generated using pymatgen
data_CuH3C4(BrN)2
_symmetry_space_group_name_H-M   'P 1'
_cell_length_a   6.96241000
_cell_length_b   7.01260000
_cell_length_c   7.62456332
_cell_angle_alpha   62.65002684
_cell_angle_beta   89.57801649
_cell_angle_gamma   89.14970000
_symmetry_Int_Tables_number   1
_chemical_formula_structural   CuH3C4(BrN)2
_chemical_formula_sum   'Cu2 H6 C8 Br4 N4'
_cell_volume   330.61666584
_cell_formula_units_Z   2
loop_
 _symmetry_equiv_pos_site_id
 _symmetry_equiv_pos_as_xyz
  1  'x, y, z'
loop_
 _atom_site_type_symbol
 _atom_site_label
 _atom_site_symmetry_multiplicity
 _atom_site_fract_x
 _atom_site_fract_y
 _atom_site_fract_z
 _atom_site_occupancy
  Cu  Cu0  1  0.50013000  0.70409000  0.59167000  1.0
  Cu  Cu1  1  0.49987000  0.29593000  0.40832000  1.0
  H  H2  1  0.94559000  0.18212000  0.00004000  1.0
  H  H3  1  0.05441000  0.81787000  0.99997000  1.0
  H  H4  1  0.10669000  0.43851000  0.67914000  1.0
  H  H5  1  0.89322000  0.88292000  0.67898000  1.0
  H  H6  1  0.89331000  0.56147000  0.32088000  1.0
  H  H7  1  0.10678000  0.11706000  0.32104000  1.0
  C  C8  1  0.40961000  0.44872000  0.00000000  1.0
  C  C9  1  0.59041000  0.55129000  0.00001000  1.0
  C  C10  1  0.08031000  0.25907000  0.00004000  1.0
  C  C11  1  0.91967000  0.74093000  0.99994000  1.0
  C  C12  1  0.16793000  0.39842000  0.82327000  1.0
  C  C13  1  0.83201000  0.77859000  0.82317000  1.0
  C  C14  1  0.83207000  0.60159000  0.17672000  1.0
  C  C15  1  0.16799000  0.22143000  0.17682000  1.0
  Br  Br16  1  0.28859000  0.70212000  0.34541000  1.0
  Br  Br17  1  0.71173000  0.95192000  0.34505000  1.0
  Br  Br18  1  0.71141000  0.29788000  0.65460000  1.0
  Br  Br19  1  0.28827000  0.04805000  0.65491000  1.0
  N  N20  1  0.33351000  0.49420000  0.82443000  1.0
  N  N21  1  0.66638000  0.68161000  0.82442000  1.0
  N  N22  1  0.66648000  0.50581000  0.17556000  1.0
  N  N23  1  0.33361000  0.31839000  0.17561000  1.0
