# generated using pymatgen
data_ZnH10C20N3O8
_symmetry_space_group_name_H-M   'P 1'
_cell_length_a   14.77750000
_cell_length_b   16.12180000
_cell_length_c   19.20450000
_cell_angle_alpha   89.99510000
_cell_angle_beta   90.01630000
_cell_angle_gamma   89.56010000
_symmetry_Int_Tables_number   1
_chemical_formula_structural   ZnH10C20N3O8
_chemical_formula_sum   'Zn2 H20 C40 N6 O16'
_cell_volume   4575.14309811
_cell_formula_units_Z   2
loop_
 _symmetry_equiv_pos_site_id
 _symmetry_equiv_pos_as_xyz
  1  'x, y, z'
loop_
 _atom_site_type_symbol
 _atom_site_label
 _atom_site_symmetry_multiplicity
 _atom_site_fract_x
 _atom_site_fract_y
 _atom_site_fract_z
 _atom_site_occupancy
  Zn  Zn0  1  0.59521000  0.49690000  0.49999000  1.0
  Zn  Zn1  1  0.40480000  0.50007000  0.50003000  1.0
  H  H2  1  0.64455000  0.51442000  0.27955000  1.0
  H  H3  1  0.56967000  0.05487000  0.39342000  1.0
  H  H4  1  0.93809000  0.63461000  0.54030000  1.0
  H  H5  1  0.06190000  0.36551000  0.45971000  1.0
  H  H6  1  0.98004000  0.34340000  0.60451000  1.0
  H  H7  1  0.01996000  0.65672000  0.39550000  1.0
  H  H8  1  0.61159000  0.01676000  0.64327000  1.0
  H  H9  1  0.38850000  0.98097000  0.35673000  1.0
  H  H10  1  0.28310000  0.01173000  0.50775000  1.0
  H  H11  1  0.71697000  0.98601000  0.49233000  1.0
  H  H12  1  0.02129000  0.54185000  0.66418000  1.0
  H  H13  1  0.35548000  0.51522000  0.72043000  1.0
  H  H14  1  0.97874000  0.45875000  0.33575000  1.0
  H  H15  1  0.64544000  0.53900000  0.15033000  1.0
  H  H16  1  0.35442000  0.54001000  0.84964000  1.0
  H  H17  1  0.35419000  0.54039000  0.14987000  1.0
  H  H18  1  0.64566000  0.53899000  0.85012000  1.0
  H  H19  1  0.35465000  0.51607000  0.27915000  1.0
  H  H20  1  0.64533000  0.51390000  0.72089000  1.0
  H  H21  1  0.43041000  0.94270000  0.60654000  1.0
  C  C22  1  0.50305000  0.66042000  0.49983000  1.0
  C  C23  1  0.41251000  0.02520000  0.50424000  1.0
  C  C24  1  0.50287000  0.91333000  0.49895000  1.0
  C  C25  1  0.49725000  0.08424000  0.50102000  1.0
  C  C26  1  0.50367000  0.82565000  0.49876000  1.0
  C  C27  1  0.49644000  0.17191000  0.50121000  1.0
  C  C28  1  0.96646000  0.57548000  0.52262000  1.0
  C  C29  1  0.03347000  0.42462000  0.47738000  1.0
  C  C30  1  0.02968000  0.51586000  0.56600000  1.0
  C  C31  1  0.97028000  0.48426000  0.43401000  1.0
  C  C32  1  0.02903000  0.56209000  0.45727000  1.0
  C  C33  1  0.49710000  0.33711000  0.50024000  1.0
  C  C34  1  0.97095000  0.43802000  0.54274000  1.0
  C  C35  1  0.09230000  0.50136000  0.50029000  1.0
  C  C36  1  0.90765000  0.49874000  0.49972000  1.0
  C  C37  1  0.49938000  0.50371000  0.36424000  1.0
  C  C38  1  0.50069000  0.50318000  0.63578000  1.0
  C  C39  1  0.18784000  0.50276000  0.50061000  1.0
  C  C40  1  0.81213000  0.49669000  0.49941000  1.0
  C  C41  1  0.58165000  0.51997000  0.25028000  1.0
  C  C42  1  0.41833000  0.52030000  0.74972000  1.0
  C  C43  1  0.58203000  0.53347000  0.17882000  1.0
  C  C44  1  0.54568000  0.02662000  0.55675000  1.0
  C  C45  1  0.41786000  0.53395000  0.82115000  1.0
  C  C46  1  0.49981000  0.54155000  0.14236000  1.0
  C  C47  1  0.50003000  0.54149000  0.85759000  1.0
  C  C48  1  0.41747000  0.53423000  0.17857000  1.0
  C  C49  1  0.58242000  0.53337000  0.82140000  1.0
  C  C50  1  0.41764000  0.52081000  0.25002000  1.0
  C  C51  1  0.58234000  0.51965000  0.74999000  1.0
  C  C52  1  0.49957000  0.51426000  0.28652000  1.0
  C  C53  1  0.50045000  0.51379000  0.71350000  1.0
  C  C54  1  0.49987000  0.55752000  0.93267000  1.0
  C  C55  1  0.45442000  0.97095000  0.44322000  1.0
  C  C56  1  0.49982000  0.55752000  0.06728000  1.0
  C  C57  1  0.46108000  0.96861000  0.55960000  1.0
  C  C58  1  0.53904000  0.02896000  0.44038000  1.0
  C  C59  1  0.50350000  0.75012000  0.49920000  1.0
  C  C60  1  0.49659000  0.24744000  0.50079000  1.0
  C  C61  1  0.58761000  0.97239000  0.49574000  1.0
  N  N62  1  0.41963000  0.56895000  0.03418000  1.0
  N  N63  1  0.57987000  0.56892000  0.96576000  1.0
  N  N64  1  0.41965000  0.56895000  0.96568000  1.0
  N  N65  1  0.57985000  0.56891000  0.03427000  1.0
  N  N66  1  0.26637000  0.50322000  0.50069000  1.0
  N  N67  1  0.73364000  0.49507000  0.49934000  1.0
  O  O68  1  0.58004000  0.62435000  0.50017000  1.0
  O  O69  1  0.06705000  0.62090000  0.41503000  1.0
  O  O70  1  0.59217000  0.06115000  0.61205000  1.0
  O  O71  1  0.40789000  0.93652000  0.38791000  1.0
  O  O72  1  0.32560000  0.05770000  0.50695000  1.0
  O  O73  1  0.67455000  0.93997000  0.49304000  1.0
  O  O74  1  0.06824000  0.52958000  0.62990000  1.0
  O  O75  1  0.93174000  0.47060000  0.37009000  1.0
  O  O76  1  0.42008000  0.37320000  0.49979000  1.0
  O  O77  1  0.42556000  0.62630000  0.50008000  1.0
  O  O78  1  0.57459000  0.37118000  0.50014000  1.0
  O  O79  1  0.57618000  0.49951000  0.39411000  1.0
  O  O80  1  0.42385000  0.50037000  0.60590000  1.0
  O  O81  1  0.42241000  0.50099000  0.39394000  1.0
  O  O82  1  0.57762000  0.49922000  0.60609000  1.0
  O  O83  1  0.93294000  0.37921000  0.58498000  1.0
