# generated using pymatgen
data_Mg(H5C6)2
_symmetry_space_group_name_H-M   'P 1'
_cell_length_a   5.56789000
_cell_length_b   9.41247000
_cell_length_c   10.70556393
_cell_angle_alpha   116.07968238
_cell_angle_beta   105.07030865
_cell_angle_gamma   89.98780000
_symmetry_Int_Tables_number   1
_chemical_formula_structural   Mg(H5C6)2
_chemical_formula_sum   'Mg2 H20 C24'
_cell_volume   482.36849996
_cell_formula_units_Z   2
loop_
 _symmetry_equiv_pos_site_id
 _symmetry_equiv_pos_as_xyz
  1  'x, y, z'
loop_
 _atom_site_type_symbol
 _atom_site_label
 _atom_site_symmetry_multiplicity
 _atom_site_fract_x
 _atom_site_fract_y
 _atom_site_fract_z
 _atom_site_occupancy
  Mg  Mg0  1  0.24999000  0.49997000  0.50001000  1.0
  Mg  Mg1  1  0.75000000  0.50003000  0.50000000  1.0
  H  H2  1  0.50643000  0.19474000  0.51303000  1.0
  H  H3  1  0.00640000  0.81844000  0.51303000  1.0
  H  H4  1  0.49354000  0.80526000  0.48696000  1.0
  H  H5  1  0.99358000  0.18156000  0.48697000  1.0
  H  H6  1  0.41340000  0.91382000  0.32647000  1.0
  H  H7  1  0.91342000  0.91256000  0.32629000  1.0
  H  H8  1  0.58658000  0.08618000  0.67351000  1.0
  H  H9  1  0.08659000  0.08743000  0.67371000  1.0
  H  H10  1  0.28246000  0.84656000  0.06415000  1.0
  H  H11  1  0.78250000  0.71739000  0.06403000  1.0
  H  H12  1  0.71756000  0.15345000  0.93584000  1.0
  H  H13  1  0.21751000  0.28260000  0.93597000  1.0
  H  H14  1  0.24529000  0.06333000  0.99023000  1.0
  H  H15  1  0.74533000  0.42667000  0.99032000  1.0
  H  H16  1  0.75474000  0.93669000  0.00977000  1.0
  H  H17  1  0.25468000  0.57332000  0.00968000  1.0
  H  H18  1  0.33830000  0.34545000  0.17611000  1.0
  H  H19  1  0.83809000  0.33070000  0.17646000  1.0
  H  H20  1  0.66171000  0.65456000  0.82390000  1.0
  H  H21  1  0.16189000  0.66930000  0.82354000  1.0
  C  C22  1  0.43141000  0.29691000  0.36239000  1.0
  C  C23  1  0.93130000  0.56561000  0.36253000  1.0
  C  C24  1  0.56858000  0.70310000  0.63761000  1.0
  C  C25  1  0.06870000  0.43438000  0.63748000  1.0
  C  C26  1  0.44930000  0.16884000  0.39861000  1.0
  C  C27  1  0.94938000  0.72987000  0.39863000  1.0
  C  C28  1  0.55067000  0.83115000  0.60137000  1.0
  C  C29  1  0.05062000  0.27013000  0.60137000  1.0
  C  C30  1  0.39703000  0.00895000  0.29387000  1.0
  C  C31  1  0.89708000  0.78489000  0.29377000  1.0
  C  C32  1  0.60295000  0.99106000  0.70613000  1.0
  C  C33  1  0.10293000  0.21510000  0.70624000  1.0
  C  C34  1  0.32364000  0.97100000  0.14665000  1.0
  C  C35  1  0.82356000  0.67548000  0.14658000  1.0
  C  C36  1  0.67637000  0.02901000  0.85334000  1.0
  C  C37  1  0.17645000  0.32451000  0.85343000  1.0
  C  C38  1  0.30285000  0.09316000  0.10531000  1.0
  C  C39  1  0.80277000  0.51202000  0.10537000  1.0
  C  C40  1  0.69718000  0.90686000  0.89470000  1.0
  C  C41  1  0.19722000  0.48797000  0.89463000  1.0
  C  C42  1  0.35599000  0.25229000  0.21163000  1.0
  C  C43  1  0.85587000  0.45935000  0.21180000  1.0
  C  C44  1  0.64401000  0.74772000  0.78836000  1.0
  C  C45  1  0.14413000  0.54065000  0.78820000  1.0
