# generated using pymatgen
data_CuH16C12S(N2O)4
_symmetry_space_group_name_H-M   'P 1'
_cell_length_a   8.07328000
_cell_length_b   8.63675000
_cell_length_c   13.80940000
_cell_angle_alpha   92.13340000
_cell_angle_beta   99.87710000
_cell_angle_gamma   91.99530000
_symmetry_Int_Tables_number   1
_chemical_formula_structural   CuH16C12S(N2O)4
_chemical_formula_sum   'Cu2 H32 C24 S2 N16 O8'
_cell_volume   947.12662464
_cell_formula_units_Z   2
loop_
 _symmetry_equiv_pos_site_id
 _symmetry_equiv_pos_as_xyz
  1  'x, y, z'
loop_
 _atom_site_type_symbol
 _atom_site_label
 _atom_site_symmetry_multiplicity
 _atom_site_fract_x
 _atom_site_fract_y
 _atom_site_fract_z
 _atom_site_occupancy
  Cu  Cu0  1  0.50000000  0.00000000  0.50000000  1.0
  Cu  Cu1  1  0.50000000  0.00000000  0.00000000  1.0
  H  H2  1  0.27583000  0.81190000  0.62427000  1.0
  H  H3  1  0.72417000  0.18810000  0.37573000  1.0
  H  H4  1  0.64574000  0.72434000  0.57823000  1.0
  H  H5  1  0.35427000  0.27566000  0.42177000  1.0
  H  H6  1  0.32922000  0.72649000  0.84537000  1.0
  H  H7  1  0.67078000  0.27351000  0.15463000  1.0
  H  H8  1  0.24526000  0.19053000  0.08336000  1.0
  H  H9  1  0.75474000  0.80948000  0.91664000  1.0
  H  H10  1  0.16007000  0.97291000  0.34405000  1.0
  H  H11  1  0.83993000  0.02710000  0.65594000  1.0
  H  H12  1  0.88504000  0.78796000  0.37311000  1.0
  H  H13  1  0.11496000  0.21204000  0.62688000  1.0
  H  H14  1  0.98279000  0.69120000  0.56276000  1.0
  H  H15  1  0.01721000  0.30879000  0.43724000  1.0
  H  H16  1  0.48473000  0.80480000  0.29037000  1.0
  H  H17  1  0.51527000  0.19520000  0.70963000  1.0
  H  H18  1  0.59510000  0.50004000  0.29364000  1.0
  H  H19  1  0.40490000  0.49996000  0.70635000  1.0
  H  H20  1  0.71053000  0.46225000  0.49052000  1.0
  H  H21  1  0.28948000  0.53775000  0.50948000  1.0
  H  H22  1  0.45058000  0.74662000  0.14663000  1.0
  H  H23  1  0.54942000  0.25339000  0.85337000  1.0
  H  H24  1  0.28954000  0.46141000  0.09563000  1.0
  H  H25  1  0.71046000  0.53859000  0.90437000  1.0
  H  H26  1  0.20459000  0.46678000  0.89172000  1.0
  H  H27  1  0.79541000  0.53322000  0.10828000  1.0
  H  H28  1  0.21362000  0.99588000  0.80308000  1.0
  H  H29  1  0.78638000  0.00411000  0.19692000  1.0
  H  H30  1  0.91079000  0.13888000  0.80930000  1.0
  H  H31  1  0.08920000  0.86111000  0.19070000  1.0
  H  H32  1  0.95146000  0.26122000  0.99926000  1.0
  H  H33  1  0.04854000  0.73877000  0.00074000  1.0
  C  C34  1  0.13954000  0.90806000  0.40699000  1.0
  C  C35  1  0.86045000  0.09194000  0.59301000  1.0
  C  C36  1  0.00220000  0.81433000  0.42313000  1.0
  C  C37  1  0.99780000  0.18567000  0.57687000  1.0
  C  C38  1  0.04858000  0.76379000  0.51810000  1.0
  C  C39  1  0.95143000  0.23621000  0.48189000  1.0
  C  C40  1  0.53900000  0.73605000  0.35131000  1.0
  C  C41  1  0.46101000  0.26394000  0.64869000  1.0
  C  C42  1  0.59779000  0.58436000  0.35409000  1.0
  C  C43  1  0.40222000  0.41564000  0.64591000  1.0
  C  C44  1  0.65626000  0.56152000  0.45319000  1.0
  C  C45  1  0.34374000  0.43849000  0.54681000  1.0
  C  C46  1  0.39665000  0.69614000  0.07487000  1.0
  C  C47  1  0.60335000  0.30386000  0.92513000  1.0
  C  C48  1  0.31135000  0.55294000  0.04721000  1.0
  C  C49  1  0.68866000  0.44706000  0.95279000  1.0
  C  C50  1  0.26853000  0.55372000  0.94524000  1.0
  C  C51  1  0.73147000  0.44628000  0.05476000  1.0
  C  C52  1  0.17096000  0.05936000  0.86293000  1.0
  C  C53  1  0.82904000  0.94063000  0.13707000  1.0
  C  C54  1  0.01961000  0.13313000  0.86681000  1.0
  C  C55  1  0.98039000  0.86687000  0.13319000  1.0
  C  C56  1  0.03603000  0.19476000  0.96273000  1.0
  C  C57  1  0.96397000  0.80524000  0.03727000  1.0
  S  S58  1  0.45019000  0.15202000  0.24461000  1.0
  S  S59  1  0.54981000  0.84798000  0.75539000  1.0
  N  N60  1  0.26108000  0.91322000  0.48700000  1.0
  N  N61  1  0.73892000  0.08678000  0.51300000  1.0
  N  N62  1  0.20444000  0.82480000  0.55380000  1.0
  N  N63  1  0.79556000  0.17519000  0.44619000  1.0
  N  N64  1  0.56125000  0.79976000  0.44287000  1.0
  N  N65  1  0.43875000  0.20024000  0.55712000  1.0
  N  N66  1  0.63266000  0.69349000  0.50384000  1.0
  N  N67  1  0.36734000  0.30651000  0.49616000  1.0
  N  N68  1  0.40446000  0.77891000  0.99521000  1.0
  N  N69  1  0.59554000  0.22109000  0.00479000  1.0
  N  N70  1  0.32427000  0.69155000  0.91685000  1.0
  N  N71  1  0.67573000  0.30845000  0.08315000  1.0
  N  N72  1  0.27205000  0.07607000  0.95125000  1.0
  N  N73  1  0.72795000  0.92393000  0.04875000  1.0
  N  N74  1  0.18846000  0.15828000  0.01078000  1.0
  N  N75  1  0.81154000  0.84173000  0.98922000  1.0
  O  O76  1  0.62967000  0.22089000  0.26347000  1.0
  O  O77  1  0.37032000  0.77911000  0.73653000  1.0
  O  O78  1  0.33652000  0.26628000  0.19360000  1.0
  O  O79  1  0.66348000  0.73373000  0.80640000  1.0
  O  O80  1  0.40356000  0.12162000  0.34253000  1.0
  O  O81  1  0.59644000  0.87837000  0.65747000  1.0
  O  O82  1  0.44398000  0.00675000  0.18364000  1.0
  O  O83  1  0.55602000  0.99326000  0.81636000  1.0
