# generated using pymatgen
data_ZnH15C12SN3O4
_symmetry_space_group_name_H-M   'P 1'
_cell_length_a   8.35719000
_cell_length_b   13.40030000
_cell_length_c   14.37430000
_cell_angle_alpha   90.00080000
_cell_angle_beta   90.00050000
_cell_angle_gamma   77.19400000
_symmetry_Int_Tables_number   1
_chemical_formula_structural   ZnH15C12SN3O4
_chemical_formula_sum   'Zn4 H60 C48 S4 N12 O16'
_cell_volume   1569.72040637
_cell_formula_units_Z   4
loop_
 _symmetry_equiv_pos_site_id
 _symmetry_equiv_pos_as_xyz
  1  'x, y, z'
loop_
 _atom_site_type_symbol
 _atom_site_label
 _atom_site_symmetry_multiplicity
 _atom_site_fract_x
 _atom_site_fract_y
 _atom_site_fract_z
 _atom_site_occupancy
  Zn  Zn0  1  0.16728000  0.70376000  0.22062000  1.0
  Zn  Zn1  1  0.16727000  0.20377000  0.27938000  1.0
  Zn  Zn2  1  0.83273000  0.29623000  0.77938000  1.0
  Zn  Zn3  1  0.83272000  0.79624000  0.72062000  1.0
  H  H4  1  0.68068000  0.76055000  0.24035000  1.0
  H  H5  1  0.68068000  0.26055000  0.25964000  1.0
  H  H6  1  0.31932000  0.23945000  0.75964000  1.0
  H  H7  1  0.31931000  0.73945000  0.74035000  1.0
  H  H8  1  0.59109000  0.68960000  0.11802000  1.0
  H  H9  1  0.59109000  0.18960000  0.38198000  1.0
  H  H10  1  0.40891000  0.31039000  0.88198000  1.0
  H  H11  1  0.40890000  0.81039000  0.61802000  1.0
  H  H12  1  0.00984000  0.70411000  0.41497000  1.0
  H  H13  1  0.00984000  0.20412000  0.08502000  1.0
  H  H14  1  0.99015000  0.29588000  0.58502000  1.0
  H  H15  1  0.99017000  0.79589000  0.91498000  1.0
  H  H16  1  0.91964000  0.61673000  0.34999000  1.0
  H  H17  1  0.91963000  0.11673000  0.15000000  1.0
  H  H18  1  0.08036000  0.38327000  0.65001000  1.0
  H  H19  1  0.08037000  0.88327000  0.85000000  1.0
  H  H20  1  0.79065000  0.72527000  0.40526000  1.0
  H  H21  1  0.79064000  0.22528000  0.09474000  1.0
  H  H22  1  0.20935000  0.27473000  0.59474000  1.0
  H  H23  1  0.20936000  0.77473000  0.90526000  1.0
  H  H24  1  0.98581000  0.87663000  0.35668000  1.0
  H  H25  1  0.98581000  0.37664000  0.14332000  1.0
  H  H26  1  0.01419000  0.12336000  0.64331000  1.0
  H  H27  1  0.01419000  0.62336000  0.85668000  1.0
  H  H28  1  0.76959000  0.89707000  0.33571000  1.0
  H  H29  1  0.76959000  0.39707000  0.16429000  1.0
  H  H30  1  0.23041000  0.10293000  0.66429000  1.0
  H  H31  1  0.23041000  0.60293000  0.83570000  1.0
  H  H32  1  0.90888000  0.90923000  0.24264000  1.0
  H  H33  1  0.90889000  0.40923000  0.25736000  1.0
  H  H34  1  0.09112000  0.09077000  0.75736000  1.0
  H  H35  1  0.09112000  0.59077000  0.74264000  1.0
  H  H36  1  0.76319000  0.62259000  0.95994000  1.0
  H  H37  1  0.76320000  0.12259000  0.54005000  1.0
  H  H38  1  0.23681000  0.37741000  0.04006000  1.0
  H  H39  1  0.23680000  0.87740000  0.45994000  1.0
  H  H40  1  0.60551000  0.56781000  0.00824000  1.0
  H  H41  1  0.60552000  0.06781000  0.49175000  1.0
  H  H42  1  0.39448000  0.43219000  0.99176000  1.0
  H  H43  1  0.39448000  0.93219000  0.50824000  1.0
  H  H44  1  0.81631000  0.51254000  0.03271000  1.0
  H  H45  1  0.81632000  0.01255000  0.46729000  1.0
  H  H46  1  0.18369000  0.48745000  0.96729000  1.0
  H  H47  1  0.18368000  0.98745000  0.53270000  1.0
  H  H48  1  0.47013000  0.71488000  0.47698000  1.0
  H  H49  1  0.47013000  0.21488000  0.02302000  1.0
  H  H50  1  0.52986000  0.28512000  0.52302000  1.0
  H  H51  1  0.52987000  0.78512000  0.97699000  1.0
  H  H52  1  0.89345000  0.49358000  0.57015000  1.0
  H  H53  1  0.89345000  0.99358000  0.92986000  1.0
  H  H54  1  0.10655000  0.50643000  0.42986000  1.0
  H  H55  1  0.10655000  0.00642000  0.07015000  1.0
  H  H56  1  0.85671000  0.37684000  0.43937000  1.0
  H  H57  1  0.85671000  0.87685000  0.06063000  1.0
  H  H58  1  0.14329000  0.62316000  0.56063000  1.0
  H  H59  1  0.14329000  0.12316000  0.93938000  1.0
  H  H60  1  0.62144000  0.43295000  0.32884000  1.0
  H  H61  1  0.62143000  0.93296000  0.17116000  1.0
  H  H62  1  0.37857000  0.56705000  0.67116000  1.0
  H  H63  1  0.37856000  0.06705000  0.82885000  1.0
  C  C64  1  0.83805000  0.66976000  0.14941000  1.0
  C  C65  1  0.83805000  0.16976000  0.35058000  1.0
  C  C66  1  0.16196000  0.33023000  0.85058000  1.0
  C  C67  1  0.16195000  0.83024000  0.64941000  1.0
  C  C68  1  0.90805000  0.69715000  0.36917000  1.0
  C  C69  1  0.90805000  0.19715000  0.13082000  1.0
  C  C70  1  0.09194000  0.30285000  0.63083000  1.0
  C  C71  1  0.09195000  0.80285000  0.86918000  1.0
  C  C72  1  0.89262000  0.86726000  0.30581000  1.0
  C  C73  1  0.89262000  0.36726000  0.19419000  1.0
  C  C74  1  0.10738000  0.13274000  0.69418000  1.0
  C  C75  1  0.10738000  0.63274000  0.80581000  1.0
  C  C76  1  0.72605000  0.58447000  0.02156000  1.0
  C  C77  1  0.72606000  0.08448000  0.47843000  1.0
  C  C78  1  0.27394000  0.41553000  0.97844000  1.0
  C  C79  1  0.27394000  0.91552000  0.52156000  1.0
  C  C80  1  0.39760000  0.60808000  0.32683000  1.0
  C  C81  1  0.39760000  0.10809000  0.17316000  1.0
  C  C82  1  0.60240000  0.39192000  0.67316000  1.0
  C  C83  1  0.60240000  0.89192000  0.82684000  1.0
  C  C84  1  0.53344000  0.57696000  0.39598000  1.0
  C  C85  1  0.53343000  0.07697000  0.10401000  1.0
  C  C86  1  0.46656000  0.42304000  0.60402000  1.0
  C  C87  1  0.46656000  0.92304000  0.89599000  1.0
  C  C88  1  0.55436000  0.64075000  0.46973000  1.0
  C  C89  1  0.55436000  0.14076000  0.03027000  1.0
  C  C90  1  0.44564000  0.35925000  0.53027000  1.0
  C  C91  1  0.44564000  0.85924000  0.96974000  1.0
  C  C92  1  0.68436000  0.61033000  0.53221000  1.0
  C  C93  1  0.68436000  0.11033000  0.96779000  1.0
  C  C94  1  0.31564000  0.38968000  0.46779000  1.0
  C  C95  1  0.31565000  0.88967000  0.03222000  1.0
  C  C96  1  0.79292000  0.51512000  0.52098000  1.0
  C  C97  1  0.79293000  0.01513000  0.97903000  1.0
  C  C98  1  0.20707000  0.48488000  0.47903000  1.0
  C  C99  1  0.20708000  0.98487000  0.02098000  1.0
  C  C100  1  0.77175000  0.45063000  0.44822000  1.0
  C  C101  1  0.77175000  0.95064000  0.05179000  1.0
  C  C102  1  0.22825000  0.54937000  0.55179000  1.0
  C  C103  1  0.22825000  0.04936000  0.94822000  1.0
  C  C104  1  0.64226000  0.48166000  0.38609000  1.0
  C  C105  1  0.64226000  0.98167000  0.11391000  1.0
  C  C106  1  0.35774000  0.51834000  0.61391000  1.0
  C  C107  1  0.35774000  0.01834000  0.88610000  1.0
  C  C108  1  0.71471000  0.68076000  0.60695000  1.0
  C  C109  1  0.71472000  0.18076000  0.89305000  1.0
  C  C110  1  0.28528000  0.31925000  0.39305000  1.0
  C  C111  1  0.28529000  0.81924000  0.10695000  1.0
  S  S112  1  0.03456000  0.60973000  0.12319000  1.0
  S  S113  1  0.03456000  0.10974000  0.37681000  1.0
  S  S114  1  0.96544000  0.39027000  0.87681000  1.0
  S  S115  1  0.96543000  0.89026000  0.62319000  1.0
  N  N116  1  0.91804000  0.75723000  0.28415000  1.0
  N  N117  1  0.91805000  0.25723000  0.21585000  1.0
  N  N118  1  0.08196000  0.24277000  0.71585000  1.0
  N  N119  1  0.08196000  0.74277000  0.78415000  1.0
  N  N120  1  0.80015000  0.74230000  0.21821000  1.0
  N  N121  1  0.80015000  0.24230000  0.28178000  1.0
  N  N122  1  0.19985000  0.25770000  0.78179000  1.0
  N  N123  1  0.19984000  0.75770000  0.71821000  1.0
  N  N124  1  0.71087000  0.64966000  0.10323000  1.0
  N  N125  1  0.71087000  0.14967000  0.39676000  1.0
  N  N126  1  0.28913000  0.35033000  0.89676000  1.0
  N  N127  1  0.28912000  0.85033000  0.60323000  1.0
  O  O128  1  0.29765000  0.69683000  0.33858000  1.0
  O  O129  1  0.29764000  0.19684000  0.16142000  1.0
  O  O130  1  0.70235000  0.30316000  0.66142000  1.0
  O  O131  1  0.70236000  0.80317000  0.83858000  1.0
  O  O132  1  0.38413000  0.55053000  0.25972000  1.0
  O  O133  1  0.38410000  0.05054000  0.24027000  1.0
  O  O134  1  0.61589000  0.44947000  0.74028000  1.0
  O  O135  1  0.61588000  0.94947000  0.75973000  1.0
  O  O136  1  0.60996000  0.76320000  0.62527000  1.0
  O  O137  1  0.60997000  0.26319000  0.87473000  1.0
  O  O138  1  0.39003000  0.23681000  0.37473000  1.0
  O  O139  1  0.39003000  0.73680000  0.12527000  1.0
  O  O140  1  0.85280000  0.65931000  0.64957000  1.0
  O  O141  1  0.85281000  0.15931000  0.85044000  1.0
  O  O142  1  0.14719000  0.34069000  0.35043000  1.0
  O  O143  1  0.14720000  0.84068000  0.14957000  1.0
