# generated using pymatgen
data_ZnMo8H30C30(N4O7)4
_symmetry_space_group_name_H-M   'P 1'
_cell_length_a   7.26750000
_cell_length_b   10.51080000
_cell_length_c   16.40800000
_cell_angle_alpha   96.04300000
_cell_angle_beta   93.63630000
_cell_angle_gamma   95.75880000
_symmetry_Int_Tables_number   1
_chemical_formula_structural   ZnMo8H30C30(N4O7)4
_chemical_formula_sum   'Zn1 Mo8 H30 C30 N16 O28'
_cell_volume   1236.63472789
_cell_formula_units_Z   1
loop_
 _symmetry_equiv_pos_site_id
 _symmetry_equiv_pos_as_xyz
  1  'x, y, z'
loop_
 _atom_site_type_symbol
 _atom_site_label
 _atom_site_symmetry_multiplicity
 _atom_site_fract_x
 _atom_site_fract_y
 _atom_site_fract_z
 _atom_site_occupancy
  Zn  Zn0  1  0.00000000  0.50000000  0.50000000  1.0
  Mo  Mo1  1  0.34956000  0.66209000  0.38778000  1.0
  Mo  Mo2  1  0.65044000  0.33791000  0.61222000  1.0
  Mo  Mo3  1  0.36829000  0.73478000  0.58675000  1.0
  Mo  Mo4  1  0.63171000  0.26522000  0.41325000  1.0
  Mo  Mo5  1  0.27204000  0.97054000  0.45522000  1.0
  Mo  Mo6  1  0.72796000  0.02946000  0.54478000  1.0
  Mo  Mo7  1  0.62003000  0.97005000  0.33100000  1.0
  Mo  Mo8  1  0.37997000  0.02995000  0.66900000  1.0
  H  H9  1  0.29917000  0.83759000  0.22681000  1.0
  H  H10  1  0.70083000  0.16241000  0.77319000  1.0
  H  H11  1  0.88860000  0.57012000  0.30202000  1.0
  H  H12  1  0.11141000  0.42988000  0.69798000  1.0
  H  H13  1  0.64129000  0.57621000  0.18044000  1.0
  H  H14  1  0.35871000  0.42379000  0.81956000  1.0
  H  H15  1  0.65630000  0.74391000  0.16134000  1.0
  H  H16  1  0.34370000  0.25610000  0.83866000  1.0
  H  H17  1  0.80755000  0.54026000  0.79052000  1.0
  H  H18  1  0.19245000  0.45974000  0.20948000  1.0
  H  H19  1  0.88554000  0.65887000  0.66872000  1.0
  H  H20  1  0.11446000  0.34113000  0.33128000  1.0
  H  H21  1  0.87987000  0.90628000  0.94145000  1.0
  H  H22  1  0.12012000  0.09372000  0.05855000  1.0
  H  H23  1  0.95180000  0.01157000  0.81347000  1.0
  H  H24  1  0.04820000  0.98843000  0.18653000  1.0
  H  H25  1  0.74769000  0.27558000  0.93319000  1.0
  H  H26  1  0.25231000  0.72442000  0.06681000  1.0
  H  H27  1  0.67478000  0.05699000  0.98006000  1.0
  H  H28  1  0.32523000  0.94301000  0.01994000  1.0
  H  H29  1  0.60279000  0.24937000  0.21972000  1.0
  H  H30  1  0.39720000  0.75063000  0.78028000  1.0
  H  H31  1  0.60133000  0.04579000  0.12843000  1.0
  H  H32  1  0.39868000  0.95421000  0.87157000  1.0
  H  H33  1  0.93589000  0.88582000  0.68858000  1.0
  H  H34  1  0.06412000  0.11418000  0.31142000  1.0
  H  H35  1  0.26169000  0.32490000  0.50961000  1.0
  H  H36  1  0.73831000  0.67510000  0.49039000  1.0
  H  H37  1  0.05304000  0.25718000  0.51673000  1.0
  H  H38  1  0.94695000  0.74281000  0.48327000  1.0
  C  C39  1  0.17269000  0.77323000  0.22767000  1.0
  C  C40  1  0.82731000  0.22677000  0.77233000  1.0
  C  C41  1  0.96631000  0.63750000  0.26778000  1.0
  C  C42  1  0.03369000  0.36250000  0.73222000  1.0
  C  C43  1  0.72052000  0.65389000  0.15418000  1.0
  C  C44  1  0.27948000  0.34611000  0.84582000  1.0
  C  C45  1  0.79249000  0.64955000  0.94626000  1.0
  C  C46  1  0.20751000  0.35045000  0.05374000  1.0
  C  C47  1  0.83750000  0.71486000  0.87486000  1.0
  C  C48  1  0.16249000  0.28514000  0.12514000  1.0
  C  C49  1  0.84204000  0.64399000  0.79789000  1.0
  C  C50  1  0.15795000  0.35601000  0.20211000  1.0
  C  C51  1  0.88285000  0.70764000  0.73045000  1.0
  C  C52  1  0.11715000  0.29237000  0.26955000  1.0
  C  C53  1  0.87870000  0.84930000  0.88208000  1.0
  C  C54  1  0.12129000  0.15070000  0.11792000  1.0
  C  C55  1  0.91815000  0.90821000  0.81304000  1.0
  C  C56  1  0.08185000  0.09179000  0.18696000  1.0
  C  C57  1  0.74114000  0.50069000  0.02277000  1.0
  C  C58  1  0.25886000  0.49931000  0.97723000  1.0
  C  C59  1  0.70871000  0.37390000  0.05198000  1.0
  C  C60  1  0.29129000  0.62610000  0.94802000  1.0
  C  C61  1  0.71302000  0.26438000  0.99568000  1.0
  C  C62  1  0.28698000  0.73562000  0.00432000  1.0
  C  C63  1  0.67458000  0.14409000  0.02253000  1.0
  C  C64  1  0.32542000  0.85591000  0.97747000  1.0
  C  C65  1  0.63531000  0.25158000  0.15586000  1.0
  C  C66  1  0.36469000  0.74843000  0.84414000  1.0
  C  C67  1  0.63410000  0.13704000  0.10396000  1.0
  C  C68  1  0.36590000  0.86296000  0.89605000  1.0
  N  N69  1  0.13768000  0.69671000  0.28849000  1.0
  N  N70  1  0.86232000  0.30329000  0.71151000  1.0
  N  N71  1  0.03368000  0.76435000  0.17094000  1.0
  N  N72  1  0.96632000  0.23565000  0.82906000  1.0
  N  N73  1  0.90505000  0.67705000  0.19681000  1.0
  N  N74  1  0.09495000  0.32295000  0.80320000  1.0
  N  N75  1  0.73495000  0.61862000  0.06720000  1.0
  N  N76  1  0.26505000  0.38138000  0.93280000  1.0
  N  N77  1  0.76800000  0.71388000  0.01888000  1.0
  N  N78  1  0.23200000  0.28612000  0.98112000  1.0
  N  N79  1  0.77570000  0.51893000  0.94577000  1.0
  N  N80  1  0.22429000  0.48107000  0.05423000  1.0
  N  N81  1  0.91840000  0.83655000  0.74000000  1.0
  N  N82  1  0.08160000  0.16345000  0.26000000  1.0
  N  N83  1  0.67214000  0.36836000  0.13111000  1.0
  N  N84  1  0.32786000  0.63164000  0.86889000  1.0
  O  O85  1  0.17328000  0.54255000  0.40545000  1.0
  O  O86  1  0.82672000  0.45745000  0.59455000  1.0
  O  O87  1  0.48097000  0.59119000  0.31698000  1.0
  O  O88  1  0.51903000  0.40881000  0.68302000  1.0
  O  O89  1  0.49462000  0.67353000  0.48810000  1.0
  O  O90  1  0.50538000  0.32647000  0.51190000  1.0
  O  O91  1  0.20302000  0.60074000  0.58465000  1.0
  O  O92  1  0.79698000  0.39926000  0.41535000  1.0
  O  O93  1  0.53846000  0.71157000  0.65825000  1.0
  O  O94  1  0.46153000  0.28843000  0.34175000  1.0
  O  O95  1  0.19913000  0.79974000  0.47310000  1.0
  O  O96  1  0.80087000  0.20026000  0.52690000  1.0
  O  O97  1  0.21150000  0.06115000  0.54332000  1.0
  O  O98  1  0.78850000  0.93885000  0.45668000  1.0
  O  O99  1  0.49948000  0.07629000  0.43817000  1.0
  O  O100  1  0.50052000  0.92371000  0.56183000  1.0
  O  O101  1  0.12554000  0.00487000  0.37622000  1.0
  O  O102  1  0.87446000  0.99513000  0.62378000  1.0
  O  O103  1  0.75758000  0.13957000  0.35230000  1.0
  O  O104  1  0.24242000  0.86043000  0.64770000  1.0
  O  O105  1  0.47793000  0.00052000  0.24827000  1.0
  O  O106  1  0.52207000  0.99948000  0.75173000  1.0
  O  O107  1  0.77573000  0.87743000  0.28705000  1.0
  O  O108  1  0.22427000  0.12257000  0.71295000  1.0
  O  O109  1  0.43852000  0.84797000  0.37259000  1.0
  O  O110  1  0.56148000  0.15203000  0.62742000  1.0
  O  O111  1  0.12772000  0.33026000  0.49778000  1.0
  O  O112  1  0.87228000  0.66974000  0.50222000  1.0
