# generated using pymatgen
data_CuH9C14NO5
_symmetry_space_group_name_H-M   'P 1'
_cell_length_a   13.23190000
_cell_length_b   13.95590000
_cell_length_c   25.70250000
_cell_angle_alpha   89.99940000
_cell_angle_beta   90.06560000
_cell_angle_gamma   89.99990000
_symmetry_Int_Tables_number   1
_chemical_formula_structural   CuH9C14NO5
_chemical_formula_sum   'Cu8 H72 C112 N8 O40'
_cell_volume   4746.29952800
_cell_formula_units_Z   8
loop_
 _symmetry_equiv_pos_site_id
 _symmetry_equiv_pos_as_xyz
  1  'x, y, z'
loop_
 _atom_site_type_symbol
 _atom_site_label
 _atom_site_symmetry_multiplicity
 _atom_site_fract_x
 _atom_site_fract_y
 _atom_site_fract_z
 _atom_site_occupancy
  Cu  Cu0  1  0.94049000  0.82644000  0.21031000  1.0
  Cu  Cu1  1  0.44045000  0.67354000  0.78969000  1.0
  Cu  Cu2  1  0.05950000  0.82646000  0.28969000  1.0
  Cu  Cu3  1  0.55957000  0.67354000  0.71031000  1.0
  Cu  Cu4  1  0.05966000  0.17353000  0.78967000  1.0
  Cu  Cu5  1  0.55996000  0.32657000  0.21011000  1.0
  Cu  Cu6  1  0.94035000  0.17354000  0.71033000  1.0
  Cu  Cu7  1  0.43998000  0.32655000  0.28994000  1.0
  H  H8  1  0.78968000  0.66826000  0.66857000  1.0
  H  H9  1  0.28945000  0.83170000  0.33145000  1.0
  H  H10  1  0.21032000  0.66827000  0.83142000  1.0
  H  H11  1  0.71055000  0.83170000  0.16855000  1.0
  H  H12  1  0.21021000  0.33171000  0.33147000  1.0
  H  H13  1  0.71053000  0.16829000  0.66852000  1.0
  H  H14  1  0.78978000  0.33171000  0.16853000  1.0
  H  H15  1  0.28948000  0.16828000  0.83148000  1.0
  H  H16  1  0.50803000  0.67733000  0.59947000  1.0
  H  H17  1  0.00799000  0.82266000  0.40034000  1.0
  H  H18  1  0.49197000  0.67732000  0.90052000  1.0
  H  H19  1  0.99201000  0.82266000  0.09966000  1.0
  H  H20  1  0.49184000  0.32266000  0.40059000  1.0
  H  H21  1  0.99199000  0.17732000  0.59965000  1.0
  H  H22  1  0.50815000  0.32266000  0.09942000  1.0
  H  H23  1  0.00801000  0.17732000  0.90036000  1.0
  H  H24  1  0.86274000  0.68993000  0.39572000  1.0
  H  H25  1  0.36271000  0.80995000  0.60429000  1.0
  H  H26  1  0.13731000  0.68997000  0.10428000  1.0
  H  H27  1  0.63728000  0.80995000  0.89571000  1.0
  H  H28  1  0.13721000  0.30982000  0.60418000  1.0
  H  H29  1  0.63694000  0.19013000  0.39562000  1.0
  H  H30  1  0.86280000  0.30982000  0.89582000  1.0
  H  H31  1  0.36301000  0.19019000  0.10437000  1.0
  H  H32  1  0.61590000  0.48626000  0.39654000  1.0
  H  H33  1  0.11613000  0.01389000  0.60330000  1.0
  H  H34  1  0.38405000  0.48621000  0.10345000  1.0
  H  H35  1  0.88387000  0.01388000  0.89670000  1.0
  H  H36  1  0.38376000  0.51377000  0.60342000  1.0
  H  H37  1  0.88372000  0.98645000  0.39658000  1.0
  H  H38  1  0.61625000  0.51377000  0.89657000  1.0
  H  H39  1  0.11631000  0.98641000  0.10342000  1.0
  H  H40  1  0.75288000  0.57288000  0.25181000  1.0
  H  H41  1  0.25325000  0.92680000  0.74812000  1.0
  H  H42  1  0.24714000  0.57289000  0.24818000  1.0
  H  H43  1  0.74676000  0.92681000  0.75187000  1.0
  H  H44  1  0.24690000  0.42689000  0.74812000  1.0
  H  H45  1  0.74644000  0.07328000  0.25176000  1.0
  H  H46  1  0.75311000  0.42689000  0.75188000  1.0
  H  H47  1  0.25358000  0.07327000  0.24822000  1.0
  H  H48  1  0.77804000  0.72921000  0.46656000  1.0
  H  H49  1  0.27825000  0.77072000  0.53348000  1.0
  H  H50  1  0.22196000  0.72921000  0.03344000  1.0
  H  H51  1  0.72174000  0.77072000  0.96652000  1.0
  H  H52  1  0.22177000  0.27059000  0.53343000  1.0
  H  H53  1  0.72159000  0.22944000  0.46655000  1.0
  H  H54  1  0.77822000  0.27060000  0.96658000  1.0
  H  H55  1  0.27840000  0.22944000  0.03345000  1.0
  H  H56  1  0.86295000  0.63726000  0.48733000  1.0
  H  H57  1  0.36308000  0.86273000  0.51282000  1.0
  H  H58  1  0.13705000  0.63726000  0.01266000  1.0
  H  H59  1  0.63691000  0.86272000  0.98718000  1.0
  H  H60  1  0.13689000  0.36261000  0.51266000  1.0
  H  H61  1  0.63683000  0.13734000  0.48717000  1.0
  H  H62  1  0.86311000  0.36262000  0.98734000  1.0
  H  H63  1  0.36317000  0.13735000  0.01283000  1.0
  H  H64  1  0.58248000  0.66720000  0.50980000  1.0
  H  H65  1  0.08268000  0.83274000  0.49010000  1.0
  H  H66  1  0.41752000  0.66720000  0.99020000  1.0
  H  H67  1  0.91732000  0.83274000  0.00990000  1.0
  H  H68  1  0.41733000  0.33277000  0.49029000  1.0
  H  H69  1  0.91734000  0.16722000  0.50988000  1.0
  H  H70  1  0.58266000  0.33277000  0.00972000  1.0
  H  H71  1  0.08268000  0.16722000  0.99012000  1.0
  H  H72  1  0.87703000  0.65840000  0.58224000  1.0
  H  H73  1  0.37705000  0.84155000  0.41788000  1.0
  H  H74  1  0.12297000  0.65839000  0.91776000  1.0
  H  H75  1  0.62295000  0.84155000  0.08212000  1.0
  H  H76  1  0.12282000  0.34158000  0.41784000  1.0
  H  H77  1  0.62294000  0.15841000  0.58209000  1.0
  H  H78  1  0.87717000  0.34159000  0.08217000  1.0
  H  H79  1  0.37707000  0.15841000  0.91791000  1.0
  C  C80  1  0.74661000  0.66869000  0.63230000  1.0
  C  C81  1  0.24652000  0.83125000  0.36770000  1.0
  C  C82  1  0.25339000  0.66869000  0.86769000  1.0
  C  C83  1  0.75348000  0.83125000  0.13229000  1.0
  C  C84  1  0.25324000  0.33125000  0.36775000  1.0
  C  C85  1  0.75345000  0.16872000  0.63226000  1.0
  C  C86  1  0.74675000  0.33125000  0.13226000  1.0
  C  C87  1  0.24655000  0.16872000  0.86774000  1.0
  C  C88  1  0.58954000  0.67335000  0.59353000  1.0
  C  C89  1  0.08951000  0.82659000  0.40638000  1.0
  C  C90  1  0.41046000  0.67335000  0.90647000  1.0
  C  C91  1  0.91049000  0.82660000  0.09362000  1.0
  C  C92  1  0.41033000  0.32660000  0.40655000  1.0
  C  C93  1  0.91047000  0.17337000  0.59360000  1.0
  C  C94  1  0.58966000  0.32660000  0.09346000  1.0
  C  C95  1  0.08954000  0.17337000  0.90640000  1.0
  C  C96  1  0.88533000  0.70205000  0.29321000  1.0
  C  C97  1  0.38551000  0.79787000  0.70674000  1.0
  C  C98  1  0.11466000  0.70203000  0.20679000  1.0
  C  C99  1  0.61450000  0.79786000  0.79326000  1.0
  C  C100  1  0.11449000  0.29784000  0.70671000  1.0
  C  C101  1  0.61450000  0.20263000  0.29306000  1.0
  C  C102  1  0.88552000  0.29785000  0.79328000  1.0
  C  C103  1  0.38549000  0.20261000  0.20696000  1.0
  C  C104  1  0.81297000  0.63819000  0.32146000  1.0
  C  C105  1  0.31314000  0.86175000  0.67848000  1.0
  C  C106  1  0.18706000  0.63822000  0.17854000  1.0
  C  C107  1  0.68686000  0.86175000  0.82151000  1.0
  C  C108  1  0.18683000  0.36165000  0.67846000  1.0
  C  C109  1  0.68662000  0.13842000  0.32138000  1.0
  C  C110  1  0.81318000  0.36165000  0.82154000  1.0
  C  C111  1  0.31337000  0.13842000  0.17861000  1.0
  C  C112  1  0.80941000  0.64299000  0.37600000  1.0
  C  C113  1  0.30950000  0.85695000  0.62396000  1.0
  C  C114  1  0.19063000  0.64303000  0.12400000  1.0
  C  C115  1  0.69050000  0.85695000  0.87604000  1.0
  C  C116  1  0.19043000  0.35681000  0.62393000  1.0
  C  C117  1  0.69019000  0.14319000  0.37592000  1.0
  C  C118  1  0.80958000  0.35681000  0.87607000  1.0
  C  C119  1  0.30979000  0.14321000  0.12408000  1.0
  C  C120  1  0.73799000  0.58854000  0.40285000  1.0
  C  C121  1  0.23806000  0.91146000  0.59708000  1.0
  C  C122  1  0.26202000  0.58855000  0.09715000  1.0
  C  C123  1  0.76194000  0.91146000  0.90292000  1.0
  C  C124  1  0.26185000  0.41131000  0.59711000  1.0
  C  C125  1  0.76168000  0.08872000  0.40281000  1.0
  C  C126  1  0.73816000  0.41131000  0.90289000  1.0
  C  C127  1  0.23833000  0.08872000  0.09719000  1.0
  C  C128  1  0.67240000  0.52787000  0.37560000  1.0
  C  C129  1  0.17259000  0.97221000  0.62429000  1.0
  C  C130  1  0.32759000  0.52784000  0.12439000  1.0
  C  C131  1  0.82741000  0.97221000  0.87571000  1.0
  C  C132  1  0.32733000  0.47208000  0.62435000  1.0
  C  C133  1  0.82715000  0.02800000  0.37559000  1.0
  C  C134  1  0.67268000  0.47209000  0.87565000  1.0
  C  C135  1  0.17287000  0.02796000  0.12440000  1.0
  C  C136  1  0.67927000  0.52112000  0.32155000  1.0
  C  C137  1  0.17952000  0.97888000  0.67836000  1.0
  C  C138  1  0.32072000  0.52111000  0.17845000  1.0
  C  C139  1  0.82048000  0.97887000  0.82163000  1.0
  C  C140  1  0.32046000  0.47879000  0.67840000  1.0
  C  C141  1  0.82022000  0.02123000  0.32152000  1.0
  C  C142  1  0.67955000  0.47880000  0.82160000  1.0
  C  C143  1  0.17980000  0.02119000  0.17847000  1.0
  C  C144  1  0.74899000  0.57692000  0.29403000  1.0
  C  C145  1  0.24925000  0.92295000  0.70590000  1.0
  C  C146  1  0.25103000  0.57694000  0.20596000  1.0
  C  C147  1  0.75075000  0.92296000  0.79410000  1.0
  C  C148  1  0.25077000  0.42290000  0.70590000  1.0
  C  C149  1  0.75046000  0.07715000  0.29399000  1.0
  C  C150  1  0.74924000  0.42291000  0.79410000  1.0
  C  C151  1  0.24955000  0.07713000  0.20600000  1.0
  C  C152  1  0.61123000  0.45275000  0.29339000  1.0
  C  C153  1  0.11150000  0.04698000  0.70653000  1.0
  C  C154  1  0.38876000  0.45274000  0.20661000  1.0
  C  C155  1  0.88850000  0.04697000  0.79346000  1.0
  C  C156  1  0.38848000  0.54698000  0.70656000  1.0
  C  C157  1  0.88833000  0.95310000  0.29339000  1.0
  C  C158  1  0.61153000  0.54698000  0.79344000  1.0
  C  C159  1  0.11166000  0.95311000  0.20661000  1.0
  C  C160  1  0.78259000  0.65812000  0.48544000  1.0
  C  C161  1  0.28272000  0.84182000  0.51459000  1.0
  C  C162  1  0.21741000  0.65812000  0.01456000  1.0
  C  C163  1  0.71727000  0.84182000  0.98540000  1.0
  C  C164  1  0.21724000  0.34172000  0.51457000  1.0
  C  C165  1  0.71718000  0.15828000  0.48537000  1.0
  C  C166  1  0.78275000  0.34172000  0.98544000  1.0
  C  C167  1  0.28282000  0.15828000  0.01463000  1.0
  C  C168  1  0.73628000  0.66301000  0.53878000  1.0
  C  C169  1  0.23638000  0.83688000  0.46121000  1.0
  C  C170  1  0.26372000  0.66300000  0.96122000  1.0
  C  C171  1  0.76362000  0.83688000  0.03879000  1.0
  C  C172  1  0.26357000  0.33686000  0.46125000  1.0
  C  C173  1  0.76360000  0.16309000  0.53875000  1.0
  C  C174  1  0.73642000  0.33687000  0.03876000  1.0
  C  C175  1  0.23640000  0.16310000  0.96125000  1.0
  C  C176  1  0.63114000  0.66839000  0.54403000  1.0
  C  C177  1  0.13123000  0.83152000  0.45589000  1.0
  C  C178  1  0.36886000  0.66839000  0.95597000  1.0
  C  C179  1  0.86877000  0.83152000  0.04411000  1.0
  C  C180  1  0.36871000  0.33153000  0.45604000  1.0
  C  C181  1  0.86876000  0.16843000  0.54408000  1.0
  C  C182  1  0.63128000  0.33153000  0.04397000  1.0
  C  C183  1  0.13125000  0.16844000  0.95591000  1.0
  C  C184  1  0.79479000  0.66330000  0.58406000  1.0
  C  C185  1  0.29481000  0.83661000  0.41597000  1.0
  C  C186  1  0.20521000  0.66330000  0.91594000  1.0
  C  C187  1  0.70519000  0.83661000  0.08403000  1.0
  C  C188  1  0.20505000  0.33663000  0.41598000  1.0
  C  C189  1  0.70518000  0.16334000  0.58399000  1.0
  C  C190  1  0.79494000  0.33663000  0.08403000  1.0
  C  C191  1  0.29483000  0.16335000  0.91601000  1.0
  N  N192  1  0.64582000  0.67343000  0.63713000  1.0
  N  N193  1  0.14572000  0.82652000  0.36282000  1.0
  N  N194  1  0.35418000  0.67343000  0.86287000  1.0
  N  N195  1  0.85428000  0.82654000  0.13718000  1.0
  N  N196  1  0.35404000  0.32651000  0.36295000  1.0
  N  N197  1  0.85425000  0.17346000  0.63715000  1.0
  N  N198  1  0.64595000  0.32651000  0.13706000  1.0
  N  N199  1  0.14575000  0.17345000  0.86284000  1.0
  O  O200  1  0.86674000  0.71968000  0.24550000  1.0
  O  O201  1  0.36696000  0.78023000  0.75441000  1.0
  O  O202  1  0.13326000  0.71971000  0.25448000  1.0
  O  O203  1  0.63305000  0.78023000  0.74558000  1.0
  O  O204  1  0.13318000  0.28021000  0.75440000  1.0
  O  O205  1  0.63320000  0.21975000  0.24538000  1.0
  O  O206  1  0.86682000  0.28022000  0.74559000  1.0
  O  O207  1  0.36675000  0.21974000  0.25463000  1.0
  O  O208  1  0.95878000  0.73535000  0.31990000  1.0
  O  O209  1  0.45890000  0.76462000  0.68009000  1.0
  O  O210  1  0.04113000  0.73523000  0.18011000  1.0
  O  O211  1  0.54112000  0.76461000  0.81991000  1.0
  O  O212  1  0.04095000  0.26463000  0.68007000  1.0
  O  O213  1  0.54167000  0.23638000  0.31988000  1.0
  O  O214  1  0.95906000  0.26464000  0.81993000  1.0
  O  O215  1  0.45838000  0.23632000  0.18015000  1.0
  O  O216  1  0.72562000  0.58982000  0.45592000  1.0
  O  O217  1  0.22566000  0.91013000  0.54400000  1.0
  O  O218  1  0.27437000  0.58981000  0.04408000  1.0
  O  O219  1  0.77433000  0.91012000  0.95600000  1.0
  O  O220  1  0.27426000  0.41000000  0.54406000  1.0
  O  O221  1  0.77419000  0.09005000  0.45588000  1.0
  O  O222  1  0.72574000  0.41000000  0.95594000  1.0
  O  O223  1  0.22581000  0.09005000  0.04412000  1.0
  O  O224  1  0.64353000  0.41967000  0.25031000  1.0
  O  O225  1  0.14334000  0.07984000  0.74983000  1.0
  O  O226  1  0.35642000  0.41962000  0.24968000  1.0
  O  O227  1  0.85665000  0.07984000  0.75016000  1.0
  O  O228  1  0.35671000  0.57991000  0.74981000  1.0
  O  O229  1  0.85665000  0.92024000  0.25006000  1.0
  O  O230  1  0.64329000  0.57991000  0.75018000  1.0
  O  O231  1  0.14335000  0.92024000  0.24995000  1.0
  O  O232  1  0.52787000  0.43276000  0.31572000  1.0
  O  O233  1  0.02805000  0.06738000  0.68424000  1.0
  O  O234  1  0.47217000  0.43281000  0.18432000  1.0
  O  O235  1  0.97196000  0.06737000  0.81575000  1.0
  O  O236  1  0.47182000  0.56740000  0.68427000  1.0
  O  O237  1  0.97169000  0.93267000  0.31578000  1.0
  O  O238  1  0.52818000  0.56738000  0.81572000  1.0
  O  O239  1  0.02826000  0.93270000  0.18425000  1.0
