# generated using pymatgen
data_UPH3C2O7
_symmetry_space_group_name_H-M   'P 1'
_cell_length_a   6.70148000
_cell_length_b   7.13675000
_cell_length_c   14.23761651
_cell_angle_alpha   89.99990586
_cell_angle_beta   76.83872489
_cell_angle_gamma   89.99980000
_symmetry_Int_Tables_number   1
_chemical_formula_structural   UPH3C2O7
_chemical_formula_sum   'U4 P4 H12 C8 O28'
_cell_volume   663.05323286
_cell_formula_units_Z   4
loop_
 _symmetry_equiv_pos_site_id
 _symmetry_equiv_pos_as_xyz
  1  'x, y, z'
loop_
 _atom_site_type_symbol
 _atom_site_label
 _atom_site_symmetry_multiplicity
 _atom_site_fract_x
 _atom_site_fract_y
 _atom_site_fract_z
 _atom_site_occupancy
  U  U0  1  0.64398000  0.32889000  0.26227000  1.0
  U  U1  1  0.35603000  0.82888000  0.23772000  1.0
  U  U2  1  0.35603000  0.67111000  0.73773000  1.0
  U  U3  1  0.64397000  0.17111000  0.76227000  1.0
  P  P4  1  0.79443000  0.83061000  0.28996000  1.0
  P  P5  1  0.20557000  0.33061000  0.21004000  1.0
  P  P6  1  0.20556000  0.16939000  0.71004000  1.0
  P  P7  1  0.79444000  0.66939000  0.78996000  1.0
  H  H8  1  0.01030000  0.62590000  0.55488000  1.0
  H  H9  1  0.98969000  0.12588000  0.94513000  1.0
  H  H10  1  0.98969000  0.37411000  0.44513000  1.0
  H  H11  1  0.01033000  0.87412000  0.05487000  1.0
  H  H12  1  0.84955000  0.00188000  0.42889000  1.0
  H  H13  1  0.15046000  0.50187000  0.07111000  1.0
  H  H14  1  0.15045000  0.99812000  0.57111000  1.0
  H  H15  1  0.84954000  0.49814000  0.92889000  1.0
  H  H16  1  0.61270000  0.87747000  0.45342000  1.0
  H  H17  1  0.38731000  0.37746000  0.04658000  1.0
  H  H18  1  0.38730000  0.12253000  0.54658000  1.0
  H  H19  1  0.61270000  0.62255000  0.95342000  1.0
  C  C20  1  0.77617000  0.86887000  0.41728000  1.0
  C  C21  1  0.22384000  0.36886000  0.08272000  1.0
  C  C22  1  0.22383000  0.13113000  0.58272000  1.0
  C  C23  1  0.77616000  0.63115000  0.91728000  1.0
  C  C24  1  0.87007000  0.70721000  0.45960000  1.0
  C  C25  1  0.12993000  0.20719000  0.04041000  1.0
  C  C26  1  0.12993000  0.29279000  0.54041000  1.0
  C  C27  1  0.87006000  0.79280000  0.95959000  1.0
  O  O28  1  0.72023000  0.35669000  0.13336000  1.0
  O  O29  1  0.27978000  0.85668000  0.36663000  1.0
  O  O30  1  0.27979000  0.64331000  0.86663000  1.0
  O  O31  1  0.72022000  0.14332000  0.63336000  1.0
  O  O32  1  0.55308000  0.29324000  0.38999000  1.0
  O  O33  1  0.44692000  0.79322000  0.11001000  1.0
  O  O34  1  0.44692000  0.70675000  0.61001000  1.0
  O  O35  1  0.55306000  0.20676000  0.88999000  1.0
  O  O36  1  0.01766000  0.80536000  0.23742000  1.0
  O  O37  1  0.98235000  0.30535000  0.26258000  1.0
  O  O38  1  0.98234000  0.19464000  0.76257000  1.0
  O  O39  1  0.01766000  0.69464000  0.73742000  1.0
  O  O40  1  0.68741000  0.99653000  0.25010000  1.0
  O  O41  1  0.31258000  0.49653000  0.24990000  1.0
  O  O42  1  0.31259000  0.00347000  0.74990000  1.0
  O  O43  1  0.68741000  0.50347000  0.75010000  1.0
  O  O44  1  0.65884000  0.66153000  0.27427000  1.0
  O  O45  1  0.34116000  0.16153000  0.22573000  1.0
  O  O46  1  0.34116000  0.33847000  0.72573000  1.0
  O  O47  1  0.65884000  0.83847000  0.77427000  1.0
  O  O48  1  0.87847000  0.54971000  0.42128000  1.0
  O  O49  1  0.12155000  0.04970000  0.07871000  1.0
  O  O50  1  0.12152000  0.45030000  0.57872000  1.0
  O  O51  1  0.87847000  0.95031000  0.92128000  1.0
  O  O52  1  0.93954000  0.74479000  0.53644000  1.0
  O  O53  1  0.06045000  0.24478000  0.96357000  1.0
  O  O54  1  0.06044000  0.25521000  0.46356000  1.0
  O  O55  1  0.93955000  0.75523000  0.03644000  1.0
