# generated using pymatgen
data_ZnH14C13(IN)2
_symmetry_space_group_name_H-M   'P 1'
_cell_length_a   5.59002000
_cell_length_b   10.79360000
_cell_length_c   12.87360000
_cell_angle_alpha   90.00370000
_cell_angle_beta   90.00270000
_cell_angle_gamma   91.58910000
_symmetry_Int_Tables_number   1
_chemical_formula_structural   ZnH14C13(IN)2
_chemical_formula_sum   'Zn2 H28 C26 I4 N4'
_cell_volume   776.44845964
_cell_formula_units_Z   2
loop_
 _symmetry_equiv_pos_site_id
 _symmetry_equiv_pos_as_xyz
  1  'x, y, z'
loop_
 _atom_site_type_symbol
 _atom_site_label
 _atom_site_symmetry_multiplicity
 _atom_site_fract_x
 _atom_site_fract_y
 _atom_site_fract_z
 _atom_site_occupancy
  Zn  Zn0  1  0.07135000  0.21370000  0.75000000  1.0
  Zn  Zn1  1  0.92865000  0.78630000  0.24999000  1.0
  H  H2  1  0.41023000  0.30759000  0.25002000  1.0
  H  H3  1  0.58978000  0.69241000  0.74999000  1.0
  H  H4  1  0.55716000  0.16528000  0.25001000  1.0
  H  H5  1  0.44285000  0.83471000  0.75000000  1.0
  H  H6  1  0.89109000  0.25529000  0.35470000  1.0
  H  H7  1  0.10890000  0.74469000  0.85465000  1.0
  H  H8  1  0.10892000  0.74470000  0.64530000  1.0
  H  H9  1  0.89109000  0.25531000  0.14534000  1.0
  H  H10  1  0.76722000  0.40474000  0.34538000  1.0
  H  H11  1  0.23276000  0.59524000  0.84531000  1.0
  H  H12  1  0.23278000  0.59527000  0.65462000  1.0
  H  H13  1  0.76724000  0.40476000  0.15468000  1.0
  H  H14  1  0.33899000  0.43454000  0.41645000  1.0
  H  H15  1  0.66098000  0.56544000  0.91642000  1.0
  H  H16  1  0.66102000  0.56546000  0.58355000  1.0
  H  H17  1  0.33900000  0.43456000  0.08358000  1.0
  H  H18  1  0.08731000  0.39007000  0.57303000  1.0
  H  H19  1  0.91269000  0.60991000  0.07300000  1.0
  H  H20  1  0.91271000  0.60994000  0.42697000  1.0
  H  H21  1  0.08730000  0.39008000  0.92700000  1.0
  H  H22  1  0.47854000  0.08149000  0.64707000  1.0
  H  H23  1  0.52146000  0.91849000  0.14705000  1.0
  H  H24  1  0.52147000  0.91852000  0.35294000  1.0
  H  H25  1  0.47853000  0.08150000  0.85294000  1.0
  H  H26  1  0.75113000  0.11534000  0.49688000  1.0
  H  H27  1  0.24884000  0.88465000  0.99684000  1.0
  H  H28  1  0.24887000  0.88466000  0.50313000  1.0
  H  H29  1  0.75113000  0.11535000  0.00316000  1.0
  C  C30  1  0.58823000  0.26631000  0.25002000  1.0
  C  C31  1  0.41178000  0.73368000  0.74999000  1.0
  C  C32  1  0.72228000  0.30481000  0.34948000  1.0
  C  C33  1  0.27771000  0.69516000  0.84944000  1.0
  C  C34  1  0.27773000  0.69519000  0.65052000  1.0
  C  C35  1  0.72229000  0.30483000  0.15056000  1.0
  C  C36  1  0.56982000  0.27907000  0.44339000  1.0
  C  C37  1  0.43014000  0.72091000  0.94336000  1.0
  C  C38  1  0.43018000  0.72093000  0.55661000  1.0
  C  C39  1  0.56985000  0.27909000  0.05664000  1.0
  C  C40  1  0.37748000  0.35541000  0.46593000  1.0
  C  C41  1  0.62250000  0.64458000  0.96591000  1.0
  C  C42  1  0.62253000  0.64460000  0.53407000  1.0
  C  C43  1  0.37750000  0.35542000  0.03410000  1.0
  C  C44  1  0.23586000  0.33142000  0.55218000  1.0
  C  C45  1  0.76412000  0.66857000  0.05216000  1.0
  C  C46  1  0.76415000  0.66859000  0.44783000  1.0
  C  C47  1  0.23586000  0.33143000  0.94784000  1.0
  C  C48  1  0.45332000  0.15903000  0.59424000  1.0
  C  C49  1  0.54665000  0.84093000  0.09422000  1.0
  C  C50  1  0.54669000  0.84097000  0.40577000  1.0
  C  C51  1  0.45333000  0.15906000  0.90577000  1.0
  C  C52  1  0.60478000  0.17837000  0.50969000  1.0
  C  C53  1  0.39519000  0.82162000  0.00966000  1.0
  C  C54  1  0.39522000  0.82164000  0.49032000  1.0
  C  C55  1  0.60481000  0.17837000  0.99034000  1.0
  I  I56  1  0.92801000  0.98497000  0.74999000  1.0
  I  I57  1  0.07201000  0.01504000  0.24997000  1.0
  I  I58  1  0.78737000  0.40055000  0.75000000  1.0
  I  I59  1  0.21263000  0.59945000  0.25000000  1.0
  N  N60  1  0.27296000  0.23502000  0.61629000  1.0
  N  N61  1  0.72703000  0.76496000  0.11627000  1.0
  N  N62  1  0.72704000  0.76499000  0.38372000  1.0
  N  N63  1  0.27296000  0.23503000  0.88374000  1.0
