# generated using pymatgen
data_AlH7C12NO5F
_symmetry_space_group_name_H-M   'P 1'
_cell_length_a   6.65988000
_cell_length_b   11.13410000
_cell_length_c   17.67621462
_cell_angle_alpha   89.39443698
_cell_angle_beta   79.44366361
_cell_angle_gamma   73.39420000
_symmetry_Int_Tables_number   1
_chemical_formula_structural   AlH7C12NO5F
_chemical_formula_sum   'Al2 H14 C24 N2 O10 F2'
_cell_volume   1233.58332795
_cell_formula_units_Z   2
loop_
 _symmetry_equiv_pos_site_id
 _symmetry_equiv_pos_as_xyz
  1  'x, y, z'
loop_
 _atom_site_type_symbol
 _atom_site_label
 _atom_site_symmetry_multiplicity
 _atom_site_fract_x
 _atom_site_fract_y
 _atom_site_fract_z
 _atom_site_occupancy
  Al  Al0  1  0.00144000  0.48352000  0.49977000  1.0
  Al  Al1  1  0.50215000  0.48134000  0.49944000  1.0
  H  H2  1  0.34583000  0.34003000  0.44572000  1.0
  H  H3  1  0.65330000  0.62195000  0.55687000  1.0
  H  H4  1  0.78960000  0.85601000  0.45633000  1.0
  H  H5  1  0.21906000  0.10882000  0.54098000  1.0
  H  H6  1  0.12644000  0.58142000  0.28079000  1.0
  H  H7  1  0.19589000  0.61208000  0.13864000  1.0
  H  H8  1  0.56417000  0.47750000  0.26007000  1.0
  H  H9  1  0.47401000  0.43752000  0.73428000  1.0
  H  H10  1  0.80316000  0.56140000  0.72965000  1.0
  H  H11  1  0.72180000  0.59704000  0.87305000  1.0
  H  H12  1  0.66812000  0.48374000  0.04944000  1.0
  H  H13  1  0.51084000  0.44403000  0.12847000  1.0
  H  H14  1  0.38854000  0.45437000  0.94517000  1.0
  H  H15  1  0.57615000  0.40907000  0.86210000  1.0
  C  C16  1  0.80477000  0.50305000  0.36158000  1.0
  C  C17  1  0.86503000  0.25588000  0.49974000  1.0
  C  C18  1  0.19201000  0.48200000  0.63882000  1.0
  C  C19  1  0.14056000  0.70920000  0.49874000  1.0
  C  C20  1  0.93305000  0.11562000  0.49834000  1.0
  C  C21  1  0.07533000  0.84934000  0.49903000  1.0
  C  C22  1  0.81627000  0.04080000  0.47442000  1.0
  C  C23  1  0.19264000  0.92404000  0.52262000  1.0
  C  C24  1  0.88454000  0.91115000  0.47479000  1.0
  C  C25  1  0.12420000  0.05376000  0.52235000  1.0
  C  C26  1  0.84278000  0.52587000  0.27755000  1.0
  C  C27  1  0.02148000  0.56446000  0.24421000  1.0
  C  C28  1  0.06004000  0.58047000  0.16549000  1.0
  C  C29  1  0.92748000  0.55414000  0.11810000  1.0
  C  C30  1  0.74368000  0.51743000  0.15237000  1.0
  C  C31  1  0.70308000  0.50574000  0.23240000  1.0
  C  C32  1  0.97633000  0.55647000  0.03704000  1.0
  C  C33  1  0.00601000  0.54856000  0.96650000  1.0
  C  C34  1  0.05142000  0.53394000  0.88538000  1.0
  C  C35  1  0.26793000  0.48758000  0.84629000  1.0
  C  C36  1  0.30996000  0.47106000  0.76577000  1.0
  C  C37  1  0.14346000  0.49674000  0.72458000  1.0
  C  C38  1  0.93010000  0.54114000  0.76305000  1.0
  C  C39  1  0.88609000  0.56068000  0.84242000  1.0
  N  N40  1  0.60908000  0.49583000  0.10690000  1.0
  N  N41  1  0.43038000  0.46382000  0.88774000  1.0
  O  O42  1  0.96574000  0.48265000  0.39455000  1.0
  O  O43  1  0.67452000  0.31044000  0.49272000  1.0
  O  O44  1  0.38619000  0.46194000  0.60560000  1.0
  O  O45  1  0.99896000  0.65679000  0.49051000  1.0
  O  O46  1  0.03393000  0.49394000  0.60508000  1.0
  O  O47  1  0.32971000  0.65321000  0.50679000  1.0
  O  O48  1  0.61689000  0.50314000  0.39361000  1.0
  O  O49  1  0.00486000  0.30977000  0.50810000  1.0
  O  O50  1  0.29442000  0.42653000  0.46533000  1.0
  O  O51  1  0.70833000  0.53751000  0.53391000  1.0
  F  F52  1  0.63149000  0.09303000  0.44871000  1.0
  F  F53  1  0.37780000  0.87155000  0.54804000  1.0
