# generated using pymatgen
data_Cu3H20C20N2O13
_symmetry_space_group_name_H-M   'P 1'
_cell_length_a   7.79195000
_cell_length_b   10.27660000
_cell_length_c   17.81750000
_cell_angle_alpha   80.13170000
_cell_angle_beta   89.99390000
_cell_angle_gamma   89.99820000
_symmetry_Int_Tables_number   1
_chemical_formula_structural   Cu3H20C20N2O13
_chemical_formula_sum   'Cu6 H40 C40 N4 O26'
_cell_volume   1405.62241047
_cell_formula_units_Z   2
loop_
 _symmetry_equiv_pos_site_id
 _symmetry_equiv_pos_as_xyz
  1  'x, y, z'
loop_
 _atom_site_type_symbol
 _atom_site_label
 _atom_site_symmetry_multiplicity
 _atom_site_fract_x
 _atom_site_fract_y
 _atom_site_fract_z
 _atom_site_occupancy
  Cu  Cu0  1  0.70936000  0.19201000  0.96929000  1.0
  Cu  Cu1  1  0.20940000  0.80786000  0.03078000  1.0
  Cu  Cu2  1  0.71517000  0.22108000  0.79345000  1.0
  Cu  Cu3  1  0.21513000  0.77889000  0.20658000  1.0
  Cu  Cu4  1  0.80789000  0.99088000  0.12066000  1.0
  Cu  Cu5  1  0.30801000  0.00927000  0.87923000  1.0
  H  H6  1  0.19686000  0.30727000  0.15441000  1.0
  H  H7  1  0.69673000  0.69287000  0.84531000  1.0
  H  H8  1  0.65516000  0.51197000  0.18753000  1.0
  H  H9  1  0.15520000  0.48804000  0.81243000  1.0
  H  H10  1  0.92765000  0.41461000  0.90059000  1.0
  H  H11  1  0.42776000  0.58541000  0.09943000  1.0
  H  H12  1  0.04346000  0.30046000  0.88324000  1.0
  H  H13  1  0.54337000  0.69963000  0.11677000  1.0
  H  H14  1  0.67984000  0.74616000  0.20949000  1.0
  H  H15  1  0.17971000  0.25380000  0.79053000  1.0
  H  H16  1  0.68092000  0.63066000  0.34220000  1.0
  H  H17  1  0.18087000  0.36930000  0.65784000  1.0
  H  H18  1  0.95713000  0.88952000  0.96611000  1.0
  H  H19  1  0.45720000  0.11046000  0.03397000  1.0
  H  H20  1  0.67657000  0.89991000  0.87813000  1.0
  H  H21  1  0.17653000  0.10006000  0.12191000  1.0
  H  H22  1  0.82343000  0.17221000  0.64428000  1.0
  H  H23  1  0.32343000  0.82779000  0.35578000  1.0
  H  H24  1  0.88426000  0.30616000  0.51546000  1.0
  H  H25  1  0.38430000  0.69385000  0.48459000  1.0
  H  H26  1  0.80554000  0.65556000  0.61606000  1.0
  H  H27  1  0.30554000  0.34445000  0.38399000  1.0
  H  H28  1  0.72994000  0.50844000  0.73697000  1.0
  H  H29  1  0.22995000  0.49159000  0.26308000  1.0
  H  H30  1  0.95841000  0.06090000  0.26163000  1.0
  H  H31  1  0.45829000  0.93902000  0.73839000  1.0
  H  H32  1  0.90030000  0.77673000  0.50047000  1.0
  H  H33  1  0.40028000  0.22326000  0.49956000  1.0
  H  H34  1  0.69189000  0.71773000  0.48654000  1.0
  H  H35  1  0.19189000  0.28228000  0.51348000  1.0
  H  H36  1  0.04576000  0.42586000  0.06295000  1.0
  H  H37  1  0.54588000  0.57427000  0.93686000  1.0
  H  H38  1  0.78607000  0.52919000  0.08222000  1.0
  H  H39  1  0.28610000  0.47087000  0.91772000  1.0
  H  H40  1  0.97563000  0.95643000  0.39955000  1.0
  H  H41  1  0.47550000  0.04348000  0.60048000  1.0
  H  H42  1  0.02981000  0.57558000  0.46751000  1.0
  H  H43  1  0.52979000  0.42437000  0.53253000  1.0
  H  H44  1  0.83588000  0.52396000  0.43356000  1.0
  H  H45  1  0.33587000  0.47601000  0.56650000  1.0
  C  C46  1  0.74280000  0.78990000  0.25322000  1.0
  C  C47  1  0.24272000  0.21006000  0.74682000  1.0
  C  C48  1  0.74468000  0.72609000  0.32829000  1.0
  C  C49  1  0.24459000  0.27386000  0.67175000  1.0
  C  C50  1  0.72328000  0.82540000  0.01847000  1.0
  C  C51  1  0.22349000  0.17471000  0.98154000  1.0
  C  C52  1  0.82987000  0.93528000  0.97243000  1.0
  C  C53  1  0.32996000  0.06469000  0.02756000  1.0
  C  C54  1  0.76066000  0.97944000  0.89142000  1.0
  C  C55  1  0.26069000  0.02057000  0.10859000  1.0
  C  C56  1  0.90221000  0.99414000  0.83108000  1.0
  C  C57  1  0.40223000  0.00574000  0.16892000  1.0
  C  C58  1  0.81781000  0.27975000  0.63409000  1.0
  C  C59  1  0.31783000  0.72025000  0.36598000  1.0
  C  C60  1  0.85488000  0.35520000  0.56362000  1.0
  C  C61  1  0.35491000  0.64480000  0.43643000  1.0
  C  C62  1  0.85235000  0.49368000  0.55433000  1.0
  C  C63  1  0.35236000  0.50631000  0.44572000  1.0
  C  C64  1  0.81016000  0.54901000  0.61845000  1.0
  C  C65  1  0.31015000  0.45100000  0.38159000  1.0
  C  C66  1  0.76924000  0.46766000  0.68699000  1.0
  C  C67  1  0.26924000  0.53237000  0.31306000  1.0
  C  C68  1  0.90026000  0.96515000  0.28288000  1.0
  C  C69  1  0.40010000  0.03476000  0.71715000  1.0
  C  C70  1  0.82757000  0.78419000  0.38365000  1.0
  C  C71  1  0.32750000  0.21576000  0.61638000  1.0
  C  C72  1  0.82541000  0.71809000  0.46590000  1.0
  C  C73  1  0.32540000  0.28190000  0.53413000  1.0
  C  C74  1  0.87785000  0.27076000  0.10101000  1.0
  C  C75  1  0.37780000  0.72923000  0.89894000  1.0
  C  C76  1  0.99242000  0.61946000  0.13227000  1.0
  C  C77  1  0.49245000  0.38057000  0.86771000  1.0
  C  C78  1  0.98238000  0.38900000  0.11758000  1.0
  C  C79  1  0.48236000  0.61105000  0.88228000  1.0
  C  C80  1  0.86779000  0.50280000  0.13298000  1.0
  C  C81  1  0.36779000  0.49728000  0.86694000  1.0
  C  C82  1  0.90754000  0.90624000  0.35923000  1.0
  C  C83  1  0.40741000  0.09369000  0.64080000  1.0
  C  C84  1  0.89028000  0.57508000  0.47756000  1.0
  C  C85  1  0.39027000  0.42490000  0.52248000  1.0
  N  N86  1  0.81867000  0.90753000  0.23056000  1.0
  N  N87  1  0.31853000  0.09241000  0.76948000  1.0
  N  N88  1  0.77355000  0.33520000  0.69455000  1.0
  N  N89  1  0.27352000  0.66483000  0.30553000  1.0
  O  O90  1  0.69348000  0.83689000  0.08932000  1.0
  O  O91  1  0.19358000  0.16333000  0.91069000  1.0
  O  O92  1  0.85062000  0.04413000  0.01125000  1.0
  O  O93  1  0.35039000  0.95589000  0.98873000  1.0
  O  O94  1  0.65940000  0.09695000  0.88626000  1.0
  O  O95  1  0.15928000  0.90306000  0.11381000  1.0
  O  O96  1  0.90436000  0.15853000  0.14152000  1.0
  O  O97  1  0.40438000  0.84144000  0.85844000  1.0
  O  O98  1  0.77822000  0.29923000  0.04406000  1.0
  O  O99  1  0.27821000  0.70070000  0.95591000  1.0
  O  O100  1  0.05359000  0.66336000  0.06669000  1.0
  O  O101  1  0.55369000  0.33677000  0.93325000  1.0
  O  O102  1  0.02923000  0.65635000  0.19467000  1.0
  O  O103  1  0.52910000  0.34352000  0.80532000  1.0
  O  O104  1  0.88477000  0.09335000  0.77501000  1.0
  O  O105  1  0.38482000  0.90654000  0.22498000  1.0
  O  O106  1  0.67609000  0.72908000  0.99050000  1.0
  O  O107  1  0.17639000  0.27105000  0.00955000  1.0
  O  O108  1  0.01973000  0.91181000  0.83510000  1.0
  O  O109  1  0.51988000  0.08798000  0.16484000  1.0
  O  O110  1  0.10768000  0.35636000  0.17607000  1.0
  O  O111  1  0.60752000  0.64374000  0.82371000  1.0
  O  O112  1  0.76839000  0.47107000  0.19996000  1.0
  O  O113  1  0.26842000  0.52893000  0.79997000  1.0
  O  O114  1  0.96998000  0.37465000  0.85826000  1.0
  O  O115  1  0.46997000  0.62540000  0.14176000  1.0
