# generated using pymatgen
data_BiH10C3S3O11
_symmetry_space_group_name_H-M   'P 1'
_cell_length_a   10.48130000
_cell_length_b   10.49800000
_cell_length_c   11.47500000
_cell_angle_alpha   115.44600000
_cell_angle_beta   90.00000000
_cell_angle_gamma   90.00000000
_symmetry_Int_Tables_number   1
_chemical_formula_structural   BiH10C3S3O11
_chemical_formula_sum   'Bi4 H40 C12 S12 O44'
_cell_volume   1140.13862431
_cell_formula_units_Z   4
loop_
 _symmetry_equiv_pos_site_id
 _symmetry_equiv_pos_as_xyz
  1  'x, y, z'
loop_
 _atom_site_type_symbol
 _atom_site_label
 _atom_site_symmetry_multiplicity
 _atom_site_fract_x
 _atom_site_fract_y
 _atom_site_fract_z
 _atom_site_occupancy
  Bi  Bi0  1  0.65343000  0.24376000  0.27570000  1.0
  Bi  Bi1  1  0.15343000  0.25624000  0.72431000  1.0
  Bi  Bi2  1  0.34657000  0.75625000  0.72431000  1.0
  Bi  Bi3  1  0.84657000  0.74376000  0.27569000  1.0
  H  H4  1  0.46571000  0.36630000  0.01838000  1.0
  H  H5  1  0.96571000  0.13370000  0.98162000  1.0
  H  H6  1  0.53429000  0.63370000  0.98162000  1.0
  H  H7  1  0.03429000  0.86630000  0.01838000  1.0
  H  H8  1  0.48321000  0.54140000  0.14646000  1.0
  H  H9  1  0.98321000  0.95860000  0.85355000  1.0
  H  H10  1  0.51679000  0.45860000  0.85355000  1.0
  H  H11  1  0.01679000  0.04140000  0.14646000  1.0
  H  H12  1  0.11447000  0.45058000  0.43984000  1.0
  H  H13  1  0.61447000  0.04942000  0.56016000  1.0
  H  H14  1  0.88553000  0.54942000  0.56016000  1.0
  H  H15  1  0.38553000  0.95058000  0.43983000  1.0
  H  H16  1  0.15265000  0.29972000  0.29234000  1.0
  H  H17  1  0.65264000  0.20028000  0.70766000  1.0
  H  H18  1  0.84735000  0.70028000  0.70766000  1.0
  H  H19  1  0.34735000  0.79972000  0.29234000  1.0
  H  H20  1  0.19525000  0.61170000  0.34352000  1.0
  H  H21  1  0.69525000  0.88830000  0.65647000  1.0
  H  H22  1  0.80475000  0.38829000  0.65647000  1.0
  H  H23  1  0.30475000  0.11170000  0.34352000  1.0
  H  H24  1  0.24377000  0.45975000  0.20073000  1.0
  H  H25  1  0.74377000  0.04025000  0.79927000  1.0
  H  H26  1  0.75623000  0.54025000  0.79927000  1.0
  H  H27  1  0.25623000  0.95975000  0.20073000  1.0
  H  H28  1  0.88548000  0.18438000  0.40186000  1.0
  H  H29  1  0.38548000  0.31561000  0.59814000  1.0
  H  H30  1  0.11452000  0.81562000  0.59814000  1.0
  H  H31  1  0.61452000  0.68438000  0.40186000  1.0
  H  H32  1  0.78068000  0.10083000  0.43436000  1.0
  H  H33  1  0.28068000  0.39917000  0.56564000  1.0
  H  H34  1  0.21932000  0.89917000  0.56563000  1.0
  H  H35  1  0.71932000  0.60083000  0.43437000  1.0
  H  H36  1  0.51503000  0.11644000  0.01035000  1.0
  H  H37  1  0.01503000  0.38356000  0.98965000  1.0
  H  H38  1  0.48497000  0.88356000  0.98965000  1.0
  H  H39  1  0.98497000  0.61644000  0.01035000  1.0
  H  H40  1  0.40963000  0.17409000  0.11719000  1.0
  H  H41  1  0.90963000  0.32591000  0.88282000  1.0
  H  H42  1  0.59037000  0.82591000  0.88281000  1.0
  H  H43  1  0.09037000  0.67409000  0.11718000  1.0
  C  C44  1  0.51183000  0.46933000  0.04793000  1.0
  C  C45  1  0.01183000  0.03067000  0.95207000  1.0
  C  C46  1  0.48817000  0.53067000  0.95207000  1.0
  C  C47  1  0.98817000  0.96934000  0.04793000  1.0
  C  C48  1  0.12827000  0.41216000  0.33546000  1.0
  C  C49  1  0.62827000  0.08784000  0.66454000  1.0
  C  C50  1  0.87173000  0.58784000  0.66454000  1.0
  C  C51  1  0.37173000  0.91216000  0.33546000  1.0
  C  C52  1  0.22503000  0.50079000  0.30468000  1.0
  C  C53  1  0.72503000  0.99921000  0.69532000  1.0
  C  C54  1  0.77497000  0.49921000  0.69532000  1.0
  C  C55  1  0.27497000  0.00079000  0.30468000  1.0
  S  S56  1  0.67780000  0.43948000  0.06016000  1.0
  S  S57  1  0.17780000  0.06052000  0.93985000  1.0
  S  S58  1  0.32220000  0.56052000  0.93985000  1.0
  S  S59  1  0.82220000  0.93948000  0.06016000  1.0
  S  S60  1  0.97608000  0.42401000  0.27150000  1.0
  S  S61  1  0.47608000  0.07599000  0.72850000  1.0
  S  S62  1  0.02392000  0.57599000  0.72851000  1.0
  S  S63  1  0.52392000  0.92401000  0.27150000  1.0
  S  S64  1  0.37446000  0.50372000  0.38073000  1.0
  S  S65  1  0.87446000  0.99628000  0.61927000  1.0
  S  S66  1  0.62554000  0.49628000  0.61927000  1.0
  S  S67  1  0.12554000  0.00372000  0.38073000  1.0
  O  O68  1  0.72552000  0.33656000  0.93639000  1.0
  O  O69  1  0.22552000  0.16344000  0.06361000  1.0
  O  O70  1  0.27447000  0.66344000  0.06361000  1.0
  O  O71  1  0.77448000  0.83656000  0.93639000  1.0
  O  O72  1  0.68815000  0.39840000  0.16753000  1.0
  O  O73  1  0.18815000  0.10160000  0.83247000  1.0
  O  O74  1  0.31185000  0.60160000  0.83247000  1.0
  O  O75  1  0.81185000  0.89840000  0.16752000  1.0
  O  O76  1  0.34265000  0.53709000  0.51762000  1.0
  O  O77  1  0.84265000  0.96291000  0.48238000  1.0
  O  O78  1  0.65735000  0.46291000  0.48238000  1.0
  O  O79  1  0.15735000  0.03709000  0.51762000  1.0
  O  O80  1  0.88728000  0.35029000  0.32062000  1.0
  O  O81  1  0.38728000  0.14971000  0.67937000  1.0
  O  O82  1  0.11272000  0.64971000  0.67938000  1.0
  O  O83  1  0.61272000  0.85029000  0.32062000  1.0
  O  O84  1  0.95032000  0.57991000  0.33193000  1.0
  O  O85  1  0.45032000  0.92009000  0.66807000  1.0
  O  O86  1  0.04968000  0.42009000  0.66807000  1.0
  O  O87  1  0.54968000  0.07991000  0.33193000  1.0
  O  O88  1  0.98574000  0.36328000  0.13167000  1.0
  O  O89  1  0.48574000  0.13672000  0.86833000  1.0
  O  O90  1  0.01426000  0.63672000  0.86833000  1.0
  O  O91  1  0.51426000  0.86328000  0.13167000  1.0
  O  O92  1  0.79322000  0.18591000  0.41999000  1.0
  O  O93  1  0.29322000  0.31409000  0.58001000  1.0
  O  O94  1  0.20678000  0.81409000  0.58001000  1.0
  O  O95  1  0.70678000  0.68591000  0.41999000  1.0
  O  O96  1  0.49812000  0.13988000  0.10211000  1.0
  O  O97  1  0.99812000  0.36012000  0.89789000  1.0
  O  O98  1  0.50188000  0.86012000  0.89789000  1.0
  O  O99  1  0.00188000  0.63988000  0.10211000  1.0
  O  O100  1  0.45055000  0.61323000  0.36758000  1.0
  O  O101  1  0.95055000  0.88677000  0.63242000  1.0
  O  O102  1  0.54945000  0.38677000  0.63242000  1.0
  O  O103  1  0.04945000  0.11323000  0.36758000  1.0
  O  O104  1  0.42678000  0.35955000  0.31605000  1.0
  O  O105  1  0.92678000  0.14045000  0.68394000  1.0
  O  O106  1  0.57322000  0.64045000  0.68394000  1.0
  O  O107  1  0.07322000  0.85955000  0.31605000  1.0
  O  O108  1  0.73815000  0.58113000  0.09672000  1.0
  O  O109  1  0.23815000  0.91887000  0.90328000  1.0
  O  O110  1  0.26185000  0.41887000  0.90328000  1.0
  O  O111  1  0.76185000  0.08113000  0.09672000  1.0
