# generated using pymatgen
data_CdH16C18(NO)4
_symmetry_space_group_name_H-M   'P 1'
_cell_length_a   8.64433000
_cell_length_b   10.60070000
_cell_length_c   12.61890000
_cell_angle_alpha   101.15000000
_cell_angle_beta   92.68990000
_cell_angle_gamma   96.74290000
_symmetry_Int_Tables_number   1
_chemical_formula_structural   CdH16C18(NO)4
_chemical_formula_sum   'Cd2 H32 C36 N8 O8'
_cell_volume   1123.78943040
_cell_formula_units_Z   2
loop_
 _symmetry_equiv_pos_site_id
 _symmetry_equiv_pos_as_xyz
  1  'x, y, z'
loop_
 _atom_site_type_symbol
 _atom_site_label
 _atom_site_symmetry_multiplicity
 _atom_site_fract_x
 _atom_site_fract_y
 _atom_site_fract_z
 _atom_site_occupancy
  Cd  Cd0  1  0.43141000  0.22875000  0.25645000  1.0
  Cd  Cd1  1  0.56860000  0.77124000  0.74356000  1.0
  H  H2  1  0.29126000  0.49958000  0.36338000  1.0
  H  H3  1  0.70878000  0.50043000  0.63661000  1.0
  H  H4  1  0.91003000  0.43159000  0.56177000  1.0
  H  H5  1  0.09001000  0.56838000  0.43822000  1.0
  H  H6  1  0.10983000  0.28922000  0.48556000  1.0
  H  H7  1  0.89020000  0.71076000  0.51443000  1.0
  H  H8  1  0.03696000  0.12496000  0.31718000  1.0
  H  H9  1  0.96305000  0.87503000  0.68281000  1.0
  H  H10  1  0.76381000  0.10153000  0.23045000  1.0
  H  H11  1  0.23619000  0.89845000  0.76954000  1.0
  H  H12  1  0.55587000  0.07941000  0.83537000  1.0
  H  H13  1  0.44414000  0.92059000  0.16463000  1.0
  H  H14  1  0.68620000  0.26708000  0.87106000  1.0
  H  H15  1  0.31379000  0.73294000  0.12895000  1.0
  H  H16  1  0.76744000  0.50575000  0.90747000  1.0
  H  H17  1  0.23251000  0.49426000  0.09255000  1.0
  H  H18  1  0.72409000  0.63754000  0.09040000  1.0
  H  H19  1  0.27586000  0.36247000  0.90962000  1.0
  H  H20  1  0.58640000  0.52369000  0.22353000  1.0
  H  H21  1  0.41356000  0.47630000  0.77647000  1.0
  H  H22  1  0.16867000  0.02715000  0.51579000  1.0
  H  H23  1  0.83131000  0.97287000  0.48421000  1.0
  H  H24  1  0.24639000  0.88541000  0.44828000  1.0
  H  H25  1  0.75358000  0.11460000  0.55172000  1.0
  H  H26  1  0.36211000  0.00147000  0.55077000  1.0
  H  H27  1  0.63787000  0.99853000  0.44924000  1.0
  H  H28  1  0.94120000  0.16708000  0.04805000  1.0
  H  H29  1  0.05881000  0.83293000  0.95195000  1.0
  H  H30  1  0.91239000  0.31781000  0.13454000  1.0
  H  H31  1  0.08761000  0.68219000  0.86545000  1.0
  H  H32  1  0.01820000  0.31900000  0.01850000  1.0
  H  H33  1  0.98180000  0.68101000  0.98150000  1.0
  C  C34  1  0.61346000  0.42531000  0.46840000  1.0
  C  C35  1  0.38657000  0.57470000  0.53159000  1.0
  C  C36  1  0.38370000  0.50186000  0.42594000  1.0
  C  C37  1  0.61633000  0.49814000  0.57405000  1.0
  C  C38  1  0.73438000  0.34193000  0.43240000  1.0
  C  C39  1  0.26564000  0.65807000  0.56760000  1.0
  C  C40  1  0.88170000  0.35759000  0.48833000  1.0
  C  C41  1  0.11833000  0.64239000  0.51165000  1.0
  C  C42  1  0.99240000  0.27938000  0.44689000  1.0
  C  C43  1  0.00764000  0.72060000  0.55309000  1.0
  C  C44  1  0.95225000  0.18599000  0.35254000  1.0
  C  C45  1  0.04777000  0.81400000  0.64745000  1.0
  C  C46  1  0.80203000  0.17434000  0.30349000  1.0
  C  C47  1  0.19797000  0.82565000  0.69650000  1.0
  C  C48  1  0.45494000  0.87054000  0.98734000  1.0
  C  C49  1  0.54505000  0.12946000  0.01265000  1.0
  C  C50  1  0.46904000  0.95313000  0.08953000  1.0
  C  C51  1  0.53097000  0.04687000  0.91047000  1.0
  C  C52  1  0.59360000  0.27070000  0.02846000  1.0
  C  C53  1  0.40641000  0.72929000  0.97155000  1.0
  C  C54  1  0.66581000  0.32675000  0.94845000  1.0
  C  C55  1  0.33419000  0.67326000  0.05155000  1.0
  C  C56  1  0.71408000  0.45986000  0.96975000  1.0
  C  C57  1  0.28589000  0.54015000  0.03026000  1.0
  C  C58  1  0.68848000  0.53312000  0.07028000  1.0
  C  C59  1  0.31149000  0.46688000  0.92973000  1.0
  C  C60  1  0.61305000  0.47050000  0.14483000  1.0
  C  C61  1  0.38691000  0.52950000  0.85517000  1.0
  C  C62  1  0.33640000  0.06254000  0.39949000  1.0
  C  C63  1  0.66359000  0.93746000  0.60052000  1.0
  C  C64  1  0.27299000  0.98915000  0.48309000  1.0
  C  C65  1  0.72699000  0.01085000  0.51692000  1.0
  C  C66  1  0.14508000  0.26707000  0.15094000  1.0
  C  C67  1  0.85492000  0.73295000  0.84907000  1.0
  C  C68  1  0.99411000  0.26609000  0.08406000  1.0
  C  C69  1  0.00590000  0.73391000  0.91594000  1.0
  N  N70  1  0.49575000  0.42913000  0.39574000  1.0
  N  N71  1  0.50428000  0.57088000  0.60426000  1.0
  N  N72  1  0.69625000  0.25074000  0.34160000  1.0
  N  N73  1  0.30376000  0.74926000  0.65839000  1.0
  N  N74  1  0.48654000  0.92003000  0.89910000  1.0
  N  N75  1  0.51346000  0.07995000  0.10090000  1.0
  N  N76  1  0.56692000  0.34274000  0.12475000  1.0
  N  N77  1  0.43309000  0.65725000  0.87526000  1.0
  O  O78  1  0.31780000  0.18292000  0.41187000  1.0
  O  O79  1  0.68221000  0.81708000  0.58815000  1.0
  O  O80  1  0.40668000  0.00499000  0.32214000  1.0
  O  O81  1  0.59328000  0.99500000  0.67786000  1.0
  O  O82  1  0.20773000  0.37327000  0.21026000  1.0
  O  O83  1  0.79226000  0.62676000  0.78975000  1.0
  O  O84  1  0.20357000  0.16046000  0.14296000  1.0
  O  O85  1  0.79643000  0.83957000  0.85706000  1.0
