# generated using pymatgen
data_AlH11C19O13
_symmetry_space_group_name_H-M   'P 1'
_cell_length_a   6.71344000
_cell_length_b   20.82490000
_cell_length_c   25.77060000
_cell_angle_alpha   83.52180000
_cell_angle_beta   89.98600000
_cell_angle_gamma   89.99650000
_symmetry_Int_Tables_number   1
_chemical_formula_structural   AlH11C19O13
_chemical_formula_sum   'Al4 H44 C76 O52'
_cell_volume   3579.89780732
_cell_formula_units_Z   4
loop_
 _symmetry_equiv_pos_site_id
 _symmetry_equiv_pos_as_xyz
  1  'x, y, z'
loop_
 _atom_site_type_symbol
 _atom_site_label
 _atom_site_symmetry_multiplicity
 _atom_site_fract_x
 _atom_site_fract_y
 _atom_site_fract_z
 _atom_site_occupancy
  Al  Al0  1  0.84002000  0.50097000  0.50018000  1.0
  Al  Al1  1  0.34000000  0.49899000  0.49984000  1.0
  Al  Al2  1  0.34793000  0.99962000  0.00083000  1.0
  Al  Al3  1  0.84793000  0.00027000  0.99924000  1.0
  H  H4  1  0.36184000  0.15074000  0.21679000  1.0
  H  H5  1  0.86202000  0.84898000  0.78323000  1.0
  H  H6  1  0.37416000  0.34874000  0.40163000  1.0
  H  H7  1  0.87385000  0.65114000  0.59840000  1.0
  H  H8  1  0.26110000  0.35470000  0.76166000  1.0
  H  H9  1  0.76126000  0.64530000  0.23829000  1.0
  H  H10  1  0.80711000  0.23087000  0.15444000  1.0
  H  H11  1  0.30711000  0.76909000  0.84571000  1.0
  H  H12  1  0.28458000  0.15867000  0.75513000  1.0
  H  H13  1  0.78460000  0.84134000  0.24506000  1.0
  H  H14  1  0.77770000  0.22530000  0.78351000  1.0
  H  H15  1  0.27778000  0.77485000  0.21663000  1.0
  H  H16  1  0.69666000  0.06956000  0.78257000  1.0
  H  H17  1  0.19637000  0.93046000  0.21788000  1.0
  H  H18  1  0.96081000  0.21945000  0.67888000  1.0
  H  H19  1  0.46077000  0.78031000  0.32130000  1.0
  H  H20  1  0.79719000  0.27710000  0.69850000  1.0
  H  H21  1  0.29726000  0.72273000  0.30154000  1.0
  H  H22  1  0.41071000  0.37263000  0.87076000  1.0
  H  H23  1  0.91078000  0.62756000  0.12917000  1.0
  H  H24  1  0.66035000  0.26236000  0.87531000  1.0
  H  H25  1  0.16051000  0.73778000  0.12478000  1.0
  H  H26  1  0.41853000  0.21230000  0.78992000  1.0
  H  H27  1  0.91859000  0.78778000  0.21020000  1.0
  H  H28  1  0.65815000  0.35159000  0.75086000  1.0
  H  H29  1  0.15824000  0.64846000  0.24910000  1.0
  H  H30  1  0.81255000  0.15303000  0.08727000  1.0
  H  H31  1  0.31319000  0.84686000  0.91291000  1.0
  H  H32  1  0.05188000  0.49104000  0.74039000  1.0
  H  H33  1  0.55195000  0.50897000  0.25959000  1.0
  H  H34  1  0.44695000  0.96840000  0.16102000  1.0
  H  H35  1  0.94977000  0.03118000  0.83841000  1.0
  H  H36  1  0.54955000  0.33341000  0.23302000  1.0
  H  H37  1  0.04936000  0.66639000  0.76712000  1.0
  H  H38  1  0.79486000  0.42695000  0.36251000  1.0
  H  H39  1  0.29448000  0.57297000  0.63748000  1.0
  H  H40  1  0.35372000  0.28239000  0.32663000  1.0
  H  H41  1  0.85335000  0.71746000  0.67343000  1.0
  H  H42  1  0.51486000  0.16065000  0.64147000  1.0
  H  H43  1  0.01467000  0.83924000  0.35869000  1.0
  H  H44  1  0.59267000  0.42165000  0.52996000  1.0
  H  H45  1  0.09270000  0.57833000  0.47008000  1.0
  H  H46  1  0.59534000  0.08131000  0.97733000  1.0
  H  H47  1  0.09528000  0.91852000  0.02257000  1.0
  C  C48  1  0.58868000  0.57538000  0.42242000  1.0
  C  C49  1  0.08857000  0.42454000  0.57759000  1.0
  C  C50  1  0.58812000  0.57271000  0.56640000  1.0
  C  C51  1  0.08822000  0.42723000  0.43361000  1.0
  C  C52  1  0.93023000  0.19712000  0.15264000  1.0
  C  C53  1  0.43030000  0.80283000  0.84743000  1.0
  C  C54  1  0.93324000  0.15403000  0.11536000  1.0
  C  C55  1  0.43360000  0.84592000  0.88472000  1.0
  C  C56  1  0.09050000  0.11019000  0.11328000  1.0
  C  C57  1  0.59087000  0.88977000  0.88673000  1.0
  C  C58  1  0.24405000  0.10863000  0.15073000  1.0
  C  C59  1  0.74424000  0.89129000  0.84920000  1.0
  C  C60  1  0.24297000  0.15229000  0.18787000  1.0
  C  C61  1  0.74300000  0.84757000  0.81210000  1.0
  C  C62  1  0.08659000  0.19729000  0.18917000  1.0
  C  C63  1  0.58656000  0.80259000  0.81086000  1.0
  C  C64  1  0.08290000  0.24090000  0.22734000  1.0
  C  C65  1  0.58275000  0.75891000  0.77274000  1.0
  C  C66  1  0.06728000  0.27841000  0.26027000  1.0
  C  C67  1  0.56683000  0.72142000  0.73981000  1.0
  C  C68  1  0.90515000  0.36039000  0.31110000  1.0
  C  C69  1  0.40463000  0.63955000  0.68887000  1.0
  C  C70  1  0.91759000  0.39547000  0.35420000  1.0
  C  C71  1  0.41715000  0.60447000  0.64577000  1.0
  C  C72  1  0.08348000  0.39060000  0.38705000  1.0
  C  C73  1  0.58313000  0.60935000  0.61294000  1.0
  C  C74  1  0.24358000  0.35100000  0.37634000  1.0
  C  C75  1  0.74318000  0.64892000  0.62368000  1.0
  C  C76  1  0.23237000  0.31467000  0.33457000  1.0
  C  C77  1  0.73192000  0.68523000  0.66546000  1.0
  C  C78  1  0.06403000  0.31783000  0.30134000  1.0
  C  C79  1  0.56351000  0.68207000  0.69868000  1.0
  C  C80  1  0.28820000  0.20836000  0.76516000  1.0
  C  C81  1  0.78822000  0.79167000  0.23497000  1.0
  C  C82  1  0.90686000  0.20912000  0.76290000  1.0
  C  C83  1  0.40698000  0.79092000  0.23728000  1.0
  C  C84  1  0.93124000  0.24986000  0.70998000  1.0
  C  C85  1  0.43127000  0.75002000  0.29013000  1.0
  C  C86  1  0.08965000  0.38141000  0.62515000  1.0
  C  C87  1  0.58988000  0.61842000  0.37482000  1.0
  C  C88  1  0.09620000  0.21785000  0.79746000  1.0
  C  C89  1  0.59626000  0.78221000  0.20268000  1.0
  C  C90  1  0.30259000  0.25612000  0.71444000  1.0
  C  C91  1  0.80261000  0.74383000  0.28564000  1.0
  C  C92  1  0.10603000  0.29742000  0.71076000  1.0
  C  C93  1  0.60614000  0.70250000  0.28928000  1.0
  C  C94  1  0.10998000  0.33592000  0.76039000  1.0
  C  C95  1  0.61014000  0.66408000  0.23960000  1.0
  C  C96  1  0.08632000  0.28904000  0.81290000  1.0
  C  C97  1  0.58642000  0.71104000  0.18716000  1.0
  C  C98  1  0.10005000  0.34305000  0.66400000  1.0
  C  C99  1  0.60024000  0.65681000  0.33600000  1.0
  C  C100  1  0.09908000  0.16964000  0.84298000  1.0
  C  C101  1  0.59904000  0.83044000  0.15718000  1.0
  C  C102  1  0.10235000  0.12735000  0.87948000  1.0
  C  C103  1  0.60213000  0.87273000  0.12068000  1.0
  C  C104  1  0.59624000  0.93040000  0.93093000  1.0
  C  C105  1  0.09550000  0.06949000  0.06913000  1.0
  C  C106  1  0.60047000  0.91835000  0.07427000  1.0
  C  C107  1  0.10088000  0.08165000  0.92584000  1.0
  C  C108  1  0.87165000  0.13830000  0.75718000  1.0
  C  C109  1  0.37164000  0.86171000  0.24317000  1.0
  C  C110  1  0.26631000  0.30279000  0.84820000  1.0
  C  C111  1  0.76643000  0.69736000  0.15182000  1.0
  C  C112  1  0.89448000  0.30400000  0.84407000  1.0
  C  C113  1  0.39461000  0.69611000  0.15598000  1.0
  C  C114  1  0.47739000  0.30383000  0.71112000  1.0
  C  C115  1  0.97748000  0.69615000  0.28890000  1.0
  C  C116  1  0.98961000  0.39879000  0.75206000  1.0
  C  C117  1  0.48974000  0.60122000  0.24791000  1.0
  C  C118  1  0.40713000  0.05944000  0.15489000  1.0
  C  C119  1  0.90795000  0.94026000  0.84501000  1.0
  C  C120  1  0.72164000  0.37062000  0.27894000  1.0
  C  C121  1  0.22112000  0.62929000  0.72105000  1.0
  C  C122  1  0.33213000  0.21930000  0.66631000  1.0
  C  C123  1  0.83198000  0.78059000  0.33383000  1.0
  O  O124  1  0.41982000  0.55728000  0.54892000  1.0
  O  O125  1  0.91984000  0.44272000  0.45103000  1.0
  O  O126  1  0.75814000  0.55944000  0.44184000  1.0
  O  O127  1  0.25808000  0.44058000  0.55824000  1.0
  O  O128  1  0.75893000  0.56101000  0.54818000  1.0
  O  O129  1  0.25892000  0.43890000  0.45190000  1.0
  O  O130  1  0.91947000  0.44243000  0.55892000  1.0
  O  O131  1  0.41952000  0.55748000  0.44107000  1.0
  O  O132  1  0.59113000  0.46017000  0.50490000  1.0
  O  O133  1  0.09113000  0.53980000  0.49514000  1.0
  O  O134  1  0.76840000  0.93603000  0.05478000  1.0
  O  O135  1  0.26895000  0.06362000  0.94503000  1.0
  O  O136  1  0.42904000  0.94361000  0.95037000  1.0
  O  O137  1  0.92810000  0.05596000  0.05000000  1.0
  O  O138  1  0.42967000  0.93673000  0.05692000  1.0
  O  O139  1  0.93018000  0.06354000  0.94345000  1.0
  O  O140  1  0.26682000  0.05431000  0.05292000  1.0
  O  O141  1  0.76765000  0.94582000  0.94688000  1.0
  O  O142  1  0.59758000  0.03925000  0.99778000  1.0
  O  O143  1  0.09761000  0.96064000  0.00223000  1.0
  O  O144  1  0.97931000  0.10428000  0.73344000  1.0
  O  O145  1  0.70473000  0.11672000  0.78289000  1.0
  O  O146  1  0.47892000  0.89565000  0.26705000  1.0
  O  O147  1  0.20478000  0.88332000  0.21744000  1.0
  O  O148  1  0.37850000  0.26175000  0.86973000  1.0
  O  O149  1  0.28696000  0.36628000  0.85166000  1.0
  O  O150  1  0.87873000  0.73841000  0.13034000  1.0
  O  O151  1  0.78701000  0.63388000  0.14828000  1.0
  O  O152  1  0.84307000  0.35899000  0.84967000  1.0
  O  O153  1  0.79618000  0.25083000  0.86394000  1.0
  O  O154  1  0.34322000  0.64113000  0.15034000  1.0
  O  O155  1  0.29631000  0.74929000  0.13617000  1.0
  O  O156  1  0.53658000  0.32966000  0.66902000  1.0
  O  O157  1  0.55126000  0.31572000  0.75747000  1.0
  O  O158  1  0.03671000  0.67027000  0.33098000  1.0
  O  O159  1  0.05136000  0.68433000  0.24253000  1.0
  O  O160  1  0.80996000  0.40526000  0.74339000  1.0
  O  O161  1  0.11474000  0.44854000  0.75086000  1.0
  O  O162  1  0.31005000  0.59476000  0.25656000  1.0
  O  O163  1  0.61485000  0.55145000  0.24911000  1.0
  O  O164  1  0.58433000  0.07143000  0.15674000  1.0
  O  O165  1  0.33287000  0.99811000  0.16043000  1.0
  O  O166  1  0.08495000  0.92794000  0.84323000  1.0
  O  O167  1  0.83491000  0.00176000  0.83930000  1.0
  O  O168  1  0.61405000  0.41861000  0.27797000  1.0
  O  O169  1  0.67500000  0.32117000  0.25105000  1.0
  O  O170  1  0.11344000  0.58134000  0.72196000  1.0
  O  O171  1  0.17469000  0.67868000  0.74903000  1.0
  O  O172  1  0.22878000  0.22148000  0.62753000  1.0
  O  O173  1  0.49923000  0.18218000  0.67313000  1.0
  O  O174  1  0.72852000  0.77836000  0.37260000  1.0
  O  O175  1  0.99903000  0.81774000  0.32702000  1.0
