# generated using pymatgen
data_CuH19C13SINO
_symmetry_space_group_name_H-M   'P 1'
_cell_length_a   8.16949000
_cell_length_b   10.72250000
_cell_length_c   10.90250000
_cell_angle_alpha   116.89000000
_cell_angle_beta   93.17170000
_cell_angle_gamma   94.21020000
_symmetry_Int_Tables_number   1
_chemical_formula_structural   CuH19C13SINO
_chemical_formula_sum   'Cu2 H38 C26 S2 I2 N2 O2'
_cell_volume   845.25203354
_cell_formula_units_Z   2
loop_
 _symmetry_equiv_pos_site_id
 _symmetry_equiv_pos_as_xyz
  1  'x, y, z'
loop_
 _atom_site_type_symbol
 _atom_site_label
 _atom_site_symmetry_multiplicity
 _atom_site_fract_x
 _atom_site_fract_y
 _atom_site_fract_z
 _atom_site_occupancy
  Cu  Cu0  1  0.96897000  0.56331000  0.13289000  1.0
  Cu  Cu1  1  0.03104000  0.43670000  0.86711000  1.0
  H  H2  1  0.60492000  0.62088000  0.97312000  1.0
  H  H3  1  0.39507000  0.37912000  0.02688000  1.0
  H  H4  1  0.80768000  0.67584000  0.95733000  1.0
  H  H5  1  0.19232000  0.32416000  0.04267000  1.0
  H  H6  1  0.59849000  0.84420000  0.18852000  1.0
  H  H7  1  0.40151000  0.15580000  0.81148000  1.0
  H  H8  1  0.84896000  0.89918000  0.90580000  1.0
  H  H9  1  0.15105000  0.10082000  0.09420000  1.0
  H  H10  1  0.67437000  0.98349000  0.89767000  1.0
  H  H11  1  0.32563000  0.01651000  0.10233000  1.0
  H  H12  1  0.60895000  0.71996000  0.80349000  1.0
  H  H13  1  0.39105000  0.28004000  0.19651000  1.0
  H  H14  1  0.49504000  0.81440000  0.94357000  1.0
  H  H15  1  0.50496000  0.18560000  0.05642000  1.0
  H  H16  1  0.52462000  0.49411000  0.33752000  1.0
  H  H17  1  0.47538000  0.50589000  0.66247000  1.0
  H  H18  1  0.71876000  0.45836000  0.26603000  1.0
  H  H19  1  0.28125000  0.54163000  0.73397000  1.0
  H  H20  1  0.95580000  0.91145000  0.14510000  1.0
  H  H21  1  0.04420000  0.08855000  0.85490000  1.0
  H  H22  1  0.85311000  0.01212000  0.29185000  1.0
  H  H23  1  0.14689000  0.98787000  0.70815000  1.0
  H  H24  1  0.52235000  0.70614000  0.30474000  1.0
  H  H25  1  0.47765000  0.29384000  0.69525000  1.0
  H  H26  1  0.55677000  0.56044000  0.14629000  1.0
  H  H27  1  0.44324000  0.43954000  0.85370000  1.0
  H  H28  1  0.05662000  0.69252000  0.82878000  1.0
  H  H29  1  0.94338000  0.30750000  0.17122000  1.0
  H  H30  1  0.93872000  0.77810000  0.66599000  1.0
  H  H31  1  0.06127000  0.22191000  0.33400000  1.0
  H  H32  1  0.79037000  0.30143000  0.60890000  1.0
  H  H33  1  0.20964000  0.69859000  0.39112000  1.0
  H  H34  1  0.66397000  0.36647000  0.43559000  1.0
  H  H35  1  0.33603000  0.63353000  0.56443000  1.0
  H  H36  1  0.64647000  0.05960000  0.14629000  1.0
  H  H37  1  0.35353000  0.94040000  0.85371000  1.0
  H  H38  1  0.84661000  0.11416000  0.12360000  1.0
  H  H39  1  0.15339000  0.88584000  0.87640000  1.0
  C  C40  1  0.68943000  0.71410000  0.99338000  1.0
  C  C41  1  0.31056000  0.28590000  0.00662000  1.0
  C  C42  1  0.71768000  0.81196000  0.14830000  1.0
  C  C43  1  0.28231000  0.18804000  0.85170000  1.0
  C  C44  1  0.72980000  0.92587000  0.94825000  1.0
  C  C45  1  0.27020000  0.07413000  0.05175000  1.0
  C  C46  1  0.62067000  0.79034000  0.91551000  1.0
  C  C47  1  0.37933000  0.20966000  0.08449000  1.0
  C  C48  1  0.64242000  0.54202000  0.32510000  1.0
  C  C49  1  0.35758000  0.45797000  0.67489000  1.0
  C  C50  1  0.83428000  0.94336000  0.17950000  1.0
  C  C51  1  0.16572000  0.05664000  0.82050000  1.0
  C  C52  1  0.79012000  0.58041000  0.53913000  1.0
  C  C53  1  0.20988000  0.41959000  0.46086000  1.0
  C  C54  1  0.60987000  0.63032000  0.25267000  1.0
  C  C55  1  0.39013000  0.36967000  0.74732000  1.0
  C  C56  1  0.96846000  0.62468000  0.73994000  1.0
  C  C57  1  0.03153000  0.37533000  0.26006000  1.0
  C  C58  1  0.90336000  0.67191000  0.65109000  1.0
  C  C59  1  0.09663000  0.32809000  0.34891000  1.0
  C  C60  1  0.82091000  0.40620000  0.61755000  1.0
  C  C61  1  0.17909000  0.59381000  0.38246000  1.0
  C  C62  1  0.74938000  0.44330000  0.52131000  1.0
  C  C63  1  0.25062000  0.55670000  0.47870000  1.0
  C  C64  1  0.76260000  0.02089000  0.10404000  1.0
  C  C65  1  0.23740000  0.97911000  0.89596000  1.0
  S  S66  1  0.80004000  0.72794000  0.24874000  1.0
  S  S67  1  0.19996000  0.27206000  0.75126000  1.0
  I  I68  1  0.78492000  0.32756000  0.94333000  1.0
  I  I69  1  0.21509000  0.67245000  0.05666000  1.0
  N  N70  1  0.92860000  0.49400000  0.72587000  1.0
  N  N71  1  0.07140000  0.50601000  0.27413000  1.0
  O  O72  1  0.72875000  0.63490000  0.45868000  1.0
  O  O73  1  0.27124000  0.36509000  0.54132000  1.0
