# generated using pymatgen
data_ZnH28C14(NO6)2
_symmetry_space_group_name_H-M   'P 1'
_cell_length_a   7.34823000
_cell_length_b   7.87305000
_cell_length_c   8.43628000
_cell_angle_alpha   90.96630000
_cell_angle_beta   105.36370000
_cell_angle_gamma   94.46840000
_symmetry_Int_Tables_number   1
_chemical_formula_structural   ZnH28C14(NO6)2
_chemical_formula_sum   'Zn1 H28 C14 N2 O12'
_cell_volume   468.83453573
_cell_formula_units_Z   1
loop_
 _symmetry_equiv_pos_site_id
 _symmetry_equiv_pos_as_xyz
  1  'x, y, z'
loop_
 _atom_site_type_symbol
 _atom_site_label
 _atom_site_symmetry_multiplicity
 _atom_site_fract_x
 _atom_site_fract_y
 _atom_site_fract_z
 _atom_site_occupancy
  Zn  Zn0  1  0.50000000  0.50002000  0.49999000  1.0
  H  H1  1  0.57962000  0.37255000  0.77523000  1.0
  H  H2  1  0.42034000  0.62746000  0.22474000  1.0
  H  H3  1  0.72904000  0.30233000  0.68411000  1.0
  H  H4  1  0.27097000  0.69772000  0.31590000  1.0
  H  H5  1  0.46271000  0.16637000  0.41451000  1.0
  H  H6  1  0.53732000  0.83363000  0.58554000  1.0
  H  H7  1  0.37385000  0.18467000  0.56181000  1.0
  H  H8  1  0.62614000  0.81540000  0.43822000  1.0
  H  H9  1  0.29860000  0.81280000  0.82431000  1.0
  H  H10  1  0.70141000  0.18718000  0.17571000  1.0
  H  H11  1  0.00989000  0.52031000  0.79592000  1.0
  H  H12  1  0.99007000  0.47969000  0.20404000  1.0
  H  H13  1  0.19996000  0.56198000  0.97814000  1.0
  H  H14  1  0.80001000  0.43797000  0.02182000  1.0
  H  H15  1  0.97614000  0.91133000  0.64138000  1.0
  H  H16  1  0.02391000  0.08871000  0.35864000  1.0
  H  H17  1  0.97590000  0.69519000  0.57638000  1.0
  H  H18  1  0.02411000  0.30485000  0.42361000  1.0
  H  H19  1  0.16617000  0.81084000  0.06186000  1.0
  H  H20  1  0.83383000  0.18912000  0.93815000  1.0
  H  H21  1  0.82857000  0.71193000  0.92020000  1.0
  H  H22  1  0.17143000  0.28804000  0.07981000  1.0
  H  H23  1  0.81125000  0.89334000  0.79856000  1.0
  H  H24  1  0.18876000  0.10664000  0.20146000  1.0
  H  H25  1  0.11160000  0.10626000  0.82593000  1.0
  H  H26  1  0.88842000  0.89372000  0.17410000  1.0
  H  H27  1  0.32529000  0.06323000  0.96779000  1.0
  H  H28  1  0.67472000  0.93674000  0.03224000  1.0
  C  C29  1  0.15623000  0.57693000  0.84489000  1.0
  C  C30  1  0.84373000  0.42305000  0.15507000  1.0
  C  C31  1  0.29143000  0.49009000  0.76477000  1.0
  C  C32  1  0.70850000  0.50989000  0.23516000  1.0
  C  C33  1  0.06511000  0.80592000  0.64054000  1.0
  C  C34  1  0.93492000  0.19412000  0.35947000  1.0
  C  C35  1  0.21881000  0.86284000  0.55717000  1.0
  C  C36  1  0.78124000  0.13719000  0.44286000  1.0
  C  C37  1  0.09592000  0.86550000  0.94458000  1.0
  C  C38  1  0.90408000  0.13448000  0.05544000  1.0
  C  C39  1  0.88195000  0.84587000  0.91905000  1.0
  C  C40  1  0.11806000  0.15411000  0.08097000  1.0
  C  C41  1  0.17058000  0.05197000  0.94606000  1.0
  C  C42  1  0.82943000  0.94800000  0.05396000  1.0
  N  N43  1  0.15865000  0.76507000  0.81543000  1.0
  N  N44  1  0.84134000  0.23492000  0.18457000  1.0
  O  O45  1  0.68702000  0.40781000  0.72644000  1.0
  O  O46  1  0.31296000  0.59223000  0.27356000  1.0
  O  O47  1  0.38186000  0.24063000  0.46081000  1.0
  O  O48  1  0.61815000  0.75939000  0.53920000  1.0
  O  O49  1  0.30328000  0.54880000  0.62705000  1.0
  O  O50  1  0.69668000  0.45122000  0.37290000  1.0
  O  O51  1  0.37884000  0.37126000  0.83909000  1.0
  O  O52  1  0.62107000  0.62868000  0.16081000  1.0
  O  O53  1  0.37723000  0.92267000  0.65388000  1.0
  O  O54  1  0.62283000  0.07732000  0.34617000  1.0
  O  O55  1  0.17602000  0.85243000  0.40212000  1.0
  O  O56  1  0.82405000  0.14763000  0.59792000  1.0
