# generated using pymatgen
data_BaH4C9(NO2)2
_symmetry_space_group_name_H-M   'P 1'
_cell_length_a   6.90957000
_cell_length_b   9.46319000
_cell_length_c   14.57580000
_cell_angle_alpha   86.22270000
_cell_angle_beta   80.41440000
_cell_angle_gamma   88.27960000
_symmetry_Int_Tables_number   1
_chemical_formula_structural   BaH4C9(NO2)2
_chemical_formula_sum   'Ba4 H16 C36 N8 O16'
_cell_volume   937.53760130
_cell_formula_units_Z   4
loop_
 _symmetry_equiv_pos_site_id
 _symmetry_equiv_pos_as_xyz
  1  'x, y, z'
loop_
 _atom_site_type_symbol
 _atom_site_label
 _atom_site_symmetry_multiplicity
 _atom_site_fract_x
 _atom_site_fract_y
 _atom_site_fract_z
 _atom_site_occupancy
  Ba  Ba0  1  0.70866000  0.92367000  0.08406000  1.0
  Ba  Ba1  1  0.29135000  0.07633000  0.91594000  1.0
  Ba  Ba2  1  0.20687000  0.59556000  0.05606000  1.0
  Ba  Ba3  1  0.79314000  0.40444000  0.94394000  1.0
  H  H4  1  0.74346000  0.15442000  0.69475000  1.0
  H  H5  1  0.25654000  0.84559000  0.30525000  1.0
  H  H6  1  0.94911000  0.64024000  0.72185000  1.0
  H  H7  1  0.05088000  0.35976000  0.27815000  1.0
  H  H8  1  0.70832000  0.08609000  0.51186000  1.0
  H  H9  1  0.29168000  0.91391000  0.48814000  1.0
  H  H10  1  0.74707000  0.85018000  0.42414000  1.0
  H  H11  1  0.25292000  0.14982000  0.57586000  1.0
  H  H12  1  0.75174000  0.67154000  0.31639000  1.0
  H  H13  1  0.24827000  0.32846000  0.68361000  1.0
  H  H14  1  0.57433000  0.15869000  0.32343000  1.0
  H  H15  1  0.42567000  0.84131000  0.67657000  1.0
  H  H16  1  0.79677000  0.58735000  0.51177000  1.0
  H  H17  1  0.20323000  0.41265000  0.48823000  1.0
  H  H18  1  0.75722000  0.35378000  0.60872000  1.0
  H  H19  1  0.24278000  0.64622000  0.39128000  1.0
  C  C20  1  0.55049000  0.29732000  0.15951000  1.0
  C  C21  1  0.44951000  0.70268000  0.84049000  1.0
  C  C22  1  0.84371000  0.98224000  0.78057000  1.0
  C  C23  1  0.15629000  0.01776000  0.21943000  1.0
  C  C24  1  0.78973000  0.04341000  0.69885000  1.0
  C  C25  1  0.21027000  0.95659000  0.30114000  1.0
  C  C26  1  0.79310000  0.95611000  0.62540000  1.0
  C  C27  1  0.20690000  0.04389000  0.37460000  1.0
  C  C28  1  0.84865000  0.81052000  0.63201000  1.0
  C  C29  1  0.15135000  0.18948000  0.36799000  1.0
  C  C30  1  0.90280000  0.75087000  0.71458000  1.0
  C  C31  1  0.09720000  0.24913000  0.28542000  1.0
  C  C32  1  0.90143000  0.83733000  0.78904000  1.0
  C  C33  1  0.09857000  0.16267000  0.21096000  1.0
  C  C34  1  0.77460000  0.85886000  0.49472000  1.0
  C  C35  1  0.22540000  0.14113000  0.50528000  1.0
  C  C36  1  0.70964000  0.56087000  0.31977000  1.0
  C  C37  1  0.29036000  0.43912000  0.68023000  1.0
  C  C38  1  0.64990000  0.50384000  0.24323000  1.0
  C  C39  1  0.35010000  0.49616000  0.75677000  1.0
  C  C40  1  0.60153000  0.35907000  0.24469000  1.0
  C  C41  1  0.39847000  0.64094000  0.75531000  1.0
  C  C42  1  0.60930000  0.26991000  0.32428000  1.0
  C  C43  1  0.39070000  0.73009000  0.67573000  1.0
  C  C44  1  0.66041000  0.32659000  0.40250000  1.0
  C  C45  1  0.33960000  0.67341000  0.59750000  1.0
  C  C46  1  0.71272000  0.47107000  0.39952000  1.0
  C  C47  1  0.28729000  0.52893000  0.60048000  1.0
  C  C48  1  0.73222000  0.36545000  0.53695000  1.0
  C  C49  1  0.26778000  0.63455000  0.46305000  1.0
  C  C50  1  0.63612000  0.60406000  0.15993000  1.0
  C  C51  1  0.36388000  0.39594000  0.84006000  1.0
  C  C52  1  0.83285000  0.08162000  0.85732000  1.0
  C  C53  1  0.16716000  0.91839000  0.14268000  1.0
  C  C54  1  0.96615000  0.77822000  0.87727000  1.0
  C  C55  1  0.03385000  0.22178000  0.12273000  1.0
  N  N56  1  0.74670000  0.98305000  0.53763000  1.0
  N  N57  1  0.25329000  0.01695000  0.46237000  1.0
  N  N58  1  0.83468000  0.75259000  0.54786000  1.0
  N  N59  1  0.16531000  0.24741000  0.45214000  1.0
  N  N60  1  0.75806000  0.49149000  0.48639000  1.0
  N  N61  1  0.24195000  0.50851000  0.51361000  1.0
  N  N62  1  0.67395000  0.26341000  0.49016000  1.0
  N  N63  1  0.32605000  0.73659000  0.50985000  1.0
  O  O64  1  0.48125000  0.68257000  0.16492000  1.0
  O  O65  1  0.51875000  0.31743000  0.83508000  1.0
  O  O66  1  0.78086000  0.61773000  0.09350000  1.0
  O  O67  1  0.21914000  0.38227000  0.90650000  1.0
  O  O68  1  0.96261000  0.17690000  0.84613000  1.0
  O  O69  1  0.03740000  0.82310000  0.15387000  1.0
  O  O70  1  0.68795000  0.07643000  0.92434000  1.0
  O  O71  1  0.31205000  0.92357000  0.07565000  1.0
  O  O72  1  0.98825000  0.64546000  0.89106000  1.0
  O  O73  1  0.01174000  0.35455000  0.10894000  1.0
  O  O74  1  0.49773000  0.38293000  0.09527000  1.0
  O  O75  1  0.50228000  0.61707000  0.90473000  1.0
  O  O76  1  0.99994000  0.86633000  0.93601000  1.0
  O  O77  1  0.00006000  0.13367000  0.06398000  1.0
  O  O78  1  0.56809000  0.16475000  0.15388000  1.0
  O  O79  1  0.43192000  0.83525000  0.84612000  1.0
