# generated using pymatgen
data_CoH8C12(NO2)2
_symmetry_space_group_name_H-M   'P 1'
_cell_length_a   6.06170000
_cell_length_b   10.55620000
_cell_length_c   12.63170000
_cell_angle_alpha   90.00000000
_cell_angle_beta   90.00060000
_cell_angle_gamma   89.89830000
_symmetry_Int_Tables_number   1
_chemical_formula_structural   CoH8C12(NO2)2
_chemical_formula_sum   'Co2 H16 C24 N4 O8'
_cell_volume   808.28248367
_cell_formula_units_Z   2
loop_
 _symmetry_equiv_pos_site_id
 _symmetry_equiv_pos_as_xyz
  1  'x, y, z'
loop_
 _atom_site_type_symbol
 _atom_site_label
 _atom_site_symmetry_multiplicity
 _atom_site_fract_x
 _atom_site_fract_y
 _atom_site_fract_z
 _atom_site_occupancy
  Co  Co0  1  0.16853000  0.73590000  0.74932000  1.0
  Co  Co1  1  0.66848000  0.23589000  0.25069000  1.0
  H  H2  1  0.78537000  0.89061000  0.50665000  1.0
  H  H3  1  0.28534000  0.39060000  0.49334000  1.0
  H  H4  1  0.15862000  0.09972000  0.00797000  1.0
  H  H5  1  0.65858000  0.59969000  0.99202000  1.0
  H  H6  1  0.18270000  0.10898000  0.50083000  1.0
  H  H7  1  0.68266000  0.60896000  0.49922000  1.0
  H  H8  1  0.61824000  0.75706000  0.64990000  1.0
  H  H9  1  0.11817000  0.25705000  0.35009000  1.0
  H  H10  1  0.29466000  0.96836000  0.85641000  1.0
  H  H11  1  0.79461000  0.46836000  0.14361000  1.0
  H  H12  1  0.72026000  0.75422000  0.85224000  1.0
  H  H13  1  0.22024000  0.25418000  0.14775000  1.0
  H  H14  1  0.04648000  0.97500000  0.65051000  1.0
  H  H15  1  0.54641000  0.47501000  0.34953000  1.0
  H  H16  1  0.55333000  0.88560000  0.99737000  1.0
  H  H17  1  0.05331000  0.38553000  0.00259000  1.0
  C  C18  1  0.84224000  0.00396000  0.01278000  1.0
  C  C19  1  0.34221000  0.50393000  0.98721000  1.0
  C  C20  1  0.62103000  0.91146000  0.53696000  1.0
  C  C21  1  0.12100000  0.41146000  0.46302000  1.0
  C  C22  1  0.05444000  0.02669000  0.97351000  1.0
  C  C23  1  0.55440000  0.52666000  0.02648000  1.0
  C  C24  1  0.28646000  0.03458000  0.53386000  1.0
  C  C25  1  0.78642000  0.53458000  0.46618000  1.0
  C  C26  1  0.59102000  0.08883000  0.40523000  1.0
  C  C27  1  0.09107000  0.58881000  0.59478000  1.0
  C  C28  1  0.52983000  0.83794000  0.61688000  1.0
  C  C29  1  0.02976000  0.33794000  0.38311000  1.0
  C  C30  1  0.49762000  0.01100000  0.49351000  1.0
  C  C31  1  0.99763000  0.51098000  0.50650000  1.0
  C  C32  1  0.13177000  0.95271000  0.89062000  1.0
  C  C33  1  0.63175000  0.45268000  0.10939000  1.0
  C  C34  1  0.80948000  0.83362000  0.88687000  1.0
  C  C35  1  0.30947000  0.33359000  0.11311000  1.0
  C  C36  1  0.20894000  0.95913000  0.61572000  1.0
  C  C37  1  0.70888000  0.45913000  0.38432000  1.0
  C  C38  1  0.71840000  0.90586000  0.96781000  1.0
  C  C39  1  0.21841000  0.40581000  0.03217000  1.0
  C  C40  1  0.74823000  0.08249000  0.10059000  1.0
  C  C41  1  0.24827000  0.58247000  0.89938000  1.0
  N  N42  1  0.01344000  0.85684000  0.84833000  1.0
  N  N43  1  0.51341000  0.35681000  0.15167000  1.0
  N  N44  1  0.32613000  0.86129000  0.65588000  1.0
  N  N45  1  0.82606000  0.36129000  0.34412000  1.0
  O  O46  1  0.87984000  0.16125000  0.14723000  1.0
  O  O47  1  0.37992000  0.66122000  0.85277000  1.0
  O  O48  1  0.54907000  0.07224000  0.12703000  1.0
  O  O49  1  0.04911000  0.57225000  0.87294000  1.0
  O  O50  1  0.45869000  0.16627000  0.35719000  1.0
  O  O51  1  0.95877000  0.66626000  0.64283000  1.0
  O  O52  1  0.79039000  0.07841000  0.37904000  1.0
  O  O53  1  0.29044000  0.57835000  0.62096000  1.0
