# generated using pymatgen
data_ZnH16C31N2Cl4O9
_symmetry_space_group_name_H-M   'P 1'
_cell_length_a   16.50800000
_cell_length_b   17.60900000
_cell_length_c   23.47720000
_cell_angle_alpha   89.63460000
_cell_angle_beta   89.51790000
_cell_angle_gamma   90.77050000
_symmetry_Int_Tables_number   1
_chemical_formula_structural   ZnH16C31N2Cl4O9
_chemical_formula_sum   'Zn2 H32 C62 N4 Cl8 O18'
_cell_volume   6823.57011444
_cell_formula_units_Z   2
loop_
 _symmetry_equiv_pos_site_id
 _symmetry_equiv_pos_as_xyz
  1  'x, y, z'
loop_
 _atom_site_type_symbol
 _atom_site_label
 _atom_site_symmetry_multiplicity
 _atom_site_fract_x
 _atom_site_fract_y
 _atom_site_fract_z
 _atom_site_occupancy
  Zn  Zn0  1  0.58854000  0.49177000  0.49372000  1.0
  Zn  Zn1  1  0.41796000  0.48814000  0.49629000  1.0
  H  H2  1  0.71432000  0.42803000  0.56801000  1.0
  H  H3  1  0.36976000  0.72654000  0.51508000  1.0
  H  H4  1  0.86654000  0.42858000  0.57352000  1.0
  H  H5  1  0.14254000  0.57786000  0.42799000  1.0
  H  H6  1  0.87092000  0.56860000  0.42121000  1.0
  H  H7  1  0.13371000  0.41767000  0.56868000  1.0
  H  H8  1  0.47950000  0.36344000  0.63637000  1.0
  H  H9  1  0.48486000  0.31984000  0.70564000  1.0
  H  H10  1  0.55867000  0.29793000  0.65161000  1.0
  H  H11  1  0.44996000  0.72837000  0.30931000  1.0
  H  H12  1  0.52445000  0.69854000  0.36000000  1.0
  H  H13  1  0.29469000  0.56800000  0.42969000  1.0
  H  H14  1  0.42530000  0.72465000  0.38388000  1.0
  H  H15  1  0.67361000  0.85509000  0.61855000  1.0
  H  H16  1  0.63018000  0.94584000  0.60142000  1.0
  H  H17  1  0.73254000  0.92626000  0.58121000  1.0
  H  H18  1  0.36614000  0.03077000  0.47652000  1.0
  H  H19  1  0.31159000  0.11732000  0.46403000  1.0
  H  H20  1  0.26674000  0.04197000  0.50624000  1.0
  H  H21  1  0.69747000  0.12749000  0.47399000  1.0
  H  H22  1  0.65036000  0.03558000  0.48556000  1.0
  H  H23  1  0.74441000  0.05875000  0.51944000  1.0
  H  H24  1  0.71856000  0.55969000  0.42141000  1.0
  H  H25  1  0.38549000  0.92796000  0.61776000  1.0
  H  H26  1  0.33096000  0.83953000  0.62855000  1.0
  H  H27  1  0.28043000  0.92116000  0.60014000  1.0
  H  H28  1  0.28604000  0.41505000  0.56415000  1.0
  H  H29  1  0.55801000  0.43564000  0.79534000  1.0
  H  H30  1  0.42592000  0.64740000  0.23467000  1.0
  H  H31  1  0.63071000  0.73068000  0.50584000  1.0
  H  H32  1  0.36969000  0.24897000  0.52474000  1.0
  H  H33  1  0.63046000  0.25529000  0.53112000  1.0
  C  C34  1  0.49889000  0.34354000  0.51192000  1.0
  C  C35  1  0.46219000  0.57606000  0.30521000  1.0
  C  C36  1  0.53458000  0.47838000  0.76633000  1.0
  C  C37  1  0.45597000  0.59553000  0.24769000  1.0
  C  C38  1  0.50005000  0.54415000  0.78733000  1.0
  C  C39  1  0.48679000  0.54737000  0.20653000  1.0
  C  C40  1  0.57524000  0.83561000  0.52967000  1.0
  C  C41  1  0.42682000  0.14194000  0.54081000  1.0
  C  C42  1  0.57424000  0.14557000  0.54463000  1.0
  C  C43  1  0.42743000  0.83312000  0.53499000  1.0
  C  C44  1  0.57396000  0.75991000  0.51320000  1.0
  C  C45  1  0.50027000  0.63779000  0.49398000  1.0
  C  C46  1  0.42678000  0.21957000  0.53001000  1.0
  C  C47  1  0.57367000  0.22319000  0.53355000  1.0
  C  C48  1  0.42703000  0.75752000  0.51838000  1.0
  C  C49  1  0.50023000  0.72084000  0.50727000  1.0
  C  C50  1  0.50009000  0.26029000  0.52539000  1.0
  C  C51  1  0.50164000  0.87465000  0.53979000  1.0
  C  C52  1  0.50085000  0.10270000  0.54669000  1.0
  C  C53  1  0.50905000  0.50664000  0.60633000  1.0
  C  C54  1  0.50446000  0.48980000  0.38435000  1.0
  C  C55  1  0.50149000  0.95365000  0.54848000  1.0
  C  C56  1  0.46959000  0.59941000  0.75043000  1.0
  C  C57  1  0.50135000  0.02293000  0.55097000  1.0
  C  C58  1  0.83595000  0.45841000  0.53929000  1.0
  C  C59  1  0.17217000  0.54126000  0.45878000  1.0
  C  C60  1  0.83840000  0.53662000  0.45421000  1.0
  C  C61  1  0.16719000  0.45176000  0.53737000  1.0
  C  C62  1  0.75206000  0.45749000  0.53630000  1.0
  C  C63  1  0.25596000  0.53614000  0.45949000  1.0
  C  C64  1  0.75444000  0.53214000  0.45419000  1.0
  C  C65  1  0.25111000  0.45005000  0.53506000  1.0
  C  C66  1  0.88097000  0.49868000  0.49743000  1.0
  C  C67  1  0.52531000  0.47979000  0.22169000  1.0
  C  C68  1  0.12594000  0.49811000  0.49834000  1.0
  C  C69  1  0.96656000  0.50023000  0.49839000  1.0
  C  C70  1  0.04040000  0.50023000  0.49856000  1.0
  C  C71  1  0.53747000  0.61167000  0.12165000  1.0
  C  C72  1  0.42543000  0.51978000  0.87433000  1.0
  C  C73  1  0.41274000  0.52853000  0.11967000  1.0
  C  C74  1  0.55281000  0.59950000  0.87375000  1.0
  C  C75  1  0.40883000  0.54001000  0.05697000  1.0
  C  C76  1  0.54556000  0.60757000  0.93675000  1.0
  C  C77  1  0.47552000  0.57512000  0.02745000  1.0
  C  C78  1  0.47405000  0.58724000  0.69140000  1.0
  C  C79  1  0.47922000  0.57211000  0.96663000  1.0
  C  C80  1  0.53745000  0.61440000  0.05815000  1.0
  C  C81  1  0.41585000  0.53438000  0.93633000  1.0
  C  C82  1  0.34214000  0.51331000  0.02624000  1.0
  C  C83  1  0.60279000  0.65005000  0.96715000  1.0
  C  C84  1  0.34570000  0.51027000  0.96554000  1.0
  C  C85  1  0.59830000  0.65404000  0.02801000  1.0
  C  C86  1  0.52069000  0.34262000  0.66941000  1.0
  C  C87  1  0.45951000  0.69754000  0.34958000  1.0
  C  C88  1  0.67172000  0.90156000  0.58698000  1.0
  C  C89  1  0.53088000  0.46019000  0.27963000  1.0
  C  C90  1  0.32353000  0.07157000  0.49500000  1.0
  C  C91  1  0.68640000  0.08137000  0.50517000  1.0
  C  C92  1  0.33764000  0.89035000  0.60116000  1.0
  C  C93  1  0.50737000  0.52037000  0.66974000  1.0
  C  C94  1  0.49929000  0.50796000  0.32158000  1.0
  C  C95  1  0.53839000  0.46627000  0.70776000  1.0
  N  N96  1  0.47736000  0.56519000  0.14706000  1.0
  N  N97  1  0.49291000  0.55452000  0.84791000  1.0
  N  N98  1  0.71225000  0.49330000  0.49438000  1.0
  N  N99  1  0.29443000  0.49126000  0.49687000  1.0
  Cl  Cl100  1  0.25443000  0.48395000  0.05893000  1.0
  Cl  Cl101  1  0.67996000  0.69919000  0.93441000  1.0
  Cl  Cl102  1  0.26195000  0.47701000  0.93116000  1.0
  Cl  Cl103  1  0.66972000  0.70854000  0.06110000  1.0
  Cl  Cl104  1  0.42703000  0.68018000  0.77757000  1.0
  Cl  Cl105  1  0.56419000  0.42218000  0.16960000  1.0
  Cl  Cl106  1  0.44048000  0.65605000  0.64513000  1.0
  Cl  Cl107  1  0.57581000  0.37645000  0.29917000  1.0
  O  O108  1  0.56705000  0.37796000  0.50631000  1.0
  O  O109  1  0.38029000  0.47892000  0.84636000  1.0
  O  O110  1  0.36609000  0.48782000  0.14743000  1.0
  O  O111  1  0.60728000  0.62710000  0.84412000  1.0
  O  O112  1  0.57532000  0.40163000  0.68825000  1.0
  O  O113  1  0.42989000  0.62052000  0.34732000  1.0
  O  O114  1  0.64931000  0.87202000  0.53215000  1.0
  O  O115  1  0.35451000  0.10251000  0.54716000  1.0
  O  O116  1  0.64649000  0.10976000  0.55524000  1.0
  O  O117  1  0.35426000  0.86814000  0.54333000  1.0
  O  O118  1  0.43166000  0.60396000  0.49161000  1.0
  O  O119  1  0.56898000  0.60681000  0.48756000  1.0
  O  O120  1  0.42951000  0.37355000  0.50724000  1.0
  O  O121  1  0.57779000  0.50693000  0.58212000  1.0
  O  O122  1  0.43745000  0.47853000  0.40987000  1.0
  O  O123  1  0.57464000  0.48972000  0.40596000  1.0
  O  O124  1  0.44043000  0.49587000  0.58351000  1.0
  O  O125  1  0.58703000  0.64383000  0.15208000  1.0
