# generated using pymatgen
data_NaB2H22C8NO2
_symmetry_space_group_name_H-M   'P 1'
_cell_length_a   7.52741000
_cell_length_b   8.89143000
_cell_length_c   10.04200000
_cell_angle_alpha   111.30900000
_cell_angle_beta   100.00600000
_cell_angle_gamma   101.66100000
_symmetry_Int_Tables_number   1
_chemical_formula_structural   NaB2H22C8NO2
_chemical_formula_sum   'Na2 B4 H44 C16 N2 O4'
_cell_volume   590.29676115
_cell_formula_units_Z   2
loop_
 _symmetry_equiv_pos_site_id
 _symmetry_equiv_pos_as_xyz
  1  'x, y, z'
loop_
 _atom_site_type_symbol
 _atom_site_label
 _atom_site_symmetry_multiplicity
 _atom_site_fract_x
 _atom_site_fract_y
 _atom_site_fract_z
 _atom_site_occupancy
  Na  Na0  1  0.09245000  0.14823000  0.70071000  1.0
  Na  Na1  1  0.90755000  0.85177000  0.29930000  1.0
  B  B2  1  0.19163000  0.88655000  0.54630000  1.0
  B  B3  1  0.80836000  0.11345000  0.45369000  1.0
  B  B4  1  0.90470000  0.38277000  0.69825000  1.0
  B  B5  1  0.09530000  0.61723000  0.30175000  1.0
  H  H6  1  0.30111000  0.96991000  0.67073000  1.0
  H  H7  1  0.69889000  0.03009000  0.32927000  1.0
  H  H8  1  0.20127000  0.97254000  0.47490000  1.0
  H  H9  1  0.79873000  0.02746000  0.52510000  1.0
  H  H10  1  0.03076000  0.84715000  0.55755000  1.0
  H  H11  1  0.96924000  0.15285000  0.44245000  1.0
  H  H12  1  0.87845000  0.30138000  0.77306000  1.0
  H  H13  1  0.12155000  0.69862000  0.22694000  1.0
  H  H14  1  0.06463000  0.40250000  0.68350000  1.0
  H  H15  1  0.93536000  0.59750000  0.31650000  1.0
  H  H16  1  0.87728000  0.51976000  0.75751000  1.0
  H  H17  1  0.12272000  0.48024000  0.24248000  1.0
  H  H18  1  0.23909000  0.48790000  0.47463000  1.0
  H  H19  1  0.76091000  0.51210000  0.52537000  1.0
  H  H20  1  0.12643000  0.60972000  0.59571000  1.0
  H  H21  1  0.87357000  0.39029000  0.40429000  1.0
  H  H22  1  0.42534000  0.79030000  0.77177000  1.0
  H  H23  1  0.57466000  0.20970000  0.22823000  1.0
  H  H24  1  0.49442000  0.60590000  0.69326000  1.0
  H  H25  1  0.50558000  0.39411000  0.30674000  1.0
  H  H26  1  0.61675000  0.92940000  0.66825000  1.0
  H  H27  1  0.38325000  0.07060000  0.33175000  1.0
  H  H28  1  0.69166000  0.75032000  0.58652000  1.0
  H  H29  1  0.30834000  0.24968000  0.41348000  1.0
  H  H30  1  0.46719000  0.85980000  0.41255000  1.0
  H  H31  1  0.53281000  0.14020000  0.58745000  1.0
  H  H32  1  0.45098000  0.64274000  0.36046000  1.0
  H  H33  1  0.54902000  0.35726000  0.63954000  1.0
  H  H34  1  0.28062000  0.45594000  0.07504000  1.0
  H  H35  1  0.71937000  0.54406000  0.92497000  1.0
  H  H36  1  0.18335000  0.51379000  0.93133000  1.0
  H  H37  1  0.81665000  0.48621000  0.06867000  1.0
  H  H38  1  0.56146000  0.24402000  0.85324000  1.0
  H  H39  1  0.43854000  0.75597000  0.14676000  1.0
  H  H40  1  0.50391000  0.29276000  0.02760000  1.0
  H  H41  1  0.49609000  0.70724000  0.97240000  1.0
  H  H42  1  0.86312000  0.79566000  0.82075000  1.0
  H  H43  1  0.13688000  0.20434000  0.17925000  1.0
  H  H44  1  0.09201000  0.83129000  0.79057000  1.0
  H  H45  1  0.90800000  0.16871000  0.20943000  1.0
  H  H46  1  0.92166000  0.24524000  0.98931000  1.0
  H  H47  1  0.07835000  0.75476000  0.01069000  1.0
  H  H48  1  0.75954000  0.04175000  0.93664000  1.0
  H  H49  1  0.24046000  0.95825000  0.06336000  1.0
  C  C50  1  0.24807000  0.61668000  0.55011000  1.0
  C  C51  1  0.75193000  0.38332000  0.44989000  1.0
  C  C52  1  0.43919000  0.70036000  0.66772000  1.0
  C  C53  1  0.56081000  0.29964000  0.33228000  1.0
  C  C54  1  0.56635000  0.79326000  0.59901000  1.0
  C  C55  1  0.43365000  0.20674000  0.40099000  1.0
  C  C56  1  0.43893000  0.75616000  0.44739000  1.0
  C  C57  1  0.56107000  0.24384000  0.55261000  1.0
  C  C58  1  0.31143000  0.49729000  0.98827000  1.0
  C  C59  1  0.68857000  0.50271000  0.01173000  1.0
  C  C60  1  0.52878000  0.34022000  0.94287000  1.0
  C  C61  1  0.47122000  0.65978000  0.05713000  1.0
  C  C62  1  0.00941000  0.87862000  0.86780000  1.0
  C  C63  1  0.99059000  0.12138000  0.13220000  1.0
  C  C64  1  0.90956000  0.11703000  0.98140000  1.0
  C  C65  1  0.09045000  0.88297000  0.01860000  1.0
  N  N66  1  0.24175000  0.71918000  0.46072000  1.0
  N  N67  1  0.75825000  0.28082000  0.53927000  1.0
  O  O68  1  0.35855000  0.36651000  0.87718000  1.0
  O  O69  1  0.64146000  0.63349000  0.12282000  1.0
  O  O70  1  0.01244000  0.04525000  0.87866000  1.0
  O  O71  1  0.98756000  0.95475000  0.12134000  1.0
