# generated using pymatgen
data_ZnH14C16(NO3)2
_symmetry_space_group_name_H-M   'P 1'
_cell_length_a   9.66312000
_cell_length_b   10.75470000
_cell_length_c   19.27950000
_cell_angle_alpha   89.99500000
_cell_angle_beta   98.29920000
_cell_angle_gamma   89.99560000
_symmetry_Int_Tables_number   1
_chemical_formula_structural   ZnH14C16(NO3)2
_chemical_formula_sum   'Zn4 H56 C64 N8 O24'
_cell_volume   1982.61979596
_cell_formula_units_Z   4
loop_
 _symmetry_equiv_pos_site_id
 _symmetry_equiv_pos_as_xyz
  1  'x, y, z'
loop_
 _atom_site_type_symbol
 _atom_site_label
 _atom_site_symmetry_multiplicity
 _atom_site_fract_x
 _atom_site_fract_y
 _atom_site_fract_z
 _atom_site_occupancy
  Zn  Zn0  1  0.14985000  0.90421000  0.34352000  1.0
  Zn  Zn1  1  0.35000000  0.40446000  0.15640000  1.0
  Zn  Zn2  1  0.85013000  0.09567000  0.65653000  1.0
  Zn  Zn3  1  0.64993000  0.59571000  0.84357000  1.0
  H  H4  1  0.69914000  0.19791000  0.24797000  1.0
  H  H5  1  0.93264000  0.12845000  0.45141000  1.0
  H  H6  1  0.53255000  0.31294000  0.43339000  1.0
  H  H7  1  0.34384000  0.98863000  0.08463000  1.0
  H  H8  1  0.46937000  0.86791000  0.09677000  1.0
  H  H9  1  0.46217000  0.79391000  0.36333000  1.0
  H  H10  1  0.52067000  0.12669000  0.03685000  1.0
  H  H11  1  0.64246000  0.00322000  0.04695000  1.0
  H  H12  1  0.63363000  0.01173000  0.17440000  1.0
  H  H13  1  0.50085000  0.12678000  0.16586000  1.0
  H  H14  1  0.63537000  0.84976000  0.26263000  1.0
  H  H15  1  0.13160000  0.06339000  0.22046000  1.0
  H  H16  1  0.25096000  0.11821000  0.16430000  1.0
  H  H17  1  0.25427000  0.17892000  0.25096000  1.0
  H  H18  1  0.80052000  0.69830000  0.25190000  1.0
  H  H19  1  0.56757000  0.62859000  0.04839000  1.0
  H  H20  1  0.96759000  0.81310000  0.06654000  1.0
  H  H21  1  0.15602000  0.48861000  0.41548000  1.0
  H  H22  1  0.03043000  0.36794000  0.40331000  1.0
  H  H23  1  0.03799000  0.29378000  0.13678000  1.0
  H  H24  1  0.97915000  0.62676000  0.46318000  1.0
  H  H25  1  0.85731000  0.50333000  0.45305000  1.0
  H  H26  1  0.86639000  0.51186000  0.32556000  1.0
  H  H27  1  0.99927000  0.62677000  0.33411000  1.0
  H  H28  1  0.86487000  0.34950000  0.23756000  1.0
  H  H29  1  0.36843000  0.56353000  0.27953000  1.0
  H  H30  1  0.24908000  0.61840000  0.33567000  1.0
  H  H31  1  0.24556000  0.67888000  0.24894000  1.0
  H  H32  1  0.30048000  0.80163000  0.75194000  1.0
  H  H33  1  0.06752000  0.87134000  0.54838000  1.0
  H  H34  1  0.46751000  0.68677000  0.56660000  1.0
  H  H35  1  0.65605000  0.01138000  0.91548000  1.0
  H  H36  1  0.53045000  0.13203000  0.90331000  1.0
  H  H37  1  0.53821000  0.20651000  0.63691000  1.0
  H  H38  1  0.47923000  0.87320000  0.96321000  1.0
  H  H39  1  0.35738000  0.99661000  0.95308000  1.0
  H  H40  1  0.36641000  0.98816000  0.82556000  1.0
  H  H41  1  0.49928000  0.87322000  0.83412000  1.0
  H  H42  1  0.36498000  0.15064000  0.73761000  1.0
  H  H43  1  0.86844000  0.93645000  0.77956000  1.0
  H  H44  1  0.74905000  0.88164000  0.83571000  1.0
  H  H45  1  0.74560000  0.82105000  0.74901000  1.0
  H  H46  1  0.19901000  0.30226000  0.74802000  1.0
  H  H47  1  0.43257000  0.37164000  0.95142000  1.0
  H  H48  1  0.03244000  0.18725000  0.93346000  1.0
  H  H49  1  0.84378000  0.51128000  0.58462000  1.0
  H  H50  1  0.96928000  0.63203000  0.59673000  1.0
  H  H51  1  0.96236000  0.70585000  0.86340000  1.0
  H  H52  1  0.02061000  0.37325000  0.53683000  1.0
  H  H53  1  0.14239000  0.49670000  0.54693000  1.0
  H  H54  1  0.13360000  0.48823000  0.67438000  1.0
  H  H55  1  0.00086000  0.37316000  0.66587000  1.0
  H  H56  1  0.13540000  0.65008000  0.76262000  1.0
  H  H57  1  0.63157000  0.43659000  0.72050000  1.0
  H  H58  1  0.75094000  0.38171000  0.66436000  1.0
  H  H59  1  0.75426000  0.32109000  0.75104000  1.0
  C  C60  1  0.93934000  0.09416000  0.31182000  1.0
  C  C61  1  0.47386000  0.30497000  0.28971000  1.0
  C  C62  1  0.70968000  0.20612000  0.30472000  1.0
  C  C63  1  0.84128000  0.16742000  0.41916000  1.0
  C  C64  1  0.73512000  0.22376000  0.45050000  1.0
  C  C65  1  0.82845000  0.15901000  0.34610000  1.0
  C  C66  1  0.60309000  0.26138000  0.33582000  1.0
  C  C67  1  0.33976000  0.99886000  0.24791000  1.0
  C  C68  1  0.61582000  0.27073000  0.40887000  1.0
  C  C69  1  0.45694000  0.96967000  0.09479000  1.0
  C  C70  1  0.24548000  0.27351000  0.02903000  1.0
  C  C71  1  0.44751000  0.85930000  0.31995000  1.0
  C  C72  1  0.52969000  0.02445000  0.03628000  1.0
  C  C73  1  0.51983000  0.02614000  0.16498000  1.0
  C  C74  1  0.53358000  0.88566000  0.26965000  1.0
  C  C75  1  0.23983000  0.09368000  0.21839000  1.0
  C  C76  1  0.56075000  0.59430000  0.18804000  1.0
  C  C77  1  0.02607000  0.80501000  0.21025000  1.0
  C  C78  1  0.79019000  0.70644000  0.19514000  1.0
  C  C79  1  0.65879000  0.66764000  0.08070000  1.0
  C  C80  1  0.76496000  0.72404000  0.04941000  1.0
  C  C81  1  0.67155000  0.65923000  0.15374000  1.0
  C  C82  1  0.89687000  0.76162000  0.16408000  1.0
  C  C83  1  0.16030000  0.49884000  0.25214000  1.0
  C  C84  1  0.88423000  0.77100000  0.09104000  1.0
  C  C85  1  0.04291000  0.46971000  0.40527000  1.0
  C  C86  1  0.25457000  0.77328000  0.47089000  1.0
  C  C87  1  0.05261000  0.35920000  0.18015000  1.0
  C  C88  1  0.97009000  0.52453000  0.46375000  1.0
  C  C89  1  0.98019000  0.52616000  0.33505000  1.0
  C  C90  1  0.96660000  0.38548000  0.23048000  1.0
  C  C91  1  0.26017000  0.59376000  0.28159000  1.0
  C  C92  1  0.06068000  0.90570000  0.68808000  1.0
  C  C93  1  0.52607000  0.69501000  0.71030000  1.0
  C  C94  1  0.29013000  0.79351000  0.69519000  1.0
  C  C95  1  0.15872000  0.83229000  0.58072000  1.0
  C  C96  1  0.26489000  0.77588000  0.54944000  1.0
  C  C97  1  0.17146000  0.84069000  0.65378000  1.0
  C  C98  1  0.39681000  0.73833000  0.66413000  1.0
  C  C99  1  0.66029000  0.00115000  0.75216000  1.0
  C  C100  1  0.38416000  0.72892000  0.59110000  1.0
  C  C101  1  0.54294000  0.03027000  0.90528000  1.0
  C  C102  1  0.75466000  0.72657000  0.97088000  1.0
  C  C103  1  0.55274000  0.14098000  0.68024000  1.0
  C  C104  1  0.47016000  0.97543000  0.96377000  1.0
  C  C105  1  0.48021000  0.97384000  0.83506000  1.0
  C  C106  1  0.46669000  0.11465000  0.73054000  1.0
  C  C107  1  0.76017000  0.90623000  0.78162000  1.0
  C  C108  1  0.43927000  0.40587000  0.81183000  1.0
  C  C109  1  0.97377000  0.19517000  0.78977000  1.0
  C  C110  1  0.20955000  0.29406000  0.80477000  1.0
  C  C111  1  0.34121000  0.33269000  0.91918000  1.0
  C  C112  1  0.23505000  0.27634000  0.95050000  1.0
  C  C113  1  0.32834000  0.34111000  0.84612000  1.0
  C  C114  1  0.10295000  0.23882000  0.83588000  1.0
  C  C115  1  0.83974000  0.50111000  0.74792000  1.0
  C  C116  1  0.11569000  0.22944000  0.90891000  1.0
  C  C117  1  0.95688000  0.53026000  0.59477000  1.0
  C  C118  1  0.74557000  0.22658000  0.52906000  1.0
  C  C119  1  0.94762000  0.64056000  0.81998000  1.0
  C  C120  1  0.02963000  0.47548000  0.53626000  1.0
  C  C121  1  0.01981000  0.47381000  0.66496000  1.0
  C  C122  1  0.03363000  0.61421000  0.76966000  1.0
  C  C123  1  0.73981000  0.40628000  0.71843000  1.0
  N  N124  1  0.32969000  0.92923000  0.30594000  1.0
  N  N125  1  0.46521000  0.97187000  0.22542000  1.0
  N  N126  1  0.17033000  0.42928000  0.19410000  1.0
  N  N127  1  0.03493000  0.47177000  0.27467000  1.0
  N  N128  1  0.67040000  0.07082000  0.69416000  1.0
  N  N129  1  0.53493000  0.02825000  0.77469000  1.0
  N  N130  1  0.82975000  0.57068000  0.80598000  1.0
  N  N131  1  0.96519000  0.52807000  0.72541000  1.0
  O  O132  1  0.04748000  0.05885000  0.35423000  1.0
  O  O133  1  0.48225000  0.30824000  0.22338000  1.0
  O  O134  1  0.34678000  0.33864000  0.06224000  1.0
  O  O135  1  0.91878000  0.07895000  0.24652000  1.0
  O  O136  1  0.15845000  0.21264000  0.05748000  1.0
  O  O137  1  0.86642000  0.17050000  0.81692000  1.0
  O  O138  1  0.45281000  0.55876000  0.14560000  1.0
  O  O139  1  0.01768000  0.80799000  0.27658000  1.0
  O  O140  1  0.15309000  0.83826000  0.43769000  1.0
  O  O141  1  0.58129000  0.57929000  0.25334000  1.0
  O  O142  1  0.34186000  0.71278000  0.44243000  1.0
  O  O143  1  0.63337000  0.67021000  0.68314000  1.0
  O  O144  1  0.95276000  0.94131000  0.64564000  1.0
  O  O145  1  0.51780000  0.69211000  0.77665000  1.0
  O  O146  1  0.65312000  0.66161000  0.93774000  1.0
  O  O147  1  0.08120000  0.92070000  0.75338000  1.0
  O  O148  1  0.84198000  0.78696000  0.94238000  1.0
  O  O149  1  0.13341000  0.82977000  0.18312000  1.0
  O  O150  1  0.54748000  0.44105000  0.85422000  1.0
  O  O151  1  0.98231000  0.19184000  0.72347000  1.0
  O  O152  1  0.84683000  0.16144000  0.56232000  1.0
  O  O153  1  0.41862000  0.42112000  0.74654000  1.0
  O  O154  1  0.65854000  0.28746000  0.55750000  1.0
  O  O155  1  0.36654000  0.32964000  0.31689000  1.0
