# generated using pymatgen
data_NaH2C3ClO3
_symmetry_space_group_name_H-M   'P 1'
_cell_length_a   3.61578000
_cell_length_b   8.86507000
_cell_length_c   14.62730000
_cell_angle_alpha   94.73080000
_cell_angle_beta   89.99870000
_cell_angle_gamma   89.99920000
_symmetry_Int_Tables_number   1
_chemical_formula_structural   NaH2C3ClO3
_chemical_formula_sum   'Na4 H8 C12 Cl4 O12'
_cell_volume   467.26822972
_cell_formula_units_Z   4
loop_
 _symmetry_equiv_pos_site_id
 _symmetry_equiv_pos_as_xyz
  1  'x, y, z'
loop_
 _atom_site_type_symbol
 _atom_site_label
 _atom_site_symmetry_multiplicity
 _atom_site_fract_x
 _atom_site_fract_y
 _atom_site_fract_z
 _atom_site_occupancy
  Na  Na0  1  0.50317000  0.08095000  0.78549000  1.0
  Na  Na1  1  0.00318000  0.41905000  0.71450000  1.0
  Na  Na2  1  0.49685000  0.91905000  0.21451000  1.0
  Na  Na3  1  0.99683000  0.58095000  0.28549000  1.0
  H  H4  1  0.93537000  0.87646000  0.74435000  1.0
  H  H5  1  0.43535000  0.62354000  0.75566000  1.0
  H  H6  1  0.06466000  0.12354000  0.25566000  1.0
  H  H7  1  0.56466000  0.37646000  0.24434000  1.0
  H  H8  1  0.06519000  0.82092000  0.83910000  1.0
  H  H9  1  0.56519000  0.67910000  0.66091000  1.0
  H  H10  1  0.93483000  0.17908000  0.16091000  1.0
  H  H11  1  0.43483000  0.32091000  0.33909000  1.0
  C  C12  1  0.46888000  0.41220000  0.91117000  1.0
  C  C13  1  0.96887000  0.08779000  0.58883000  1.0
  C  C14  1  0.53109000  0.58779000  0.08883000  1.0
  C  C15  1  0.03113000  0.91219000  0.41118000  1.0
  C  C16  1  0.67299000  0.42415000  0.07304000  1.0
  C  C17  1  0.17299000  0.07583000  0.42694000  1.0
  C  C18  1  0.32696000  0.57584000  0.92695000  1.0
  C  C19  1  0.82699000  0.92416000  0.57306000  1.0
  C  C20  1  0.63156000  0.34644000  0.98582000  1.0
  C  C21  1  0.13159000  0.15357000  0.51419000  1.0
  C  C22  1  0.36840000  0.65357000  0.01418000  1.0
  C  C23  1  0.86844000  0.84644000  0.48582000  1.0
  Cl  Cl24  1  0.78072000  0.16106000  0.97029000  1.0
  Cl  Cl25  1  0.28070000  0.33894000  0.52970000  1.0
  Cl  Cl26  1  0.21926000  0.83894000  0.02970000  1.0
  Cl  Cl27  1  0.71931000  0.66106000  0.47031000  1.0
  O  O28  1  0.02380000  0.91280000  0.80618000  1.0
  O  O29  1  0.52381000  0.58721000  0.69383000  1.0
  O  O30  1  0.97622000  0.08722000  0.19383000  1.0
  O  O31  1  0.47622000  0.41278000  0.30617000  1.0
  O  O32  1  0.82512000  0.36860000  0.14078000  1.0
  O  O33  1  0.32513000  0.13140000  0.35921000  1.0
  O  O34  1  0.17485000  0.63140000  0.85921000  1.0
  O  O35  1  0.67485000  0.86861000  0.64079000  1.0
  O  O36  1  0.43292000  0.34614000  0.83139000  1.0
  O  O37  1  0.93295000  0.15388000  0.66861000  1.0
  O  O38  1  0.56702000  0.65387000  0.16861000  1.0
  O  O39  1  0.06710000  0.84612000  0.33139000  1.0
