# generated using pymatgen
data_ZnH12C17Br2NO4
_symmetry_space_group_name_H-M   'P 1'
_cell_length_a   14.04520000
_cell_length_b   18.28140000
_cell_length_c   19.26050000
_cell_angle_alpha   109.71940000
_cell_angle_beta   91.40430000
_cell_angle_gamma   91.17100000
_symmetry_Int_Tables_number   1
_chemical_formula_structural   ZnH12C17Br2NO4
_chemical_formula_sum   'Zn4 H48 C68 Br8 N4 O16'
_cell_volume   4651.85749307
_cell_formula_units_Z   4
loop_
 _symmetry_equiv_pos_site_id
 _symmetry_equiv_pos_as_xyz
  1  'x, y, z'
loop_
 _atom_site_type_symbol
 _atom_site_label
 _atom_site_symmetry_multiplicity
 _atom_site_fract_x
 _atom_site_fract_y
 _atom_site_fract_z
 _atom_site_occupancy
  Zn  Zn0  1  0.60633000  0.99812000  0.50807000  1.0
  Zn  Zn1  1  0.40822000  0.00096000  0.49254000  1.0
  Zn  Zn2  1  0.39275000  0.49123000  0.99970000  1.0
  Zn  Zn3  1  0.59092000  0.50701000  0.99880000  1.0
  H  H4  1  0.95406000  0.04529000  0.62285000  1.0
  H  H5  1  0.05958000  0.99472000  0.38281000  1.0
  H  H6  1  0.26822000  0.00996000  0.59549000  1.0
  H  H7  1  0.09293000  0.00558000  0.61050000  1.0
  H  H8  1  0.74585000  0.95296000  0.40042000  1.0
  H  H9  1  0.92116000  0.94906000  0.38443000  1.0
  H  H10  1  0.54030000  0.13085000  0.75395000  1.0
  H  H11  1  0.41617000  0.13725000  0.74092000  1.0
  H  H12  1  0.41406000  0.24611000  0.84828000  1.0
  H  H13  1  0.53780000  0.23856000  0.86212000  1.0
  H  H14  1  0.35418000  0.33058000  0.77630000  1.0
  H  H15  1  0.43598000  0.37750000  0.73642000  1.0
  H  H16  1  0.35258000  0.21940000  0.66980000  1.0
  H  H17  1  0.43104000  0.26849000  0.62913000  1.0
  H  H18  1  0.65490000  0.20192000  0.69540000  1.0
  H  H19  1  0.60955000  0.25993000  0.64670000  1.0
  H  H20  1  0.61402000  0.36656000  0.75654000  1.0
  H  H21  1  0.65461000  0.30735000  0.80598000  1.0
  H  H22  1  0.53254000  0.87098000  0.24529000  1.0
  H  H23  1  0.41152000  0.85572000  0.26090000  1.0
  H  H24  1  0.40407000  0.74985000  0.15055000  1.0
  H  H25  1  0.52722000  0.76120000  0.13859000  1.0
  H  H26  1  0.34880000  0.67031000  0.22731000  1.0
  H  H27  1  0.43055000  0.61857000  0.26203000  1.0
  H  H28  1  0.36593000  0.77425000  0.33936000  1.0
  H  H29  1  0.45482000  0.72486000  0.37071000  1.0
  H  H30  1  0.65959000  0.80265000  0.29420000  1.0
  H  H31  1  0.62840000  0.74731000  0.34980000  1.0
  H  H32  1  0.60852000  0.63540000  0.24513000  1.0
  H  H33  1  0.64707000  0.68966000  0.19045000  1.0
  H  H34  1  0.67835000  0.24202000  0.29638000  1.0
  H  H35  1  0.38707000  0.31968000  0.26287000  1.0
  H  H36  1  0.64825000  0.31859000  0.09456000  1.0
  H  H37  1  0.65817000  0.23555000  0.17343000  1.0
  H  H38  1  0.38408000  0.11891000  0.34780000  1.0
  H  H39  1  0.37565000  0.19419000  0.26194000  1.0
  H  H40  1  0.60249000  0.72331000  0.67752000  1.0
  H  H41  1  0.31575000  0.70423000  0.76354000  1.0
  H  H42  1  0.61374000  0.65997000  0.88383000  1.0
  H  H43  1  0.61955000  0.74017000  0.80223000  1.0
  H  H44  1  0.34805000  0.90484000  0.67147000  1.0
  H  H45  1  0.33824000  0.83099000  0.75867000  1.0
  H  H46  1  0.04466000  0.37286000  0.94341000  1.0
  H  H47  1  0.93825000  0.62562000  0.00976000  1.0
  H  H48  1  0.73227000  0.39840000  0.98815000  1.0
  H  H49  1  0.90815000  0.38306000  0.99059000  1.0
  H  H50  1  0.25316000  0.60416000  0.05271000  1.0
  H  H51  1  0.07746000  0.62110000  0.05840000  1.0
  C  C52  1  0.51356000  0.87440000  0.38569000  1.0
  C  C53  1  0.52910000  0.08486000  0.41669000  1.0
  C  C54  1  0.49961000  0.12408000  0.61404000  1.0
  C  C55  1  0.48588000  0.91183000  0.58259000  1.0
  C  C56  1  0.48695000  0.61277000  0.12356000  1.0
  C  C57  1  0.47049000  0.59098000  0.92228000  1.0
  C  C58  1  0.50128000  0.38573000  0.87642000  1.0
  C  C59  1  0.50978000  0.40813000  0.07856000  1.0
  C  C60  1  0.81301000  0.01969000  0.57455000  1.0
  C  C61  1  0.91205000  0.02290000  0.57153000  1.0
  C  C62  1  0.20080000  0.99677000  0.42831000  1.0
  C  C63  1  0.10171000  0.99667000  0.43153000  1.0
  C  C64  1  0.21820000  0.00585000  0.55010000  1.0
  C  C65  1  0.12049000  0.00431000  0.55783000  1.0
  C  C66  1  0.79575000  0.97212000  0.44772000  1.0
  C  C67  1  0.89352000  0.97120000  0.43970000  1.0
  C  C68  1  0.95444000  0.99801000  0.50275000  1.0
  C  C69  1  0.05938000  0.99974000  0.49749000  1.0
  C  C70  1  0.48410000  0.17060000  0.75021000  1.0
  C  C71  1  0.48312000  0.24236000  0.82171000  1.0
  C  C72  1  0.50170000  0.31773000  0.80376000  1.0
  C  C73  1  0.42290000  0.32398000  0.74924000  1.0
  C  C74  1  0.42126000  0.25151000  0.67818000  1.0
  C  C75  1  0.50128000  0.19669000  0.68290000  1.0
  C  C76  1  0.59746000  0.24148000  0.69459000  1.0
  C  C77  1  0.59862000  0.31204000  0.76703000  1.0
  C  C78  1  0.48031000  0.82722000  0.24984000  1.0
  C  C79  1  0.47478000  0.75568000  0.17814000  1.0
  C  C80  1  0.49408000  0.68084000  0.19618000  1.0
  C  C81  1  0.42094000  0.67365000  0.25180000  1.0
  C  C82  1  0.43305000  0.74395000  0.32442000  1.0
  C  C83  1  0.50947000  0.80239000  0.31639000  1.0
  C  C84  1  0.60515000  0.76182000  0.30125000  1.0
  C  C85  1  0.59509000  0.68823000  0.23160000  1.0
  C  C86  1  0.53447000  0.13404000  0.36789000  1.0
  C  C87  1  0.51125000  0.36236000  0.13042000  1.0
  C  C88  1  0.61713000  0.16919000  0.35194000  1.0
  C  C89  1  0.61334000  0.21334000  0.30531000  1.0
  C  C90  1  0.43786000  0.36140000  0.17841000  1.0
  C  C91  1  0.44371000  0.31689000  0.22447000  1.0
  C  C92  1  0.59077000  0.31725000  0.13114000  1.0
  C  C93  1  0.59667000  0.27167000  0.17593000  1.0
  C  C94  1  0.44823000  0.14549000  0.33483000  1.0
  C  C95  1  0.44373000  0.18836000  0.28773000  1.0
  C  C96  1  0.52673000  0.22341000  0.27224000  1.0
  C  C97  1  0.52271000  0.27074000  0.22349000  1.0
  C  C98  1  0.48194000  0.85984000  0.62861000  1.0
  C  C99  1  0.46307000  0.63926000  0.87274000  1.0
  C  C100  1  0.55311000  0.80784000  0.63116000  1.0
  C  C101  1  0.54746000  0.76474000  0.67840000  1.0
  C  C102  1  0.37928000  0.65354000  0.83859000  1.0
  C  C103  1  0.38163000  0.69691000  0.79123000  1.0
  C  C104  1  0.54876000  0.67138000  0.85769000  1.0
  C  C105  1  0.55184000  0.71517000  0.81140000  1.0
  C  C106  1  0.40397000  0.86530000  0.67414000  1.0
  C  C107  1  0.39813000  0.82335000  0.72219000  1.0
  C  C108  1  0.47068000  0.77274000  0.72551000  1.0
  C  C109  1  0.46784000  0.72823000  0.77675000  1.0
  C  C110  1  0.18594000  0.42235000  0.97193000  1.0
  C  C111  1  0.08689000  0.42599000  0.96969000  1.0
  C  C112  1  0.79739000  0.57656000  0.00659000  1.0
  C  C113  1  0.89654000  0.57362000  0.00619000  1.0
  C  C114  1  0.78169000  0.44685000  0.99342000  1.0
  C  C115  1  0.87954000  0.43898000  0.99395000  1.0
  C  C116  1  0.20320000  0.55492000  0.02983000  1.0
  C  C117  1  0.10539000  0.56358000  0.03182000  1.0
  C  C118  1  0.04458000  0.49794000  0.00056000  1.0
  C  C119  1  0.93967000  0.50349000  0.00021000  1.0
  Br  Br120  1  0.75859000  0.04865000  0.66833000  1.0
  Br  Br121  1  0.25526000  0.98865000  0.33728000  1.0
  Br  Br122  1  0.73981000  0.16484000  0.39547000  1.0
  Br  Br123  1  0.32908000  0.42474000  0.18885000  1.0
  Br  Br124  1  0.65838000  0.78819000  0.56717000  1.0
  Br  Br125  1  0.25669000  0.61156000  0.84887000  1.0
  Br  Br126  1  0.24027000  0.32366000  0.93431000  1.0
  Br  Br127  1  0.74153000  0.67294000  0.01767000  1.0
  N  N128  1  0.75540000  0.99623000  0.51437000  1.0
  N  N129  1  0.25854000  0.00164000  0.48592000  1.0
  N  N130  1  0.24352000  0.48512000  0.00025000  1.0
  N  N131  1  0.74052000  0.51494000  0.99995000  1.0
  O  O132  1  0.59196000  0.89387000  0.42255000  1.0
  O  O133  1  0.43607000  0.91080000  0.40137000  1.0
  O  O134  1  0.44777000  0.08096000  0.44345000  1.0
  O  O135  1  0.60300000  0.05014000  0.42629000  1.0
  O  O136  1  0.41959000  0.08799000  0.59308000  1.0
  O  O137  1  0.57826000  0.10340000  0.58290000  1.0
  O  O138  1  0.56674000  0.94298000  0.57991000  1.0
  O  O139  1  0.40814000  0.92217000  0.55244000  1.0
  O  O140  1  0.40772000  0.57557000  0.10367000  1.0
  O  O141  1  0.56231000  0.59950000  0.08624000  1.0
  O  O142  1  0.55227000  0.56323000  0.92586000  1.0
  O  O143  1  0.39761000  0.58179000  0.95657000  1.0
  O  O144  1  0.58005000  0.40480000  0.91333000  1.0
  O  O145  1  0.42216000  0.41760000  0.89650000  1.0
  O  O146  1  0.43042000  0.40997000  0.04612000  1.0
  O  O147  1  0.58822000  0.43991000  0.07059000  1.0
