# generated using pymatgen
data_Al2H9C20S2N(ClO5)2
_symmetry_space_group_name_H-M   'P 1'
_cell_length_a   6.63167000
_cell_length_b   11.08126873
_cell_length_c   12.48450000
_cell_angle_alpha   93.91256936
_cell_angle_beta   101.61910000
_cell_angle_gamma   106.79170961
_symmetry_Int_Tables_number   1
_chemical_formula_structural   Al2H9C20S2N(ClO5)2
_chemical_formula_sum   'Al2 H9 C20 S2 N1 Cl2 O10'
_cell_volume   852.48101182
_cell_formula_units_Z   1
loop_
 _symmetry_equiv_pos_site_id
 _symmetry_equiv_pos_as_xyz
  1  'x, y, z'
loop_
 _atom_site_type_symbol
 _atom_site_label
 _atom_site_symmetry_multiplicity
 _atom_site_fract_x
 _atom_site_fract_y
 _atom_site_fract_z
 _atom_site_occupancy
  Al  Al0  1  0.01227000  0.50285000  0.50493000  1.0
  Al  Al1  1  0.51252000  0.49816000  0.50647000  1.0
  H  H2  1  0.36720000  0.65967000  0.55941000  1.0
  H  H3  1  0.66714000  0.41411000  0.37309000  1.0
  H  H4  1  0.77108000  0.42477000  0.15898000  1.0
  H  H5  1  0.51409000  0.75256000  0.36433000  1.0
  H  H6  1  0.74922000  0.22360000  0.38514000  1.0
  H  H7  1  0.37747000  0.12803000  0.57471000  1.0
  H  H8  1  0.25838000  0.89136000  0.56793000  1.0
  H  H9  1  0.43791000  0.56115000  0.88109000  1.0
  H  H10  1  0.27125000  0.56078000  0.75384000  1.0
  C  C11  1  0.87270000  0.72750000  0.49217000  1.0
  C  C12  1  0.83427000  0.50419000  0.70125000  1.0
  C  C13  1  0.14190000  0.27567000  0.50629000  1.0
  C  C14  1  0.18363000  0.48462000  0.30529000  1.0
  C  C15  1  0.11454000  0.52235000  0.87748000  1.0
  C  C16  1  0.91150000  0.45230000  0.12328000  1.0
  C  C17  1  0.89871000  0.49419000  0.81649000  1.0
  C  C18  1  0.12150000  0.48209000  0.18551000  1.0
  C  C19  1  0.90824000  0.46447000  0.01148000  1.0
  C  C20  1  0.11567000  0.50443000  0.98999000  1.0
  C  C21  1  0.93165000  0.86671000  0.48433000  1.0
  C  C22  1  0.77955000  0.92613000  0.43238000  1.0
  C  C23  1  0.14369000  0.93911000  0.53199000  1.0
  C  C24  1  0.56852000  0.85576000  0.37057000  1.0
  C  C25  1  0.43042000  0.91539000  0.31544000  1.0
  C  C26  1  0.06461000  0.13385000  0.49372000  1.0
  C  C27  1  0.21061000  0.07200000  0.53640000  1.0
  C  C28  1  0.84760000  0.06242000  0.43764000  1.0
  C  C29  1  0.70126000  0.12084000  0.38112000  1.0
  C  C30  1  0.49825000  0.05012000  0.32060000  1.0
  S  S31  1  0.70588000  0.44392000  0.89471000  1.0
  S  S32  1  0.31558000  0.52482000  0.10805000  1.0
  N  N33  1  0.29343000  0.56464000  0.83738000  1.0
  Cl  Cl34  1  0.17768000  0.82560000  0.23953000  1.0
  Cl  Cl35  1  0.33076000  0.12663000  0.25030000  1.0
  O  O36  1  0.01451000  0.67364000  0.48088000  1.0
  O  O37  1  0.63398000  0.48377000  0.65550000  1.0
  O  O38  1  0.33064000  0.32747000  0.49194000  1.0
  O  O39  1  0.02872000  0.46470000  0.35501000  1.0
  O  O40  1  0.01556000  0.33506000  0.53055000  1.0
  O  O41  1  0.38364000  0.50626000  0.35076000  1.0
  O  O42  1  0.68975000  0.67382000  0.51352000  1.0
  O  O43  1  0.98832000  0.53649000  0.65013000  1.0
  O  O44  1  0.31430000  0.56748000  0.55312000  1.0
  O  O45  1  0.71266000  0.43983000  0.45224000  1.0
