# generated using pymatgen
data_KCu2AgH40C40(N3O4)2
_symmetry_space_group_name_H-M   'P 1'
_cell_length_a   9.74105000
_cell_length_b   10.27980000
_cell_length_c   10.27980000
_cell_angle_alpha   96.34990000
_cell_angle_beta   100.97200000
_cell_angle_gamma   100.97200000
_symmetry_Int_Tables_number   1
_chemical_formula_structural   KCu2AgH40C40(N3O4)2
_chemical_formula_sum   'K1 Cu2 Ag1 H40 C40 N6 O8'
_cell_volume   980.50894631
_cell_formula_units_Z   1
loop_
 _symmetry_equiv_pos_site_id
 _symmetry_equiv_pos_as_xyz
  1  'x, y, z'
loop_
 _atom_site_type_symbol
 _atom_site_label
 _atom_site_symmetry_multiplicity
 _atom_site_fract_x
 _atom_site_fract_y
 _atom_site_fract_z
 _atom_site_occupancy
  K  K0  1  0.99997000  0.99997000  0.99997000  1.0
  Cu  Cu1  1  0.67773000  0.10673000  0.10673000  1.0
  Cu  Cu2  1  0.32228000  0.89327000  0.89328000  1.0
  Ag  Ag3  1  0.00001000  0.49999000  0.49999000  1.0
  H  H4  1  0.34348000  0.12706000  0.12706000  1.0
  H  H5  1  0.65651000  0.87295000  0.87294000  1.0
  H  H6  1  0.33860000  0.25484000  0.25484000  1.0
  H  H7  1  0.66139000  0.74516000  0.74516000  1.0
  H  H8  1  0.84389000  0.54722000  0.20745000  1.0
  H  H9  1  0.15612000  0.79255000  0.45279000  1.0
  H  H10  1  0.15612000  0.45279000  0.79255000  1.0
  H  H11  1  0.84389000  0.20745000  0.54722000  1.0
  H  H12  1  0.61271000  0.75164000  0.45062000  1.0
  H  H13  1  0.38728000  0.54937000  0.24836000  1.0
  H  H14  1  0.38729000  0.24836000  0.54937000  1.0
  H  H15  1  0.61273000  0.45063000  0.75164000  1.0
  H  H16  1  0.00969000  0.61240000  0.09091000  1.0
  H  H17  1  0.99030000  0.90909000  0.38762000  1.0
  H  H18  1  0.99030000  0.38761000  0.90910000  1.0
  H  H19  1  0.00969000  0.09091000  0.61240000  1.0
  H  H20  1  0.97644000  0.64959000  0.92256000  1.0
  H  H21  1  0.02355000  0.07743000  0.35040000  1.0
  H  H22  1  0.02356000  0.35040000  0.07743000  1.0
  H  H23  1  0.97644000  0.92256000  0.64959000  1.0
  H  H24  1  0.84305000  0.53422000  0.97631000  1.0
  H  H25  1  0.15695000  0.02368000  0.46577000  1.0
  H  H26  1  0.15695000  0.46577000  0.02369000  1.0
  H  H27  1  0.84305000  0.97632000  0.53422000  1.0
  H  H28  1  0.72759000  0.56061000  0.40127000  1.0
  H  H29  1  0.27243000  0.59873000  0.43940000  1.0
  H  H30  1  0.27243000  0.43940000  0.59874000  1.0
  H  H31  1  0.72760000  0.40127000  0.56061000  1.0
  H  H32  1  0.57643000  0.22827000  0.38447000  1.0
  H  H33  1  0.42357000  0.61553000  0.77173000  1.0
  H  H34  1  0.42357000  0.77173000  0.61553000  1.0
  H  H35  1  0.57643000  0.38447000  0.22827000  1.0
  H  H36  1  0.43054000  0.08965000  0.36797000  1.0
  H  H37  1  0.56946000  0.63204000  0.91036000  1.0
  H  H38  1  0.56946000  0.91035000  0.63203000  1.0
  H  H39  1  0.43054000  0.36797000  0.08965000  1.0
  H  H40  1  0.53937000  0.94058000  0.39823000  1.0
  H  H41  1  0.46062000  0.60177000  0.05941000  1.0
  H  H42  1  0.46063000  0.05941000  0.60177000  1.0
  H  H43  1  0.53937000  0.39823000  0.94058000  1.0
  C  C44  1  0.67186000  0.85155000  0.28845000  1.0
  C  C45  1  0.32814000  0.71154000  0.14845000  1.0
  C  C46  1  0.32815000  0.14845000  0.71155000  1.0
  C  C47  1  0.67187000  0.28846000  0.85155000  1.0
  C  C48  1  0.74417000  0.84966000  0.18049000  1.0
  C  C49  1  0.25583000  0.81950000  0.15034000  1.0
  C  C50  1  0.25584000  0.15034000  0.81951000  1.0
  C  C51  1  0.74418000  0.18050000  0.84967000  1.0
  C  C52  1  0.41126000  0.20626000  0.20625000  1.0
  C  C53  1  0.58873000  0.79374000  0.79374000  1.0
  C  C54  1  0.80403000  0.73470000  0.15126000  1.0
  C  C55  1  0.19596000  0.84874000  0.26530000  1.0
  C  C56  1  0.19597000  0.26530000  0.84874000  1.0
  C  C57  1  0.80404000  0.15126000  0.73470000  1.0
  C  C58  1  0.79663000  0.63286000  0.22914000  1.0
  C  C59  1  0.20338000  0.77086000  0.36715000  1.0
  C  C60  1  0.20338000  0.36715000  0.77086000  1.0
  C  C61  1  0.79663000  0.22914000  0.63286000  1.0
  C  C62  1  0.92655000  0.34506000  0.34506000  1.0
  C  C63  1  0.07346000  0.65493000  0.65493000  1.0
  C  C64  1  0.66789000  0.74696000  0.36790000  1.0
  C  C65  1  0.33212000  0.63210000  0.25304000  1.0
  C  C66  1  0.33212000  0.25304000  0.63210000  1.0
  C  C67  1  0.66789000  0.36790000  0.74697000  1.0
  C  C68  1  0.92755000  0.62619000  0.00709000  1.0
  C  C69  1  0.07244000  0.99290000  0.37381000  1.0
  C  C70  1  0.07245000  0.37380000  0.99290000  1.0
  C  C71  1  0.92755000  0.00709000  0.62619000  1.0
  C  C72  1  0.72974000  0.64026000  0.33949000  1.0
  C  C73  1  0.27027000  0.66051000  0.35975000  1.0
  C  C74  1  0.27027000  0.35975000  0.66051000  1.0
  C  C75  1  0.72975000  0.33950000  0.64026000  1.0
  C  C76  1  0.50085000  0.14670000  0.31196000  1.0
  C  C77  1  0.49915000  0.68804000  0.85330000  1.0
  C  C78  1  0.49915000  0.85330000  0.68804000  1.0
  C  C79  1  0.50084000  0.31196000  0.14670000  1.0
  C  C80  1  0.59660000  0.95455000  0.31637000  1.0
  C  C81  1  0.40340000  0.68363000  0.04545000  1.0
  C  C82  1  0.40340000  0.04545000  0.68363000  1.0
  C  C83  1  0.59660000  0.31637000  0.95455000  1.0
  N  N84  1  0.88292000  0.25586000  0.25587000  1.0
  N  N85  1  0.11707000  0.74413000  0.74412000  1.0
  N  N86  1  0.58459000  0.05850000  0.25702000  1.0
  N  N87  1  0.41541000  0.74298000  0.94150000  1.0
  N  N88  1  0.41541000  0.94150000  0.74298000  1.0
  N  N89  1  0.58459000  0.25703000  0.05850000  1.0
  O  O90  1  0.86844000  0.73871000  0.04374000  1.0
  O  O91  1  0.13154000  0.95624000  0.26129000  1.0
  O  O92  1  0.13154000  0.26129000  0.95625000  1.0
  O  O93  1  0.86844000  0.04374000  0.73871000  1.0
  O  O94  1  0.75900000  0.94453000  0.10756000  1.0
  O  O95  1  0.24100000  0.89243000  0.05548000  1.0
  O  O96  1  0.24101000  0.05548000  0.89244000  1.0
  O  O97  1  0.75900000  0.10758000  0.94453000  1.0
