# generated using pymatgen
data_CdH10C10NCl2O3
_symmetry_space_group_name_H-M   'P 1'
_cell_length_a   8.38494000
_cell_length_b   8.51609000
_cell_length_c   8.57539000
_cell_angle_alpha   93.47220000
_cell_angle_beta   100.17300000
_cell_angle_gamma   92.05300000
_symmetry_Int_Tables_number   1
_chemical_formula_structural   CdH10C10NCl2O3
_chemical_formula_sum   'Cd2 H20 C20 N2 Cl4 O6'
_cell_volume   600.93417090
_cell_formula_units_Z   2
loop_
 _symmetry_equiv_pos_site_id
 _symmetry_equiv_pos_as_xyz
  1  'x, y, z'
loop_
 _atom_site_type_symbol
 _atom_site_label
 _atom_site_symmetry_multiplicity
 _atom_site_fract_x
 _atom_site_fract_y
 _atom_site_fract_z
 _atom_site_occupancy
  Cd  Cd0  1  0.50000000  0.00000000  0.00000000  1.0
  Cd  Cd1  1  0.00000000  0.00000000  0.00000000  1.0
  H  H2  1  0.35016000  0.11827000  0.51350000  1.0
  H  H3  1  0.64984000  0.88173000  0.48650000  1.0
  H  H4  1  0.37415000  0.20235000  0.71342000  1.0
  H  H5  1  0.62585000  0.79765000  0.28657000  1.0
  H  H6  1  0.11589000  0.09991000  0.35800000  1.0
  H  H7  1  0.88411000  0.90009000  0.64200000  1.0
  H  H8  1  0.70217000  0.32116000  0.49410000  1.0
  H  H9  1  0.29783000  0.67884000  0.50590000  1.0
  H  H10  1  0.52576000  0.44276000  0.78469000  1.0
  H  H11  1  0.47424000  0.55724000  0.21530000  1.0
  H  H12  1  0.18442000  0.39051000  0.77463000  1.0
  H  H13  1  0.81558000  0.60950000  0.22537000  1.0
  H  H14  1  0.33422000  0.31634000  0.29204000  1.0
  H  H15  1  0.66578000  0.68366000  0.70796000  1.0
  H  H16  1  0.89008000  0.44395000  0.74009000  1.0
  H  H17  1  0.10992000  0.55605000  0.25991000  1.0
  H  H18  1  0.30364000  0.27351000  0.01490000  1.0
  H  H19  1  0.69636000  0.72649000  0.98510000  1.0
  H  H20  1  0.49219000  0.30173000  0.07871000  1.0
  H  H21  1  0.50781000  0.69827000  0.92129000  1.0
  C  C22  1  0.78905000  0.11608000  0.26532000  1.0
  C  C23  1  0.21095000  0.88392000  0.73468000  1.0
  C  C24  1  0.33371000  0.22347000  0.58843000  1.0
  C  C25  1  0.66629000  0.77653000  0.41157000  1.0
  C  C26  1  0.89402000  0.20224000  0.40801000  1.0
  C  C27  1  0.10598000  0.79776000  0.59199000  1.0
  C  C28  1  0.05899000  0.17645000  0.43649000  1.0
  C  C29  1  0.94101000  0.82354000  0.56351000  1.0
  C  C30  1  0.42136000  0.36623000  0.54295000  1.0
  C  C31  1  0.57864000  0.63377000  0.45705000  1.0
  C  C32  1  0.83131000  0.30115000  0.51576000  1.0
  C  C33  1  0.16869000  0.69884000  0.48424000  1.0
  C  C34  1  0.51422000  0.46952000  0.66044000  1.0
  C  C35  1  0.48578000  0.53049000  0.33955000  1.0
  C  C36  1  0.09749000  0.34189000  0.67230000  1.0
  C  C37  1  0.90251000  0.65811000  0.32770000  1.0
  C  C38  1  0.40755000  0.39701000  0.38270000  1.0
  C  C39  1  0.59245000  0.60299000  0.61730000  1.0
  C  C40  1  0.93408000  0.36964000  0.65053000  1.0
  C  C41  1  0.06592000  0.63037000  0.34947000  1.0
  N  N42  1  0.15652000  0.24742000  0.56490000  1.0
  N  N43  1  0.84348000  0.75258000  0.43510000  1.0
  Cl  Cl44  1  0.70441000  0.05936000  0.81150000  1.0
  Cl  Cl45  1  0.29560000  0.94064000  0.18850000  1.0
  Cl  Cl46  1  0.93034000  0.70817000  0.93840000  1.0
  Cl  Cl47  1  0.06966000  0.29183000  0.06159000  1.0
  O  O48  1  0.84675000  0.99530000  0.20571000  1.0
  O  O49  1  0.15325000  0.00470000  0.79429000  1.0
  O  O50  1  0.64884000  0.16561000  0.21909000  1.0
  O  O51  1  0.35116000  0.83439000  0.78091000  1.0
  O  O52  1  0.41259000  0.27077000  0.98279000  1.0
  O  O53  1  0.58741000  0.72924000  0.01721000  1.0
