# generated using pymatgen
data_H10PbC15N3Cl3O8
_symmetry_space_group_name_H-M   'P 1'
_cell_length_a   10.04680000
_cell_length_b   10.09120000
_cell_length_c   10.52324742
_cell_angle_alpha   85.56400363
_cell_angle_beta   61.48772922
_cell_angle_gamma   80.67220000
_symmetry_Int_Tables_number   1
_chemical_formula_structural   H10PbC15N3Cl3O8
_chemical_formula_sum   'H20 Pb2 C30 N6 Cl6 O16'
_cell_volume   925.09736757
_cell_formula_units_Z   2
loop_
 _symmetry_equiv_pos_site_id
 _symmetry_equiv_pos_as_xyz
  1  'x, y, z'
loop_
 _atom_site_type_symbol
 _atom_site_label
 _atom_site_symmetry_multiplicity
 _atom_site_fract_x
 _atom_site_fract_y
 _atom_site_fract_z
 _atom_site_occupancy
  H  H0  1  0.64748000  0.38910000  0.07438000  1.0
  H  H1  1  0.27815000  0.11089000  0.07438000  1.0
  H  H2  1  0.35253000  0.61090000  0.92562000  1.0
  H  H3  1  0.72186000  0.88912000  0.92561000  1.0
  H  H4  1  0.36242000  0.44984000  0.17613000  1.0
  H  H5  1  0.46145000  0.05015000  0.17613000  1.0
  H  H6  1  0.63759000  0.55016000  0.82387000  1.0
  H  H7  1  0.53854000  0.94985000  0.82387000  1.0
  H  H8  1  0.19764000  0.43376000  0.44477000  1.0
  H  H9  1  0.35758000  0.06623000  0.44477000  1.0
  H  H10  1  0.80235000  0.56624000  0.55523000  1.0
  H  H11  1  0.64242000  0.93377000  0.55522000  1.0
  H  H12  1  0.31898000  0.35676000  0.59857000  1.0
  H  H13  1  0.08245000  0.14324000  0.59857000  1.0
  H  H14  1  0.68101000  0.64323000  0.40143000  1.0
  H  H15  1  0.91756000  0.85676000  0.40142000  1.0
  H  H16  1  0.42848000  0.30940000  0.71343000  1.0
  H  H17  1  0.85809000  0.19061000  0.71343000  1.0
  H  H18  1  0.57152000  0.69060000  0.28657000  1.0
  H  H19  1  0.14190000  0.80939000  0.28658000  1.0
  Pb  Pb20  1  0.92580000  0.25000000  0.14840000  1.0
  Pb  Pb21  1  0.07420000  0.75000000  0.85160000  1.0
  C  C22  1  0.57039000  0.38327000  0.19001000  1.0
  C  C23  1  0.23961000  0.11672000  0.19001000  1.0
  C  C24  1  0.42962000  0.61673000  0.80999000  1.0
  C  C25  1  0.76039000  0.88328000  0.80999000  1.0
  C  C26  1  0.41270000  0.41749000  0.24688000  1.0
  C  C27  1  0.34041000  0.08250000  0.24689000  1.0
  C  C28  1  0.58731000  0.58250000  0.75311000  1.0
  C  C29  1  0.65958000  0.91750000  0.75311000  1.0
  C  C30  1  0.32149000  0.40782000  0.39588000  1.0
  C  C31  1  0.28263000  0.09217000  0.39588000  1.0
  C  C32  1  0.67851000  0.59218000  0.60412000  1.0
  C  C33  1  0.71737000  0.90782000  0.60412000  1.0
  C  C34  1  0.39041000  0.36420000  0.48227000  1.0
  C  C35  1  0.12731000  0.13579000  0.48227000  1.0
  C  C36  1  0.60958000  0.63580000  0.51773000  1.0
  C  C37  1  0.87269000  0.86420000  0.51773000  1.0
  C  C38  1  0.54999000  0.33079000  0.41738000  1.0
  C  C39  1  0.03263000  0.16920000  0.41738000  1.0
  C  C40  1  0.45001000  0.66921000  0.58262000  1.0
  C  C41  1  0.96736000  0.83079000  0.58262000  1.0
  C  C42  1  0.63196000  0.28579000  0.50253000  1.0
  C  C43  1  0.86551000  0.21421000  0.50253000  1.0
  C  C44  1  0.36804000  0.71421000  0.49747000  1.0
  C  C45  1  0.13449000  0.78579000  0.49747000  1.0
  C  C46  1  0.55211000  0.28410000  0.65376000  1.0
  C  C47  1  0.79413000  0.21591000  0.65376000  1.0
  C  C48  1  0.44788000  0.71590000  0.34624000  1.0
  C  C49  1  0.20587000  0.78409000  0.34624000  1.0
  C  C50  1  0.63599000  0.25001000  0.72803000  1.0
  C  C51  1  0.36401000  0.74999000  0.27197000  1.0
  N  N52  1  0.63670000  0.34088000  0.27304000  1.0
  N  N53  1  0.09026000  0.15911000  0.27304000  1.0
  N  N54  1  0.36330000  0.65912000  0.72696000  1.0
  N  N55  1  0.90974000  0.84089000  0.72696000  1.0
  N  N56  1  0.78519000  0.25000000  0.42962000  1.0
  N  N57  1  0.21481000  0.75000000  0.57038000  1.0
  Cl  Cl58  1  0.54318000  0.25003000  0.91366000  1.0
  Cl  Cl59  1  0.45682000  0.74998000  0.08635000  1.0
  Cl  Cl60  1  0.75755000  0.96272000  0.19113000  1.0
  Cl  Cl61  1  0.05132000  0.53728000  0.19113000  1.0
  Cl  Cl62  1  0.24246000  0.03728000  0.80887000  1.0
  Cl  Cl63  1  0.94868000  0.46272000  0.80887000  1.0
  O  O64  1  0.89549000  0.98485000  0.19999000  1.0
  O  O65  1  0.90452000  0.51514000  0.19999000  1.0
  O  O66  1  0.10451000  0.01515000  0.80001000  1.0
  O  O67  1  0.09548000  0.48486000  0.80001000  1.0
  O  O68  1  0.78670000  0.83225000  0.12421000  1.0
  O  O69  1  0.08908000  0.66774000  0.12421000  1.0
  O  O70  1  0.21330000  0.16775000  0.87579000  1.0
  O  O71  1  0.91093000  0.33226000  0.87579000  1.0
  O  O72  1  0.62846000  0.96526000  0.33565000  1.0
  O  O73  1  0.03589000  0.53475000  0.33565000  1.0
  O  O74  1  0.37153000  0.03474000  0.66436000  1.0
  O  O75  1  0.96411000  0.46525000  0.66435000  1.0
  O  O76  1  0.72775000  0.06973000  0.10196000  1.0
  O  O77  1  0.17029000  0.43027000  0.10196000  1.0
  O  O78  1  0.27225000  0.93027000  0.89804000  1.0
  O  O79  1  0.82971000  0.56973000  0.89804000  1.0
