# generated using pymatgen
data_CuH22C17(NO)4
_symmetry_space_group_name_H-M   'P 1'
_cell_length_a   10.92270000
_cell_length_b   12.04070000
_cell_length_c   15.05920000
_cell_angle_alpha   89.99980000
_cell_angle_beta   98.93520000
_cell_angle_gamma   89.99980000
_symmetry_Int_Tables_number   1
_chemical_formula_structural   CuH22C17(NO)4
_chemical_formula_sum   'Cu4 H88 C68 N16 O16'
_cell_volume   1956.50552908
_cell_formula_units_Z   4
loop_
 _symmetry_equiv_pos_site_id
 _symmetry_equiv_pos_as_xyz
  1  'x, y, z'
loop_
 _atom_site_type_symbol
 _atom_site_label
 _atom_site_symmetry_multiplicity
 _atom_site_fract_x
 _atom_site_fract_y
 _atom_site_fract_z
 _atom_site_occupancy
  Cu  Cu0  1  0.86646000  0.00321000  0.84374000  1.0
  Cu  Cu1  1  0.63353000  0.50320000  0.65626000  1.0
  Cu  Cu2  1  0.13352000  0.99679000  0.15626000  1.0
  Cu  Cu3  1  0.36647000  0.49679000  0.34374000  1.0
  H  H4  1  0.00975000  0.51630000  0.92350000  1.0
  H  H5  1  0.49024000  0.01629000  0.57650000  1.0
  H  H6  1  0.99024000  0.48371000  0.07652000  1.0
  H  H7  1  0.50975000  0.98371000  0.42349000  1.0
  H  H8  1  0.91342000  0.62869000  0.77964000  1.0
  H  H9  1  0.58659000  0.12868000  0.72036000  1.0
  H  H10  1  0.08658000  0.37131000  0.22037000  1.0
  H  H11  1  0.41341000  0.87131000  0.27963000  1.0
  H  H12  1  0.06903000  0.67133000  0.81637000  1.0
  H  H13  1  0.43098000  0.17133000  0.68364000  1.0
  H  H14  1  0.93097000  0.32866000  0.18365000  1.0
  H  H15  1  0.56903000  0.82868000  0.31636000  1.0
  H  H16  1  0.75050000  0.02960000  0.06445000  1.0
  H  H17  1  0.74950000  0.52959000  0.43554000  1.0
  H  H18  1  0.24949000  0.97041000  0.93555000  1.0
  H  H19  1  0.25052000  0.47040000  0.56446000  1.0
  H  H20  1  0.75629000  0.22246000  0.99164000  1.0
  H  H21  1  0.74371000  0.72245000  0.50835000  1.0
  H  H22  1  0.24370000  0.77754000  0.00836000  1.0
  H  H23  1  0.25633000  0.27754000  0.49165000  1.0
  H  H24  1  0.65597000  0.12336000  0.93066000  1.0
  H  H25  1  0.84403000  0.62335000  0.56934000  1.0
  H  H26  1  0.34402000  0.87664000  0.06934000  1.0
  H  H27  1  0.15599000  0.37662000  0.43067000  1.0
  H  H28  1  0.89860000  0.08588000  0.05830000  1.0
  H  H29  1  0.60140000  0.58587000  0.44170000  1.0
  H  H30  1  0.10140000  0.91412000  0.94170000  1.0
  H  H31  1  0.39862000  0.41413000  0.55830000  1.0
  H  H32  1  0.91053000  0.03527000  0.55354000  1.0
  H  H33  1  0.58948000  0.53526000  0.94645000  1.0
  H  H34  1  0.08947000  0.96474000  0.44646000  1.0
  H  H35  1  0.41053000  0.46474000  0.05354000  1.0
  H  H36  1  0.79881000  0.14299000  0.53068000  1.0
  H  H37  1  0.70119000  0.64298000  0.96932000  1.0
  H  H38  1  0.20119000  0.85703000  0.46933000  1.0
  H  H39  1  0.29881000  0.35703000  0.03067000  1.0
  H  H40  1  0.93686000  0.14648000  0.48108000  1.0
  H  H41  1  0.56315000  0.64647000  0.01892000  1.0
  H  H42  1  0.06314000  0.85353000  0.51892000  1.0
  H  H43  1  0.43686000  0.35352000  0.98108000  1.0
  H  H44  1  0.15365000  0.21247000  0.69420000  1.0
  H  H45  1  0.34636000  0.71247000  0.80579000  1.0
  H  H46  1  0.84637000  0.78752000  0.30580000  1.0
  H  H47  1  0.65364000  0.28752000  0.19420000  1.0
  H  H48  1  0.14356000  0.18562000  0.57652000  1.0
  H  H49  1  0.35645000  0.68561000  0.92349000  1.0
  H  H50  1  0.85645000  0.81437000  0.42349000  1.0
  H  H51  1  0.64354000  0.31438000  0.07651000  1.0
  H  H52  1  0.12170000  0.07550000  0.65113000  1.0
  H  H53  1  0.37831000  0.57549000  0.84887000  1.0
  H  H54  1  0.87830000  0.92449000  0.34887000  1.0
  H  H55  1  0.62169000  0.42450000  0.15113000  1.0
  H  H56  1  0.92667000  0.45913000  0.55985000  1.0
  H  H57  1  0.57334000  0.95911000  0.94015000  1.0
  H  H58  1  0.07334000  0.54088000  0.44015000  1.0
  H  H59  1  0.42665000  0.04088000  0.05984000  1.0
  H  H60  1  0.94338000  0.34574000  0.48575000  1.0
  H  H61  1  0.55663000  0.84572000  0.01425000  1.0
  H  H62  1  0.05662000  0.65426000  0.51426000  1.0
  H  H63  1  0.44336000  0.15428000  0.98574000  1.0
  H  H64  1  0.07352000  0.39385000  0.56268000  1.0
  H  H65  1  0.42649000  0.89384000  0.93732000  1.0
  H  H66  1  0.92649000  0.60615000  0.43732000  1.0
  H  H67  1  0.57350000  0.10615000  0.06267000  1.0
  H  H68  1  0.80824000  0.36387000  0.93890000  1.0
  H  H69  1  0.69175000  0.86387000  0.56109000  1.0
  H  H70  1  0.19175000  0.63614000  0.06110000  1.0
  H  H71  1  0.30825000  0.13613000  0.43891000  1.0
  H  H72  1  0.90053000  0.90466000  0.14322000  1.0
  H  H73  1  0.59947000  0.40466000  0.35678000  1.0
  H  H74  1  0.09946000  0.09535000  0.85678000  1.0
  H  H75  1  0.40054000  0.59535000  0.64322000  1.0
  H  H76  1  0.87880000  0.75882000  0.12143000  1.0
  H  H77  1  0.62120000  0.25880000  0.37857000  1.0
  H  H78  1  0.12119000  0.24120000  0.87858000  1.0
  H  H79  1  0.37880000  0.74120000  0.62142000  1.0
  H  H80  1  0.66960000  0.34770000  0.85999000  1.0
  H  H81  1  0.83039000  0.84770000  0.64000000  1.0
  H  H82  1  0.33040000  0.65230000  0.14000000  1.0
  H  H83  1  0.16961000  0.15230000  0.36000000  1.0
  H  H84  1  0.75023000  0.85233000  0.10547000  1.0
  H  H85  1  0.74977000  0.35232000  0.39453000  1.0
  H  H86  1  0.24976000  0.14768000  0.89454000  1.0
  H  H87  1  0.25024000  0.64768000  0.60546000  1.0
  H  H88  1  0.79570000  0.42290000  0.82931000  1.0
  H  H89  1  0.70430000  0.92289000  0.67068000  1.0
  H  H90  1  0.20430000  0.57711000  0.17069000  1.0
  H  H91  1  0.29571000  0.07711000  0.32931000  1.0
  C  C92  1  0.96495000  0.18756000  0.62407000  1.0
  C  C93  1  0.53506000  0.68755000  0.87593000  1.0
  C  C94  1  0.03506000  0.81244000  0.37594000  1.0
  C  C95  1  0.46493000  0.31244000  0.12406000  1.0
  C  C96  1  0.97677000  0.66371000  0.83695000  1.0
  C  C97  1  0.52324000  0.16370000  0.66306000  1.0
  C  C98  1  0.02323000  0.33629000  0.16307000  1.0
  C  C99  1  0.47677000  0.83630000  0.33693000  1.0
  C  C100  1  0.93245000  0.77592000  0.86426000  1.0
  C  C101  1  0.56755000  0.27591000  0.63574000  1.0
  C  C102  1  0.06754000  0.22408000  0.13575000  1.0
  C  C103  1  0.43246000  0.72409000  0.36425000  1.0
  C  C104  1  0.91309000  0.15396000  0.70882000  1.0
  C  C105  1  0.58691000  0.65396000  0.79117000  1.0
  C  C106  1  0.08692000  0.84604000  0.29118000  1.0
  C  C107  1  0.41309000  0.34603000  0.20883000  1.0
  C  C108  1  0.90782000  0.76995000  0.95306000  1.0
  C  C109  1  0.59218000  0.26994000  0.54694000  1.0
  C  C110  1  0.09217000  0.23006000  0.04695000  1.0
  C  C111  1  0.40782000  0.73006000  0.45305000  1.0
  C  C112  1  0.87111000  0.24761000  0.75034000  1.0
  C  C113  1  0.62887000  0.74761000  0.74965000  1.0
  C  C114  1  0.12889000  0.75239000  0.24966000  1.0
  C  C115  1  0.37113000  0.25238000  0.25035000  1.0
  C  C116  1  0.93839000  0.65572000  0.98504000  1.0
  C  C117  1  0.56161000  0.15571000  0.51496000  1.0
  C  C118  1  0.06160000  0.34429000  0.01497000  1.0
  C  C119  1  0.43839000  0.84430000  0.48503000  1.0
  C  C120  1  0.88828000  0.34454000  0.69377000  1.0
  C  C121  1  0.61172000  0.84454000  0.80623000  1.0
  C  C122  1  0.11173000  0.65546000  0.30624000  1.0
  C  C123  1  0.38828000  0.15546000  0.19377000  1.0
  C  C124  1  0.82063000  0.24623000  0.83267000  1.0
  C  C125  1  0.67935000  0.74622000  0.66732000  1.0
  C  C126  1  0.17936000  0.75378000  0.16733000  1.0
  C  C127  1  0.32066000  0.25377000  0.33268000  1.0
  C  C128  1  0.86688000  0.86015000  0.00307000  1.0
  C  C129  1  0.63312000  0.36015000  0.49694000  1.0
  C  C130  1  0.13310000  0.13984000  0.99694000  1.0
  C  C131  1  0.36688000  0.63985000  0.50306000  1.0
  C  C132  1  0.81384000  0.05309000  0.01745000  1.0
  C  C133  1  0.68616000  0.55308000  0.48255000  1.0
  C  C134  1  0.18615000  0.94692000  0.98255000  1.0
  C  C135  1  0.31386000  0.44692000  0.51745000  1.0
  C  C136  1  0.75405000  0.14379000  0.95444000  1.0
  C  C137  1  0.74594000  0.64379000  0.54555000  1.0
  C  C138  1  0.24594000  0.85621000  0.04556000  1.0
  C  C139  1  0.25408000  0.35621000  0.45446000  1.0
  C  C140  1  0.89827000  0.12484000  0.54202000  1.0
  C  C141  1  0.60174000  0.62483000  0.95798000  1.0
  C  C142  1  0.10173000  0.87517000  0.45798000  1.0
  C  C143  1  0.39826000  0.37517000  0.04202000  1.0
  C  C144  1  0.10507000  0.16423000  0.63752000  1.0
  C  C145  1  0.39494000  0.66422000  0.86248000  1.0
  C  C146  1  0.89494000  0.83577000  0.36248000  1.0
  C  C147  1  0.60506000  0.33577000  0.13751000  1.0
  C  C148  1  0.97277000  0.37944000  0.55360000  1.0
  C  C149  1  0.52724000  0.87943000  0.94640000  1.0
  C  C150  1  0.02724000  0.62056000  0.44641000  1.0
  C  C151  1  0.47275000  0.12056000  0.05359000  1.0
  C  C152  1  0.84875000  0.84229000  0.09914000  1.0
  C  C153  1  0.65125000  0.34228000  0.40086000  1.0
  C  C154  1  0.15124000  0.15772000  0.90086000  1.0
  C  C155  1  0.34875000  0.65772000  0.59914000  1.0
  C  C156  1  0.77129000  0.35146000  0.86755000  1.0
  C  C157  1  0.72870000  0.85146000  0.63244000  1.0
  C  C158  1  0.22871000  0.64855000  0.13245000  1.0
  C  C159  1  0.27130000  0.14854000  0.36755000  1.0
  N  N160  1  0.84654000  0.95845000  0.96549000  1.0
  N  N161  1  0.65346000  0.45843000  0.53450000  1.0
  N  N162  1  0.15344000  0.04156000  0.03451000  1.0
  N  N163  1  0.34655000  0.54156000  0.46550000  1.0
  N  N164  1  0.81607000  0.15178000  0.87606000  1.0
  N  N165  1  0.68392000  0.65177000  0.62393000  1.0
  N  N166  1  0.18393000  0.84822000  0.12394000  1.0
  N  N167  1  0.31609000  0.34822000  0.37607000  1.0
  N  N168  1  0.93823000  0.30651000  0.62081000  1.0
  N  N169  1  0.56178000  0.80650000  0.87918000  1.0
  N  N170  1  0.06178000  0.69349000  0.37920000  1.0
  N  N171  1  0.43821000  0.19349000  0.12081000  1.0
  N  N172  1  0.97892000  0.59838000  0.91741000  1.0
  N  N173  1  0.52108000  0.09837000  0.58260000  1.0
  N  N174  1  0.02107000  0.40162000  0.08261000  1.0
  N  N175  1  0.47891000  0.90163000  0.41739000  1.0
  O  O176  1  0.92550000  0.85778000  0.81004000  1.0
  O  O177  1  0.57450000  0.35778000  0.68996000  1.0
  O  O178  1  0.07449000  0.14221000  0.18997000  1.0
  O  O179  1  0.42551000  0.64221000  0.31003000  1.0
  O  O180  1  0.91548000  0.05174000  0.73085000  1.0
  O  O181  1  0.58453000  0.55173000  0.76915000  1.0
  O  O182  1  0.08452000  0.94827000  0.26915000  1.0
  O  O183  1  0.41547000  0.44826000  0.23085000  1.0
  O  O184  1  0.86376000  0.44475000  0.70423000  1.0
  O  O185  1  0.63623000  0.94475000  0.79576000  1.0
  O  O186  1  0.13625000  0.55526000  0.29577000  1.0
  O  O187  1  0.36377000  0.05525000  0.20424000  1.0
  O  O188  1  0.93040000  0.61469000  0.06079000  1.0
  O  O189  1  0.56961000  0.11468000  0.43922000  1.0
  O  O190  1  0.06959000  0.38532000  0.93923000  1.0
  O  O191  1  0.43039000  0.88532000  0.56077000  1.0
