# generated using pymatgen
data_SmH8C7NO8
_symmetry_space_group_name_H-M   'P 1'
_cell_length_a   7.71406000
_cell_length_b   9.20478000
_cell_length_c   15.50090000
_cell_angle_alpha   100.99600000
_cell_angle_beta   89.99970000
_cell_angle_gamma   89.99960000
_symmetry_Int_Tables_number   1
_chemical_formula_structural   SmH8C7NO8
_chemical_formula_sum   'Sm4 H32 C28 N4 O32'
_cell_volume   1080.45282395
_cell_formula_units_Z   4
loop_
 _symmetry_equiv_pos_site_id
 _symmetry_equiv_pos_as_xyz
  1  'x, y, z'
loop_
 _atom_site_type_symbol
 _atom_site_label
 _atom_site_symmetry_multiplicity
 _atom_site_fract_x
 _atom_site_fract_y
 _atom_site_fract_z
 _atom_site_occupancy
  Sm  Sm0  1  0.82430000  0.98920000  0.74757000  1.0
  Sm  Sm1  1  0.32430000  0.51080000  0.75243000  1.0
  Sm  Sm2  1  0.17570000  0.01079000  0.25242000  1.0
  Sm  Sm3  1  0.67570000  0.48921000  0.24757000  1.0
  H  H4  1  0.07782000  0.14729000  0.89832000  1.0
  H  H5  1  0.57783000  0.35271000  0.60168000  1.0
  H  H6  1  0.92218000  0.85271000  0.10168000  1.0
  H  H7  1  0.42218000  0.64730000  0.39832000  1.0
  H  H8  1  0.11994000  0.18012000  0.80110000  1.0
  H  H9  1  0.61995000  0.31988000  0.69891000  1.0
  H  H10  1  0.88004000  0.81990000  0.19891000  1.0
  H  H11  1  0.38005000  0.68011000  0.30109000  1.0
  H  H12  1  0.54597000  0.98006000  0.58989000  1.0
  H  H13  1  0.04599000  0.51996000  0.91012000  1.0
  H  H14  1  0.45403000  0.01990000  0.41010000  1.0
  H  H15  1  0.95401000  0.48006000  0.08989000  1.0
  H  H16  1  0.68504000  0.09117000  0.56731000  1.0
  H  H17  1  0.18505000  0.40883000  0.93270000  1.0
  H  H18  1  0.31496000  0.90882000  0.43270000  1.0
  H  H19  1  0.81495000  0.59118000  0.06731000  1.0
  H  H20  1  0.49631000  0.84318000  0.78774000  1.0
  H  H21  1  0.99631000  0.65681000  0.71226000  1.0
  H  H22  1  0.50370000  0.15680000  0.21227000  1.0
  H  H23  1  0.00369000  0.34320000  0.28774000  1.0
  H  H24  1  0.48695000  0.81940000  0.68752000  1.0
  H  H25  1  0.98696000  0.68059000  0.81248000  1.0
  H  H26  1  0.51305000  0.18059000  0.31249000  1.0
  H  H27  1  0.01305000  0.31941000  0.18752000  1.0
  H  H28  1  0.50860000  0.38268000  0.01525000  1.0
  H  H29  1  0.00861000  0.11733000  0.48475000  1.0
  H  H30  1  0.49138000  0.61734000  0.98475000  1.0
  H  H31  1  0.99139000  0.88267000  0.51525000  1.0
  H  H32  1  0.73092000  0.01029000  0.10778000  1.0
  H  H33  1  0.23095000  0.48971000  0.39221000  1.0
  H  H34  1  0.26907000  0.98972000  0.89223000  1.0
  H  H35  1  0.76908000  0.51027000  0.60778000  1.0
  C  C36  1  0.62479000  0.20908000  0.91961000  1.0
  C  C37  1  0.12479000  0.29091000  0.58039000  1.0
  C  C38  1  0.37521000  0.79091000  0.08040000  1.0
  C  C39  1  0.87521000  0.70908000  0.41960000  1.0
  C  C40  1  0.57461000  0.27636000  0.00345000  1.0
  C  C41  1  0.07462000  0.22364000  0.49656000  1.0
  C  C42  1  0.42537000  0.72363000  0.99656000  1.0
  C  C43  1  0.92538000  0.77637000  0.50343000  1.0
  C  C44  1  0.61636000  0.20725000  0.07469000  1.0
  C  C45  1  0.11637000  0.29275000  0.42531000  1.0
  C  C46  1  0.38365000  0.79275000  0.92532000  1.0
  C  C47  1  0.88366000  0.70725000  0.57468000  1.0
  C  C48  1  0.69830000  0.06708000  0.05452000  1.0
  C  C49  1  0.19832000  0.43291000  0.44547000  1.0
  C  C50  1  0.30169000  0.93293000  0.94548000  1.0
  C  C51  1  0.80170000  0.56708000  0.55452000  1.0
  C  C52  1  0.74176000  0.00749000  0.96804000  1.0
  C  C53  1  0.24178000  0.49251000  0.53196000  1.0
  C  C54  1  0.25821000  0.99254000  0.03197000  1.0
  C  C55  1  0.75824000  0.50748000  0.46803000  1.0
  C  C56  1  0.59710000  0.28153000  0.84203000  1.0
  C  C57  1  0.09709000  0.21847000  0.65798000  1.0
  C  C58  1  0.40291000  0.71846000  0.15798000  1.0
  C  C59  1  0.90289000  0.78154000  0.34202000  1.0
  C  C60  1  0.83595000  0.86140000  0.94015000  1.0
  C  C61  1  0.33596000  0.63862000  0.55985000  1.0
  C  C62  1  0.16405000  0.13864000  0.05986000  1.0
  C  C63  1  0.66406000  0.36138000  0.44015000  1.0
  N  N64  1  0.70739000  0.07793000  0.90127000  1.0
  N  N65  1  0.20740000  0.42207000  0.59872000  1.0
  N  N66  1  0.29262000  0.92207000  0.09872000  1.0
  N  N67  1  0.79261000  0.57792000  0.40126000  1.0
  O  O68  1  0.05941000  0.11076000  0.83405000  1.0
  O  O69  1  0.55941000  0.38923000  0.66595000  1.0
  O  O70  1  0.94059000  0.88924000  0.16595000  1.0
  O  O71  1  0.44060000  0.61077000  0.33405000  1.0
  O  O72  1  0.66560000  0.01233000  0.60044000  1.0
  O  O73  1  0.16561000  0.48766000  0.89956000  1.0
  O  O74  1  0.33439000  0.98765000  0.39957000  1.0
  O  O75  1  0.83438000  0.51234000  0.10043000  1.0
  O  O76  1  0.54042000  0.88968000  0.73798000  1.0
  O  O77  1  0.04041000  0.61031000  0.76201000  1.0
  O  O78  1  0.45959000  0.11031000  0.26202000  1.0
  O  O79  1  0.95959000  0.38969000  0.23798000  1.0
  O  O80  1  0.68114000  0.22651000  0.77181000  1.0
  O  O81  1  0.18116000  0.27350000  0.72819000  1.0
  O  O82  1  0.31881000  0.77350000  0.22819000  1.0
  O  O83  1  0.81881000  0.72651000  0.27181000  1.0
  O  O84  1  0.49641000  0.39132000  0.84919000  1.0
  O  O85  1  0.99635000  0.10871000  0.65080000  1.0
  O  O86  1  0.50362000  0.60867000  0.15080000  1.0
  O  O87  1  0.00359000  0.89133000  0.34920000  1.0
  O  O88  1  0.87282000  0.82886000  0.85774000  1.0
  O  O89  1  0.37281000  0.67113000  0.64227000  1.0
  O  O90  1  0.12721000  0.17113000  0.14228000  1.0
  O  O91  1  0.62720000  0.32885000  0.35773000  1.0
  O  O92  1  0.87431000  0.78158000  0.99516000  1.0
  O  O93  1  0.37431000  0.71842000  0.50483000  1.0
  O  O94  1  0.12569000  0.21841000  0.00482000  1.0
  O  O95  1  0.62570000  0.28158000  0.49516000  1.0
  O  O96  1  0.58074000  0.27063000  0.15613000  1.0
  O  O97  1  0.08075000  0.22936000  0.34387000  1.0
  O  O98  1  0.41925000  0.72936000  0.84387000  1.0
  O  O99  1  0.91926000  0.77064000  0.65613000  1.0
