# generated using pymatgen
data_CaH18(C6O7)2
_symmetry_space_group_name_H-M   'P 1'
_cell_length_a   6.34986000
_cell_length_b   8.24783000
_cell_length_c   15.82900000
_cell_angle_alpha   89.99980000
_cell_angle_beta   89.99980000
_cell_angle_gamma   71.65400000
_symmetry_Int_Tables_number   1
_chemical_formula_structural   CaH18(C6O7)2
_chemical_formula_sum   'Ca2 H36 C24 O28'
_cell_volume   786.86955777
_cell_formula_units_Z   2
loop_
 _symmetry_equiv_pos_site_id
 _symmetry_equiv_pos_as_xyz
  1  'x, y, z'
loop_
 _atom_site_type_symbol
 _atom_site_label
 _atom_site_symmetry_multiplicity
 _atom_site_fract_x
 _atom_site_fract_y
 _atom_site_fract_z
 _atom_site_occupancy
  Ca  Ca0  1  0.47178000  0.78209000  0.24885000  1.0
  Ca  Ca1  1  0.52822000  0.21791000  0.74885000  1.0
  H  H2  1  0.86114000  0.44837000  0.28191000  1.0
  H  H3  1  0.13886000  0.55164000  0.78191000  1.0
  H  H4  1  0.84587000  0.48114000  0.18391000  1.0
  H  H5  1  0.15413000  0.51887000  0.68390000  1.0
  H  H6  1  0.02929000  0.98770000  0.15790000  1.0
  H  H7  1  0.97071000  0.01230000  0.65790000  1.0
  H  H8  1  0.96090000  0.91875000  0.24240000  1.0
  H  H9  1  0.03910000  0.08125000  0.74240000  1.0
  H  H10  1  0.77547000  0.34699000  0.91109000  1.0
  H  H11  1  0.22453000  0.65301000  0.41109000  1.0
  H  H12  1  0.99627000  0.70296000  0.11874000  1.0
  H  H13  1  0.00372000  0.29704000  0.61873000  1.0
  H  H14  1  0.41470000  0.44841000  0.04100000  1.0
  H  H15  1  0.58530000  0.55159000  0.54100000  1.0
  H  H16  1  0.38912000  0.74971000  0.06126000  1.0
  H  H17  1  0.61088000  0.25029000  0.56126000  1.0
  H  H18  1  0.26857000  0.34355000  0.17525000  1.0
  H  H19  1  0.73143000  0.65645000  0.67525000  1.0
  H  H20  1  0.54698000  0.34942000  0.17660000  1.0
  H  H21  1  0.45301000  0.65058000  0.67660000  1.0
  H  H22  1  0.21172000  0.52319000  0.28334000  1.0
  H  H23  1  0.78828000  0.47682000  0.78333000  1.0
  H  H24  1  0.91286000  0.21328000  0.06446000  1.0
  H  H25  1  0.08713000  0.78672000  0.56445000  1.0
  H  H26  1  0.23558000  0.22040000  0.98350000  1.0
  H  H27  1  0.76442000  0.77960000  0.48349000  1.0
  H  H28  1  0.15736000  0.97792000  0.91521000  1.0
  H  H29  1  0.84264000  0.02209000  0.41521000  1.0
  H  H30  1  0.10202000  0.24650000  0.84949000  1.0
  H  H31  1  0.89798000  0.75350000  0.34949000  1.0
  H  H32  1  0.55592000  0.78080000  0.90449000  1.0
  H  H33  1  0.44408000  0.21920000  0.40449000  1.0
  H  H34  1  0.38795000  0.79914000  0.81274000  1.0
  H  H35  1  0.61205000  0.20086000  0.31273000  1.0
  H  H36  1  0.77742000  0.85577000  0.81799000  1.0
  H  H37  1  0.22258000  0.14423000  0.31799000  1.0
  C  C38  1  0.02324000  0.64712000  0.92669000  1.0
  C  C39  1  0.97676000  0.35287000  0.42669000  1.0
  C  C40  1  0.95770000  0.50458000  0.95264000  1.0
  C  C41  1  0.04230000  0.49541000  0.45263000  1.0
  C  C42  1  0.97989000  0.48781000  0.03971000  1.0
  C  C43  1  0.02011000  0.51220000  0.53972000  1.0
  C  C44  1  0.08905000  0.61701000  0.06903000  1.0
  C  C45  1  0.91095000  0.38299000  0.56902000  1.0
  C  C46  1  0.33360000  0.53341000  0.09356000  1.0
  C  C47  1  0.66639000  0.46659000  0.59356000  1.0
  C  C48  1  0.37146000  0.42845000  0.17465000  1.0
  C  C49  1  0.62853000  0.57155000  0.67465000  1.0
  C  C50  1  0.59981000  0.98856000  0.07890000  1.0
  C  C51  1  0.40019000  0.01144000  0.57890000  1.0
  C  C52  1  0.71205000  0.08279000  0.03069000  1.0
  C  C53  1  0.28795000  0.91721000  0.53069000  1.0
  C  C54  1  0.58398000  0.15309000  0.96090000  1.0
  C  C55  1  0.41602000  0.84691000  0.46090000  1.0
  C  C56  1  0.37247000  0.10454000  0.96729000  1.0
  C  C57  1  0.62753000  0.89546000  0.46729000  1.0
  C  C58  1  0.29499000  0.02050000  0.89216000  1.0
  C  C59  1  0.70502000  0.97950000  0.39216000  1.0
  C  C60  1  0.47030000  0.86846000  0.85386000  1.0
  C  C61  1  0.52971000  0.13154000  0.35385000  1.0
  O  O62  1  0.80632000  0.54026000  0.23942000  1.0
  O  O63  1  0.19368000  0.45974000  0.73941000  1.0
  O  O64  1  0.08711000  0.94005000  0.21365000  1.0
  O  O65  1  0.91289000  0.05996000  0.71365000  1.0
  O  O66  1  0.02334000  0.71027000  0.85469000  1.0
  O  O67  1  0.97667000  0.28973000  0.35469000  1.0
  O  O68  1  0.89464000  0.40625000  0.89428000  1.0
  O  O69  1  0.10536000  0.59374000  0.39428000  1.0
  O  O70  1  0.93123000  0.38407000  0.09099000  1.0
  O  O71  1  0.06876000  0.61593000  0.59098000  1.0
  O  O72  1  0.09326000  0.71986000  0.99447000  1.0
  O  O73  1  0.90673000  0.28014000  0.49447000  1.0
  O  O74  1  0.43922000  0.66189000  0.10504000  1.0
  O  O75  1  0.56077000  0.33811000  0.60504000  1.0
  O  O76  1  0.32794000  0.53913000  0.24657000  1.0
  O  O77  1  0.67206000  0.46087000  0.74657000  1.0
  O  O78  1  0.65238000  0.91020000  0.14651000  1.0
  O  O79  1  0.34763000  0.08980000  0.64652000  1.0
  O  O80  1  0.91490000  0.08962000  0.05510000  1.0
  O  O81  1  0.08510000  0.91038000  0.55510000  1.0
  O  O82  1  0.61224000  0.25462000  0.90227000  1.0
  O  O83  1  0.38776000  0.74538000  0.40227000  1.0
  O  O84  1  0.40410000  0.99185000  0.03973000  1.0
  O  O85  1  0.59591000  0.00815000  0.53973000  1.0
  O  O86  1  0.21977000  0.14532000  0.82606000  1.0
  O  O87  1  0.78024000  0.85468000  0.32606000  1.0
  O  O88  1  0.62314000  0.92701000  0.80589000  1.0
  O  O89  1  0.37686000  0.07299000  0.30589000  1.0
