# generated using pymatgen
data_Ag2H20C13(N5O2)2
_symmetry_space_group_name_H-M   'P 1'
_cell_length_a   7.15286000
_cell_length_b   11.63680000
_cell_length_c   12.69820000
_cell_angle_alpha   62.82650000
_cell_angle_beta   74.25450000
_cell_angle_gamma   75.93130000
_symmetry_Int_Tables_number   1
_chemical_formula_structural   Ag2H20C13(N5O2)2
_chemical_formula_sum   'Ag4 H40 C26 N20 O8'
_cell_volume   896.20507226
_cell_formula_units_Z   2
loop_
 _symmetry_equiv_pos_site_id
 _symmetry_equiv_pos_as_xyz
  1  'x, y, z'
loop_
 _atom_site_type_symbol
 _atom_site_label
 _atom_site_symmetry_multiplicity
 _atom_site_fract_x
 _atom_site_fract_y
 _atom_site_fract_z
 _atom_site_occupancy
  Ag  Ag0  1  0.03286000  0.45917000  0.67359000  1.0
  Ag  Ag1  1  0.96714000  0.54083000  0.32641000  1.0
  Ag  Ag2  1  0.24874000  0.59338000  0.43923000  1.0
  Ag  Ag3  1  0.75126000  0.40662000  0.56077000  1.0
  H  H4  1  0.91760000  0.28170000  0.28715000  1.0
  H  H5  1  0.08240000  0.71830000  0.71286000  1.0
  H  H6  1  0.00055000  0.11805000  0.30053000  1.0
  H  H7  1  0.99944000  0.88195000  0.69948000  1.0
  H  H8  1  0.74672000  0.18317000  0.30821000  1.0
  H  H9  1  0.25328000  0.81683000  0.69179000  1.0
  H  H10  1  0.54416000  0.80040000  0.81798000  1.0
  H  H11  1  0.45584000  0.19960000  0.18202000  1.0
  H  H12  1  0.35761000  0.93418000  0.82035000  1.0
  H  H13  1  0.64239000  0.06582000  0.17965000  1.0
  H  H14  1  0.60381000  0.93898000  0.82076000  1.0
  H  H15  1  0.39619000  0.06102000  0.17924000  1.0
  H  H16  1  0.85901000  0.96154000  0.51065000  1.0
  H  H17  1  0.14099000  0.03847000  0.48935000  1.0
  H  H18  1  0.66651000  0.87117000  0.61131000  1.0
  H  H19  1  0.33349000  0.12884000  0.38869000  1.0
  H  H20  1  0.59467000  0.02376000  0.40335000  1.0
  H  H21  1  0.40533000  0.97624000  0.59665000  1.0
  H  H22  1  0.78790000  0.93422000  0.34095000  1.0
  H  H23  1  0.21210000  0.06578000  0.65905000  1.0
  H  H24  1  0.42776000  0.81658000  0.52488000  1.0
  H  H25  1  0.57224000  0.18342000  0.47512000  1.0
  H  H26  1  0.45055000  0.88154000  0.36717000  1.0
  H  H27  1  0.54945000  0.11846000  0.63283000  1.0
  H  H28  1  0.17979000  0.19680000  0.80766000  1.0
  H  H29  1  0.82021000  0.80320000  0.19234000  1.0
  H  H30  1  0.22053000  0.06800000  0.94965000  1.0
  H  H31  1  0.77947000  0.93200000  0.05035000  1.0
  H  H32  1  0.67445000  0.59219000  0.94899000  1.0
  H  H33  1  0.32555000  0.40781000  0.05101000  1.0
  H  H34  1  0.76824000  0.58375000  0.80686000  1.0
  H  H35  1  0.23175000  0.41625000  0.19314000  1.0
  H  H36  1  0.66244000  0.46863000  0.17338000  1.0
  H  H37  1  0.33755000  0.53137000  0.82662000  1.0
  H  H38  1  0.53667000  0.46794000  0.31587000  1.0
  H  H39  1  0.46333000  0.53206000  0.68413000  1.0
  H  H40  1  0.12052000  0.99406000  0.17034000  1.0
  H  H41  1  0.87948000  0.00593000  0.82966000  1.0
  H  H42  1  0.13438000  0.85834000  0.31315000  1.0
  H  H43  1  0.86562000  0.14166000  0.68685000  1.0
  C  C44  1  0.04778000  0.23458000  0.95542000  1.0
  C  C45  1  0.95222000  0.76542000  0.04458000  1.0
  C  C46  1  0.91819000  0.25672000  0.13138000  1.0
  C  C47  1  0.08181000  0.74328000  0.86862000  1.0
  C  C48  1  0.84975000  0.42324000  0.95448000  1.0
  C  C49  1  0.15025000  0.57676000  0.04553000  1.0
  C  C50  1  0.89633000  0.20597000  0.26478000  1.0
  C  C51  1  0.10367000  0.79403000  0.73522000  1.0
  C  C52  1  0.29483000  0.82827000  0.16459000  1.0
  C  C53  1  0.70518000  0.17173000  0.83541000  1.0
  C  C54  1  0.45074000  0.81344000  0.98814000  1.0
  C  C55  1  0.54926000  0.18655000  0.01186000  1.0
  C  C56  1  0.49011000  0.63850000  0.16657000  1.0
  C  C57  1  0.50989000  0.36150000  0.83343000  1.0
  C  C58  1  0.49119000  0.87469000  0.85346000  1.0
  C  C59  1  0.50881000  0.12531000  0.14654000  1.0
  C  C60  1  0.91502000  0.75840000  0.54854000  1.0
  C  C61  1  0.08498000  0.24160000  0.45146000  1.0
  C  C62  1  0.77602000  0.88448000  0.52872000  1.0
  C  C63  1  0.22398000  0.11553000  0.47128000  1.0
  C  C64  1  0.67578000  0.92591000  0.42172000  1.0
  C  C65  1  0.32423000  0.07409000  0.57828000  1.0
  C  C66  1  0.53487000  0.83558000  0.44063000  1.0
  C  C67  1  0.46513000  0.16442000  0.55937000  1.0
  C  C68  1  0.63901000  0.70599000  0.43947000  1.0
  C  C69  1  0.36100000  0.29400000  0.56053000  1.0
  N  N70  1  0.96406000  0.35675000  0.88998000  1.0
  N  N71  1  0.03594000  0.64325000  0.11002000  1.0
  N  N72  1  0.02639000  0.18004000  0.07819000  1.0
  N  N73  1  0.97361000  0.81996000  0.92181000  1.0
  N  N74  1  0.82468000  0.37618000  0.07648000  1.0
  N  N75  1  0.17531000  0.62382000  0.92352000  1.0
  N  N76  1  0.15907000  0.16146000  0.89940000  1.0
  N  N77  1  0.84093000  0.83854000  0.10060000  1.0
  N  N78  1  0.75483000  0.54177000  0.89826000  1.0
  N  N79  1  0.24516000  0.45823000  0.10174000  1.0
  N  N80  1  0.36595000  0.70278000  0.23051000  1.0
  N  N81  1  0.63405000  0.29722000  0.76949000  1.0
  N  N82  1  0.33491000  0.88766000  0.04229000  1.0
  N  N83  1  0.66509000  0.11233000  0.95771000  1.0
  N  N84  1  0.53319000  0.69075000  0.04383000  1.0
  N  N85  1  0.46681000  0.30925000  0.95617000  1.0
  N  N86  1  0.57666000  0.51741000  0.22453000  1.0
  N  N87  1  0.42334000  0.48259000  0.77547000  1.0
  N  N88  1  0.17883000  0.90001000  0.22140000  1.0
  N  N89  1  0.82117000  0.09999000  0.77860000  1.0
  O  O90  1  0.08000000  0.76531000  0.47766000  1.0
  O  O91  1  0.92001000  0.23469000  0.52234000  1.0
  O  O92  1  0.85399000  0.65425000  0.63334000  1.0
  O  O93  1  0.14601000  0.34575000  0.36665000  1.0
  O  O94  1  0.79135000  0.71058000  0.35810000  1.0
  O  O95  1  0.20865000  0.28942000  0.64190000  1.0
  O  O96  1  0.56781000  0.60314000  0.51760000  1.0
  O  O97  1  0.43219000  0.39686000  0.48240000  1.0
