# generated using pymatgen
data_MgH6C8O5
_symmetry_space_group_name_H-M   'P 1'
_cell_length_a   6.92262000
_cell_length_b   9.64830000
_cell_length_c   11.82520000
_cell_angle_alpha   90.00000000
_cell_angle_beta   90.00140000
_cell_angle_gamma   90.00000000
_symmetry_Int_Tables_number   1
_chemical_formula_structural   MgH6C8O5
_chemical_formula_sum   'Mg4 H24 C32 O20'
_cell_volume   789.82301757
_cell_formula_units_Z   4
loop_
 _symmetry_equiv_pos_site_id
 _symmetry_equiv_pos_as_xyz
  1  'x, y, z'
loop_
 _atom_site_type_symbol
 _atom_site_label
 _atom_site_symmetry_multiplicity
 _atom_site_fract_x
 _atom_site_fract_y
 _atom_site_fract_z
 _atom_site_occupancy
  Mg  Mg0  1  0.95722000  0.77427000  0.79393000  1.0
  Mg  Mg1  1  0.04277000  0.22574000  0.29392000  1.0
  Mg  Mg2  1  0.54277000  0.27426000  0.29392000  1.0
  Mg  Mg3  1  0.45722000  0.72573000  0.79393000  1.0
  H  H4  1  0.18421000  0.68129000  0.13975000  1.0
  H  H5  1  0.81572000  0.31875000  0.63969000  1.0
  H  H6  1  0.31571000  0.18125000  0.63969000  1.0
  H  H7  1  0.68421000  0.81872000  0.13975000  1.0
  H  H8  1  0.24496000  0.50521000  0.16465000  1.0
  H  H9  1  0.75504000  0.49484000  0.66464000  1.0
  H  H10  1  0.25504000  0.00516000  0.66464000  1.0
  H  H11  1  0.74496000  0.99480000  0.16465000  1.0
  H  H12  1  0.09548000  0.59215000  0.26195000  1.0
  H  H13  1  0.90448000  0.40783000  0.76191000  1.0
  H  H14  1  0.40448000  0.09217000  0.76191000  1.0
  H  H15  1  0.59548000  0.90785000  0.26195000  1.0
  H  H16  1  0.18995000  0.39596000  0.85205000  1.0
  H  H17  1  0.81011000  0.60407000  0.35215000  1.0
  H  H18  1  0.31010000  0.89593000  0.35214000  1.0
  H  H19  1  0.68995000  0.10404000  0.85204000  1.0
  H  H20  1  0.28305000  0.31920000  0.97963000  1.0
  H  H21  1  0.71692000  0.68082000  0.47971000  1.0
  H  H22  1  0.21694000  0.81918000  0.47972000  1.0
  H  H23  1  0.78308000  0.18082000  0.97962000  1.0
  H  H24  1  0.41047000  0.29853000  0.84805000  1.0
  H  H25  1  0.58961000  0.70152000  0.34809000  1.0
  H  H26  1  0.08960000  0.79847000  0.34810000  1.0
  H  H27  1  0.91049000  0.20146000  0.84803000  1.0
  C  C28  1  0.74092000  0.57260000  0.93104000  1.0
  C  C29  1  0.25909000  0.42741000  0.43105000  1.0
  C  C30  1  0.75908000  0.07259000  0.43105000  1.0
  C  C31  1  0.24092000  0.92740000  0.93105000  1.0
  C  C32  1  0.91773000  0.60574000  0.00037000  1.0
  C  C33  1  0.08228000  0.39425000  0.50037000  1.0
  C  C34  1  0.58227000  0.10575000  0.50037000  1.0
  C  C35  1  0.41773000  0.89426000  0.00038000  1.0
  C  C36  1  0.95338000  0.54135000  0.10585000  1.0
  C  C37  1  0.04659000  0.45865000  0.60583000  1.0
  C  C38  1  0.54658000  0.04135000  0.60583000  1.0
  C  C39  1  0.45338000  0.95865000  0.10585000  1.0
  C  C40  1  0.81584000  0.44705000  0.14436000  1.0
  C  C41  1  0.18415000  0.55298000  0.64436000  1.0
  C  C42  1  0.68415000  0.94702000  0.64436000  1.0
  C  C43  1  0.31584000  0.05294000  0.14436000  1.0
  C  C44  1  0.62369000  0.42662000  0.08153000  1.0
  C  C45  1  0.37631000  0.57340000  0.58155000  1.0
  C  C46  1  0.87630000  0.92661000  0.58154000  1.0
  C  C47  1  0.12368000  0.07338000  0.08154000  1.0
  C  C48  1  0.59336000  0.49192000  0.97582000  1.0
  C  C49  1  0.40663000  0.50809000  0.47581000  1.0
  C  C50  1  0.90663000  0.99190000  0.47581000  1.0
  C  C51  1  0.09336000  0.00809000  0.97582000  1.0
  C  C52  1  0.12888000  0.58219000  0.17163000  1.0
  C  C53  1  0.87109000  0.41784000  0.67160000  1.0
  C  C54  1  0.37109000  0.08216000  0.67160000  1.0
  C  C55  1  0.62888000  0.91782000  0.17163000  1.0
  C  C56  1  0.32044000  0.36851000  0.89913000  1.0
  C  C57  1  0.67959000  0.63153000  0.39919000  1.0
  C  C58  1  0.17958000  0.86847000  0.39919000  1.0
  C  C59  1  0.82045000  0.13150000  0.89912000  1.0
  O  O60  1  0.72857000  0.63478000  0.83482000  1.0
  O  O61  1  0.27145000  0.36521000  0.33482000  1.0
  O  O62  1  0.77144000  0.13479000  0.33482000  1.0
  O  O63  1  0.22857000  0.86522000  0.83482000  1.0
  O  O64  1  0.02493000  0.69797000  0.95787000  1.0
  O  O65  1  0.97512000  0.30199000  0.45788000  1.0
  O  O66  1  0.47511000  0.19801000  0.45788000  1.0
  O  O67  1  0.52493000  0.80203000  0.95787000  1.0
  O  O68  1  0.82770000  0.37639000  0.23689000  1.0
  O  O69  1  0.17228000  0.62362000  0.73686000  1.0
  O  O70  1  0.67228000  0.87638000  0.73686000  1.0
  O  O71  1  0.32770000  0.12362000  0.23689000  1.0
  O  O72  1  0.49959000  0.35159000  0.13148000  1.0
  O  O73  1  0.50038000  0.64838000  0.63149000  1.0
  O  O74  1  0.00039000  0.85161000  0.63149000  1.0
  O  O75  1  0.99959000  0.14841000  0.13148000  1.0
  O  O76  1  0.42009000  0.49759000  0.91832000  1.0
  O  O77  1  0.57991000  0.50245000  0.41833000  1.0
  O  O78  1  0.07990000  0.99755000  0.41833000  1.0
  O  O79  1  0.92009000  0.00241000  0.91832000  1.0
