# generated using pymatgen
data_Zn4H57C63N3O19
_symmetry_space_group_name_H-M   'P 1'
_cell_length_a   17.89450000
_cell_length_b   18.04900000
_cell_length_c   18.13710000
_cell_angle_alpha   64.85220000
_cell_angle_beta   64.72230000
_cell_angle_gamma   64.71230000
_symmetry_Int_Tables_number   1
_chemical_formula_structural   Zn4H57C63N3O19
_chemical_formula_sum   'Zn8 H114 C126 N6 O38'
_cell_volume   4573.78333958
_cell_formula_units_Z   2
loop_
 _symmetry_equiv_pos_site_id
 _symmetry_equiv_pos_as_xyz
  1  'x, y, z'
loop_
 _atom_site_type_symbol
 _atom_site_label
 _atom_site_symmetry_multiplicity
 _atom_site_fract_x
 _atom_site_fract_y
 _atom_site_fract_z
 _atom_site_occupancy
  Zn  Zn0  1  0.94008000  0.97942000  0.95781000  1.0
  Zn  Zn1  1  0.11061000  0.00757000  0.94453000  1.0
  Zn  Zn2  1  0.97054000  0.96368000  0.12616000  1.0
  Zn  Zn3  1  0.92568000  0.14642000  0.98947000  1.0
  Zn  Zn4  1  0.53625000  0.57324000  0.55496000  1.0
  Zn  Zn5  1  0.36290000  0.57248000  0.54344000  1.0
  Zn  Zn6  1  0.52406000  0.40189000  0.55233000  1.0
  Zn  Zn7  1  0.53450000  0.56190000  0.38317000  1.0
  H  H8  1  0.11663000  0.90817000  0.72066000  1.0
  H  H9  1  0.20902000  0.92961000  0.71333000  1.0
  H  H10  1  0.23312000  0.78965000  0.83652000  1.0
  H  H11  1  0.15441000  0.76629000  0.82187000  1.0
  H  H12  1  0.24459000  0.78463000  0.66508000  1.0
  H  H13  1  0.34198000  0.64517000  0.79148000  1.0
  H  H14  1  0.25087000  0.64130000  0.77763000  1.0
  H  H15  1  0.37244000  0.80265000  0.71444000  1.0
  H  H16  1  0.41064000  0.97175000  0.45856000  1.0
  H  H17  1  0.48885000  0.87137000  0.45084000  1.0
  H  H18  1  0.56232000  0.97588000  0.39981000  1.0
  H  H19  1  0.63534000  0.77448000  0.48205000  1.0
  H  H20  1  0.75855000  0.69761000  0.54360000  1.0
  H  H21  1  0.79410000  0.76813000  0.60936000  1.0
  H  H22  1  0.70362000  0.91597000  0.61982000  1.0
  H  H23  1  0.59090000  0.06843000  0.61542000  1.0
  H  H24  1  0.47278000  0.20606000  0.59237000  1.0
  H  H25  1  0.37448000  0.22944000  0.51562000  1.0
  H  H26  1  0.39458000  0.11790000  0.45722000  1.0
  H  H27  1  0.86243000  0.74507000  0.13074000  1.0
  H  H28  1  0.89222000  0.73230000  0.21906000  1.0
  H  H29  1  0.75332000  0.85700000  0.25169000  1.0
  H  H30  1  0.72148000  0.84544000  0.17783000  1.0
  H  H31  1  0.74377000  0.68637000  0.26422000  1.0
  H  H32  1  0.60739000  0.81114000  0.36520000  1.0
  H  H33  1  0.59874000  0.79965000  0.27639000  1.0
  H  H34  1  0.76677000  0.73238000  0.39022000  1.0
  H  H35  1  0.94495000  0.47606000  0.41802000  1.0
  H  H36  1  0.84209000  0.46730000  0.49009000  1.0
  H  H37  1  0.93711000  0.41070000  0.57271000  1.0
  H  H38  1  0.73435000  0.50938000  0.63036000  1.0
  H  H39  1  0.65375000  0.57277000  0.75095000  1.0
  H  H40  1  0.72711000  0.62483000  0.79884000  1.0
  H  H41  1  0.88237000  0.61974000  0.72316000  1.0
  H  H42  1  0.04129000  0.60492000  0.62169000  1.0
  H  H43  1  0.18435000  0.57494000  0.51180000  1.0
  H  H44  1  0.20945000  0.50238000  0.41020000  1.0
  H  H45  1  0.09264000  0.45723000  0.41708000  1.0
  H  H46  1  0.70371000  0.15742000  0.88171000  1.0
  H  H47  1  0.69599000  0.24826000  0.90464000  1.0
  H  H48  1  0.82316000  0.27148000  0.76720000  1.0
  H  H49  1  0.80898000  0.19411000  0.74219000  1.0
  H  H50  1  0.64936000  0.28418000  0.76180000  1.0
  H  H51  1  0.77823000  0.37860000  0.62030000  1.0
  H  H52  1  0.76178000  0.28858000  0.61838000  1.0
  H  H53  1  0.69938000  0.41789000  0.76789000  1.0
  H  H54  1  0.44310000  0.45005000  0.94358000  1.0
  H  H55  1  0.43330000  0.53145000  0.84629000  1.0
  H  H56  1  0.38434000  0.59637000  0.95686000  1.0
  H  H57  1  0.46273000  0.67705000  0.75582000  1.0
  H  H58  1  0.52163000  0.80170000  0.68361000  1.0
  H  H59  1  0.58636000  0.83539000  0.75705000  1.0
  H  H60  1  0.60060000  0.74061000  0.90160000  1.0
  H  H61  1  0.60424000  0.62126000  0.04790000  1.0
  H  H62  1  0.59056000  0.49633000  0.17811000  1.0
  H  H63  1  0.51989000  0.39502000  0.19492000  1.0
  H  H64  1  0.45525000  0.42144000  0.08583000  1.0
  H  H65  1  0.27729000  0.90098000  0.11099000  1.0
  H  H66  1  0.18548000  0.91726000  0.20129000  1.0
  H  H67  1  0.17827000  0.76803000  0.22488000  1.0
  H  H68  1  0.28456000  0.75023000  0.15264000  1.0
  H  H69  1  0.33070000  0.78432000  0.24746000  1.0
  H  H70  1  0.24719000  0.63881000  0.34280000  1.0
  H  H71  1  0.34574000  0.63355000  0.25595000  1.0
  H  H72  1  0.15719000  0.78176000  0.37241000  1.0
  H  H73  1  0.17312000  0.98938000  0.41616000  1.0
  H  H74  1  0.21495000  0.89294000  0.49077000  1.0
  H  H75  1  0.08452000  0.97785000  0.57024000  1.0
  H  H76  1  0.15588000  0.78015000  0.63583000  1.0
  H  H77  1  0.07924000  0.67041000  0.73457000  1.0
  H  H78  1  0.92770000  0.69847000  0.74555000  1.0
  H  H79  1  0.85150000  0.83260000  0.65379000  1.0
  H  H80  1  0.80377000  0.98102000  0.54107000  1.0
  H  H81  1  0.78089000  0.13004000  0.44503000  1.0
  H  H82  1  0.89540000  0.20175000  0.38354000  1.0
  H  H83  1  0.03536000  0.12303000  0.41750000  1.0
  H  H84  1  0.09426000  0.31048000  0.88913000  1.0
  H  H85  1  0.18834000  0.22054000  0.89833000  1.0
  H  H86  1  0.20316000  0.21921000  0.75027000  1.0
  H  H87  1  0.12765000  0.32344000  0.73900000  1.0
  H  H88  1  0.22751000  0.36925000  0.76699000  1.0
  H  H89  1  0.31634000  0.29126000  0.61886000  1.0
  H  H90  1  0.22833000  0.38869000  0.61904000  1.0
  H  H91  1  0.35257000  0.19701000  0.76148000  1.0
  H  H92  1  0.40072000  0.21474000  0.96468000  1.0
  H  H93  1  0.47721000  0.25476000  0.86889000  1.0
  H  H94  1  0.55671000  0.12720000  0.95382000  1.0
  H  H95  1  0.62244000  0.19484000  0.75624000  1.0
  H  H96  1  0.72601000  0.11529000  0.65018000  1.0
  H  H97  1  0.74173000  0.96301000  0.68305000  1.0
  H  H98  1  0.64802000  0.88877000  0.81756000  1.0
  H  H99  1  0.53003000  0.84475000  0.96474000  1.0
  H  H100  1  0.43205000  0.82492000  0.11306000  1.0
  H  H101  1  0.36753000  0.94132000  0.18075000  1.0
  H  H102  1  0.40065000  0.08082000  0.09894000  1.0
  H  H103  1  0.87290000  0.13228000  0.28780000  1.0
  H  H104  1  0.88424000  0.22340000  0.19645000  1.0
  H  H105  1  0.73106000  0.24435000  0.19903000  1.0
  H  H106  1  0.71894000  0.16992000  0.30279000  1.0
  H  H107  1  0.75534000  0.26559000  0.34600000  1.0
  H  H108  1  0.60145000  0.35635000  0.27367000  1.0
  H  H109  1  0.60300000  0.26949000  0.37027000  1.0
  H  H110  1  0.74638000  0.39091000  0.17628000  1.0
  H  H111  1  0.96096000  0.43293000  0.18420000  1.0
  H  H112  1  0.86575000  0.50855000  0.22794000  1.0
  H  H113  1  0.94973000  0.58785000  0.09886000  1.0
  H  H114  1  0.75160000  0.65545000  0.17371000  1.0
  H  H115  1  0.63933000  0.76023000  0.10098000  1.0
  H  H116  1  0.66370000  0.77599000  0.95139000  1.0
  H  H117  1  0.79533000  0.68236000  0.87298000  1.0
  H  H118  1  0.94239000  0.56666000  0.82285000  1.0
  H  H119  1  0.09297000  0.46981000  0.79544000  1.0
  H  H120  1  0.16954000  0.40527000  0.90530000  1.0
  H  H121  1  0.09390000  0.43554000  0.04550000  1.0
  C  C122  1  0.10701000  0.93520000  0.82929000  1.0
  C  C123  1  0.15900000  0.89739000  0.75590000  1.0
  C  C124  1  0.20305000  0.80098000  0.78929000  1.0
  C  C125  1  0.27236000  0.76555000  0.71633000  1.0
  C  C126  1  0.30643000  0.66666667  0.74593000  1.0
  C  C127  1  0.36371000  0.63318000  0.66984000  1.0
  C  C128  1  0.36431000  0.84799000  0.59307000  1.0
  C  C129  1  0.46299000  0.92028000  0.48364000  1.0
  C  C130  1  0.53340000  0.95470000  0.47005000  1.0
  C  C131  1  0.60585000  0.89176000  0.50873000  1.0
  C  C132  1  0.65285000  0.80753000  0.50767000  1.0
  C  C133  1  0.72114000  0.76366000  0.54372000  1.0
  C  C134  1  0.74069000  0.80351000  0.58178000  1.0
  C  C135  1  0.69088000  0.88638000  0.58682000  1.0
  C  C136  1  0.62315000  0.93067000  0.55030000  1.0
  C  C137  1  0.56024000  0.01619000  0.54728000  1.0
  C  C138  1  0.54885000  0.07889000  0.58036000  1.0
  C  C139  1  0.48183000  0.15579000  0.56825000  1.0
  C  C140  1  0.42673000  0.16931000  0.52440000  1.0
  C  C141  1  0.43800000  0.10662000  0.49119000  1.0
  C  C142  1  0.50497000  0.03043000  0.50246000  1.0
  C  C143  1  0.89471000  0.85085000  0.12179000  1.0
  C  C144  1  0.85614000  0.77766000  0.17311000  1.0
  C  C145  1  0.76059000  0.81101000  0.22228000  1.0
  C  C146  1  0.72666000  0.73729000  0.29169000  1.0
  C  C147  1  0.62724000  0.76655000  0.32926000  1.0
  C  C148  1  0.59477000  0.68947000  0.38555000  1.0
  C  C149  1  0.81617000  0.61257000  0.37550000  1.0
  C  C150  1  0.89080000  0.49950000  0.46977000  1.0
  C  C151  1  0.92123000  0.48132000  0.54395000  1.0
  C  C152  1  0.85613000  0.52216000  0.61379000  1.0
  C  C153  1  0.76840000  0.52927000  0.65288000  1.0
  C  C154  1  0.72254000  0.56630000  0.71987000  1.0
  C  C155  1  0.76408000  0.59650000  0.74651000  1.0
  C  C156  1  0.85098000  0.59303000  0.70477000  1.0
  C  C157  1  0.89701000  0.55640000  0.63778000  1.0
  C  C158  1  0.98640000  0.54686000  0.58162000  1.0
  C  C159  1  0.05211000  0.57208000  0.57786000  1.0
  C  C160  1  0.13236000  0.55565000  0.51578000  1.0
  C  C161  1  0.14650000  0.51470000  0.45835000  1.0
  C  C162  1  0.08085000  0.48911000  0.46214000  1.0
  C  C163  1  0.00101000  0.50536000  0.52375000  1.0
  C  C164  1  0.81217000  0.14590000  0.91233000  1.0
  C  C165  1  0.73958000  0.19855000  0.87263000  1.0
  C  C166  1  0.77547000  0.24216000  0.77708000  1.0
  C  C167  1  0.70196000  0.31127000  0.74160000  1.0
  C  C168  1  0.73115000  0.34395000  0.64326000  1.0
  C  C169  1  0.65287000  0.40119000  0.61202000  1.0
  C  C170  1  0.57897000  0.40159000  0.82607000  1.0
  C  C171  1  0.46791000  0.50299000  0.89420000  1.0
  C  C172  1  0.45556000  0.56935000  0.93219000  1.0
  C  C173  1  0.49183000  0.64367000  0.87220000  1.0
  C  C174  1  0.48852000  0.69339000  0.78970000  1.0
  C  C175  1  0.52286000  0.76259000  0.74858000  1.0
  C  C176  1  0.56062000  0.78093000  0.78986000  1.0
  C  C177  1  0.56772000  0.72873000  0.87102000  1.0
  C  C178  1  0.53386000  0.65948000  0.91208000  1.0
  C  C179  1  0.53504000  0.59299000  0.99432000  1.0
  C  C180  1  0.57103000  0.57851000  0.05598000  1.0
  C  C181  1  0.56446000  0.50734000  0.12855000  1.0
  C  C182  1  0.52357000  0.45105000  0.13866000  1.0
  C  C183  1  0.48694000  0.46575000  0.07725000  1.0
  C  C184  1  0.49225000  0.53708000  0.00564000  1.0
  C  C185  1  0.15634000  0.91380000  0.10250000  1.0
  C  C186  1  0.21825000  0.88276000  0.15285000  1.0
  C  C187  1  0.23812000  0.78628000  0.19845000  1.0
  C  C188  1  0.27499000  0.76029000  0.27123000  1.0
  C  C189  1  0.30442000  0.66180000  0.30852000  1.0
  C  C190  1  0.35634000  0.63412000  0.36812000  1.0
  C  C191  1  0.22394000  0.85572000  0.35994000  1.0
  C  C192  1  0.16029000  0.92979000  0.46407000  1.0
  C  C193  1  0.07444000  0.94894000  0.53363000  1.0
  C  C194  1  0.04471000  0.87055000  0.59361000  1.0
  C  C195  1  0.08866000  0.79324000  0.64136000  1.0
  C  C196  1  0.04611000  0.73102000  0.69579000  1.0
  C  C197  1  0.96074000  0.74637000  0.70093000  1.0
  C  C198  1  0.91742000  0.82225000  0.65039000  1.0
  C  C199  1  0.95980000  0.88445000  0.59627000  1.0
  C  C200  1  0.93094000  0.96929000  0.53793000  1.0
  C  C201  1  0.85373000  0.01213000  0.51626000  1.0
  C  C202  1  0.84166000  0.09579000  0.46101000  1.0
  C  C203  1  0.90621000  0.13604000  0.42614000  1.0
  C  C204  1  0.98475000  0.09189000  0.44576000  1.0
  C  C205  1  0.99690000  0.00889000  0.50148000  1.0
  C  C206  1  0.08599000  0.19139000  0.89930000  1.0
  C  C207  1  0.13622000  0.25352000  0.86788000  1.0
  C  C208  1  0.17713000  0.27704000  0.77088000  1.0
  C  C209  1  0.25065000  0.31494000  0.74193000  1.0
  C  C210  1  0.28373000  0.34674000  0.64367000  1.0
  C  C211  1  0.34539000  0.39725000  0.61445000  1.0
  C  C212  1  0.34539000  0.26450000  0.83147000  1.0
  C  C213  1  0.44971000  0.20099000  0.90580000  1.0
  C  C214  1  0.51971000  0.11605000  0.92584000  1.0
  C  C215  1  0.58129000  0.08468000  0.84892000  1.0
  C  C216  1  0.62951000  0.12744000  0.77118000  1.0
  C  C217  1  0.68678000  0.08319000  0.71114000  1.0
  C  C218  1  0.69429000  0.99728000  0.72909000  1.0
  C  C219  1  0.64267000  0.95526000  0.80510000  1.0
  C  C220  1  0.58555000  0.99941000  0.86511000  1.0
  C  C221  1  0.52564000  0.97231000  0.94971000  1.0
  C  C222  1  0.50416000  0.89566000  0.99423000  1.0
  C  C223  1  0.44765000  0.88532000  0.07736000  1.0
  C  C224  1  0.41108000  0.95114000  0.11545000  1.0
  C  C225  1  0.43021000  0.02919000  0.06957000  1.0
  C  C226  1  0.48726000  0.03957000  0.98707000  1.0
  C  C227  1  0.87913000  0.12236000  0.17159000  1.0
  C  C228  1  0.85094000  0.17357000  0.23143000  1.0
  C  C229  1  0.75309000  0.21732000  0.25596000  1.0
  C  C230  1  0.72783000  0.28959000  0.29333000  1.0
  C  C231  1  0.62842000  0.32386000  0.32751000  1.0
  C  C232  1  0.60047000  0.38508000  0.37742000  1.0
  C  C233  1  0.82310000  0.38008000  0.23928000  1.0
  C  C234  1  0.90044000  0.48220000  0.17356000  1.0
  C  C235  1  0.91879000  0.55244000  0.08929000  1.0
  C  C236  1  0.83887000  0.61464000  0.06220000  1.0
  C  C237  1  0.76255000  0.66294000  0.10741000  1.0
  C  C238  1  0.69915000  0.72073000  0.06704000  1.0
  C  C239  1  0.71232000  0.72841000  0.98262000  1.0
  C  C240  1  0.78679000  0.67690000  0.93820000  1.0
  C  C241  1  0.85028000  0.61959000  0.97840000  1.0
  C  C242  1  0.93482000  0.56030000  0.94787000  1.0
  C  C243  1  0.97572000  0.54014000  0.87082000  1.0
  C  C244  1  0.06014000  0.48448000  0.85619000  1.0
  C  C245  1  0.10307000  0.44771000  0.91823000  1.0
  C  C246  1  0.06072000  0.46539000  0.99684000  1.0
  C  C247  1  0.97688000  0.52141000  0.01150000  1.0
  N  N248  1  0.34181000  0.80433000  0.67750000  1.0
  N  N249  1  0.76973000  0.69703000  0.35735000  1.0
  N  N250  1  0.66350000  0.38116000  0.77879000  1.0
  N  N251  1  0.21177000  0.79984000  0.33712000  1.0
  N  N252  1  0.32027000  0.25266000  0.77721000  1.0
  N  N253  1  0.76455000  0.35756000  0.23027000  1.0
  O  O254  1  0.98684000  0.02404000  0.00434000  1.0
  O  O255  1  0.15105000  0.94326000  0.86385000  1.0
  O  O256  1  0.02487000  0.95342000  0.85201000  1.0
  O  O257  1  0.32381000  0.63585000  0.62454000  1.0
  O  O258  1  0.44567000  0.60791000  0.65587000  1.0
  O  O259  1  0.33247000  0.85691000  0.54059000  1.0
  O  O260  1  0.42841000  0.88149000  0.57389000  1.0
  O  O261  1  0.90354000  0.88509000  0.16526000  1.0
  O  O262  1  0.91305000  0.87363000  0.04082000  1.0
  O  O263  1  0.59648000  0.64464000  0.34599000  1.0
  O  O264  1  0.57143000  0.67431000  0.46638000  1.0
  O  O265  1  0.82538000  0.56184000  0.34145000  1.0
  O  O266  1  0.85202000  0.59084000  0.43798000  1.0
  O  O267  1  0.84709000  0.18851000  0.92205000  1.0
  O  O268  1  0.83399000  0.06456000  0.93068000  1.0
  O  O269  1  0.60513000  0.36238000  0.61680000  1.0
  O  O270  1  0.63923000  0.48230000  0.58691000  1.0
  O  O271  1  0.52698000  0.36466000  0.84334000  1.0
  O  O272  1  0.55901000  0.46996000  0.85299000  1.0
  O  O273  1  0.08528000  0.89502000  0.14296000  1.0
  O  O274  1  0.17915000  0.95669000  0.02397000  1.0
  O  O275  1  0.43711000  0.62444000  0.33368000  1.0
  O  O276  1  0.31488000  0.62459000  0.44744000  1.0
  O  O277  1  0.28783000  0.88125000  0.32776000  1.0
  O  O278  1  0.15283000  0.88009000  0.42413000  1.0
  O  O279  1  0.12744000  0.12156000  0.87932000  1.0
  O  O280  1  0.00657000  0.21308000  0.94316000  1.0
  O  O281  1  0.31135000  0.47698000  0.60709000  1.0
  O  O282  1  0.42607000  0.35573000  0.60163000  1.0
  O  O283  1  0.31518000  0.32878000  0.85518000  1.0
  O  O284  1  0.40925000  0.19323000  0.85648000  1.0
  O  O285  1  0.85703000  0.16235000  0.10319000  1.0
  O  O286  1  0.92299000  0.04348000  0.19340000  1.0
  O  O287  1  0.59229000  0.35150000  0.45683000  1.0
  O  O288  1  0.58869000  0.46479000  0.33599000  1.0
  O  O289  1  0.85073000  0.34809000  0.30103000  1.0
  O  O290  1  0.84739000  0.44377000  0.16820000  1.0
  O  O291  1  0.48967000  0.52757000  0.50844000  1.0
