# generated using pymatgen
data_CdH10C12Br2(NO3)2
_symmetry_space_group_name_H-M   'P 1'
_cell_length_a   8.06480000
_cell_length_b   13.72830000
_cell_length_c   16.42590000
_cell_angle_alpha   89.99870000
_cell_angle_beta   85.42540000
_cell_angle_gamma   89.99930000
_symmetry_Int_Tables_number   1
_chemical_formula_structural   CdH10C12Br2(NO3)2
_chemical_formula_sum   'Cd4 H40 C48 Br8 N8 O24'
_cell_volume   1812.81635871
_cell_formula_units_Z   4
loop_
 _symmetry_equiv_pos_site_id
 _symmetry_equiv_pos_as_xyz
  1  'x, y, z'
loop_
 _atom_site_type_symbol
 _atom_site_label
 _atom_site_symmetry_multiplicity
 _atom_site_fract_x
 _atom_site_fract_y
 _atom_site_fract_z
 _atom_site_occupancy
  Cd  Cd0  1  0.15107000  0.89279000  0.58633000  1.0
  Cd  Cd1  1  0.84895000  0.39279000  0.91367000  1.0
  Cd  Cd2  1  0.84897000  0.10721000  0.41367000  1.0
  Cd  Cd3  1  0.15102000  0.60721000  0.08632000  1.0
  H  H4  1  0.19205000  0.07446000  0.51119000  1.0
  H  H5  1  0.80795000  0.57445000  0.98881000  1.0
  H  H6  1  0.80796000  0.92554000  0.48881000  1.0
  H  H7  1  0.19204000  0.42555000  0.01119000  1.0
  H  H8  1  0.05351000  0.09055000  0.58000000  1.0
  H  H9  1  0.94650000  0.59055000  0.92000000  1.0
  H  H10  1  0.94652000  0.90945000  0.42000000  1.0
  H  H11  1  0.05348000  0.40946000  0.08000000  1.0
  H  H12  1  0.19832000  0.68843000  0.62391000  1.0
  H  H13  1  0.80167000  0.18843000  0.87609000  1.0
  H  H14  1  0.80168000  0.31157000  0.37609000  1.0
  H  H15  1  0.19832000  0.81157000  0.12392000  1.0
  H  H16  1  0.14695000  0.70032000  0.53044000  1.0
  H  H17  1  0.85304000  0.20031000  0.96956000  1.0
  H  H18  1  0.85304000  0.29968000  0.46956000  1.0
  H  H19  1  0.14696000  0.79970000  0.03045000  1.0
  H  H20  1  0.71190000  0.90708000  0.82592000  1.0
  H  H21  1  0.28810000  0.40705000  0.67409000  1.0
  H  H22  1  0.28813000  0.09294000  0.17409000  1.0
  H  H23  1  0.71185000  0.59294000  0.32591000  1.0
  H  H24  1  0.18855000  0.89677000  0.77957000  1.0
  H  H25  1  0.81147000  0.39676000  0.72042000  1.0
  H  H26  1  0.81150000  0.10322000  0.22043000  1.0
  H  H27  1  0.18848000  0.60323000  0.27955000  1.0
  H  H28  1  0.54510000  0.89353000  0.58327000  1.0
  H  H29  1  0.45495000  0.39356000  0.91673000  1.0
  H  H30  1  0.45495000  0.10646000  0.41673000  1.0
  H  H31  1  0.54504000  0.60645000  0.08326000  1.0
  H  H32  1  0.12308000  0.84759000  0.28766000  1.0
  H  H33  1  0.87690000  0.34759000  0.21236000  1.0
  H  H34  1  0.87691000  0.15242000  0.71236000  1.0
  H  H35  1  0.12309000  0.65242000  0.78763000  1.0
  H  H36  1  0.52192000  0.84252000  0.11125000  1.0
  H  H37  1  0.47804000  0.34253000  0.38875000  1.0
  H  H38  1  0.47803000  0.15749000  0.88874000  1.0
  H  H39  1  0.52196000  0.65746000  0.61125000  1.0
  H  H40  1  0.62052000  0.87183000  0.36547000  1.0
  H  H41  1  0.37947000  0.37183000  0.13453000  1.0
  H  H42  1  0.37949000  0.12817000  0.63452000  1.0
  H  H43  1  0.62052000  0.62818000  0.86547000  1.0
  C  C44  1  0.61190000  0.90336000  0.78519000  1.0
  C  C45  1  0.38811000  0.40334000  0.71482000  1.0
  C  C46  1  0.38813000  0.09665000  0.21481000  1.0
  C  C47  1  0.61185000  0.59665000  0.28518000  1.0
  C  C48  1  0.44487000  0.90212000  0.81388000  1.0
  C  C49  1  0.55515000  0.40210000  0.68612000  1.0
  C  C50  1  0.55517000  0.09789000  0.18612000  1.0
  C  C51  1  0.44481000  0.59789000  0.31386000  1.0
  C  C52  1  0.32072000  0.89726000  0.75951000  1.0
  C  C53  1  0.67930000  0.39725000  0.74049000  1.0
  C  C54  1  0.67932000  0.10274000  0.24050000  1.0
  C  C55  1  0.32065000  0.60274000  0.25948000  1.0
  C  C56  1  0.52119000  0.89559000  0.64943000  1.0
  C  C57  1  0.47885000  0.39561000  0.85058000  1.0
  C  C58  1  0.47886000  0.10439000  0.35057000  1.0
  C  C59  1  0.52114000  0.60439000  0.14942000  1.0
  C  C60  1  0.65115000  0.90019000  0.70082000  1.0
  C  C61  1  0.34888000  0.40021000  0.79919000  1.0
  C  C62  1  0.34890000  0.09979000  0.29918000  1.0
  C  C63  1  0.65109000  0.59979000  0.20081000  1.0
  C  C64  1  0.82976000  0.90207000  0.66648000  1.0
  C  C65  1  0.17026000  0.40209000  0.83353000  1.0
  C  C66  1  0.17028000  0.09791000  0.33352000  1.0
  C  C67  1  0.82971000  0.59790000  0.16649000  1.0
  C  C68  1  0.29212000  0.86730000  0.42420000  1.0
  C  C69  1  0.70786000  0.36729000  0.07581000  1.0
  C  C70  1  0.70791000  0.13269000  0.57581000  1.0
  C  C71  1  0.29212000  0.63273000  0.92420000  1.0
  C  C72  1  0.36307000  0.86000000  0.33707000  1.0
  C  C73  1  0.63692000  0.35998000  0.16293000  1.0
  C  C74  1  0.63693000  0.14002000  0.66293000  1.0
  C  C75  1  0.36306000  0.64002000  0.83706000  1.0
  C  C76  1  0.25745000  0.85101000  0.27404000  1.0
  C  C77  1  0.74253000  0.35100000  0.22596000  1.0
  C  C78  1  0.74253000  0.14900000  0.72597000  1.0
  C  C79  1  0.25746000  0.64902000  0.77403000  1.0
  C  C80  1  0.47911000  0.84849000  0.17581000  1.0
  C  C81  1  0.52087000  0.34850000  0.32420000  1.0
  C  C82  1  0.52087000  0.15151000  0.82419000  1.0
  C  C83  1  0.47912000  0.65151000  0.67580000  1.0
  C  C84  1  0.59243000  0.85712000  0.23540000  1.0
  C  C85  1  0.40755000  0.35713000  0.26461000  1.0
  C  C86  1  0.40756000  0.14288000  0.76460000  1.0
  C  C87  1  0.59244000  0.64288000  0.73539000  1.0
  C  C88  1  0.53523000  0.86338000  0.31751000  1.0
  C  C89  1  0.46476000  0.36337000  0.18249000  1.0
  C  C90  1  0.46477000  0.13662000  0.68248000  1.0
  C  C91  1  0.53523000  0.63664000  0.81751000  1.0
  Br  Br92  1  0.38438000  0.91080000  0.92795000  1.0
  Br  Br93  1  0.61562000  0.41076000  0.57205000  1.0
  Br  Br94  1  0.61571000  0.08921000  0.07206000  1.0
  Br  Br95  1  0.38424000  0.58921000  0.42794000  1.0
  Br  Br96  1  0.82126000  0.85749000  0.19971000  1.0
  Br  Br97  1  0.17873000  0.35749000  0.30029000  1.0
  Br  Br98  1  0.17873000  0.14251000  0.80028000  1.0
  Br  Br99  1  0.82127000  0.64251000  0.69971000  1.0
  N  N100  1  0.36054000  0.89398000  0.67848000  1.0
  N  N101  1  0.63950000  0.39399000  0.82152000  1.0
  N  N102  1  0.63951000  0.10600000  0.32153000  1.0
  N  N103  1  0.36048000  0.60601000  0.17846000  1.0
  N  N104  1  0.31474000  0.84601000  0.19521000  1.0
  N  N105  1  0.68523000  0.34601000  0.30480000  1.0
  N  N106  1  0.68524000  0.15400000  0.80480000  1.0
  N  N107  1  0.31477000  0.65399000  0.69520000  1.0
  O  O108  1  0.94406000  0.90490000  0.71464000  1.0
  O  O109  1  0.05598000  0.40491000  0.78536000  1.0
  O  O110  1  0.05600000  0.09510000  0.28535000  1.0
  O  O111  1  0.94398000  0.59509000  0.21466000  1.0
  O  O112  1  0.85700000  0.90037000  0.58857000  1.0
  O  O113  1  0.14302000  0.40040000  0.91144000  1.0
  O  O114  1  0.14302000  0.09961000  0.41143000  1.0
  O  O115  1  0.85698000  0.59958000  0.08858000  1.0
  O  O116  1  0.38970000  0.88349000  0.47923000  1.0
  O  O117  1  0.61029000  0.38350000  0.02078000  1.0
  O  O118  1  0.61035000  0.11650000  0.52077000  1.0
  O  O119  1  0.38969000  0.61650000  0.97922000  1.0
  O  O120  1  0.13478000  0.85652000  0.43876000  1.0
  O  O121  1  0.86520000  0.35653000  0.06124000  1.0
  O  O122  1  0.86524000  0.14348000  0.56126000  1.0
  O  O123  1  0.13478000  0.64348000  0.93876000  1.0
  O  O124  1  0.16641000  0.06165000  0.57030000  1.0
  O  O125  1  0.83360000  0.56164000  0.92970000  1.0
  O  O126  1  0.83362000  0.93835000  0.42970000  1.0
  O  O127  1  0.16639000  0.43835000  0.07030000  1.0
  O  O128  1  0.12086000  0.72230000  0.58636000  1.0
  O  O129  1  0.87913000  0.22230000  0.91364000  1.0
  O  O130  1  0.87914000  0.27770000  0.41364000  1.0
  O  O131  1  0.12087000  0.77770000  0.08636000  1.0
