# generated using pymatgen
data_MgH16C8(BrO)2
_symmetry_space_group_name_H-M   'P 1'
_cell_length_a   3.94318000
_cell_length_b   7.54056000
_cell_length_c   18.29020000
_cell_angle_alpha   90.00000000
_cell_angle_beta   90.00000000
_cell_angle_gamma   90.00000000
_symmetry_Int_Tables_number   1
_chemical_formula_structural   MgH16C8(BrO)2
_chemical_formula_sum   'Mg2 H32 C16 Br4 O4'
_cell_volume   543.83688137
_cell_formula_units_Z   2
loop_
 _symmetry_equiv_pos_site_id
 _symmetry_equiv_pos_as_xyz
  1  'x, y, z'
loop_
 _atom_site_type_symbol
 _atom_site_label
 _atom_site_symmetry_multiplicity
 _atom_site_fract_x
 _atom_site_fract_y
 _atom_site_fract_z
 _atom_site_occupancy
  Mg  Mg0  1  0.00000000  0.00000000  0.00000000  1.0
  Mg  Mg1  1  0.50000000  0.50000000  0.50000000  1.0
  H  H2  1  0.22524000  0.02798000  0.17312000  1.0
  H  H3  1  0.22524000  0.97202000  0.82688000  1.0
  H  H4  1  0.27477000  0.52798000  0.32688000  1.0
  H  H5  1  0.27476000  0.47202000  0.67312000  1.0
  H  H6  1  0.77476000  0.97202000  0.82688000  1.0
  H  H7  1  0.77477000  0.02798000  0.17312000  1.0
  H  H8  1  0.72524000  0.47202000  0.67312000  1.0
  H  H9  1  0.72524000  0.52798000  0.32688000  1.0
  H  H10  1  0.22223000  0.27584000  0.25109000  1.0
  H  H11  1  0.22222000  0.72416000  0.74891000  1.0
  H  H12  1  0.27778000  0.77584000  0.24891000  1.0
  H  H13  1  0.27777000  0.22416000  0.75109000  1.0
  H  H14  1  0.77778000  0.72416000  0.74891000  1.0
  H  H15  1  0.77777000  0.27584000  0.25109000  1.0
  H  H16  1  0.72223000  0.22416000  0.75109000  1.0
  H  H17  1  0.72223000  0.77584000  0.24891000  1.0
  H  H18  1  0.22276000  0.52212000  0.17241000  1.0
  H  H19  1  0.22276000  0.47788000  0.82759000  1.0
  H  H20  1  0.27725000  0.02212000  0.32759000  1.0
  H  H21  1  0.27725000  0.97788000  0.67241000  1.0
  H  H22  1  0.77725000  0.47788000  0.82759000  1.0
  H  H23  1  0.77725000  0.52212000  0.17241000  1.0
  H  H24  1  0.72276000  0.97788000  0.67241000  1.0
  H  H25  1  0.72276000  0.02212000  0.32759000  1.0
  H  H26  1  0.22539000  0.40471000  0.05460000  1.0
  H  H27  1  0.22539000  0.59529000  0.94540000  1.0
  H  H28  1  0.27460000  0.90471000  0.44540000  1.0
  H  H29  1  0.27460000  0.09529000  0.55460000  1.0
  H  H30  1  0.77460000  0.59529000  0.94540000  1.0
  H  H31  1  0.77460000  0.40471000  0.05460000  1.0
  H  H32  1  0.72539000  0.09529000  0.55460000  1.0
  H  H33  1  0.72539000  0.90471000  0.44540000  1.0
  C  C34  1  0.00000000  0.11178000  0.16588000  1.0
  C  C35  1  0.00000000  0.88822000  0.83412000  1.0
  C  C36  1  0.50000000  0.61178000  0.33412000  1.0
  C  C37  1  0.50000000  0.38822000  0.66588000  1.0
  C  C38  1  0.00000000  0.27572000  0.21512000  1.0
  C  C39  1  0.00000000  0.72428000  0.78488000  1.0
  C  C40  1  0.50000000  0.77572000  0.28488000  1.0
  C  C41  1  0.50000000  0.22428000  0.71512000  1.0
  C  C42  1  0.00000000  0.43787000  0.16370000  1.0
  C  C43  1  0.00000000  0.56213000  0.83630000  1.0
  C  C44  1  0.50000000  0.93787000  0.33630000  1.0
  C  C45  1  0.50000000  0.06213000  0.66370000  1.0
  C  C46  1  0.00000000  0.36532000  0.08572000  1.0
  C  C47  1  0.00000000  0.63468000  0.91428000  1.0
  C  C48  1  0.50000000  0.86532000  0.41428000  1.0
  C  C49  1  0.50000000  0.13468000  0.58572000  1.0
  Br  Br50  1  0.50000000  0.19308000  0.93735000  1.0
  Br  Br51  1  0.50000000  0.80692000  0.06265000  1.0
  Br  Br52  1  0.00000000  0.69308000  0.56265000  1.0
  Br  Br53  1  0.00000000  0.30692000  0.43735000  1.0
  O  O54  1  0.00000000  0.17239000  0.09060000  1.0
  O  O55  1  0.00000000  0.82761000  0.90940000  1.0
  O  O56  1  0.50000000  0.67239000  0.40940000  1.0
  O  O57  1  0.50000000  0.32761000  0.59060000  1.0
