# generated using pymatgen
data_ZnH7C7NO6
_symmetry_space_group_name_H-M   'P 1'
_cell_length_a   5.28950000
_cell_length_b   11.41720000
_cell_length_c   13.73040000
_cell_angle_alpha   90.00000000
_cell_angle_beta   93.35020000
_cell_angle_gamma   89.99970000
_symmetry_Int_Tables_number   1
_chemical_formula_structural   ZnH7C7NO6
_chemical_formula_sum   'Zn4 H28 C28 N4 O24'
_cell_volume   827.77932465
_cell_formula_units_Z   4
loop_
 _symmetry_equiv_pos_site_id
 _symmetry_equiv_pos_as_xyz
  1  'x, y, z'
loop_
 _atom_site_type_symbol
 _atom_site_label
 _atom_site_symmetry_multiplicity
 _atom_site_fract_x
 _atom_site_fract_y
 _atom_site_fract_z
 _atom_site_occupancy
  Zn  Zn0  1  0.07688000  0.63622000  0.96740000  1.0
  Zn  Zn1  1  0.42311000  0.13622000  0.53260000  1.0
  Zn  Zn2  1  0.92311000  0.36378000  0.03260000  1.0
  Zn  Zn3  1  0.57689000  0.86378000  0.46740000  1.0
  H  H4  1  0.90520000  0.53887000  0.13718000  1.0
  H  H5  1  0.59478000  0.03887000  0.36283000  1.0
  H  H6  1  0.09479000  0.46112000  0.86283000  1.0
  H  H7  1  0.40522000  0.96113000  0.63718000  1.0
  H  H8  1  0.64750000  0.56882000  0.06904000  1.0
  H  H9  1  0.85249000  0.06882000  0.43096000  1.0
  H  H10  1  0.35249000  0.43118000  0.93096000  1.0
  H  H11  1  0.14752000  0.93118000  0.56904000  1.0
  H  H12  1  0.91092000  0.05539000  0.21204000  1.0
  H  H13  1  0.58909000  0.55540000  0.28796000  1.0
  H  H14  1  0.08910000  0.94461000  0.78797000  1.0
  H  H15  1  0.41091000  0.44461000  0.71204000  1.0
  H  H16  1  0.61774000  0.02155000  0.06735000  1.0
  H  H17  1  0.88226000  0.52155000  0.43265000  1.0
  H  H18  1  0.38228000  0.97845000  0.93265000  1.0
  H  H19  1  0.11773000  0.47845000  0.56735000  1.0
  H  H20  1  0.68458000  0.84315000  0.96164000  1.0
  H  H21  1  0.81542000  0.34316000  0.53836000  1.0
  H  H22  1  0.31542000  0.15685000  0.03836000  1.0
  H  H23  1  0.18458000  0.65684000  0.46164000  1.0
  H  H24  1  0.22584000  0.73900000  0.80795000  1.0
  H  H25  1  0.27416000  0.23900000  0.69205000  1.0
  H  H26  1  0.77416000  0.26100000  0.19205000  1.0
  H  H27  1  0.72583000  0.76100000  0.30795000  1.0
  H  H28  1  0.48229000  0.69160000  0.86339000  1.0
  H  H29  1  0.01772000  0.19160000  0.63661000  1.0
  H  H30  1  0.51772000  0.30840000  0.13661000  1.0
  H  H31  1  0.98228000  0.80840000  0.36339000  1.0
  C  C32  1  0.15726000  0.80352000  0.12580000  1.0
  C  C33  1  0.34274000  0.30352000  0.37420000  1.0
  C  C34  1  0.84276000  0.19648000  0.87420000  1.0
  C  C35  1  0.65725000  0.69648000  0.62580000  1.0
  C  C36  1  0.12911000  0.89884000  0.18861000  1.0
  C  C37  1  0.37088000  0.39885000  0.31140000  1.0
  C  C38  1  0.87090000  0.10116000  0.81140000  1.0
  C  C39  1  0.62911000  0.60116000  0.68860000  1.0
  C  C40  1  0.93389000  0.97886000  0.16596000  1.0
  C  C41  1  0.56611000  0.47886000  0.33403000  1.0
  C  C42  1  0.06612000  0.02114000  0.83404000  1.0
  C  C43  1  0.43389000  0.52114000  0.66596000  1.0
  C  C44  1  0.77078000  0.96011000  0.08451000  1.0
  C  C45  1  0.72921000  0.46011000  0.41549000  1.0
  C  C46  1  0.22924000  0.03990000  0.91549000  1.0
  C  C47  1  0.27077000  0.53990000  0.58452000  1.0
  C  C48  1  0.80748000  0.86249000  0.02630000  1.0
  C  C49  1  0.69253000  0.36250000  0.47370000  1.0
  C  C50  1  0.19255000  0.13751000  0.97370000  1.0
  C  C51  1  0.30746000  0.63751000  0.52630000  1.0
  C  C52  1  0.37512000  0.71751000  0.13861000  1.0
  C  C53  1  0.12488000  0.21751000  0.36140000  1.0
  C  C54  1  0.62488000  0.28249000  0.86140000  1.0
  C  C55  1  0.87514000  0.78248000  0.63861000  1.0
  C  C56  1  0.30472000  0.92539000  0.27616000  1.0
  C  C57  1  0.19526000  0.42540000  0.22384000  1.0
  C  C58  1  0.69529000  0.07461000  0.72384000  1.0
  C  C59  1  0.80473000  0.57460000  0.77616000  1.0
  N  N60  1  0.99736000  0.78710000  0.04671000  1.0
  N  N61  1  0.50264000  0.28711000  0.45329000  1.0
  N  N62  1  0.00265000  0.21290000  0.95329000  1.0
  N  N63  1  0.49735000  0.71290000  0.54671000  1.0
  O  O64  1  0.37751000  0.63416000  0.07534000  1.0
  O  O65  1  0.12248000  0.13416000  0.42466000  1.0
  O  O66  1  0.62248000  0.36584000  0.92466000  1.0
  O  O67  1  0.87752000  0.86583000  0.57534000  1.0
  O  O68  1  0.54100000  0.73272000  0.20585000  1.0
  O  O69  1  0.95899000  0.23272000  0.29415000  1.0
  O  O70  1  0.45900000  0.26728000  0.79415000  1.0
  O  O71  1  0.04102000  0.76728000  0.70583000  1.0
  O  O72  1  0.27929000  0.86665000  0.35513000  1.0
  O  O73  1  0.22070000  0.36665000  0.14487000  1.0
  O  O74  1  0.72072000  0.13335000  0.64487000  1.0
  O  O75  1  0.77929000  0.63334000  0.85513000  1.0
  O  O76  1  0.45216000  0.01044000  0.26617000  1.0
  O  O77  1  0.04782000  0.51044000  0.23383000  1.0
  O  O78  1  0.54785000  0.98956000  0.73383000  1.0
  O  O79  1  0.95216000  0.48955000  0.76616000  1.0
  O  O80  1  0.82671000  0.53807000  0.06670000  1.0
  O  O81  1  0.67328000  0.03806000  0.43330000  1.0
  O  O82  1  0.17328000  0.46194000  0.93330000  1.0
  O  O83  1  0.32672000  0.96194000  0.56670000  1.0
  O  O84  1  0.31191000  0.72583000  0.87305000  1.0
  O  O85  1  0.18810000  0.22584000  0.62695000  1.0
  O  O86  1  0.68810000  0.27417000  0.12695000  1.0
  O  O87  1  0.81189000  0.77417000  0.37305000  1.0
