# generated using pymatgen
data_DyH25C36(NO4)2
_symmetry_space_group_name_H-M   'P 1'
_cell_length_a   9.76895000
_cell_length_b   12.38900000
_cell_length_c   13.55900000
_cell_angle_alpha   73.78740000
_cell_angle_beta   84.27400000
_cell_angle_gamma   78.81350000
_symmetry_Int_Tables_number   1
_chemical_formula_structural   DyH25C36(NO4)2
_chemical_formula_sum   'Dy2 H50 C72 N4 O16'
_cell_volume   1544.00233439
_cell_formula_units_Z   2
loop_
 _symmetry_equiv_pos_site_id
 _symmetry_equiv_pos_as_xyz
  1  'x, y, z'
loop_
 _atom_site_type_symbol
 _atom_site_label
 _atom_site_symmetry_multiplicity
 _atom_site_fract_x
 _atom_site_fract_y
 _atom_site_fract_z
 _atom_site_occupancy
  Dy  Dy0  1  0.61425000  0.11967000  0.45660000  1.0
  Dy  Dy1  1  0.38575000  0.88033000  0.54339000  1.0
  H  H2  1  0.92354000  0.04002000  0.57800000  1.0
  H  H3  1  0.07646000  0.95998000  0.42201000  1.0
  H  H4  1  0.08683000  0.10895000  0.66489000  1.0
  H  H5  1  0.91316000  0.89105000  0.33511000  1.0
  H  H6  1  0.04718000  0.31865000  0.66080000  1.0
  H  H7  1  0.95282000  0.68135000  0.33920000  1.0
  H  H8  1  0.44682000  0.36286000  0.30145000  1.0
  H  H9  1  0.55318000  0.63715000  0.69855000  1.0
  H  H10  1  0.40599000  0.57692000  0.26138000  1.0
  H  H11  1  0.59401000  0.42308000  0.73862000  1.0
  H  H12  1  0.54370000  0.66893000  0.35175000  1.0
  H  H13  1  0.45630000  0.33107000  0.64825000  1.0
  H  H14  1  0.72802000  0.64346000  0.47760000  1.0
  H  H15  1  0.27198000  0.35654000  0.52239000  1.0
  H  H16  1  0.90878000  0.51566000  0.59211000  1.0
  H  H17  1  0.09122000  0.48434000  0.40789000  1.0
  H  H18  1  0.80554000  0.17916000  0.10201000  1.0
  H  H19  1  0.19446000  0.82084000  0.89799000  1.0
  H  H20  1  0.04723000  0.07150000  0.24942000  1.0
  H  H21  1  0.95277000  0.92850000  0.75058000  1.0
  H  H22  1  0.27878000  0.07993000  0.17310000  1.0
  H  H23  1  0.72122000  0.92007000  0.82690000  1.0
  H  H24  1  0.44545000  0.09642000  0.02179000  1.0
  H  H25  1  0.55455000  0.90358000  0.97821000  1.0
  H  H26  1  0.10376000  0.14688000  0.82578000  1.0
  H  H27  1  0.89624000  0.85311000  0.17422000  1.0
  H  H28  1  0.93778000  0.13468000  0.97511000  1.0
  H  H29  1  0.06222000  0.86532000  0.02489000  1.0
  H  H30  1  0.48008000  0.16043000  0.82323000  1.0
  H  H31  1  0.51992000  0.83957000  0.17676000  1.0
  H  H32  1  0.27178000  0.04899000  0.74592000  1.0
  H  H33  1  0.72823000  0.95101000  0.25408000  1.0
  H  H34  1  0.94299000  0.81264000  0.63318000  1.0
  H  H35  1  0.05701000  0.18736000  0.36681000  1.0
  H  H36  1  0.74380000  0.64091000  0.72410000  1.0
  H  H37  1  0.25620000  0.35909000  0.27590000  1.0
  H  H38  1  0.82887000  0.47314000  0.85621000  1.0
  H  H39  1  0.17113000  0.52686000  0.14379000  1.0
  H  H40  1  0.01521000  0.35449000  0.96955000  1.0
  H  H41  1  0.98479000  0.64550000  0.03046000  1.0
  H  H42  1  0.29694000  0.58504000  0.81756000  1.0
  H  H43  1  0.70306000  0.41496000  0.18244000  1.0
  H  H44  1  0.11493000  0.69970000  0.70185000  1.0
  H  H45  1  0.88508000  0.30030000  0.29815000  1.0
  H  H46  1  0.24197000  0.33186000  0.04063000  1.0
  H  H47  1  0.75803000  0.66814000  0.95938000  1.0
  H  H48  1  0.45666000  0.45144000  0.88788000  1.0
  H  H49  1  0.54334000  0.54856000  0.11212000  1.0
  H  H50  1  0.55110000  0.23848000  0.17168000  1.0
  H  H51  1  0.44890000  0.76151000  0.82832000  1.0
  C  C52  1  0.91010000  0.13023000  0.57514000  1.0
  C  C53  1  0.08989000  0.86977000  0.42486000  1.0
  C  C54  1  0.00111000  0.17025000  0.62531000  1.0
  C  C55  1  0.99888000  0.82975000  0.37469000  1.0
  C  C56  1  0.97980000  0.28472000  0.62171000  1.0
  C  C57  1  0.02019000  0.71528000  0.37829000  1.0
  C  C58  1  0.87055000  0.36006000  0.56371000  1.0
  C  C59  1  0.12944000  0.63994000  0.43630000  1.0
  C  C60  1  0.78567000  0.31202000  0.51412000  1.0
  C  C61  1  0.21432000  0.68798000  0.48588000  1.0
  C  C62  1  0.67893000  0.38633000  0.44890000  1.0
  C  C63  1  0.32107000  0.61367000  0.55110000  1.0
  C  C64  1  0.50656000  0.40618000  0.33709000  1.0
  C  C65  1  0.49344000  0.59382000  0.66291000  1.0
  C  C66  1  0.48484000  0.52586000  0.31501000  1.0
  C  C67  1  0.51516000  0.47414000  0.68498000  1.0
  C  C68  1  0.56188000  0.57645000  0.36368000  1.0
  C  C69  1  0.43812000  0.42356000  0.63632000  1.0
  C  C70  1  0.66292000  0.50647000  0.43254000  1.0
  C  C71  1  0.33708000  0.49353000  0.56746000  1.0
  C  C72  1  0.74639000  0.55153000  0.48701000  1.0
  C  C73  1  0.25361000  0.44847000  0.51298000  1.0
  C  C74  1  0.84555000  0.48085000  0.55085000  1.0
  C  C75  1  0.15444000  0.51916000  0.44915000  1.0
  C  C76  1  0.77581000  0.13597000  0.26903000  1.0
  C  C77  1  0.22419000  0.86403000  0.73097000  1.0
  C  C78  1  0.86076000  0.13956000  0.17289000  1.0
  C  C79  1  0.13924000  0.86044000  0.82711000  1.0
  C  C80  1  0.00041000  0.10303000  0.17453000  1.0
  C  C81  1  0.99959000  0.89697000  0.82547000  1.0
  C  C82  1  0.09633000  0.10616000  0.08529000  1.0
  C  C83  1  0.90367000  0.89384000  0.91471000  1.0
  C  C84  1  0.24084000  0.09371000  0.09674000  1.0
  C  C85  1  0.75916000  0.90629000  0.90326000  1.0
  C  C86  1  0.33446000  0.10315000  0.01170000  1.0
  C  C87  1  0.66554000  0.89685000  0.98830000  1.0
  C  C88  1  0.28727000  0.12051000  0.91285000  1.0
  C  C89  1  0.71273000  0.87949000  0.08715000  1.0
  C  C90  1  0.14274000  0.13084000  0.90197000  1.0
  C  C91  1  0.85726000  0.86915000  0.09803000  1.0
  C  C92  1  0.04904000  0.12469000  0.98595000  1.0
  C  C93  1  0.95096000  0.87531000  0.01405000  1.0
  C  C94  1  0.38409000  0.12736000  0.82294000  1.0
  C  C95  1  0.61591000  0.87264000  0.17706000  1.0
  C  C96  1  0.36088000  0.09120000  0.74202000  1.0
  C  C97  1  0.63912000  0.90880000  0.25798000  1.0
  C  C98  1  0.45125000  0.09712000  0.64805000  1.0
  C  C99  1  0.54875000  0.90288000  0.35195000  1.0
  C  C100  1  0.72342000  0.85153000  0.59756000  1.0
  C  C101  1  0.27658000  0.14847000  0.40244000  1.0
  C  C102  1  0.84816000  0.77525000  0.64697000  1.0
  C  C103  1  0.15184000  0.22475000  0.35303000  1.0
  C  C104  1  0.84383000  0.67063000  0.71110000  1.0
  C  C105  1  0.15618000  0.32937000  0.28890000  1.0
  C  C106  1  0.95787000  0.59575000  0.77042000  1.0
  C  C107  1  0.04214000  0.40425000  0.22958000  1.0
  C  C108  1  0.93284000  0.49611000  0.84561000  1.0
  C  C109  1  0.06716000  0.50389000  0.15439000  1.0
  C  C110  1  0.03743000  0.42954000  0.90995000  1.0
  C  C111  1  0.96257000  0.57046000  0.09005000  1.0
  C  C112  1  0.17103000  0.45922000  0.90088000  1.0
  C  C113  1  0.82897000  0.54078000  0.09912000  1.0
  C  C114  1  0.19638000  0.55766000  0.82403000  1.0
  C  C115  1  0.80362000  0.44234000  0.17597000  1.0
  C  C116  1  0.09294000  0.62354000  0.75976000  1.0
  C  C117  1  0.90707000  0.37646000  0.24024000  1.0
  C  C118  1  0.27740000  0.39192000  0.97176000  1.0
  C  C119  1  0.72260000  0.60808000  0.02824000  1.0
  C  C120  1  0.41498000  0.39737000  0.95771000  1.0
  C  C121  1  0.58502000  0.60263000  0.04229000  1.0
  C  C122  1  0.52224000  0.32827000  0.02902000  1.0
  C  C123  1  0.47778000  0.67173000  0.97097000  1.0
  N  N124  1  0.80388000  0.19828000  0.52247000  1.0
  N  N125  1  0.19612000  0.80172000  0.47753000  1.0
  N  N126  1  0.59920000  0.33776000  0.40288000  1.0
  N  N127  1  0.40080000  0.66224000  0.59712000  1.0
  O  O128  1  0.82858000  0.08842000  0.35656000  1.0
  O  O129  1  0.17142000  0.91158000  0.64344000  1.0
  O  O130  1  0.64506000  0.18132000  0.26594000  1.0
  O  O131  1  0.35494000  0.81868000  0.73406000  1.0
  O  O132  1  0.73515000  0.95669000  0.56214000  1.0
  O  O133  1  0.26485000  0.04331000  0.43786000  1.0
  O  O134  1  0.61458000  0.80989000  0.59438000  1.0
  O  O135  1  0.38542000  0.19011000  0.40562000  1.0
  O  O136  1  0.64811000  0.31572000  0.00214000  1.0
  O  O137  1  0.35188000  0.68428000  0.99786000  1.0
  O  O138  1  0.47190000  0.28136000  0.12385000  1.0
  O  O139  1  0.52810000  0.71864000  0.87615000  1.0
  O  O140  1  0.53458000  0.16842000  0.61832000  1.0
  O  O141  1  0.46542000  0.83158000  0.38168000  1.0
  O  O142  1  0.44160000  0.02928000  0.59349000  1.0
  O  O143  1  0.55840000  0.97072000  0.40651000  1.0
