# generated using pymatgen
data_LiH10C8O5
_symmetry_space_group_name_H-M   'P 1'
_cell_length_a   6.35484000
_cell_length_b   7.94822000
_cell_length_c   17.17420000
_cell_angle_alpha   89.99980000
_cell_angle_beta   95.84580000
_cell_angle_gamma   90.00000000
_symmetry_Int_Tables_number   1
_chemical_formula_structural   LiH10C8O5
_chemical_formula_sum   'Li4 H40 C32 O20'
_cell_volume   862.95196640
_cell_formula_units_Z   4
loop_
 _symmetry_equiv_pos_site_id
 _symmetry_equiv_pos_as_xyz
  1  'x, y, z'
loop_
 _atom_site_type_symbol
 _atom_site_label
 _atom_site_symmetry_multiplicity
 _atom_site_fract_x
 _atom_site_fract_y
 _atom_site_fract_z
 _atom_site_occupancy
  Li  Li0  1  0.54715000  0.27086000  0.54403000  1.0
  Li  Li1  1  0.95285000  0.77086000  0.45597000  1.0
  Li  Li2  1  0.45285000  0.72914000  0.45597000  1.0
  Li  Li3  1  0.04715000  0.22914000  0.54402000  1.0
  H  H4  1  0.00689000  0.33012000  0.77840000  1.0
  H  H5  1  0.49311000  0.83013000  0.22160000  1.0
  H  H6  1  0.99312000  0.66988000  0.22160000  1.0
  H  H7  1  0.50689000  0.16988000  0.77840000  1.0
  H  H8  1  0.31262000  0.66482000  0.00595000  1.0
  H  H9  1  0.18737000  0.16482000  0.99405000  1.0
  H  H10  1  0.68737000  0.33518000  0.99405000  1.0
  H  H11  1  0.81262000  0.83517000  0.00595000  1.0
  H  H12  1  0.48549000  0.66468000  0.88699000  1.0
  H  H13  1  0.01451000  0.16468000  0.11301000  1.0
  H  H14  1  0.51451000  0.33533000  0.11301000  1.0
  H  H15  1  0.98549000  0.83532000  0.88699000  1.0
  H  H16  1  0.82882000  0.33207000  0.89846000  1.0
  H  H17  1  0.67118000  0.83208000  0.10154000  1.0
  H  H18  1  0.17118000  0.66793000  0.10154000  1.0
  H  H19  1  0.32882000  0.16793000  0.89846000  1.0
  H  H20  1  0.65918000  0.55114000  0.79600000  1.0
  H  H21  1  0.84082000  0.05115000  0.20400000  1.0
  H  H22  1  0.34082000  0.44886000  0.20400000  1.0
  H  H23  1  0.15918000  0.94886000  0.79600000  1.0
  H  H24  1  0.50291000  0.71456000  0.74639000  1.0
  H  H25  1  0.99710000  0.21457000  0.25361000  1.0
  H  H26  1  0.49709000  0.28544000  0.25361000  1.0
  H  H27  1  0.00291000  0.78544000  0.74639000  1.0
  H  H28  1  0.72981000  0.06423000  0.63180000  1.0
  H  H29  1  0.77019000  0.56423000  0.36820000  1.0
  H  H30  1  0.27019000  0.93576000  0.36820000  1.0
  H  H31  1  0.22981000  0.43576000  0.63180000  1.0
  H  H32  1  0.48600000  0.00128000  0.62388000  1.0
  H  H33  1  0.01400000  0.50128000  0.37612000  1.0
  H  H34  1  0.51400000  0.99872000  0.37612000  1.0
  H  H35  1  0.98600000  0.49871000  0.62388000  1.0
  H  H36  1  0.81940000  0.38958000  0.45433000  1.0
  H  H37  1  0.68060000  0.88958000  0.54567000  1.0
  H  H38  1  0.18060000  0.61042000  0.54567000  1.0
  H  H39  1  0.31940000  0.11042000  0.45433000  1.0
  H  H40  1  0.74930000  0.20562000  0.43087000  1.0
  H  H41  1  0.75070000  0.70562000  0.56913000  1.0
  H  H42  1  0.25070000  0.79438000  0.56913000  1.0
  H  H43  1  0.24930000  0.29437000  0.43087000  1.0
  C  C44  1  0.05343000  0.49952000  0.96362000  1.0
  C  C45  1  0.44657000  0.99951000  0.03638000  1.0
  C  C46  1  0.94657000  0.50049000  0.03638000  1.0
  C  C47  1  0.55343000  0.00049000  0.96362000  1.0
  C  C48  1  0.07130000  0.40454000  0.82865000  1.0
  C  C49  1  0.42870000  0.90454000  0.17136000  1.0
  C  C50  1  0.92870000  0.59546000  0.17136000  1.0
  C  C51  1  0.57130000  0.09546000  0.82864000  1.0
  C  C52  1  0.62317000  0.53161000  0.67128000  1.0
  C  C53  1  0.87683000  0.03161000  0.32872000  1.0
  C  C54  1  0.37683000  0.46839000  0.32872000  1.0
  C  C55  1  0.12317000  0.96839000  0.67128000  1.0
  C  C56  1  0.24052000  0.59050000  0.95707000  1.0
  C  C57  1  0.25947000  0.09050000  0.04293000  1.0
  C  C58  1  0.75947000  0.40950000  0.04293000  1.0
  C  C59  1  0.74052000  0.90950000  0.95707000  1.0
  C  C60  1  0.34172000  0.59096000  0.88863000  1.0
  C  C61  1  0.15828000  0.09095000  0.11137000  1.0
  C  C62  1  0.65828000  0.40905000  0.11137000  1.0
  C  C63  1  0.84172000  0.90905000  0.88863000  1.0
  C  C64  1  0.97225000  0.40663000  0.89716000  1.0
  C  C65  1  0.52775000  0.90663000  0.10284000  1.0
  C  C66  1  0.02775000  0.59337000  0.10285000  1.0
  C  C67  1  0.47225000  0.09337000  0.89715000  1.0
  C  C68  1  0.25787000  0.49679000  0.82399000  1.0
  C  C69  1  0.24213000  0.99680000  0.17601000  1.0
  C  C70  1  0.74214000  0.50321000  0.17601000  1.0
  C  C71  1  0.75787000  0.00321000  0.82399000  1.0
  C  C72  1  0.53666000  0.57856000  0.74761000  1.0
  C  C73  1  0.96334000  0.07857000  0.25239000  1.0
  C  C74  1  0.46334000  0.42144000  0.25239000  1.0
  C  C75  1  0.03666000  0.92144000  0.74761000  1.0
  O  O76  1  0.79394000  0.60709000  0.65847000  1.0
  O  O77  1  0.70606000  0.10710000  0.34153000  1.0
  O  O78  1  0.20606000  0.39290000  0.34153000  1.0
  O  O79  1  0.29394000  0.89290000  0.65847000  1.0
  O  O80  1  0.78117000  0.27901000  0.47784000  1.0
  O  O81  1  0.71883000  0.77901000  0.52216000  1.0
  O  O82  1  0.21883000  0.72099000  0.52216000  1.0
  O  O83  1  0.28117000  0.22099000  0.47784000  1.0
  O  O84  1  0.34780000  0.48454000  0.75506000  1.0
  O  O85  1  0.15220000  0.98454000  0.24494000  1.0
  O  O86  1  0.65220000  0.51546000  0.24494000  1.0
  O  O87  1  0.84780000  0.01546000  0.75506000  1.0
  O  O88  1  0.59960000  0.05354000  0.59525000  1.0
  O  O89  1  0.90040000  0.55354000  0.40475000  1.0
  O  O90  1  0.40040000  0.94646000  0.40475000  1.0
  O  O91  1  0.09960000  0.44646000  0.59525000  1.0
  O  O92  1  0.52458000  0.42679000  0.62616000  1.0
  O  O93  1  0.97542000  0.92679000  0.37383000  1.0
  O  O94  1  0.47542000  0.57320000  0.37384000  1.0
  O  O95  1  0.02458000  0.07320000  0.62616000  1.0
