# generated using pymatgen
data_NdH23C14O9
_symmetry_space_group_name_H-M   'P 1'
_cell_length_a   8.61791000
_cell_length_b   8.86468000
_cell_length_c   11.77090000
_cell_angle_alpha   71.28700000
_cell_angle_beta   89.99980000
_cell_angle_gamma   89.99990000
_symmetry_Int_Tables_number   1
_chemical_formula_structural   NdH23C14O9
_chemical_formula_sum   'Nd2 H46 C28 O18'
_cell_volume   851.70211019
_cell_formula_units_Z   2
loop_
 _symmetry_equiv_pos_site_id
 _symmetry_equiv_pos_as_xyz
  1  'x, y, z'
loop_
 _atom_site_type_symbol
 _atom_site_label
 _atom_site_symmetry_multiplicity
 _atom_site_fract_x
 _atom_site_fract_y
 _atom_site_fract_z
 _atom_site_occupancy
  Nd  Nd0  1  0.54317000  0.01125000  0.00487000  1.0
  Nd  Nd1  1  0.04317000  0.98875000  0.99513000  1.0
  H  H2  1  0.92125000  0.84787000  0.33374000  1.0
  H  H3  1  0.42125000  0.15213000  0.66626000  1.0
  H  H4  1  0.90812000  0.67068000  0.30051000  1.0
  H  H5  1  0.40813000  0.32932000  0.69949000  1.0
  H  H6  1  0.67696000  0.78047000  0.45868000  1.0
  H  H7  1  0.17697000  0.21953000  0.54132000  1.0
  H  H8  1  0.65099000  0.60935000  0.41713000  1.0
  H  H9  1  0.15100000  0.39065000  0.58287000  1.0
  H  H10  1  0.92134000  0.66467000  0.56923000  1.0
  H  H11  1  0.42135000  0.33533000  0.43077000  1.0
  H  H12  1  0.90667000  0.50102000  0.51624000  1.0
  H  H13  1  0.40668000  0.49898000  0.48376000  1.0
  H  H14  1  0.66745000  0.58306000  0.68081000  1.0
  H  H15  1  0.16745000  0.41693000  0.31919000  1.0
  H  H16  1  0.65070000  0.42709000  0.61992000  1.0
  H  H17  1  0.15070000  0.57291000  0.38009000  1.0
  H  H18  1  0.88854000  0.46156000  0.80183000  1.0
  H  H19  1  0.38855000  0.53844000  0.19817000  1.0
  H  H20  1  0.92289000  0.32910000  0.72067000  1.0
  H  H21  1  0.42289000  0.67091000  0.27933000  1.0
  H  H22  1  0.43117000  0.26450000  0.18590000  1.0
  H  H23  1  0.93117000  0.73550000  0.81410000  1.0
  H  H24  1  0.62535000  0.89353000  0.61128000  1.0
  H  H25  1  0.12535000  0.10647000  0.38872000  1.0
  H  H26  1  0.82608000  0.85096000  0.63293000  1.0
  H  H27  1  0.32608000  0.14905000  0.36707000  1.0
  H  H28  1  0.68097000  0.18079000  0.59263000  1.0
  H  H29  1  0.18097000  0.81922000  0.40737000  1.0
  H  H30  1  0.88165000  0.13740000  0.60212000  1.0
  H  H31  1  0.38165000  0.86261000  0.39788000  1.0
  H  H32  1  0.65997000  0.08588000  0.41284000  1.0
  H  H33  1  0.15997000  0.91413000  0.58716000  1.0
  H  H34  1  0.86079000  0.04917000  0.41901000  1.0
  H  H35  1  0.36079000  0.95084000  0.58099000  1.0
  H  H36  1  0.70937000  0.37633000  0.37677000  1.0
  H  H37  1  0.20937000  0.62368000  0.62322000  1.0
  H  H38  1  0.91119000  0.34163000  0.38458000  1.0
  H  H39  1  0.41119000  0.65837000  0.61542000  1.0
  H  H40  1  0.90032000  0.24955000  0.20413000  1.0
  H  H41  1  0.40032000  0.75045000  0.79587000  1.0
  H  H42  1  0.82820000  0.44442000  0.17318000  1.0
  H  H43  1  0.32820000  0.55558000  0.82682000  1.0
  H  H44  1  0.67385000  0.72189000  0.97425000  1.0
  H  H45  1  0.17385000  0.27811000  0.02575000  1.0
  H  H46  1  0.59005000  0.63748000  0.09897000  1.0
  H  H47  1  0.09005000  0.36252000  0.90103000  1.0
  C  C48  1  0.74118000  0.84389000  0.21414000  1.0
  C  C49  1  0.24119000  0.15611000  0.78586000  1.0
  C  C50  1  0.83670000  0.75993000  0.32318000  1.0
  C  C51  1  0.33670000  0.24008000  0.67682000  1.0
  C  C52  1  0.74081000  0.68646000  0.43603000  1.0
  C  C53  1  0.24081000  0.31354000  0.56397000  1.0
  C  C54  1  0.83697000  0.58843000  0.54290000  1.0
  C  C55  1  0.33697000  0.41156000  0.45710000  1.0
  C  C56  1  0.73596000  0.49895000  0.64981000  1.0
  C  C57  1  0.23597000  0.50105000  0.35020000  1.0
  C  C58  1  0.83056000  0.38996000  0.75339000  1.0
  C  C59  1  0.33056000  0.61004000  0.24661000  1.0
  C  C60  1  0.73746000  0.26410000  0.84409000  1.0
  C  C61  1  0.23746000  0.73590000  0.15592000  1.0
  C  C62  1  0.70779000  0.90032000  0.77815000  1.0
  C  C63  1  0.20779000  0.09968000  0.22184000  1.0
  C  C64  1  0.73364000  0.92906000  0.64557000  1.0
  C  C65  1  0.23364000  0.07095000  0.35443000  1.0
  C  C66  1  0.76935000  0.10303000  0.57295000  1.0
  C  C67  1  0.26935000  0.89697000  0.42705000  1.0
  C  C68  1  0.77160000  0.12683000  0.43837000  1.0
  C  C69  1  0.27160000  0.87317000  0.56162000  1.0
  C  C70  1  0.80026000  0.29897000  0.35981000  1.0
  C  C71  1  0.30027000  0.70103000  0.64019000  1.0
  C  C72  1  0.80559000  0.31870000  0.22544000  1.0
  C  C73  1  0.30559000  0.68130000  0.77455000  1.0
  C  C74  1  0.65801000  0.26837000  0.17844000  1.0
  C  C75  1  0.15801000  0.73162000  0.82156000  1.0
  O  O76  1  0.80509000  0.88957000  0.10944000  1.0
  O  O77  1  0.30509000  0.11043000  0.89056000  1.0
  O  O78  1  0.59753000  0.86816000  0.22415000  1.0
  O  O79  1  0.09753000  0.13184000  0.77585000  1.0
  O  O80  1  0.80429000  0.13249000  0.90497000  1.0
  O  O81  1  0.30429000  0.86751000  0.09503000  1.0
  O  O82  1  0.59479000  0.28507000  0.85984000  1.0
  O  O83  1  0.09479000  0.71493000  0.14017000  1.0
  O  O84  1  0.59311000  0.96685000  0.80907000  1.0
  O  O85  1  0.09311000  0.03315000  0.19093000  1.0
  O  O86  1  0.80061000  0.80634000  0.85551000  1.0
  O  O87  1  0.30061000  0.19365000  0.14449000  1.0
  O  O88  1  0.52814000  0.31401000  0.21752000  1.0
  O  O89  1  0.02814000  0.68598000  0.78248000  1.0
  O  O90  1  0.65910000  0.19010000  0.10812000  1.0
  O  O91  1  0.15910000  0.80989000  0.89189000  1.0
  O  O92  1  0.57547000  0.71564000  0.02013000  1.0
  O  O93  1  0.07547000  0.28437000  0.97987000  1.0
