# generated using pymatgen
data_CdH8C7N4O3
_symmetry_space_group_name_H-M   'P 1'
_cell_length_a   6.51296000
_cell_length_b   7.10100000
_cell_length_c   20.07620000
_cell_angle_alpha   90.00040000
_cell_angle_beta   90.00090000
_cell_angle_gamma   82.56210000
_symmetry_Int_Tables_number   1
_chemical_formula_structural   CdH8C7N4O3
_chemical_formula_sum   'Cd4 H32 C28 N16 O12'
_cell_volume   920.68213008
_cell_formula_units_Z   4
loop_
 _symmetry_equiv_pos_site_id
 _symmetry_equiv_pos_as_xyz
  1  'x, y, z'
loop_
 _atom_site_type_symbol
 _atom_site_label
 _atom_site_symmetry_multiplicity
 _atom_site_fract_x
 _atom_site_fract_y
 _atom_site_fract_z
 _atom_site_occupancy
  Cd  Cd0  1  0.21912000  0.29810000  0.97150000  1.0
  Cd  Cd1  1  0.71916000  0.79811000  0.52850000  1.0
  Cd  Cd2  1  0.78085000  0.70189000  0.02850000  1.0
  Cd  Cd3  1  0.28088000  0.20190000  0.47150000  1.0
  H  H4  1  0.05541000  0.95583000  0.92211000  1.0
  H  H5  1  0.55543000  0.45585000  0.57789000  1.0
  H  H6  1  0.94456000  0.04416000  0.07789000  1.0
  H  H7  1  0.44459000  0.54417000  0.42212000  1.0
  H  H8  1  0.52462000  0.48481000  0.80199000  1.0
  H  H9  1  0.02464000  0.98481000  0.69802000  1.0
  H  H10  1  0.47537000  0.51521000  0.19802000  1.0
  H  H11  1  0.97537000  0.01518000  0.30199000  1.0
  H  H12  1  0.87340000  0.44148000  0.81709000  1.0
  H  H13  1  0.37342000  0.94150000  0.68291000  1.0
  H  H14  1  0.12659000  0.55849000  0.18290000  1.0
  H  H15  1  0.62659000  0.05852000  0.31709000  1.0
  H  H16  1  0.06807000  0.61285000  0.89817000  1.0
  H  H17  1  0.56809000  0.11285000  0.60183000  1.0
  H  H18  1  0.93191000  0.38714000  0.10183000  1.0
  H  H19  1  0.43194000  0.88716000  0.39817000  1.0
  H  H20  1  0.32660000  0.60054000  0.89412000  1.0
  H  H21  1  0.82663000  0.10055000  0.60589000  1.0
  H  H22  1  0.67337000  0.39946000  0.10588000  1.0
  H  H23  1  0.17341000  0.89946000  0.39412000  1.0
  H  H24  1  0.86570000  0.35938000  0.69725000  1.0
  H  H25  1  0.36569000  0.85938000  0.80275000  1.0
  H  H26  1  0.13432000  0.64060000  0.30275000  1.0
  H  H27  1  0.63430000  0.14063000  0.19725000  1.0
  H  H28  1  0.51678000  0.40546000  0.68241000  1.0
  H  H29  1  0.01678000  0.90545000  0.81759000  1.0
  H  H30  1  0.48322000  0.59456000  0.31759000  1.0
  H  H31  1  0.98322000  0.09453000  0.18241000  1.0
  H  H32  1  0.30450000  0.93106000  0.91714000  1.0
  H  H33  1  0.80453000  0.43106000  0.58285000  1.0
  H  H34  1  0.69547000  0.06893000  0.08285000  1.0
  H  H35  1  0.19550000  0.56893000  0.41714000  1.0
  C  C36  1  0.19071000  0.37507000  0.68115000  1.0
  C  C37  1  0.69069000  0.87506000  0.81884000  1.0
  C  C38  1  0.80929000  0.62493000  0.31885000  1.0
  C  C39  1  0.30931000  0.12493000  0.18116000  1.0
  C  C40  1  0.19878000  0.47237000  0.81684000  1.0
  C  C41  1  0.69884000  0.97238000  0.68316000  1.0
  C  C42  1  0.80119000  0.52762000  0.18315000  1.0
  C  C43  1  0.30119000  0.02763000  0.31684000  1.0
  C  C44  1  0.38082000  0.45624000  0.77879000  1.0
  C  C45  1  0.88079000  0.95624000  0.72120000  1.0
  C  C46  1  0.61917000  0.54377000  0.22121000  1.0
  C  C47  1  0.11923000  0.04376000  0.27880000  1.0
  C  C48  1  0.01393000  0.43303000  0.78717000  1.0
  C  C49  1  0.51390000  0.93303000  0.71283000  1.0
  C  C50  1  0.98608000  0.56697000  0.21283000  1.0
  C  C51  1  0.48610000  0.06698000  0.28717000  1.0
  C  C52  1  0.01036000  0.38614000  0.72019000  1.0
  C  C53  1  0.51038000  0.88613000  0.77982000  1.0
  C  C54  1  0.98964000  0.61386000  0.27981000  1.0
  C  C55  1  0.48962000  0.11387000  0.22018000  1.0
  C  C56  1  0.37585000  0.41048000  0.71178000  1.0
  C  C57  1  0.87585000  0.91047000  0.78824000  1.0
  C  C58  1  0.62416000  0.58953000  0.28823000  1.0
  C  C59  1  0.12414000  0.08951000  0.21177000  1.0
  C  C60  1  0.18647000  0.32129000  0.60993000  1.0
  C  C61  1  0.68649000  0.82128000  0.89007000  1.0
  C  C62  1  0.81355000  0.67872000  0.39007000  1.0
  C  C63  1  0.31350000  0.17871000  0.10993000  1.0
  N  N64  1  0.30121000  0.68644000  0.05087000  1.0
  N  N65  1  0.80122000  0.18644000  0.44914000  1.0
  N  N66  1  0.69877000  0.31356000  0.94913000  1.0
  N  N67  1  0.19880000  0.81356000  0.55086000  1.0
  N  N68  1  0.16109000  0.60958000  0.03092000  1.0
  N  N69  1  0.66112000  0.10959000  0.46908000  1.0
  N  N70  1  0.83888000  0.39041000  0.96908000  1.0
  N  N71  1  0.33892000  0.89042000  0.53092000  1.0
  N  N72  1  0.20188000  0.52967000  0.88392000  1.0
  N  N73  1  0.70188000  0.02966000  0.61608000  1.0
  N  N74  1  0.79810000  0.47034000  0.11608000  1.0
  N  N75  1  0.29814000  0.97034000  0.38392000  1.0
  N  N76  1  0.43905000  0.76149000  0.07135000  1.0
  N  N77  1  0.93909000  0.26151000  0.42865000  1.0
  N  N78  1  0.56092000  0.23850000  0.92865000  1.0
  N  N79  1  0.06095000  0.73850000  0.57135000  1.0
  O  O80  1  0.17717000  0.02528000  0.91590000  1.0
  O  O81  1  0.67718000  0.52529000  0.58410000  1.0
  O  O82  1  0.82279000  0.97471000  0.08410000  1.0
  O  O83  1  0.32283000  0.47472000  0.41590000  1.0
  O  O84  1  0.02461000  0.27034000  0.58355000  1.0
  O  O85  1  0.52458000  0.77033000  0.91645000  1.0
  O  O86  1  0.97541000  0.72966000  0.41645000  1.0
  O  O87  1  0.47539000  0.22966000  0.08355000  1.0
  O  O88  1  0.35427000  0.31995000  0.57501000  1.0
  O  O89  1  0.85424000  0.81994000  0.92499000  1.0
  O  O90  1  0.64575000  0.68006000  0.42499000  1.0
  O  O91  1  0.14573000  0.18004000  0.07501000  1.0
