# generated using pymatgen
data_ZnH10C12N2(ClO)2
_symmetry_space_group_name_H-M   'P 1'
_cell_length_a   8.83013000
_cell_length_b   11.26082797
_cell_length_c   15.96927819
_cell_angle_alpha   69.45642696
_cell_angle_beta   73.96252085
_cell_angle_gamma   66.92261058
_symmetry_Int_Tables_number   1
_chemical_formula_structural   ZnH10C12N2(ClO)2
_chemical_formula_sum   'Zn4 H40 C48 N8 Cl8 O8'
_cell_volume   1350.07819351
_cell_formula_units_Z   4
loop_
 _symmetry_equiv_pos_site_id
 _symmetry_equiv_pos_as_xyz
  1  'x, y, z'
loop_
 _atom_site_type_symbol
 _atom_site_label
 _atom_site_symmetry_multiplicity
 _atom_site_fract_x
 _atom_site_fract_y
 _atom_site_fract_z
 _atom_site_occupancy
  Zn  Zn0  1  0.73722000  0.32639000  0.04953000  1.0
  Zn  Zn1  1  0.11282000  0.17377000  0.45046000  1.0
  Zn  Zn2  1  0.26279000  0.67360000  0.95047000  1.0
  Zn  Zn3  1  0.88719000  0.82623000  0.54953000  1.0
  H  H4  1  0.81053000  0.61219000  0.76967000  1.0
  H  H5  1  0.19250000  0.88787000  0.73033000  1.0
  H  H6  1  0.18947000  0.38781000  0.23033000  1.0
  H  H7  1  0.80750000  0.11214000  0.26967000  1.0
  H  H8  1  0.91629000  0.65126000  0.83244000  1.0
  H  H9  1  0.39996000  0.84878000  0.66745000  1.0
  H  H10  1  0.08370000  0.34874000  0.16756000  1.0
  H  H11  1  0.60002000  0.15123000  0.33255000  1.0
  H  H12  1  0.98157000  0.42929000  0.69806000  1.0
  H  H13  1  0.10919000  0.07053000  0.80194000  1.0
  H  H14  1  0.01842000  0.57071000  0.30194000  1.0
  H  H15  1  0.89082000  0.92947000  0.19806000  1.0
  H  H16  1  0.17629000  0.63685000  0.78702000  1.0
  H  H17  1  0.60037000  0.86321000  0.71288000  1.0
  H  H18  1  0.82371000  0.36315000  0.21298000  1.0
  H  H19  1  0.39963000  0.13679000  0.28712000  1.0
  H  H20  1  0.25269000  0.33209000  0.60932000  1.0
  H  H21  1  0.19439000  0.16781000  0.89066000  1.0
  H  H22  1  0.74731000  0.66791000  0.39068000  1.0
  H  H23  1  0.80561000  0.83219000  0.10934000  1.0
  H  H24  1  0.45423000  0.55207000  0.70243000  1.0
  H  H25  1  0.70902000  0.94794000  0.79753000  1.0
  H  H26  1  0.54577000  0.44793000  0.29757000  1.0
  H  H27  1  0.29098000  0.05206000  0.20247000  1.0
  H  H28  1  0.48462000  0.25816000  0.53733000  1.0
  H  H29  1  0.28044000  0.24167000  0.96280000  1.0
  H  H30  1  0.51538000  0.74184000  0.46267000  1.0
  H  H31  1  0.71956000  0.75832000  0.03721000  1.0
  H  H32  1  0.67634000  0.46668000  0.64514000  1.0
  H  H33  1  0.78831000  0.03354000  0.85474000  1.0
  H  H34  1  0.32366000  0.53332000  0.35486000  1.0
  H  H35  1  0.21169000  0.96646000  0.14526000  1.0
  H  H36  1  0.77256000  0.16321000  0.46412000  1.0
  H  H37  1  0.40022000  0.33663000  0.03599000  1.0
  H  H38  1  0.22743000  0.83679000  0.53589000  1.0
  H  H39  1  0.59978000  0.66337000  0.96401000  1.0
  H  H40  1  0.95388000  0.36598000  0.56426000  1.0
  H  H41  1  0.88432000  0.13426000  0.93559000  1.0
  H  H42  1  0.04612000  0.63402000  0.43574000  1.0
  H  H43  1  0.11568000  0.86574000  0.06441000  1.0
  C  C44  1  0.89503000  0.44951000  0.88487000  1.0
  C  C45  1  0.22927000  0.05056000  0.61508000  1.0
  C  C46  1  0.10497000  0.55049000  0.11513000  1.0
  C  C47  1  0.77073000  0.94945000  0.38492000  1.0
  C  C48  1  0.91582000  0.57299000  0.80695000  1.0
  C  C49  1  0.29583000  0.92707000  0.69295000  1.0
  C  C50  1  0.08418000  0.42701000  0.19305000  1.0
  C  C51  1  0.70418000  0.07293000  0.30705000  1.0
  C  C52  1  0.09154000  0.45187000  0.69574000  1.0
  C  C53  1  0.23942000  0.04808000  0.80419000  1.0
  C  C54  1  0.90846000  0.54813000  0.30426000  1.0
  C  C55  1  0.76059000  0.95192000  0.19581000  1.0
  C  C56  1  0.20130000  0.57003000  0.74575000  1.0
  C  C57  1  0.51731000  0.93006000  0.75413000  1.0
  C  C58  1  0.79871000  0.42997000  0.25424000  1.0
  C  C59  1  0.48269000  0.06994000  0.24587000  1.0
  C  C60  1  0.24480000  0.40004000  0.64606000  1.0
  C  C61  1  0.29118000  0.09994000  0.85387000  1.0
  C  C62  1  0.75519000  0.59997000  0.35394000  1.0
  C  C63  1  0.70882000  0.90006000  0.14613000  1.0
  C  C64  1  0.35627000  0.52045000  0.69748000  1.0
  C  C65  1  0.57450000  0.97959000  0.80245000  1.0
  C  C66  1  0.64372000  0.47955000  0.30252000  1.0
  C  C67  1  0.42550000  0.02041000  0.19755000  1.0
  C  C68  1  0.38329000  0.43116000  0.64740000  1.0
  C  C69  1  0.46210000  0.06887000  0.85253000  1.0
  C  C70  1  0.61671000  0.56884000  0.35260000  1.0
  C  C71  1  0.53790000  0.93113000  0.14747000  1.0
  C  C72  1  0.55169000  0.37177000  0.59980000  1.0
  C  C73  1  0.52345000  0.12822000  0.90021000  1.0
  C  C74  1  0.44831000  0.62823000  0.40020000  1.0
  C  C75  1  0.47653000  0.87178000  0.09980000  1.0
  C  C76  1  0.58305000  0.28535000  0.54693000  1.0
  C  C77  1  0.41563000  0.21454000  0.95314000  1.0
  C  C78  1  0.41695000  0.71465000  0.45307000  1.0
  C  C79  1  0.58437000  0.78546000  0.04686000  1.0
  C  C80  1  0.68877000  0.40017000  0.60630000  1.0
  C  C81  1  0.69541000  0.09992000  0.89365000  1.0
  C  C82  1  0.31123000  0.59983000  0.39370000  1.0
  C  C83  1  0.30459000  0.90008000  0.10635000  1.0
  C  C84  1  0.74460000  0.23251000  0.50411000  1.0
  C  C85  1  0.48155000  0.26738000  0.99596000  1.0
  C  C86  1  0.25540000  0.76749000  0.49589000  1.0
  C  C87  1  0.51845000  0.73262000  0.00404000  1.0
  C  C88  1  0.84567000  0.34532000  0.56062000  1.0
  C  C89  1  0.75182000  0.15474000  0.93934000  1.0
  C  C90  1  0.15433000  0.65468000  0.43938000  1.0
  C  C91  1  0.24818000  0.84526000  0.06066000  1.0
  N  N92  1  0.64704000  0.23774000  0.98959000  1.0
  N  N93  1  0.87409000  0.26226000  0.51041000  1.0
  N  N94  1  0.35296000  0.76226000  0.01041000  1.0
  N  N95  1  0.12591000  0.73774000  0.48959000  1.0
  N  N96  1  0.07191000  0.53460000  0.74525000  1.0
  N  N97  1  0.35198000  0.96543000  0.75464000  1.0
  N  N98  1  0.92810000  0.46540000  0.25474000  1.0
  N  N99  1  0.64802000  0.03457000  0.24536000  1.0
  Cl  Cl100  1  0.97297000  0.18696000  0.10810000  1.0
  Cl  Cl101  1  0.26798000  0.31300000  0.39196000  1.0
  Cl  Cl102  1  0.02703000  0.81304000  0.89190000  1.0
  Cl  Cl103  1  0.73202000  0.68700000  0.60803000  1.0
  Cl  Cl104  1  0.52395000  0.39651000  0.15500000  1.0
  Cl  Cl105  1  0.07527000  0.10363000  0.34495000  1.0
  Cl  Cl106  1  0.47605000  0.60349000  0.84500000  1.0
  Cl  Cl107  1  0.92472000  0.89637000  0.65505000  1.0
  O  O108  1  0.80064000  0.47952000  0.95677000  1.0
  O  O109  1  0.23675000  0.02056000  0.54317000  1.0
  O  O110  1  0.19936000  0.52048000  0.04323000  1.0
  O  O111  1  0.76325000  0.97944000  0.45683000  1.0
  O  O112  1  0.96294000  0.33572000  0.87229000  1.0
  O  O113  1  0.17058000  0.16429000  0.62775000  1.0
  O  O114  1  0.03706000  0.66428000  0.12771000  1.0
  O  O115  1  0.82943000  0.83571000  0.37225000  1.0
