# generated using pymatgen
data_ZnH31C31NO4
_symmetry_space_group_name_H-M   'P 1'
_cell_length_a   10.80970000
_cell_length_b   18.23470000
_cell_length_c   19.65600000
_cell_angle_alpha   89.98870000
_cell_angle_beta   90.04330000
_cell_angle_gamma   89.72200000
_symmetry_Int_Tables_number   1
_chemical_formula_structural   ZnH31C31NO4
_chemical_formula_sum   'Zn2 H62 C62 N2 O8'
_cell_volume   3874.37953837
_cell_formula_units_Z   2
loop_
 _symmetry_equiv_pos_site_id
 _symmetry_equiv_pos_as_xyz
  1  'x, y, z'
loop_
 _atom_site_type_symbol
 _atom_site_label
 _atom_site_symmetry_multiplicity
 _atom_site_fract_x
 _atom_site_fract_y
 _atom_site_fract_z
 _atom_site_occupancy
  Zn  Zn0  1  0.49795000  0.42362000  0.49865000  1.0
  Zn  Zn1  1  0.50187000  0.57634000  0.49868000  1.0
  H  H2  1  0.08303000  0.43880000  0.60530000  1.0
  H  H3  1  0.91600000  0.56078000  0.40242000  1.0
  H  H4  1  0.93249000  0.37131000  0.50364000  1.0
  H  H5  1  0.06736000  0.62872000  0.50338000  1.0
  H  H6  1  0.08324000  0.43911000  0.40242000  1.0
  H  H7  1  0.91744000  0.56136000  0.60530000  1.0
  H  H8  1  0.32837000  0.55930000  0.15443000  1.0
  H  H9  1  0.34213000  0.42942000  0.84327000  1.0
  H  H10  1  0.65932000  0.57069000  0.84300000  1.0
  H  H11  1  0.67340000  0.44086000  0.15488000  1.0
  H  H12  1  0.51645000  0.38250000  0.06219000  1.0
  H  H13  1  0.48788000  0.61774000  0.93554000  1.0
  H  H14  1  0.51410000  0.38244000  0.93563000  1.0
  H  H15  1  0.48577000  0.61772000  0.06209000  1.0
  H  H16  1  0.43676000  0.30704000  0.39824000  1.0
  H  H17  1  0.56362000  0.69293000  0.39841000  1.0
  H  H18  1  0.55585000  0.30777000  0.59792000  1.0
  H  H19  1  0.44321000  0.69215000  0.59775000  1.0
  H  H20  1  0.43945000  0.16909000  0.39349000  1.0
  H  H21  1  0.56116000  0.83090000  0.39366000  1.0
  H  H22  1  0.55557000  0.16984000  0.60357000  1.0
  H  H23  1  0.44349000  0.83008000  0.60341000  1.0
  H  H24  1  0.23712000  0.67626000  0.33106000  1.0
  H  H25  1  0.39972000  0.66144000  0.33183000  1.0
  H  H26  1  0.32321000  0.68171000  0.25379000  1.0
  H  H27  1  0.21018000  0.56140000  0.26176000  1.0
  H  H28  1  0.28213000  0.54334000  0.34075000  1.0
  H  H29  1  0.27265000  0.30305000  0.67597000  1.0
  H  H30  1  0.43284000  0.32347000  0.68415000  1.0
  H  H31  1  0.34161000  0.31022000  0.75815000  1.0
  H  H32  1  0.22254000  0.42486000  0.73243000  1.0
  H  H33  1  0.30219000  0.43500000  0.65454000  1.0
  H  H34  1  0.65907000  0.68992000  0.75774000  1.0
  H  H35  1  0.56719000  0.67653000  0.68390000  1.0
  H  H36  1  0.72729000  0.69700000  0.67541000  1.0
  H  H37  1  0.77808000  0.57529000  0.73195000  1.0
  H  H38  1  0.69783000  0.56506000  0.65419000  1.0
  H  H39  1  0.76322000  0.32360000  0.33164000  1.0
  H  H40  1  0.60061000  0.33856000  0.33189000  1.0
  H  H41  1  0.67768000  0.31840000  0.25408000  1.0
  H  H42  1  0.79086000  0.43859000  0.26256000  1.0
  H  H43  1  0.71842000  0.45655000  0.34136000  1.0
  H  H44  1  0.79422000  0.03754000  0.39672000  1.0
  H  H45  1  0.71171000  0.12168000  0.39143000  1.0
  H  H46  1  0.86734000  0.12093000  0.42066000  1.0
  H  H47  1  0.72253000  0.13534000  0.51833000  1.0
  H  H48  1  0.80555000  0.05298000  0.52553000  1.0
  H  H49  1  0.20625000  0.96232000  0.39596000  1.0
  H  H50  1  0.28886000  0.87819000  0.39100000  1.0
  H  H51  1  0.13313000  0.87891000  0.41984000  1.0
  H  H52  1  0.19430000  0.94701000  0.52475000  1.0
  H  H53  1  0.27730000  0.86461000  0.51791000  1.0
  H  H54  1  0.13212000  0.11975000  0.57968000  1.0
  H  H55  1  0.20914000  0.03706000  0.60335000  1.0
  H  H56  1  0.28885000  0.12179000  0.60704000  1.0
  H  H57  1  0.27302000  0.13429000  0.48019000  1.0
  H  H58  1  0.19198000  0.05155000  0.47457000  1.0
  H  H59  1  0.79030000  0.96280000  0.60415000  1.0
  H  H60  1  0.71054000  0.87809000  0.60763000  1.0
  H  H61  1  0.86739000  0.88009000  0.58065000  1.0
  H  H62  1  0.80815000  0.94837000  0.47541000  1.0
  H  H63  1  0.72704000  0.86566000  0.48083000  1.0
  C  C64  1  0.49997000  0.49998000  0.63227000  1.0
  C  C65  1  0.50022000  0.50001000  0.36542000  1.0
  C  C66  1  0.50998000  0.43417000  0.03434000  1.0
  C  C67  1  0.49402000  0.56608000  0.96340000  1.0
  C  C68  1  0.50807000  0.43410000  0.96346000  1.0
  C  C69  1  0.49214000  0.56603000  0.03429000  1.0
  C  C70  1  0.50104000  0.50009000  0.92680000  1.0
  C  C71  1  0.50106000  0.50011000  0.07094000  1.0
  C  C72  1  0.46352000  0.27384000  0.44207000  1.0
  C  C73  1  0.53665000  0.72613000  0.44217000  1.0
  C  C74  1  0.52956000  0.27422000  0.55437000  1.0
  C  C75  1  0.46989000  0.72571000  0.55428000  1.0
  C  C76  1  0.46462000  0.19765000  0.44018000  1.0
  C  C77  1  0.53561000  0.80233000  0.44028000  1.0
  C  C78  1  0.52985000  0.19808000  0.55673000  1.0
  C  C79  1  0.46969000  0.80186000  0.55667000  1.0
  C  C80  1  0.49773000  0.15795000  0.49858000  1.0
  C  C81  1  0.50218000  0.84201000  0.49860000  1.0
  C  C82  1  0.61357000  0.03888000  0.49909000  1.0
  C  C83  1  0.38642000  0.96107000  0.49881000  1.0
  C  C84  1  0.38535000  0.03837000  0.49910000  1.0
  C  C85  1  0.61462000  0.96157000  0.49941000  1.0
  C  C86  1  0.50106000  0.92367000  0.49889000  1.0
  C  C87  1  0.49890000  0.07628000  0.49887000  1.0
  C  C88  1  0.73802000  0.49626000  0.50189000  1.0
  C  C89  1  0.26181000  0.50373000  0.50165000  1.0
  C  C90  1  0.96393000  0.42826000  0.50384000  1.0
  C  C91  1  0.03594000  0.57177000  0.50370000  1.0
  C  C92  1  0.04387000  0.46583000  0.44739000  1.0
  C  C93  1  0.95580000  0.53428000  0.56026000  1.0
  C  C94  1  0.04441000  0.46583000  0.56027000  1.0
  C  C95  1  0.95568000  0.53410000  0.44737000  1.0
  C  C96  1  0.12482000  0.50398000  0.50417000  1.0
  C  C97  1  0.87503000  0.49604000  0.50431000  1.0
  C  C98  1  0.40217000  0.53394000  0.25371000  1.0
  C  C99  1  0.41037000  0.45928000  0.74405000  1.0
  C  C100  1  0.59038000  0.54076000  0.74386000  1.0
  C  C101  1  0.59896000  0.46617000  0.25395000  1.0
  C  C102  1  0.40474000  0.53400000  0.18255000  1.0
  C  C103  1  0.41254000  0.45979000  0.81518000  1.0
  C  C104  1  0.58873000  0.54032000  0.81501000  1.0
  C  C105  1  0.59688000  0.46620000  0.18278000  1.0
  C  C106  1  0.50093000  0.50013000  0.14627000  1.0
  C  C107  1  0.50077000  0.50009000  0.85147000  1.0
  C  C108  1  0.50044000  0.50001000  0.28890000  1.0
  C  C109  1  0.50024000  0.50002000  0.70875000  1.0
  C  C110  1  0.29574000  0.56992000  0.29111000  1.0
  C  C111  1  0.31487000  0.65241000  0.30247000  1.0
  C  C112  1  0.31231000  0.41559000  0.70719000  1.0
  C  C113  1  0.34118000  0.33308000  0.70640000  1.0
  C  C114  1  0.68809000  0.58449000  0.70684000  1.0
  C  C115  1  0.65908000  0.66698000  0.70601000  1.0
  C  C116  1  0.70506000  0.43008000  0.29163000  1.0
  C  C117  1  0.68574000  0.34758000  0.30282000  1.0
  C  C118  1  0.73399000  0.08096000  0.49527000  1.0
  C  C119  1  0.77960000  0.09076000  0.42182000  1.0
  C  C120  1  0.26603000  0.91899000  0.49474000  1.0
  C  C121  1  0.22080000  0.90912000  0.42118000  1.0
  C  C122  1  0.26393000  0.08002000  0.50378000  1.0
  C  C123  1  0.22087000  0.09017000  0.57769000  1.0
  C  C124  1  0.73601000  0.91991000  0.50444000  1.0
  C  C125  1  0.77868000  0.90971000  0.57845000  1.0
  N  N126  1  0.49614000  0.31134000  0.49813000  1.0
  N  N127  1  0.50361000  0.68861000  0.49813000  1.0
  O  O128  1  0.52771000  0.43989000  0.60285000  1.0
  O  O129  1  0.52975000  0.55956000  0.39492000  1.0
  O  O130  1  0.47047000  0.44043000  0.39481000  1.0
  O  O131  1  0.47206000  0.56004000  0.60281000  1.0
  O  O132  1  0.68412000  0.43717000  0.48435000  1.0
  O  O133  1  0.31567000  0.56282000  0.48415000  1.0
  O  O134  1  0.31455000  0.44288000  0.51607000  1.0
  O  O135  1  0.68529000  0.55708000  0.51636000  1.0
