# generated using pymatgen
data_Tm2MnH28(C8O9)2
_symmetry_space_group_name_H-M   'P 1'
_cell_length_a   8.84269000
_cell_length_b   9.11924000
_cell_length_c   10.69370000
_cell_angle_alpha   80.39750000
_cell_angle_beta   73.51380000
_cell_angle_gamma   76.91930000
_symmetry_Int_Tables_number   1
_chemical_formula_structural   Tm2MnH28(C8O9)2
_chemical_formula_sum   'Tm2 Mn1 H28 C16 O18'
_cell_volume   800.54509158
_cell_formula_units_Z   1
loop_
 _symmetry_equiv_pos_site_id
 _symmetry_equiv_pos_as_xyz
  1  'x, y, z'
loop_
 _atom_site_type_symbol
 _atom_site_label
 _atom_site_symmetry_multiplicity
 _atom_site_fract_x
 _atom_site_fract_y
 _atom_site_fract_z
 _atom_site_occupancy
  Tm  Tm0  1  0.09827000  0.93100000  0.80960000  1.0
  Tm  Tm1  1  0.90173000  0.06900000  0.19039000  1.0
  Mn  Mn2  1  0.00000000  0.99999000  0.50000000  1.0
  H  H3  1  0.52521000  0.12009000  0.92164000  1.0
  H  H4  1  0.47479000  0.87991000  0.07836000  1.0
  H  H5  1  0.48190000  0.07355000  0.77980000  1.0
  H  H6  1  0.51810000  0.92645000  0.22020000  1.0
  H  H7  1  0.53201000  0.25088000  0.77639000  1.0
  H  H8  1  0.46799000  0.74913000  0.22361000  1.0
  H  H9  1  0.26160000  0.27153000  0.42014000  1.0
  H  H10  1  0.73841000  0.72846000  0.57984000  1.0
  H  H11  1  0.43648000  0.12391000  0.41517000  1.0
  H  H12  1  0.56352000  0.87608000  0.58482000  1.0
  H  H13  1  0.40287000  0.27088000  0.51279000  1.0
  H  H14  1  0.59713000  0.72911000  0.48719000  1.0
  H  H15  1  0.80053000  0.66560000  0.23846000  1.0
  H  H16  1  0.19946000  0.33440000  0.76155000  1.0
  H  H17  1  0.91647000  0.52264000  0.13239000  1.0
  H  H18  1  0.08354000  0.47736000  0.86761000  1.0
  H  H19  1  0.73074000  0.62483000  0.10919000  1.0
  H  H20  1  0.26925000  0.37517000  0.89081000  1.0
  H  H21  1  0.35996000  0.51827000  0.55105000  1.0
  H  H22  1  0.64005000  0.48173000  0.44895000  1.0
  H  H23  1  0.26889000  0.65883000  0.44141000  1.0
  H  H24  1  0.73113000  0.34117000  0.55859000  1.0
  H  H25  1  0.15318000  0.53519000  0.55304000  1.0
  H  H26  1  0.84683000  0.46481000  0.44697000  1.0
  H  H27  1  0.31692000  0.73819000  0.94852000  1.0
  H  H28  1  0.68307000  0.26183000  0.05147000  1.0
  H  H29  1  0.24157000  0.88372000  0.03095000  1.0
  H  H30  1  0.75843000  0.11629000  0.96905000  1.0
  C  C31  1  0.73183000  0.06769000  0.75658000  1.0
  C  C32  1  0.26817000  0.93232000  0.24342000  1.0
  C  C33  1  0.91920000  0.75081000  0.04309000  1.0
  C  C34  1  0.08079000  0.24919000  0.95692000  1.0
  C  C35  1  0.25138000  0.10911000  0.59178000  1.0
  C  C36  1  0.74861000  0.89089000  0.40821000  1.0
  C  C37  1  0.55697000  0.13038000  0.81425000  1.0
  C  C38  1  0.44303000  0.86961000  0.18576000  1.0
  C  C39  1  0.20004000  0.70954000  0.63930000  1.0
  C  C40  1  0.79996000  0.29045000  0.36071000  1.0
  C  C41  1  0.34155000  0.20062000  0.47729000  1.0
  C  C42  1  0.65845000  0.79937000  0.52270000  1.0
  C  C43  1  0.83730000  0.63451000  0.13828000  1.0
  C  C44  1  0.16269000  0.36549000  0.86172000  1.0
  C  C45  1  0.25016000  0.59752000  0.54037000  1.0
  C  C46  1  0.74985000  0.40247000  0.45964000  1.0
  O  O47  1  0.09794000  0.11736000  0.61259000  1.0
  O  O48  1  0.90205000  0.88263000  0.38741000  1.0
  O  O49  1  0.07224000  0.81349000  0.63812000  1.0
  O  O50  1  0.92776000  0.18649000  0.36189000  1.0
  O  O51  1  0.27647000  0.84661000  0.94114000  1.0
  O  O52  1  0.72350000  0.15341000  0.05886000  1.0
  O  O53  1  0.92806000  0.87365000  0.08179000  1.0
  O  O54  1  0.07191000  0.12637000  0.91822000  1.0
  O  O55  1  0.32353000  0.02123000  0.67115000  1.0
  O  O56  1  0.67646000  0.97877000  0.32885000  1.0
  O  O57  1  0.82829000  0.03826000  0.83200000  1.0
  O  O58  1  0.17171000  0.96175000  0.16800000  1.0
  O  O59  1  0.98014000  0.72618000  0.92410000  1.0
  O  O60  1  0.01987000  0.27383000  0.07591000  1.0
  O  O61  1  0.77498000  0.04973000  0.63603000  1.0
  O  O62  1  0.22502000  0.95026000  0.36397000  1.0
  O  O63  1  0.27663000  0.70590000  0.72335000  1.0
  O  O64  1  0.72338000  0.29410000  0.27664000  1.0
