# generated using pymatgen
data_AgH9C6SNClO5
_symmetry_space_group_name_H-M   'P 1'
_cell_length_a   6.95182000
_cell_length_b   10.23601953
_cell_length_c   15.63630000
_cell_angle_alpha   89.99993208
_cell_angle_beta   89.99990000
_cell_angle_gamma   70.15665104
_symmetry_Int_Tables_number   1
_chemical_formula_structural   AgH9C6SNClO5
_chemical_formula_sum   'Ag4 H36 C24 S4 N4 Cl4 O20'
_cell_volume   1046.59769602
_cell_formula_units_Z   4
loop_
 _symmetry_equiv_pos_site_id
 _symmetry_equiv_pos_as_xyz
  1  'x, y, z'
loop_
 _atom_site_type_symbol
 _atom_site_label
 _atom_site_symmetry_multiplicity
 _atom_site_fract_x
 _atom_site_fract_y
 _atom_site_fract_z
 _atom_site_occupancy
  Ag  Ag0  1  0.39461000  0.62370000  0.45947000  1.0
  Ag  Ag1  1  0.01834000  0.37609000  0.54043000  1.0
  Ag  Ag2  1  0.51834000  0.37609000  0.95956000  1.0
  Ag  Ag3  1  0.89461000  0.62370000  0.04053000  1.0
  H  H4  1  0.89707000  0.89760000  0.34035000  1.0
  H  H5  1  0.79423000  0.10249000  0.65960000  1.0
  H  H6  1  0.29423000  0.10249000  0.84040000  1.0
  H  H7  1  0.39707000  0.89760000  0.15966000  1.0
  H  H8  1  0.78679000  0.54731000  0.37709000  1.0
  H  H9  1  0.33393000  0.45285000  0.62302000  1.0
  H  H10  1  0.83393000  0.45285000  0.87698000  1.0
  H  H11  1  0.28679000  0.54731000  0.12291000  1.0
  H  H12  1  0.83737000  0.67679000  0.44137000  1.0
  H  H13  1  0.51377000  0.32326000  0.55874000  1.0
  H  H14  1  0.01377000  0.32326000  0.94126000  1.0
  H  H15  1  0.33737000  0.67679000  0.05863000  1.0
  H  H16  1  0.97602000  0.01145000  0.17839000  1.0
  H  H17  1  0.98741000  0.98852000  0.82148000  1.0
  H  H18  1  0.48741000  0.98852000  0.67852000  1.0
  H  H19  1  0.47602000  0.01145000  0.32161000  1.0
  H  H20  1  0.94104000  0.92226000  0.08471000  1.0
  H  H21  1  0.86354000  0.07756000  0.91521000  1.0
  H  H22  1  0.36354000  0.07756000  0.58478000  1.0
  H  H23  1  0.44104000  0.92226000  0.41529000  1.0
  H  H24  1  0.72582000  0.02453000  0.14506000  1.0
  H  H25  1  0.75046000  0.97530000  0.85488000  1.0
  H  H26  1  0.25046000  0.97530000  0.64512000  1.0
  H  H27  1  0.22581000  0.02453000  0.35494000  1.0
  H  H28  1  0.33940000  0.27804000  0.34952000  1.0
  H  H29  1  0.61767000  0.72190000  0.65041000  1.0
  H  H30  1  0.11767000  0.72190000  0.84959000  1.0
  H  H31  1  0.83939000  0.27804000  0.15048000  1.0
  H  H32  1  0.22558000  0.41403000  0.27377000  1.0
  H  H33  1  0.63967000  0.58604000  0.72622000  1.0
  H  H34  1  0.13967000  0.58604000  0.77378000  1.0
  H  H35  1  0.72558000  0.41403000  0.22623000  1.0
  H  H36  1  0.07570000  0.31908000  0.32030000  1.0
  H  H37  1  0.39489000  0.68104000  0.67966000  1.0
  H  H38  1  0.89489000  0.68104000  0.82034000  1.0
  H  H39  1  0.57570000  0.31908000  0.17969000  1.0
  C  C40  1  0.89796000  0.68725000  0.30931000  1.0
  C  C41  1  0.58507000  0.31283000  0.69076000  1.0
  C  C42  1  0.08506000  0.31283000  0.80924000  1.0
  C  C43  1  0.39797000  0.68724000  0.19069000  1.0
  C  C44  1  0.89733000  0.81880000  0.29403000  1.0
  C  C45  1  0.71587000  0.18121000  0.70598000  1.0
  C  C46  1  0.21586000  0.18121000  0.79402000  1.0
  C  C47  1  0.39733000  0.81880000  0.20597000  1.0
  C  C48  1  0.89440000  0.83203000  0.20323000  1.0
  C  C49  1  0.72639000  0.16792000  0.79677000  1.0
  C  C50  1  0.22639000  0.16792000  0.70323000  1.0
  C  C51  1  0.39439000  0.83203000  0.29677000  1.0
  C  C52  1  0.89028000  0.60664000  0.38665000  1.0
  C  C53  1  0.49666000  0.39344000  0.61343000  1.0
  C  C54  1  0.99666000  0.39344000  0.88657000  1.0
  C  C55  1  0.39028000  0.60664000  0.11335000  1.0
  C  C56  1  0.88513000  0.95401000  0.14968000  1.0
  C  C57  1  0.83916000  0.04590000  0.85025000  1.0
  C  C58  1  0.33916000  0.04590000  0.64975000  1.0
  C  C59  1  0.38513000  0.95401000  0.35032000  1.0
  C  C60  1  0.19889000  0.36126000  0.33101000  1.0
  C  C61  1  0.56024000  0.63876000  0.66896000  1.0
  C  C62  1  0.06024000  0.63876000  0.83104000  1.0
  C  C63  1  0.69889000  0.36126000  0.16899000  1.0
  S  S64  1  0.13561000  0.48016000  0.42030000  1.0
  S  S65  1  0.61575000  0.51979000  0.57972000  1.0
  S  S66  1  0.11575000  0.51979000  0.92028000  1.0
  S  S67  1  0.63561000  0.48016000  0.07970000  1.0
  N  N68  1  0.89559000  0.71438000  0.16745000  1.0
  N  N69  1  0.61012000  0.28558000  0.83261000  1.0
  N  N70  1  0.11012000  0.28558000  0.66739000  1.0
  N  N71  1  0.39559000  0.71438000  0.33255000  1.0
  Cl  Cl72  1  0.97181000  0.79361000  0.58450000  1.0
  Cl  Cl73  1  0.76500000  0.20644000  0.41539000  1.0
  Cl  Cl74  1  0.26500000  0.20644000  0.08461000  1.0
  Cl  Cl75  1  0.47182000  0.79361000  0.91550000  1.0
  O  O76  1  0.89671000  0.62151000  0.23350000  1.0
  O  O77  1  0.51835000  0.37851000  0.76659000  1.0
  O  O78  1  0.01835000  0.37851000  0.73341000  1.0
  O  O79  1  0.39671000  0.62151000  0.26650000  1.0
  O  O80  1  0.09750000  0.82551000  0.51747000  1.0
  O  O81  1  0.92251000  0.17455000  0.48245000  1.0
  O  O82  1  0.42250000  0.17456000  0.01755000  1.0
  O  O83  1  0.59750000  0.82551000  0.98253000  1.0
  O  O84  1  0.98091000  0.86964000  0.66227000  1.0
  O  O85  1  0.85033000  0.13049000  0.33761000  1.0
  O  O86  1  0.35033000  0.13049000  0.16238000  1.0
  O  O87  1  0.48091000  0.86964000  0.83773000  1.0
  O  O88  1  0.05163000  0.64351000  0.60270000  1.0
  O  O89  1  0.69456000  0.35656000  0.39724000  1.0
  O  O90  1  0.19456000  0.35656000  0.10276000  1.0
  O  O91  1  0.55163000  0.64351000  0.89730000  1.0
  O  O92  1  0.76114000  0.83153000  0.55426000  1.0
  O  O93  1  0.59233000  0.16835000  0.44557000  1.0
  O  O94  1  0.09233000  0.16835000  0.05443000  1.0
  O  O95  1  0.26114000  0.83153000  0.94574000  1.0
