# generated using pymatgen
data_CdH8C19NO7
_symmetry_space_group_name_H-M   'P 1'
_cell_length_a   5.10086000
_cell_length_b   15.17690000
_cell_length_c   21.23370000
_cell_angle_alpha   70.66200000
_cell_angle_beta   89.99990000
_cell_angle_gamma   89.99990000
_symmetry_Int_Tables_number   1
_chemical_formula_structural   CdH8C19NO7
_chemical_formula_sum   'Cd4 H32 C76 N4 O28'
_cell_volume   1551.07068147
_cell_formula_units_Z   4
loop_
 _symmetry_equiv_pos_site_id
 _symmetry_equiv_pos_as_xyz
  1  'x, y, z'
loop_
 _atom_site_type_symbol
 _atom_site_label
 _atom_site_symmetry_multiplicity
 _atom_site_fract_x
 _atom_site_fract_y
 _atom_site_fract_z
 _atom_site_occupancy
  Cd  Cd0  1  0.63487000  0.82252000  0.80767000  1.0
  Cd  Cd1  1  0.13487000  0.67748000  0.69233000  1.0
  Cd  Cd2  1  0.36513000  0.17748000  0.19232000  1.0
  Cd  Cd3  1  0.86513000  0.32252000  0.30767000  1.0
  H  H4  1  0.14149000  0.59355000  0.94636000  1.0
  H  H5  1  0.64149000  0.90645000  0.55364000  1.0
  H  H6  1  0.85851000  0.40645000  0.05364000  1.0
  H  H7  1  0.35851000  0.09355000  0.44636000  1.0
  H  H8  1  0.40489000  0.44759000  0.99507000  1.0
  H  H9  1  0.90489000  0.05241000  0.50493000  1.0
  H  H10  1  0.59511000  0.55241000  0.00493000  1.0
  H  H11  1  0.09511000  0.94759000  0.49507000  1.0
  H  H12  1  0.63375000  0.40482000  0.72303000  1.0
  H  H13  1  0.13375000  0.09519000  0.77697000  1.0
  H  H14  1  0.36625000  0.59519000  0.27697000  1.0
  H  H15  1  0.86625000  0.90481000  0.22303000  1.0
  H  H16  1  0.89308000  0.26144000  0.77640000  1.0
  H  H17  1  0.39307000  0.23856000  0.72360000  1.0
  H  H18  1  0.10693000  0.73856000  0.22360000  1.0
  H  H19  1  0.60692000  0.76144000  0.27640000  1.0
  H  H20  1  0.47315000  0.99384000  0.86012000  1.0
  H  H21  1  0.97315000  0.50616000  0.63988000  1.0
  H  H22  1  0.52685000  0.00616000  0.13988000  1.0
  H  H23  1  0.02685000  0.49384000  0.36012000  1.0
  H  H24  1  0.64047000  0.07904000  0.93162000  1.0
  H  H25  1  0.14047000  0.42096000  0.56838000  1.0
  H  H26  1  0.35953000  0.92096000  0.06838000  1.0
  H  H27  1  0.85953000  0.57904000  0.43162000  1.0
  H  H28  1  0.20543000  0.85484000  0.00907000  1.0
  H  H29  1  0.70543000  0.64516000  0.49093000  1.0
  H  H30  1  0.79457000  0.14516000  0.99093000  1.0
  H  H31  1  0.29457000  0.35484000  0.50907000  1.0
  H  H32  1  0.01667000  0.78097000  0.93360000  1.0
  H  H33  1  0.51667000  0.71903000  0.56640000  1.0
  H  H34  1  0.98333000  0.21903000  0.06640000  1.0
  H  H35  1  0.48333000  0.28097000  0.43360000  1.0
  C  C36  1  0.83989000  0.64273000  0.84261000  1.0
  C  C37  1  0.33989000  0.85727000  0.65739000  1.0
  C  C38  1  0.16011000  0.35727000  0.15739000  1.0
  C  C39  1  0.66011000  0.14273000  0.34261000  1.0
  C  C40  1  0.96424000  0.54793000  0.87073000  1.0
  C  C41  1  0.46424000  0.95207000  0.62927000  1.0
  C  C42  1  0.03576000  0.45208000  0.12927000  1.0
  C  C43  1  0.53576000  0.04792000  0.37073000  1.0
  C  C44  1  0.12640000  0.53726000  0.92536000  1.0
  C  C45  1  0.62640000  0.96274000  0.57465000  1.0
  C  C46  1  0.87360000  0.46274000  0.07465000  1.0
  C  C47  1  0.37360000  0.03726000  0.42535000  1.0
  C  C48  1  0.27917000  0.45707000  0.95201000  1.0
  C  C49  1  0.77917000  0.04293000  0.54799000  1.0
  C  C50  1  0.72083000  0.54293000  0.04799000  1.0
  C  C51  1  0.22083000  0.95707000  0.45201000  1.0
  C  C52  1  0.27040000  0.38644000  0.92430000  1.0
  C  C53  1  0.77040000  0.11356000  0.57570000  1.0
  C  C54  1  0.72960000  0.61356000  0.07570000  1.0
  C  C55  1  0.22961000  0.88644000  0.42430000  1.0
  C  C56  1  0.09507000  0.39195000  0.87142000  1.0
  C  C57  1  0.59507000  0.10805000  0.62858000  1.0
  C  C58  1  0.90493000  0.60805000  0.12858000  1.0
  C  C59  1  0.40493000  0.89195000  0.37142000  1.0
  C  C60  1  0.93905000  0.47441000  0.84289000  1.0
  C  C61  1  0.43905000  0.02559000  0.65711000  1.0
  C  C62  1  0.06095000  0.52560000  0.15711000  1.0
  C  C63  1  0.56095000  0.97440000  0.34289000  1.0
  C  C64  1  0.77611000  0.47752000  0.78764000  1.0
  C  C65  1  0.27611000  0.02248000  0.71236000  1.0
  C  C66  1  0.22389000  0.52248000  0.21236000  1.0
  C  C67  1  0.72389000  0.97752000  0.28764000  1.0
  C  C68  1  0.75925000  0.40105000  0.76536000  1.0
  C  C69  1  0.25925000  0.09895000  0.73464000  1.0
  C  C70  1  0.24075000  0.59895000  0.23464000  1.0
  C  C71  1  0.74075000  0.90105000  0.26536000  1.0
  C  C72  1  0.90724000  0.32045000  0.79463000  1.0
  C  C73  1  0.40724000  0.17955000  0.70537000  1.0
  C  C74  1  0.09276000  0.67955000  0.20537000  1.0
  C  C75  1  0.59276000  0.82045000  0.29463000  1.0
  C  C76  1  0.07811000  0.31619000  0.84655000  1.0
  C  C77  1  0.57812000  0.18381000  0.65345000  1.0
  C  C78  1  0.92189000  0.68381000  0.15345000  1.0
  C  C79  1  0.42189000  0.81619000  0.34655000  1.0
  C  C80  1  0.61859000  0.56100000  0.74688000  1.0
  C  C81  1  0.11859000  0.93900000  0.75312000  1.0
  C  C82  1  0.38141000  0.43900000  0.25312000  1.0
  C  C83  1  0.88141000  0.06100000  0.24688000  1.0
  C  C84  1  0.24124000  0.23328000  0.87484000  1.0
  C  C85  1  0.74124000  0.26672000  0.62516000  1.0
  C  C86  1  0.75876000  0.76672000  0.12516000  1.0
  C  C87  1  0.25876000  0.73328000  0.37484000  1.0
  C  C88  1  0.45245000  0.30837000  0.94882000  1.0
  C  C89  1  0.95244000  0.19163000  0.55118000  1.0
  C  C90  1  0.54755000  0.69163000  0.05118000  1.0
  C  C91  1  0.04754000  0.80837000  0.44882000  1.0
  C  C92  1  0.63667000  0.96563000  0.89378000  1.0
  C  C93  1  0.13667000  0.53437000  0.60622000  1.0
  C  C94  1  0.36333000  0.03437000  0.10622000  1.0
  C  C95  1  0.86333000  0.46563000  0.39378000  1.0
  C  C96  1  0.73297000  0.01316000  0.93476000  1.0
  C  C97  1  0.23297000  0.48684000  0.56524000  1.0
  C  C98  1  0.26703000  0.98684000  0.06524000  1.0
  C  C99  1  0.76703000  0.51316000  0.43476000  1.0
  C  C100  1  0.94390000  0.97579000  0.97799000  1.0
  C  C101  1  0.44390000  0.52421000  0.52201000  1.0
  C  C102  1  0.05610000  0.02421000  0.02201000  1.0
  C  C103  1  0.55610000  0.47579000  0.47799000  1.0
  C  C104  1  0.04343000  0.88986000  0.97737000  1.0
  C  C105  1  0.54343000  0.61014000  0.52263000  1.0
  C  C106  1  0.95657000  0.11014000  0.02263000  1.0
  C  C107  1  0.45657000  0.38986000  0.47737000  1.0
  C  C108  1  0.93690000  0.84695000  0.93473000  1.0
  C  C109  1  0.43690000  0.65305000  0.56527000  1.0
  C  C110  1  0.06310000  0.15305000  0.06527000  1.0
  C  C111  1  0.56310000  0.34695000  0.43473000  1.0
  N  N112  1  0.73701000  0.88396000  0.89302000  1.0
  N  N113  1  0.23701000  0.61604000  0.60698000  1.0
  N  N114  1  0.26299000  0.11604000  0.10698000  1.0
  N  N115  1  0.76299000  0.38396000  0.39302000  1.0
  O  O116  1  0.67951000  0.66840000  0.87892000  1.0
  O  O117  1  0.17950000  0.83160000  0.62108000  1.0
  O  O118  1  0.32049000  0.33160000  0.12108000  1.0
  O  O119  1  0.82049000  0.16840000  0.37892000  1.0
  O  O120  1  0.91496000  0.69744000  0.78588000  1.0
  O  O121  1  0.41496000  0.80256000  0.71412000  1.0
  O  O122  1  0.08505000  0.30256000  0.21412000  1.0
  O  O123  1  0.58504000  0.19744000  0.28588000  1.0
  O  O124  1  0.38647000  0.56646000  0.76629000  1.0
  O  O125  1  0.88647000  0.93354000  0.73371000  1.0
  O  O126  1  0.61353000  0.43354000  0.23371000  1.0
  O  O127  1  0.11353000  0.06646000  0.26629000  1.0
  O  O128  1  0.72023000  0.61506000  0.69354000  1.0
  O  O129  1  0.22023000  0.88494000  0.80646000  1.0
  O  O130  1  0.27976000  0.38494000  0.30646000  1.0
  O  O131  1  0.77976000  0.11506000  0.19354000  1.0
  O  O132  1  0.23551000  0.16269000  0.85937000  1.0
  O  O133  1  0.73550000  0.33731000  0.64063000  1.0
  O  O134  1  0.76449000  0.83731000  0.14063000  1.0
  O  O135  1  0.26449000  0.66269000  0.35937000  1.0
  O  O136  1  0.42567000  0.23495000  0.92300000  1.0
  O  O137  1  0.92567000  0.26505000  0.57700000  1.0
  O  O138  1  0.57433000  0.76505000  0.07700000  1.0
  O  O139  1  0.07433000  0.73495000  0.42300000  1.0
  O  O140  1  0.62954000  0.30153000  0.98862000  1.0
  O  O141  1  0.12955000  0.19846000  0.51138000  1.0
  O  O142  1  0.37047000  0.69847000  0.01138000  1.0
  O  O143  1  0.87047000  0.80153000  0.48861000  1.0
