# generated using pymatgen
data_CdH11C20(NO2)3
_symmetry_space_group_name_H-M   'P 1'
_cell_length_a   7.37795000
_cell_length_b   10.27990000
_cell_length_c   11.81380000
_cell_angle_alpha   85.25190000
_cell_angle_beta   80.55720000
_cell_angle_gamma   78.94830000
_symmetry_Int_Tables_number   1
_chemical_formula_structural   CdH11C20(NO2)3
_chemical_formula_sum   'Cd2 H22 C40 N6 O12'
_cell_volume   866.26012420
_cell_formula_units_Z   2
loop_
 _symmetry_equiv_pos_site_id
 _symmetry_equiv_pos_as_xyz
  1  'x, y, z'
loop_
 _atom_site_type_symbol
 _atom_site_label
 _atom_site_symmetry_multiplicity
 _atom_site_fract_x
 _atom_site_fract_y
 _atom_site_fract_z
 _atom_site_occupancy
  Cd  Cd0  1  0.80717000  0.11573000  0.09958000  1.0
  Cd  Cd1  1  0.19282000  0.88427000  0.90042000  1.0
  H  H2  1  0.39792000  0.23399000  0.26661000  1.0
  H  H3  1  0.60209000  0.76600000  0.73340000  1.0
  H  H4  1  0.25521000  0.42736000  0.38538000  1.0
  H  H5  1  0.74480000  0.57264000  0.61461000  1.0
  H  H6  1  0.43757000  0.61064000  0.38842000  1.0
  H  H7  1  0.56243000  0.38936000  0.61158000  1.0
  H  H8  1  0.73146000  0.70056000  0.32204000  1.0
  H  H9  1  0.26854000  0.29944000  0.67796000  1.0
  H  H10  1  0.05012000  0.67318000  0.20851000  1.0
  H  H11  1  0.94988000  0.32681000  0.79150000  1.0
  H  H12  1  0.30291000  0.54471000  0.07934000  1.0
  H  H13  1  0.69709000  0.45529000  0.92066000  1.0
  H  H14  1  0.42859000  0.33176000  0.97380000  1.0
  H  H15  1  0.57142000  0.66823000  0.02621000  1.0
  H  H16  1  0.22935000  0.16113000  0.98958000  1.0
  H  H17  1  0.77065000  0.83887000  0.01043000  1.0
  H  H18  1  0.54454000  0.91390000  0.44148000  1.0
  H  H19  1  0.45545000  0.08610000  0.55852000  1.0
  H  H20  1  0.28483000  0.85084000  0.58918000  1.0
  H  H21  1  0.71517000  0.14917000  0.41082000  1.0
  H  H22  1  0.95705000  0.84806000  0.31944000  1.0
  H  H23  1  0.04294000  0.15195000  0.68056000  1.0
  C  C24  1  0.47528000  0.31340000  0.27088000  1.0
  C  C25  1  0.52473000  0.68660000  0.72912000  1.0
  C  C26  1  0.39464000  0.42357000  0.33689000  1.0
  C  C27  1  0.60536000  0.57643000  0.66311000  1.0
  C  C28  1  0.49520000  0.52342000  0.33863000  1.0
  C  C29  1  0.50480000  0.47658000  0.66137000  1.0
  C  C30  1  0.67687000  0.51281000  0.27521000  1.0
  C  C31  1  0.32313000  0.48719000  0.72479000  1.0
  C  C32  1  0.78877000  0.61239000  0.27360000  1.0
  C  C33  1  0.21123000  0.38761000  0.72640000  1.0
  C  C34  1  0.96393000  0.59778000  0.21138000  1.0
  C  C35  1  0.03607000  0.40222000  0.78863000  1.0
  C  C36  1  0.04064000  0.48322000  0.14697000  1.0
  C  C37  1  0.95937000  0.51678000  0.85303000  1.0
  C  C38  1  0.22127000  0.46619000  0.08167000  1.0
  C  C39  1  0.77874000  0.53381000  0.91833000  1.0
  C  C40  1  0.28952000  0.35153000  0.02376000  1.0
  C  C41  1  0.71049000  0.64847000  0.97624000  1.0
  C  C42  1  0.17657000  0.25460000  0.03088000  1.0
  C  C43  1  0.82343000  0.74540000  0.96912000  1.0
  C  C44  1  0.93443000  0.38180000  0.14696000  1.0
  C  C45  1  0.06558000  0.61820000  0.85304000  1.0
  C  C46  1  0.74800000  0.39733000  0.21159000  1.0
  C  C47  1  0.25200000  0.60267000  0.78840000  1.0
  C  C48  1  0.54578000  0.97205000  0.21783000  1.0
  C  C49  1  0.45422000  0.02795000  0.78217000  1.0
  C  C50  1  0.39841000  0.91407000  0.29916000  1.0
  C  C51  1  0.60159000  0.08593000  0.70084000  1.0
  C  C52  1  0.41582000  0.89755000  0.41614000  1.0
  C  C53  1  0.58417000  0.10245000  0.58386000  1.0
  C  C54  1  0.27326000  0.86186000  0.49814000  1.0
  C  C55  1  0.72673000  0.13814000  0.50185000  1.0
  C  C56  1  0.11055000  0.84433000  0.46023000  1.0
  C  C57  1  0.88945000  0.15568000  0.53977000  1.0
  C  C58  1  0.08913000  0.85800000  0.34443000  1.0
  C  C59  1  0.91086000  0.14200000  0.65557000  1.0
  C  C60  1  0.23595000  0.88925000  0.26268000  1.0
  C  C61  1  0.76404000  0.11076000  0.73733000  1.0
  C  C62  1  0.22197000  0.88131000  0.13763000  1.0
  C  C63  1  0.77802000  0.11870000  0.86237000  1.0
  N  N64  1  0.64610000  0.30072000  0.21049000  1.0
  N  N65  1  0.35390000  0.69928000  0.78951000  1.0
  N  N66  1  0.00405000  0.27016000  0.08903000  1.0
  N  N67  1  0.99595000  0.72984000  0.91097000  1.0
  N  N68  1  0.95614000  0.80926000  0.54470000  1.0
  N  N69  1  0.04385000  0.19074000  0.45530000  1.0
  O  O70  1  0.50035000  0.03428000  0.12693000  1.0
  O  O71  1  0.49965000  0.96572000  0.87307000  1.0
  O  O72  1  0.70677000  0.96420000  0.24851000  1.0
  O  O73  1  0.29322000  0.03580000  0.75149000  1.0
  O  O74  1  0.81768000  0.78479000  0.50837000  1.0
  O  O75  1  0.18232000  0.21521000  0.49163000  1.0
  O  O76  1  0.97063000  0.80483000  0.64830000  1.0
  O  O77  1  0.02937000  0.19516000  0.35170000  1.0
  O  O78  1  0.31724000  0.78059000  0.08859000  1.0
  O  O79  1  0.68274000  0.21941000  0.91141000  1.0
  O  O80  1  0.10848000  0.96846000  0.08789000  1.0
  O  O81  1  0.89152000  0.03155000  0.91211000  1.0
