# generated using pymatgen
data_ZnH13C20NO6
_symmetry_space_group_name_H-M   'P 1'
_cell_length_a   11.05890000
_cell_length_b   16.40390000
_cell_length_c   17.81910000
_cell_angle_alpha   95.24920000
_cell_angle_beta   90.38850000
_cell_angle_gamma   92.04490000
_symmetry_Int_Tables_number   1
_chemical_formula_structural   ZnH13C20NO6
_chemical_formula_sum   'Zn2 H26 C40 N2 O12'
_cell_volume   3216.77624332
_cell_formula_units_Z   2
loop_
 _symmetry_equiv_pos_site_id
 _symmetry_equiv_pos_as_xyz
  1  'x, y, z'
loop_
 _atom_site_type_symbol
 _atom_site_label
 _atom_site_symmetry_multiplicity
 _atom_site_fract_x
 _atom_site_fract_y
 _atom_site_fract_z
 _atom_site_occupancy
  Zn  Zn0  1  0.49557000  0.41467000  0.50145000  1.0
  Zn  Zn1  1  0.50330000  0.58527000  0.50679000  1.0
  H  H2  1  0.37414000  0.71282000  0.42881000  1.0
  H  H3  1  0.37905000  0.86362000  0.42928000  1.0
  H  H4  1  0.66868000  0.86805000  0.59690000  1.0
  H  H5  1  0.64890000  0.71976000  0.58786000  1.0
  H  H6  1  0.33509000  0.13217000  0.40253000  1.0
  H  H7  1  0.62192000  0.13426000  0.57156000  1.0
  H  H8  1  0.62517000  0.28531000  0.57525000  1.0
  H  H9  1  0.35134000  0.28091000  0.41592000  1.0
  H  H10  1  0.50590000  0.61848000  0.26632000  1.0
  H  H11  1  0.50664000  0.61117000  0.12790000  1.0
  H  H12  1  0.49150000  0.34555000  0.12233000  1.0
  H  H13  1  0.49106000  0.35672000  0.25830000  1.0
  H  H14  1  0.50890000  0.65646000  0.88702000  1.0
  H  H15  1  0.49369000  0.39059000  0.87813000  1.0
  H  H16  1  0.49387000  0.38568000  0.73957000  1.0
  H  H17  1  0.50948000  0.64771000  0.75145000  1.0
  H  H18  1  0.77962000  0.60146000  0.39727000  1.0
  H  H19  1  0.89635000  0.68485000  0.31277000  1.0
  H  H20  1  0.22957000  0.59483000  0.39374000  1.0
  H  H21  1  0.12212000  0.68135000  0.31058000  1.0
  H  H22  1  0.10807000  0.40597000  0.57075000  1.0
  H  H23  1  0.88172000  0.40721000  0.57114000  1.0
  H  H24  1  0.65735000  0.96725000  0.59538000  1.0
  H  H25  1  0.34202000  0.03175000  0.40571000  1.0
  H  H26  1  0.49056000  0.35317000  0.03314000  1.0
  H  H27  1  0.50971000  0.64775000  0.97478000  1.0
  C  C28  1  0.49689000  0.49358000  0.35577000  1.0
  C  C29  1  0.26239000  0.49599000  0.49862000  1.0
  C  C30  1  0.50283000  0.51235000  0.65189000  1.0
  C  C31  1  0.73649000  0.49834000  0.49994000  1.0
  C  C32  1  0.43767000  0.75083000  0.46509000  1.0
  C  C33  1  0.44089000  0.83551000  0.46565000  1.0
  C  C34  1  0.52352000  0.88371000  0.51346000  1.0
  C  C35  1  0.59962000  0.83941000  0.55792000  1.0
  C  C36  1  0.59071000  0.75462000  0.55400000  1.0
  C  C37  1  0.53399000  0.97348000  0.51966000  1.0
  C  C38  1  0.46788000  0.02561000  0.47998000  1.0
  C  C39  1  0.40246000  0.16044000  0.44289000  1.0
  C  C40  1  0.47821000  0.11538000  0.48689000  1.0
  C  C41  1  0.56009000  0.16298000  0.53569000  1.0
  C  C42  1  0.56222000  0.24778000  0.53815000  1.0
  C  C43  1  0.40986000  0.24541000  0.44898000  1.0
  C  C44  1  0.49751000  0.48822000  0.27164000  1.0
  C  C45  1  0.50229000  0.55909000  0.23333000  1.0
  C  C46  1  0.50283000  0.55484000  0.15516000  1.0
  C  C47  1  0.49850000  0.47857000  0.11060000  1.0
  C  C48  1  0.49433000  0.40769000  0.15077000  1.0
  C  C49  1  0.49387000  0.41220000  0.22898000  1.0
  C  C50  1  0.49824000  0.46956000  0.02779000  1.0
  C  C51  1  0.50204000  0.53135000  0.97988000  1.0
  C  C52  1  0.50597000  0.59468000  0.85787000  1.0
  C  C53  1  0.50175000  0.52312000  0.89707000  1.0
  C  C54  1  0.49738000  0.44744000  0.85158000  1.0
  C  C55  1  0.49762000  0.44455000  0.77342000  1.0
  C  C56  1  0.50243000  0.51614000  0.73607000  1.0
  C  C57  1  0.50640000  0.59154000  0.77975000  1.0
  C  C58  1  0.87169000  0.49871000  0.49370000  1.0
  C  C59  1  0.93687000  0.55021000  0.44608000  1.0
  C  C60  1  0.93342000  0.44690000  0.53629000  1.0
  C  C61  1  0.87797000  0.60044000  0.39709000  1.0
  C  C62  1  0.94351000  0.64710000  0.35004000  1.0
  C  C63  1  0.12714000  0.49683000  0.49270000  1.0
  C  C64  1  0.06038000  0.44603000  0.53597000  1.0
  C  C65  1  0.06709000  0.54887000  0.44536000  1.0
  C  C66  1  0.13133000  0.59712000  0.39527000  1.0
  C  C67  1  0.07112000  0.64530000  0.34894000  1.0
  N  N68  1  0.51065000  0.71057000  0.50849000  1.0
  N  N69  1  0.48861000  0.28891000  0.49591000  1.0
  O  O70  1  0.49480000  0.42648000  0.38669000  1.0
  O  O71  1  0.49867000  0.56529000  0.39036000  1.0
  O  O72  1  0.31948000  0.56516000  0.50554000  1.0
  O  O73  1  0.30954000  0.42625000  0.49793000  1.0
  O  O74  1  0.50843000  0.58019000  0.62218000  1.0
  O  O75  1  0.49722000  0.44119000  0.61624000  1.0
  O  O76  1  0.68217000  0.42875000  0.50150000  1.0
  O  O77  1  0.68636000  0.56738000  0.50441000  1.0
  O  O78  1  0.61844000  0.00963000  0.57021000  1.0
  O  O79  1  0.38405000  0.98937000  0.42903000  1.0
  O  O80  1  0.49360000  0.39044000  0.99375000  1.0
  O  O81  1  0.50666000  0.61040000  0.01408000  1.0
