# generated using pymatgen
data_Ge3H14C6(NO3)2
_symmetry_space_group_name_H-M   'P 1'
_cell_length_a   5.33634000
_cell_length_b   7.43324000
_cell_length_c   14.76220000
_cell_angle_alpha   90.93450000
_cell_angle_beta   89.99640000
_cell_angle_gamma   89.99950000
_symmetry_Int_Tables_number   1
_chemical_formula_structural   Ge3H14C6(NO3)2
_chemical_formula_sum   'Ge6 H28 C12 N4 O12'
_cell_volume   585.48390909
_cell_formula_units_Z   2
loop_
 _symmetry_equiv_pos_site_id
 _symmetry_equiv_pos_as_xyz
  1  'x, y, z'
loop_
 _atom_site_type_symbol
 _atom_site_label
 _atom_site_symmetry_multiplicity
 _atom_site_fract_x
 _atom_site_fract_y
 _atom_site_fract_z
 _atom_site_occupancy
  Ge  Ge0  1  0.72253000  0.61889000  0.91560000  1.0
  Ge  Ge1  1  0.25193000  0.37762000  0.91654000  1.0
  Ge  Ge2  1  0.75192000  0.12240000  0.08347000  1.0
  Ge  Ge3  1  0.22251000  0.88112000  0.08441000  1.0
  Ge  Ge4  1  0.99329000  0.99541000  0.88945000  1.0
  Ge  Ge5  1  0.49325000  0.50461000  0.11056000  1.0
  H  H6  1  0.73690000  0.92413000  0.69378000  1.0
  H  H7  1  0.26766000  0.07374000  0.70137000  1.0
  H  H8  1  0.76756000  0.42625000  0.29862000  1.0
  H  H9  1  0.23681000  0.57589000  0.30622000  1.0
  H  H10  1  0.65013000  0.21966000  0.61723000  1.0
  H  H11  1  0.36756000  0.78782000  0.61432000  1.0
  H  H12  1  0.86744000  0.71215000  0.38567000  1.0
  H  H13  1  0.15000000  0.28036000  0.38278000  1.0
  H  H14  1  0.97296000  0.27074000  0.62257000  1.0
  H  H15  1  0.04584000  0.73223000  0.61337000  1.0
  H  H16  1  0.54572000  0.76775000  0.38663000  1.0
  H  H17  1  0.47283000  0.22926000  0.37743000  1.0
  H  H18  1  0.86644000  0.13953000  0.46971000  1.0
  H  H19  1  0.16134000  0.87447000  0.46710000  1.0
  H  H20  1  0.66127000  0.62548000  0.53289000  1.0
  H  H21  1  0.36631000  0.36046000  0.53029000  1.0
  H  H22  1  0.73490000  0.94922000  0.52085000  1.0
  H  H23  1  0.28816000  0.06164000  0.52552000  1.0
  H  H24  1  0.78804000  0.43831000  0.47445000  1.0
  H  H25  1  0.23481000  0.55078000  0.47916000  1.0
  H  H26  1  0.62274000  0.12933000  0.80266000  1.0
  H  H27  1  0.36851000  0.85655000  0.80286000  1.0
  H  H28  1  0.86845000  0.64345000  0.19713000  1.0
  H  H29  1  0.12267000  0.37068000  0.19734000  1.0
  H  H30  1  0.86882000  0.26284000  0.78945000  1.0
  H  H31  1  0.11751000  0.72992000  0.78215000  1.0
  H  H32  1  0.61744000  0.77008000  0.21785000  1.0
  H  H33  1  0.36876000  0.23716000  0.21055000  1.0
  C  C34  1  0.86769000  0.03863000  0.69904000  1.0
  C  C35  1  0.13665000  0.95912000  0.69979000  1.0
  C  C36  1  0.63655000  0.54088000  0.30021000  1.0
  C  C37  1  0.36761000  0.46138000  0.30096000  1.0
  C  C38  1  0.83793000  0.15851000  0.61659000  1.0
  C  C39  1  0.17819000  0.84648000  0.61345000  1.0
  C  C40  1  0.67809000  0.65350000  0.38654000  1.0
  C  C41  1  0.33782000  0.34150000  0.38340000  1.0
  C  C42  1  0.88320000  0.05158000  0.52866000  1.0
  C  C43  1  0.13957000  0.95888000  0.52858000  1.0
  C  C44  1  0.63949000  0.54110000  0.47141000  1.0
  C  C45  1  0.38309000  0.44842000  0.47134000  1.0
  N  N46  1  0.80998000  0.13106000  0.78522000  1.0
  N  N47  1  0.18249000  0.85994000  0.78352000  1.0
  N  N48  1  0.68243000  0.64007000  0.21648000  1.0
  N  N49  1  0.30992000  0.36894000  0.21478000  1.0
  O  O50  1  0.48119000  0.50121000  0.85616000  1.0
  O  O51  1  0.98117000  0.99882000  0.14385000  1.0
  O  O52  1  0.73295000  0.82853000  0.86305000  1.0
  O  O53  1  0.25557000  0.16102000  0.86760000  1.0
  O  O54  1  0.75553000  0.33900000  0.13240000  1.0
  O  O55  1  0.23290000  0.67148000  0.13696000  1.0
  O  O56  1  0.81096000  0.14008000  0.96753000  1.0
  O  O57  1  0.16679000  0.85056000  0.96813000  1.0
  O  O58  1  0.66679000  0.64944000  0.03187000  1.0
  O  O59  1  0.31095000  0.35994000  0.03248000  1.0
  O  O60  1  0.98075000  0.48869000  0.87474000  1.0
  O  O61  1  0.48073000  0.01131000  0.12527000  1.0
