# generated using pymatgen
data_EuH35C39N6O7
_symmetry_space_group_name_H-M   'P 1'
_cell_length_a   9.89141000
_cell_length_b   9.89128000
_cell_length_c   22.57430000
_cell_angle_alpha   100.38500000
_cell_angle_beta   94.65320000
_cell_angle_gamma   113.79900000
_symmetry_Int_Tables_number   1
_chemical_formula_structural   EuH35C39N6O7
_chemical_formula_sum   'Eu2 H70 C78 N12 O14'
_cell_volume   1958.46317911
_cell_formula_units_Z   2
loop_
 _symmetry_equiv_pos_site_id
 _symmetry_equiv_pos_as_xyz
  1  'x, y, z'
loop_
 _atom_site_type_symbol
 _atom_site_label
 _atom_site_symmetry_multiplicity
 _atom_site_fract_x
 _atom_site_fract_y
 _atom_site_fract_z
 _atom_site_occupancy
  Eu  Eu0  1  0.60522000  0.84592000  0.20108000  1.0
  Eu  Eu1  1  0.35519000  0.09587000  0.70108000  1.0
  H  H2  1  0.19953000  0.30901000  0.16974000  1.0
  H  H3  1  0.86077000  0.47019000  0.66975000  1.0
  H  H4  1  0.04630000  0.34588000  0.14359000  1.0
  H  H5  1  0.79775000  0.59727000  0.64359000  1.0
  H  H6  1  0.14553000  0.42824000  0.22069000  1.0
  H  H7  1  0.79250000  0.57516000  0.72069000  1.0
  H  H8  1  0.11488000  0.50476000  0.07661000  1.0
  H  H9  1  0.57190000  0.46172000  0.57662000  1.0
  H  H10  1  0.04514000  0.60054000  0.00978000  1.0
  H  H11  1  0.40925000  0.46466000  0.50979000  1.0
  H  H12  1  0.98901000  0.65252000  0.91153000  1.0
  H  H13  1  0.25901000  0.42253000  0.41154000  1.0
  H  H14  1  0.46433000  0.87641000  0.90732000  1.0
  H  H15  1  0.03093000  0.94298000  0.40731000  1.0
  H  H16  1  0.51777000  0.83014000  0.00883000  1.0
  H  H17  1  0.17872000  0.99105000  0.50882000  1.0
  H  H18  1  0.94584000  0.69200000  0.82789000  1.0
  H  H19  1  0.13592000  0.38206000  0.32789000  1.0
  H  H20  1  0.99073000  0.83850000  0.73161000  1.0
  H  H21  1  0.89314000  0.24091000  0.23162000  1.0
  H  H22  1  0.41171000  0.95286000  0.83257000  1.0
  H  H23  1  0.87968000  0.92089000  0.33258000  1.0
  H  H24  1  0.99177000  0.63781000  0.25638000  1.0
  H  H25  1  0.61862000  0.76474000  0.75642000  1.0
  H  H26  1  0.95506000  0.52602000  0.18114000  1.0
  H  H27  1  0.65504000  0.72596000  0.68118000  1.0
  H  H28  1  0.81059000  0.48667000  0.22753000  1.0
  H  H29  1  0.74090000  0.91691000  0.72749000  1.0
  H  H30  1  0.03322000  0.74978000  0.14071000  1.0
  H  H31  1  0.39093000  0.60748000  0.64072000  1.0
  H  H32  1  0.18687000  0.91314000  0.10525000  1.0
  H  H33  1  0.19209000  0.41837000  0.60526000  1.0
  H  H34  1  0.33144000  0.06442000  0.03817000  1.0
  H  H35  1  0.97373000  0.20672000  0.53818000  1.0
  H  H36  1  0.96502000  0.17385000  0.98679000  1.0
  H  H37  1  0.81296000  0.52177000  0.48677000  1.0
  H  H38  1  0.82094000  0.02284000  0.05714000  1.0
  H  H39  1  0.03434000  0.73621000  0.55712000  1.0
  H  H40  1  0.17163000  0.39655000  0.97631000  1.0
  H  H41  1  0.57978000  0.30471000  0.47628000  1.0
  H  H42  1  0.35182000  0.46877000  0.88793000  1.0
  H  H43  1  0.41916000  0.03609000  0.38792000  1.0
  H  H44  1  0.35396000  0.07750000  0.93589000  1.0
  H  H45  1  0.85837000  0.08187000  0.43591000  1.0
  H  H46  1  0.17572000  0.89665000  0.27353000  1.0
  H  H47  1  0.37689000  0.59780000  0.77353000  1.0
  H  H48  1  0.17063000  0.05403000  0.24604000  1.0
  H  H49  1  0.19201000  0.57539000  0.74603000  1.0
  H  H50  1  0.29062000  0.08642000  0.31511000  1.0
  H  H51  1  0.22870000  0.52448000  0.81511000  1.0
  H  H52  1  0.36249000  0.19172000  0.19473000  1.0
  H  H53  1  0.00301000  0.33223000  0.69473000  1.0
  H  H54  1  0.46394000  0.38134000  0.15768000  1.0
  H  H55  1  0.77635000  0.19373000  0.65767000  1.0
  H  H56  1  0.51720000  0.52520000  0.07848000  1.0
  H  H57  1  0.55329000  0.06128000  0.57848000  1.0
  H  H58  1  0.78414000  0.29735000  0.00988000  1.0
  H  H59  1  0.71249000  0.72567000  0.50988000  1.0
  H  H60  1  0.72022000  0.14465000  0.08911000  1.0
  H  H61  1  0.94442000  0.86883000  0.58911000  1.0
  H  H62  1  0.66016000  0.70542000  0.03516000  1.0
  H  H63  1  0.32974000  0.87499000  0.53516000  1.0
  H  H64  1  0.73105000  0.78200000  0.92566000  1.0
  H  H65  1  0.14365000  0.69459000  0.42565000  1.0
  H  H66  1  0.72392000  0.35279000  0.92148000  1.0
  H  H67  1  0.56868000  0.69752000  0.42148000  1.0
  H  H68  1  0.59482000  0.87039000  0.33941000  1.0
  H  H69  1  0.46899000  0.24456000  0.83941000  1.0
  H  H70  1  0.49120000  0.70436000  0.29812000  1.0
  H  H71  1  0.59376000  0.30693000  0.79814000  1.0
  C  C72  1  0.15669000  0.39642000  0.17282000  1.0
  C  C73  1  0.77644000  0.51612000  0.67282000  1.0
  C  C74  1  0.26849000  0.53428000  0.15569000  1.0
  C  C75  1  0.62145000  0.38720000  0.65569000  1.0
  C  C76  1  0.22810000  0.57381000  0.10190000  1.0
  C  C77  1  0.52812000  0.37379000  0.60190000  1.0
  C  C78  1  0.33061000  0.68559000  0.07688000  1.0
  C  C79  1  0.39133000  0.24627000  0.57688000  1.0
  C  C80  1  0.28687000  0.70954000  0.01611000  1.0
  C  C81  1  0.30659000  0.22924000  0.51611000  1.0
  C  C82  1  0.13833000  0.65925000  0.98744000  1.0
  C  C83  1  0.32819000  0.34912000  0.48744000  1.0
  C  C84  1  0.10576000  0.68924000  0.93144000  1.0
  C  C85  1  0.24221000  0.32569000  0.43145000  1.0
  C  C86  1  0.22231000  0.76931000  0.90244000  1.0
  C  C87  1  0.13313000  0.18014000  0.40244000  1.0
  C  C88  1  0.37173000  0.81735000  0.92977000  1.0
  C  C89  1  0.11244000  0.05804000  0.42977000  1.0
  C  C90  1  0.40246000  0.78962000  0.98628000  1.0
  C  C91  1  0.19669000  0.08382000  0.48628000  1.0
  C  C92  1  0.04754000  0.76698000  0.81469000  1.0
  C  C93  1  0.04774000  0.26717000  0.31470000  1.0
  C  C94  1  0.07085000  0.83939000  0.76755000  1.0
  C  C95  1  0.92818000  0.19673000  0.26756000  1.0
  C  C96  1  0.29133000  0.90123000  0.81807000  1.0
  C  C97  1  0.91683000  0.02678000  0.31808000  1.0
  C  C98  1  0.90522000  0.57619000  0.21516000  1.0
  C  C99  1  0.63898000  0.80993000  0.71517000  1.0
  C  C100  1  0.85373000  0.68489000  0.19206000  1.0
  C  C101  1  0.50718000  0.83833000  0.69206000  1.0
  C  C102  1  0.93633000  0.76834000  0.15217000  1.0
  C  C103  1  0.38384000  0.71585000  0.65218000  1.0
  C  C104  1  0.89791000  0.86995000  0.12643000  1.0
  C  C105  1  0.25649000  0.72852000  0.62642000  1.0
  C  C106  1  0.99215000  0.95709000  0.08557000  1.0
  C  C107  1  0.12849000  0.59342000  0.58556000  1.0
  C  C108  1  0.13585000  0.96825000  0.07929000  1.0
  C  C109  1  0.11104000  0.44344000  0.57930000  1.0
  C  C110  1  0.21849000  0.05384000  0.04129000  1.0
  C  C111  1  0.98744000  0.32279000  0.54129000  1.0
  C  C112  1  0.15712000  0.12855000  0.00834000  1.0
  C  C113  1  0.87980000  0.35122000  0.50834000  1.0
  C  C114  1  0.01349000  0.11824000  0.01375000  1.0
  C  C115  1  0.89553000  0.50027000  0.51374000  1.0
  C  C116  1  0.93315000  0.03371000  0.05226000  1.0
  C  C117  1  0.01858000  0.61912000  0.55225000  1.0
  C  C118  1  0.23319000  0.34032000  0.95344000  1.0
  C  C119  1  0.61313000  0.22025000  0.45342000  1.0
  C  C120  1  0.32363000  0.37487000  0.91016000  1.0
  C  C121  1  0.53529000  0.08651000  0.41015000  1.0
  C  C122  1  0.33112000  0.17479000  0.93348000  1.0
  C  C123  1  0.75868000  0.10232000  0.43349000  1.0
  C  C124  1  0.24286000  0.01233000  0.26893000  1.0
  C  C125  1  0.25661000  0.52606000  0.76893000  1.0
  C  C126  1  0.36979000  0.01470000  0.23548000  1.0
  C  C127  1  0.22079000  0.36569000  0.73548000  1.0
  C  C128  1  0.42416000  0.12418000  0.20042000  1.0
  C  C129  1  0.07625000  0.27625000  0.70042000  1.0
  C  C130  1  0.54915000  0.14606000  0.17120000  1.0
  C  C131  1  0.02515000  0.12203000  0.67120000  1.0
  C  C132  1  0.58488000  0.24778000  0.12744000  1.0
  C  C133  1  0.87965000  0.04253000  0.62743000  1.0
  C  C134  1  0.52980000  0.35717000  0.12442000  1.0
  C  C135  1  0.76726000  0.09461000  0.62441000  1.0
  C  C136  1  0.56182000  0.44139000  0.08002000  1.0
  C  C137  1  0.63863000  0.01818000  0.58002000  1.0
  C  C138  1  0.65200000  0.41926000  0.03805000  1.0
  C  C139  1  0.61877000  0.88602000  0.53805000  1.0
  C  C140  1  0.71046000  0.31252000  0.04127000  1.0
  C  C141  1  0.72872000  0.83076000  0.54127000  1.0
  C  C142  1  0.67629000  0.22807000  0.08538000  1.0
  C  C143  1  0.85729000  0.90905000  0.58538000  1.0
  C  C144  1  0.68219000  0.64429000  0.99501000  1.0
  C  C145  1  0.35071000  0.81280000  0.49501000  1.0
  C  C146  1  0.71789000  0.67957000  0.94045000  1.0
  C  C147  1  0.26088000  0.72255000  0.44045000  1.0
  C  C148  1  0.72096000  0.46174000  0.93680000  1.0
  C  C149  1  0.47505000  0.71582000  0.43680000  1.0
  N  N150  1  0.22299000  0.92327000  0.77044000  1.0
  N  N151  1  0.84717000  0.04748000  0.27045000  1.0
  N  N152  1  0.18947000  0.80729000  0.84716000  1.0
  N  N153  1  0.03988000  0.15772000  0.34717000  1.0
  N  N154  1  0.38276000  0.27002000  0.89775000  1.0
  N  N155  1  0.62771000  0.01495000  0.39776000  1.0
  N  N156  1  0.23863000  0.21214000  0.96816000  1.0
  N  N157  1  0.75602000  0.22952000  0.46816000  1.0
  N  N158  1  0.74125000  0.56480000  0.90418000  1.0
  N  N159  1  0.33937000  0.66292000  0.40418000  1.0
  N  N160  1  0.68523000  0.50448000  0.99271000  1.0
  N  N161  1  0.48822000  0.80745000  0.49271000  1.0
  O  O162  1  0.39561000  0.60440000  0.19089000  1.0
  O  O163  1  0.58652000  0.29528000  0.69090000  1.0
  O  O164  1  0.46747000  0.76817000  0.10209000  1.0
  O  O165  1  0.33394000  0.13461000  0.60209000  1.0
  O  O166  1  0.73991000  0.69578000  0.21106000  1.0
  O  O167  1  0.51530000  0.97115000  0.71106000  1.0
  O  O168  1  0.78136000  0.89286000  0.13420000  1.0
  O  O169  1  0.24137000  0.85286000  0.63420000  1.0
  O  O170  1  0.42010000  0.91679000  0.24128000  1.0
  O  O171  1  0.32451000  0.32117000  0.74128000  1.0
  O  O172  1  0.63425000  0.07863000  0.17738000  1.0
  O  O173  1  0.09877000  0.04312000  0.67737000  1.0
  O  O174  1  0.59041000  0.78817000  0.30382000  1.0
  O  O175  1  0.51564000  0.21339000  0.80382000  1.0
