# generated using pymatgen
data_CuH44C34(NO)4
_symmetry_space_group_name_H-M   'P 1'
_cell_length_a   11.36710000
_cell_length_b   13.64650000
_cell_length_c   14.12980000
_cell_angle_alpha   77.75590000
_cell_angle_beta   70.10320000
_cell_angle_gamma   68.68310000
_symmetry_Int_Tables_number   1
_chemical_formula_structural   CuH44C34(NO)4
_chemical_formula_sum   'Cu2 H88 C68 N8 O8'
_cell_volume   1910.19641376
_cell_formula_units_Z   2
loop_
 _symmetry_equiv_pos_site_id
 _symmetry_equiv_pos_as_xyz
  1  'x, y, z'
loop_
 _atom_site_type_symbol
 _atom_site_label
 _atom_site_symmetry_multiplicity
 _atom_site_fract_x
 _atom_site_fract_y
 _atom_site_fract_z
 _atom_site_occupancy
  Cu  Cu0  1  0.90526000  0.97159000  0.94526000  1.0
  Cu  Cu1  1  0.09474000  0.02841000  0.05475000  1.0
  H  H2  1  0.64098000  0.98688000  0.21072000  1.0
  H  H3  1  0.35903000  0.01312000  0.78929000  1.0
  H  H4  1  0.80027000  0.81266000  0.03893000  1.0
  H  H5  1  0.19973000  0.18734000  0.96106000  1.0
  H  H6  1  0.55248000  0.15352000  0.26881000  1.0
  H  H7  1  0.44752000  0.84648000  0.73120000  1.0
  H  H8  1  0.52630000  0.22660000  0.40607000  1.0
  H  H9  1  0.47371000  0.77340000  0.59393000  1.0
  H  H10  1  0.47319000  0.35268000  0.45034000  1.0
  H  H11  1  0.52682000  0.64732000  0.54966000  1.0
  H  H12  1  0.64257000  0.29331000  0.38511000  1.0
  H  H13  1  0.35744000  0.70669000  0.61489000  1.0
  H  H14  1  0.35161000  0.41048000  0.21970000  1.0
  H  H15  1  0.64839000  0.58951000  0.78030000  1.0
  H  H16  1  0.30003000  0.42157000  0.35197000  1.0
  H  H17  1  0.69997000  0.57842000  0.64803000  1.0
  H  H18  1  0.35468000  0.29580000  0.30691000  1.0
  H  H19  1  0.64533000  0.70419000  0.69310000  1.0
  H  H20  1  0.50910000  0.51556000  0.20183000  1.0
  H  H21  1  0.49090000  0.48444000  0.79817000  1.0
  H  H22  1  0.63011000  0.46373000  0.26823000  1.0
  H  H23  1  0.36989000  0.53627000  0.73177000  1.0
  H  H24  1  0.46061000  0.51488000  0.33502000  1.0
  H  H25  1  0.53939000  0.48512000  0.66498000  1.0
  H  H26  1  0.68912000  0.41458000  0.10683000  1.0
  H  H27  1  0.31087000  0.58543000  0.89318000  1.0
  H  H28  1  0.85181000  0.39890000  0.95612000  1.0
  H  H29  1  0.14818000  0.60111000  0.04388000  1.0
  H  H30  1  0.97883000  0.27383000  0.95399000  1.0
  H  H31  1  0.02117000  0.72618000  0.04601000  1.0
  H  H32  1  0.97714000  0.32532000  0.69750000  1.0
  H  H33  1  0.02287000  0.67468000  0.30250000  1.0
  H  H34  1  0.07001000  0.30162000  0.78388000  1.0
  H  H35  1  0.92999000  0.69838000  0.21612000  1.0
  H  H36  1  0.94731000  0.42767000  0.77214000  1.0
  H  H37  1  0.05269000  0.57233000  0.22787000  1.0
  H  H38  1  0.75687000  0.36277000  0.75431000  1.0
  H  H39  1  0.24313000  0.63723000  0.24570000  1.0
  H  H40  1  0.69540000  0.42612000  0.86639000  1.0
  H  H41  1  0.30459000  0.57387000  0.13361000  1.0
  H  H42  1  0.78044000  0.15035000  0.79493000  1.0
  H  H43  1  0.21957000  0.84964000  0.20507000  1.0
  H  H44  1  0.63342000  0.03978000  0.87353000  1.0
  H  H45  1  0.36658000  0.96021000  0.12647000  1.0
  H  H46  1  0.41690000  0.11127000  0.99949000  1.0
  H  H47  1  0.58311000  0.88871000  0.00050000  1.0
  H  H48  1  0.90935000  0.01806000  0.34371000  1.0
  H  H49  1  0.09065000  0.98194000  0.65629000  1.0
  H  H50  1  0.03851000  0.84710000  0.17182000  1.0
  H  H51  1  0.96150000  0.15291000  0.82818000  1.0
  H  H52  1  0.87947000  0.15955000  0.42200000  1.0
  H  H53  1  0.12053000  0.84046000  0.57800000  1.0
  H  H54  1  0.97706000  0.40676000  0.53569000  1.0
  H  H55  1  0.02295000  0.59324000  0.46431000  1.0
  H  H56  1  0.07778000  0.28836000  0.47709000  1.0
  H  H57  1  0.92222000  0.71164000  0.52290000  1.0
  H  H58  1  0.05403000  0.41269000  0.40320000  1.0
  H  H59  1  0.94598000  0.58731000  0.59680000  1.0
  H  H60  1  0.75265000  0.50574000  0.51018000  1.0
  H  H61  1  0.24735000  0.49427000  0.48982000  1.0
  H  H62  1  0.82366000  0.51737000  0.37734000  1.0
  H  H63  1  0.17635000  0.48263000  0.62266000  1.0
  H  H64  1  0.69367000  0.46123000  0.43083000  1.0
  H  H65  1  0.30633000  0.53877000  0.56916000  1.0
  H  H66  1  0.78585000  0.33315000  0.61166000  1.0
  H  H67  1  0.21415000  0.66685000  0.38835000  1.0
  H  H68  1  0.73221000  0.27993000  0.53599000  1.0
  H  H69  1  0.26779000  0.72008000  0.46401000  1.0
  H  H70  1  0.88856000  0.21299000  0.55904000  1.0
  H  H71  1  0.11143000  0.78702000  0.44096000  1.0
  H  H72  1  0.98558000  0.43364000  0.25885000  1.0
  H  H73  1  0.01442000  0.56637000  0.74115000  1.0
  H  H74  1  0.00493000  0.39042000  0.02772000  1.0
  H  H75  1  0.99506000  0.60958000  0.97228000  1.0
  H  H76  1  0.06513000  0.45280000  0.09052000  1.0
  H  H77  1  0.93488000  0.54719000  0.90948000  1.0
  H  H78  1  0.32614000  0.34978000  0.85993000  1.0
  H  H79  1  0.67385000  0.65021000  0.14006000  1.0
  H  H80  1  0.22150000  0.46962000  0.91554000  1.0
  H  H81  1  0.77850000  0.53038000  0.08445000  1.0
  H  H82  1  0.15368000  0.39289000  0.87421000  1.0
  H  H83  1  0.84631000  0.60710000  0.12579000  1.0
  H  H84  1  0.28223000  0.26149000  0.13007000  1.0
  H  H85  1  0.71777000  0.73851000  0.86993000  1.0
  H  H86  1  0.29786000  0.38837000  0.07816000  1.0
  H  H87  1  0.70215000  0.61163000  0.92184000  1.0
  H  H88  1  0.50059000  0.40027000  0.97459000  1.0
  H  H89  1  0.49941000  0.59971000  0.02541000  1.0
  C  C90  1  0.80033000  0.16062000  0.04886000  1.0
  C  C91  1  0.19967000  0.83938000  0.95113000  1.0
  C  C92  1  0.70982000  0.12047000  0.13126000  1.0
  C  C93  1  0.29019000  0.87953000  0.86873000  1.0
  C  C94  1  0.70764000  0.01382000  0.14213000  1.0
  C  C95  1  0.29236000  0.98618000  0.85787000  1.0
  C  C96  1  0.61855000  0.18725000  0.20557000  1.0
  C  C97  1  0.38147000  0.81274000  0.79443000  1.0
  C  C98  1  0.61079000  0.29234000  0.20127000  1.0
  C  C99  1  0.38922000  0.70766000  0.79873000  1.0
  C  C100  1  0.51413000  0.35975000  0.28689000  1.0
  C  C101  1  0.48587000  0.64026000  0.71311000  1.0
  C  C102  1  0.54061000  0.30457000  0.38818000  1.0
  C  C103  1  0.45940000  0.69543000  0.61183000  1.0
  C  C104  1  0.37186000  0.37256000  0.29171000  1.0
  C  C105  1  0.62814000  0.62744000  0.70829000  1.0
  C  C106  1  0.52978000  0.46959000  0.27144000  1.0
  C  C107  1  0.47022000  0.53041000  0.72856000  1.0
  C  C108  1  0.69458000  0.33185000  0.11547000  1.0
  C  C109  1  0.30541000  0.66815000  0.88453000  1.0
  C  C110  1  0.78606000  0.26943000  0.03982000  1.0
  C  C111  1  0.21393000  0.73058000  0.96019000  1.0
  C  C112  1  0.87688000  0.31321000  0.95060000  1.0
  C  C113  1  0.12312000  0.68680000  0.04940000  1.0
  C  C114  1  0.97221000  0.34107000  0.77199000  1.0
  C  C115  1  0.02779000  0.65893000  0.22802000  1.0
  C  C116  1  0.74331000  0.34779000  0.83635000  1.0
  C  C117  1  0.25669000  0.65220000  0.16365000  1.0
  C  C118  1  0.65266000  0.28140000  0.88219000  1.0
  C  C119  1  0.34734000  0.71860000  0.11780000  1.0
  C  C120  1  0.68737000  0.18075000  0.85213000  1.0
  C  C121  1  0.31263000  0.81924000  0.14787000  1.0
  C  C122  1  0.60399000  0.11909000  0.89579000  1.0
  C  C123  1  0.39601000  0.88090000  0.10420000  1.0
  C  C124  1  0.48284000  0.15886000  0.96677000  1.0
  C  C125  1  0.51716000  0.84113000  0.03323000  1.0
  C  C126  1  0.02681000  0.20714000  0.16864000  1.0
  C  C127  1  0.97316000  0.79288000  0.83137000  1.0
  C  C128  1  0.96951000  0.15412000  0.26189000  1.0
  C  C129  1  0.03046000  0.84588000  0.73812000  1.0
  C  C130  1  0.95875000  0.05095000  0.26936000  1.0
  C  C131  1  0.04124000  0.94906000  0.73063000  1.0
  C  C132  1  0.92162000  0.20327000  0.35239000  1.0
  C  C133  1  0.07838000  0.79674000  0.64761000  1.0
  C  C134  1  0.92762000  0.30250000  0.35463000  1.0
  C  C135  1  0.07238000  0.69750000  0.64537000  1.0
  C  C136  1  0.88320000  0.35554000  0.45160000  1.0
  C  C137  1  0.11681000  0.64446000  0.54840000  1.0
  C  C138  1  0.00518000  0.36644000  0.46793000  1.0
  C  C139  1  0.99482000  0.63356000  0.53208000  1.0
  C  C140  1  0.78252000  0.46635000  0.44155000  1.0
  C  C141  1  0.21749000  0.53364000  0.55846000  1.0
  C  C142  1  0.81905000  0.29108000  0.54437000  1.0
  C  C143  1  0.18095000  0.70892000  0.45564000  1.0
  C  C144  1  0.98124000  0.35446000  0.26113000  1.0
  C  C145  1  0.01877000  0.64553000  0.73887000  1.0
  C  C146  1  0.02885000  0.31056000  0.17016000  1.0
  C  C147  1  0.97114000  0.68945000  0.82985000  1.0
  C  C148  1  0.07339000  0.37463000  0.07253000  1.0
  C  C149  1  0.92661000  0.62536000  0.92747000  1.0
  C  C150  1  0.22838000  0.38782000  0.90956000  1.0
  C  C151  1  0.77162000  0.61217000  0.09044000  1.0
  C  C152  1  0.30558000  0.31105000  0.05834000  1.0
  C  C153  1  0.69442000  0.68895000  0.94165000  1.0
  C  C154  1  0.44300000  0.26183000  0.99313000  1.0
  C  C155  1  0.55700000  0.73816000  0.00686000  1.0
  C  C156  1  0.52979000  0.32100000  0.95193000  1.0
  C  C157  1  0.47021000  0.67899000  0.04806000  1.0
  N  N158  1  0.77693000  0.94722000  0.07502000  1.0
  N  N159  1  0.22307000  0.05278000  0.92498000  1.0
  N  N160  1  0.87553000  0.29848000  0.85069000  1.0
  N  N161  1  0.12448000  0.70152000  0.14932000  1.0
  N  N162  1  0.00399000  0.99142000  0.19593000  1.0
  N  N163  1  0.99601000  0.00859000  0.80407000  1.0
  N  N164  1  0.20593000  0.32531000  0.00770000  1.0
  N  N165  1  0.79407000  0.67469000  0.99229000  1.0
  O  O166  1  0.89854000  0.10171000  0.98204000  1.0
  O  O167  1  0.10147000  0.89830000  0.01796000  1.0
  O  O168  1  0.75901000  0.84870000  0.10298000  1.0
  O  O169  1  0.24098000  0.15130000  0.89702000  1.0
  O  O170  1  0.07545000  0.16632000  0.08196000  1.0
  O  O171  1  0.92452000  0.83368000  0.91805000  1.0
  O  O172  1  0.97771000  0.89597000  0.22584000  1.0
  O  O173  1  0.02229000  0.10403000  0.77416000  1.0
