# generated using pymatgen
data_Co2H20C26N2O11
_symmetry_space_group_name_H-M   'P 1'
_cell_length_a   10.93428473
_cell_length_b   10.93440000
_cell_length_c   27.56450000
_cell_angle_alpha   89.99830000
_cell_angle_beta   89.99950001
_cell_angle_gamma   60.00095380
_symmetry_Int_Tables_number   1
_chemical_formula_structural   Co2H20C26N2O11
_chemical_formula_sum   'Co6 H60 C78 N6 O33'
_cell_volume   2854.10706304
_cell_formula_units_Z   3
loop_
 _symmetry_equiv_pos_site_id
 _symmetry_equiv_pos_as_xyz
  1  'x, y, z'
loop_
 _atom_site_type_symbol
 _atom_site_label
 _atom_site_symmetry_multiplicity
 _atom_site_fract_x
 _atom_site_fract_y
 _atom_site_fract_z
 _atom_site_occupancy
  Co  Co0  1  0.25282000  0.82545000  0.97196000  1.0
  Co  Co1  1  0.82545000  0.92173000  0.63862000  1.0
  Co  Co2  1  0.92172000  0.25285000  0.30529000  1.0
  Co  Co3  1  0.07826000  0.17455000  0.02805000  1.0
  Co  Co4  1  0.74718000  0.07827000  0.36139000  1.0
  Co  Co5  1  0.17455000  0.74717000  0.69471000  1.0
  H  H6  1  0.20007000  0.56300000  0.78269000  1.0
  H  H7  1  0.56302000  0.23687000  0.44938000  1.0
  H  H8  1  0.23690000  0.20007000  0.11604000  1.0
  H  H9  1  0.76311000  0.43701000  0.21730000  1.0
  H  H10  1  0.79994000  0.76308000  0.55063000  1.0
  H  H11  1  0.43698000  0.79994000  0.88397000  1.0
  H  H12  1  0.52740000  0.14362000  0.74205000  1.0
  H  H13  1  0.14363000  0.32897000  0.40871000  1.0
  H  H14  1  0.32896000  0.52740000  0.07540000  1.0
  H  H15  1  0.67106000  0.85639000  0.25795000  1.0
  H  H16  1  0.47260000  0.67103000  0.59127000  1.0
  H  H17  1  0.85636000  0.47259000  0.92461000  1.0
  H  H18  1  0.44663000  0.51452000  0.66224000  1.0
  H  H19  1  0.51453000  0.03885000  0.32892000  1.0
  H  H20  1  0.03888000  0.44660000  0.99558000  1.0
  H  H21  1  0.96113000  0.48551000  0.33777000  1.0
  H  H22  1  0.55339000  0.96111000  0.67109000  1.0
  H  H23  1  0.48546000  0.55340000  0.00442000  1.0
  H  H24  1  0.27715000  0.45555000  0.86062000  1.0
  H  H25  1  0.45554000  0.26728000  0.52731000  1.0
  H  H26  1  0.26730000  0.27714000  0.19398000  1.0
  H  H27  1  0.73272000  0.54446000  0.13937000  1.0
  H  H28  1  0.72284000  0.73270000  0.47268000  1.0
  H  H29  1  0.54446000  0.72283000  0.80603000  1.0
  H  H30  1  0.22148000  0.34799000  0.92968000  1.0
  H  H31  1  0.34798000  0.43053000  0.59636000  1.0
  H  H32  1  0.43053000  0.22148000  0.26303000  1.0
  H  H33  1  0.56947000  0.65202000  0.07031000  1.0
  H  H34  1  0.77849000  0.56946000  0.40363000  1.0
  H  H35  1  0.65203000  0.77852000  0.73697000  1.0
  H  H36  1  0.30099000  0.99299000  0.84050000  1.0
  H  H37  1  0.99299000  0.70599000  0.50716000  1.0
  H  H38  1  0.70601000  0.30100000  0.17383000  1.0
  H  H39  1  0.29401000  0.00701000  0.15951000  1.0
  H  H40  1  0.69898000  0.29400000  0.49284000  1.0
  H  H41  1  0.00701000  0.69902000  0.82618000  1.0
  H  H42  1  0.35577000  0.09917000  0.77071000  1.0
  H  H43  1  0.09919000  0.54501000  0.43738000  1.0
  H  H44  1  0.54504000  0.35577000  0.10404000  1.0
  H  H45  1  0.45500000  0.90083000  0.22929000  1.0
  H  H46  1  0.64422000  0.45498000  0.56263000  1.0
  H  H47  1  0.90081000  0.64422000  0.89596000  1.0
  H  H48  1  0.98929000  0.99564000  0.02881000  1.0
  H  H49  1  0.99567000  0.01504000  0.69548000  1.0
  H  H50  1  0.01505000  0.98931000  0.36214000  1.0
  H  H51  1  0.98496000  0.00432000  0.97119000  1.0
  H  H52  1  0.01069000  0.98501000  0.30451000  1.0
  H  H53  1  0.00434000  0.01070000  0.63785000  1.0
  H  H54  1  0.12526000  0.82905000  0.88580000  1.0
  H  H55  1  0.82904000  0.04568000  0.55246000  1.0
  H  H56  1  0.04568000  0.12525000  0.21913000  1.0
  H  H57  1  0.95432000  0.17099000  0.11421000  1.0
  H  H58  1  0.87470000  0.95432000  0.44754000  1.0
  H  H59  1  0.17096000  0.87471000  0.78086000  1.0
  H  H60  1  0.09345000  0.74388000  0.92883000  1.0
  H  H61  1  0.74389000  0.16267000  0.59550000  1.0
  H  H62  1  0.16266000  0.09345000  0.26216000  1.0
  H  H63  1  0.83732000  0.25612000  0.07117000  1.0
  H  H64  1  0.90658000  0.83734000  0.40450000  1.0
  H  H65  1  0.25612000  0.90655000  0.73783000  1.0
  C  C66  1  0.28962000  0.49043000  0.76050000  1.0
  C  C67  1  0.49046000  0.21989000  0.42719000  1.0
  C  C68  1  0.21992000  0.28962000  0.09385000  1.0
  C  C69  1  0.78009000  0.50957000  0.23949000  1.0
  C  C70  1  0.71039000  0.78006000  0.57282000  1.0
  C  C71  1  0.50954000  0.71039000  0.90616000  1.0
  C  C72  1  0.36072000  0.34474000  0.76955000  1.0
  C  C73  1  0.34475000  0.29451000  0.43622000  1.0
  C  C74  1  0.29452000  0.36072000  0.10289000  1.0
  C  C75  1  0.70550000  0.65527000  0.23045000  1.0
  C  C76  1  0.63928000  0.70548000  0.56377000  1.0
  C  C77  1  0.65524000  0.63928000  0.89711000  1.0
  C  C78  1  0.46773000  0.25776000  0.73714000  1.0
  C  C79  1  0.25777000  0.27449000  0.40381000  1.0
  C  C80  1  0.27450000  0.46773000  0.07049000  1.0
  C  C81  1  0.72552000  0.74225000  0.26286000  1.0
  C  C82  1  0.53227000  0.72549000  0.59618000  1.0
  C  C83  1  0.74223000  0.53226000  0.92952000  1.0
  C  C84  1  0.49993000  0.31776000  0.69804000  1.0
  C  C85  1  0.31776000  0.18232000  0.36471000  1.0
  C  C86  1  0.18233000  0.49991000  0.03139000  1.0
  C  C87  1  0.81770000  0.68226000  0.30196000  1.0
  C  C88  1  0.50008000  0.81767000  0.63528000  1.0
  C  C89  1  0.68223000  0.50008000  0.96862000  1.0
  C  C90  1  0.42459000  0.46415000  0.69240000  1.0
  C  C91  1  0.46415000  0.11126000  0.35908000  1.0
  C  C92  1  0.11128000  0.42457000  0.02574000  1.0
  C  C93  1  0.88874000  0.53587000  0.30760000  1.0
  C  C94  1  0.57542000  0.88872000  0.64092000  1.0
  C  C95  1  0.53584000  0.57543000  0.97426000  1.0
  C  C96  1  0.61062000  0.22565000  0.66205000  1.0
  C  C97  1  0.22565000  0.16375000  0.32872000  1.0
  C  C98  1  0.16375000  0.61060000  0.99540000  1.0
  C  C99  1  0.83629000  0.77436000  0.33794000  1.0
  C  C100  1  0.38938000  0.83625000  0.67127000  1.0
  C  C101  1  0.77434000  0.38939000  0.00461000  1.0
  C  C102  1  0.32229000  0.28465000  0.81076000  1.0
  C  C103  1  0.28467000  0.39301000  0.47743000  1.0
  C  C104  1  0.39304000  0.32228000  0.14410000  1.0
  C  C105  1  0.60699000  0.71534000  0.18924000  1.0
  C  C106  1  0.67771000  0.60696000  0.52256000  1.0
  C  C107  1  0.71533000  0.67771000  0.85590000  1.0
  C  C108  1  0.28139000  0.35444000  0.85572000  1.0
  C  C109  1  0.35443000  0.36415000  0.52240000  1.0
  C  C110  1  0.36416000  0.28139000  0.18907000  1.0
  C  C111  1  0.63585000  0.64557000  0.14427000  1.0
  C  C112  1  0.71859000  0.63584000  0.47759000  1.0
  C  C113  1  0.64556000  0.71860000  0.81093000  1.0
  C  C114  1  0.25096000  0.29374000  0.89488000  1.0
  C  C115  1  0.29373000  0.45528000  0.56155000  1.0
  C  C116  1  0.45530000  0.25096000  0.22822000  1.0
  C  C117  1  0.54471000  0.70628000  0.10512000  1.0
  C  C118  1  0.74902000  0.54470000  0.43844000  1.0
  C  C119  1  0.70628000  0.74903000  0.77178000  1.0
  C  C120  1  0.25992000  0.16186000  0.88988000  1.0
  C  C121  1  0.16186000  0.57820000  0.55655000  1.0
  C  C122  1  0.57822000  0.25992000  0.22322000  1.0
  C  C123  1  0.42180000  0.83814000  0.11012000  1.0
  C  C124  1  0.74006000  0.42178000  0.44345000  1.0
  C  C125  1  0.83814000  0.74009000  0.77679000  1.0
  C  C126  1  0.29704000  0.09394000  0.84466000  1.0
  C  C127  1  0.09394000  0.60899000  0.51132000  1.0
  C  C128  1  0.60901000  0.29705000  0.17799000  1.0
  C  C129  1  0.39101000  0.90607000  0.15534000  1.0
  C  C130  1  0.70294000  0.39099000  0.48868000  1.0
  C  C131  1  0.90606000  0.70296000  0.82201000  1.0
  C  C132  1  0.32826000  0.15374000  0.80558000  1.0
  C  C133  1  0.15375000  0.51796000  0.47225000  1.0
  C  C134  1  0.51799000  0.32826000  0.13892000  1.0
  C  C135  1  0.48204000  0.84627000  0.19442000  1.0
  C  C136  1  0.67173000  0.48202000  0.52775000  1.0
  C  C137  1  0.84625000  0.67174000  0.86109000  1.0
  C  C138  1  0.23313000  0.09230000  0.93207000  1.0
  C  C139  1  0.09229000  0.67456000  0.59873000  1.0
  C  C140  1  0.67456000  0.23315000  0.26540000  1.0
  C  C141  1  0.32543000  0.90771000  0.06794000  1.0
  C  C142  1  0.76684000  0.32543000  0.40127000  1.0
  C  C143  1  0.90771000  0.76687000  0.73460000  1.0
  N  N144  1  0.31976000  0.54926000  0.72283000  1.0
  N  N145  1  0.54927000  0.13095000  0.38951000  1.0
  N  N146  1  0.13098000  0.31975000  0.05617000  1.0
  N  N147  1  0.86903000  0.45076000  0.27717000  1.0
  N  N148  1  0.68025000  0.86901000  0.61049000  1.0
  N  N149  1  0.45073000  0.68025000  0.94383000  1.0
  O  O150  1  0.24474000  0.97181000  0.92433000  1.0
  O  O151  1  0.97181000  0.78345000  0.59099000  1.0
  O  O152  1  0.78342000  0.24480000  0.25767000  1.0
  O  O153  1  0.21654000  0.02819000  0.07568000  1.0
  O  O154  1  0.75522000  0.21656000  0.40901000  1.0
  O  O155  1  0.02820000  0.75527000  0.74234000  1.0
  O  O156  1  0.20366000  0.15602000  0.97273000  1.0
  O  O157  1  0.15600000  0.64030000  0.63939000  1.0
  O  O158  1  0.64031000  0.20367000  0.30607000  1.0
  O  O159  1  0.35968000  0.84400000  0.02727000  1.0
  O  O160  1  0.79632000  0.35968000  0.36061000  1.0
  O  O161  1  0.84400000  0.79633000  0.69394000  1.0
  O  O162  1  0.68567000  0.09572000  0.67424000  1.0
  O  O163  1  0.09571000  0.21863000  0.34091000  1.0
  O  O164  1  0.21861000  0.68568000  0.00759000  1.0
  O  O165  1  0.78140000  0.90430000  0.32576000  1.0
  O  O166  1  0.31431000  0.78139000  0.65907000  1.0
  O  O167  1  0.90427000  0.31433000  0.99242000  1.0
  O  O168  1  0.62147000  0.28038000  0.62278000  1.0
  O  O169  1  0.28037000  0.09818000  0.28944000  1.0
  O  O170  1  0.09819000  0.62144000  0.95612000  1.0
  O  O171  1  0.90187000  0.71963000  0.37722000  1.0
  O  O172  1  0.37855000  0.90181000  0.71054000  1.0
  O  O173  1  0.71961000  0.37855000  0.04389000  1.0
  O  O174  1  0.03927000  0.00000000  0.00000000  1.0
  O  O175  1  0.00000000  0.96072000  0.66666667  1.0
  O  O176  1  0.96071000  0.03930000  0.33333333  1.0
  O  O177  1  0.09778000  0.83364000  0.91951000  1.0
  O  O178  1  0.83363000  0.06857000  0.58618000  1.0
  O  O179  1  0.06856000  0.09780000  0.25284000  1.0
  O  O180  1  0.93142000  0.16638000  0.08050000  1.0
  O  O181  1  0.90221000  0.93145000  0.41383000  1.0
  O  O182  1  0.16636000  0.90221000  0.74716000  1.0
