# generated using pymatgen
data_UH11C21O8
_symmetry_space_group_name_H-M   'P 1'
_cell_length_a   17.30890000
_cell_length_b   18.53050000
_cell_length_c   18.53030000
_cell_angle_alpha   120.00107110
_cell_angle_beta   90.00000000
_cell_angle_gamma   89.99990000
_symmetry_Int_Tables_number   1
_chemical_formula_structural   UH11C21O8
_chemical_formula_sum   'U6 H66 C126 O48'
_cell_volume   5147.12839015
_cell_formula_units_Z   6
loop_
 _symmetry_equiv_pos_site_id
 _symmetry_equiv_pos_as_xyz
  1  'x, y, z'
loop_
 _atom_site_type_symbol
 _atom_site_label
 _atom_site_symmetry_multiplicity
 _atom_site_fract_x
 _atom_site_fract_y
 _atom_site_fract_z
 _atom_site_occupancy
  U  U0  1  0.25000000  0.58429000  0.92999000  1.0
  U  U1  1  0.25000000  0.06999000  0.65430000  1.0
  U  U2  1  0.25000000  0.34570000  0.41569000  1.0
  U  U3  1  0.75000000  0.93002000  0.58432000  1.0
  U  U4  1  0.75000000  0.65432000  0.07000000  1.0
  U  U5  1  0.75000000  0.41569000  0.34569000  1.0
  H  H6  1  0.53848000  0.25762000  0.73537000  1.0
  H  H7  1  0.53848000  0.26464000  0.52227000  1.0
  H  H8  1  0.53848000  0.47775000  0.74238000  1.0
  H  H9  1  0.96152000  0.25762000  0.73537000  1.0
  H  H10  1  0.96152000  0.26464000  0.52227000  1.0
  H  H11  1  0.96152000  0.47776000  0.74238000  1.0
  H  H12  1  0.46152000  0.73537000  0.25762000  1.0
  H  H13  1  0.46152000  0.52226000  0.26463000  1.0
  H  H14  1  0.46152000  0.74237000  0.47774000  1.0
  H  H15  1  0.03848000  0.73537000  0.25762000  1.0
  H  H16  1  0.03848000  0.52226000  0.26463000  1.0
  H  H17  1  0.03848000  0.74237000  0.47774000  1.0
  H  H18  1  0.75000000  0.42811000  0.83978000  1.0
  H  H19  1  0.75000000  0.16022000  0.58835000  1.0
  H  H20  1  0.75000000  0.41167000  0.57188000  1.0
  H  H21  1  0.25000000  0.83979000  0.42812000  1.0
  H  H22  1  0.25000000  0.58834000  0.16021000  1.0
  H  H23  1  0.25000000  0.57188000  0.41166000  1.0
  H  H24  1  0.53325000  0.56196000  0.93842000  1.0
  H  H25  1  0.53325000  0.06158000  0.62354000  1.0
  H  H26  1  0.53325000  0.37645000  0.43803000  1.0
  H  H27  1  0.96675000  0.56196000  0.93842000  1.0
  H  H28  1  0.96675000  0.06158000  0.62354000  1.0
  H  H29  1  0.96675000  0.37645000  0.43803000  1.0
  H  H30  1  0.46675000  0.93841000  0.56196000  1.0
  H  H31  1  0.46676000  0.62354000  0.06158000  1.0
  H  H32  1  0.46675000  0.43804000  0.37646000  1.0
  H  H33  1  0.03325000  0.93841000  0.56196000  1.0
  H  H34  1  0.03324000  0.62354000  0.06158000  1.0
  H  H35  1  0.03325000  0.43804000  0.37646000  1.0
  H  H36  1  0.41547000  0.33631000  0.76209000  1.0
  H  H37  1  0.41546000  0.23790000  0.57423000  1.0
  H  H38  1  0.41546000  0.42578000  0.66368000  1.0
  H  H39  1  0.08453000  0.33631000  0.76209000  1.0
  H  H40  1  0.08453000  0.23790000  0.57423000  1.0
  H  H41  1  0.08454000  0.42578000  0.66368000  1.0
  H  H42  1  0.58453000  0.76210000  0.33632000  1.0
  H  H43  1  0.58454000  0.57423000  0.23790000  1.0
  H  H44  1  0.58454000  0.66367000  0.42577000  1.0
  H  H45  1  0.91547000  0.76210000  0.33632000  1.0
  H  H46  1  0.91546000  0.57423000  0.23790000  1.0
  H  H47  1  0.91547000  0.66367000  0.42577000  1.0
  H  H48  1  0.65430000  0.48459000  0.91517000  1.0
  H  H49  1  0.65430000  0.08483000  0.56943000  1.0
  H  H50  1  0.65430000  0.43057000  0.51540000  1.0
  H  H51  1  0.84570000  0.48459000  0.91517000  1.0
  H  H52  1  0.84570000  0.08483000  0.56943000  1.0
  H  H53  1  0.84570000  0.43057000  0.51540000  1.0
  H  H54  1  0.34571000  0.91517000  0.48460000  1.0
  H  H55  1  0.34571000  0.56943000  0.08483000  1.0
  H  H56  1  0.34570000  0.51540000  0.43057000  1.0
  H  H57  1  0.15429000  0.91517000  0.48460000  1.0
  H  H58  1  0.15429000  0.56944000  0.08483000  1.0
  H  H59  1  0.15430000  0.51540000  0.43057000  1.0
  H  H60  1  0.62683000  0.19776000  0.76498000  1.0
  H  H61  1  0.62683000  0.23502000  0.43279000  1.0
  H  H62  1  0.62684000  0.56721000  0.80224000  1.0
  H  H63  1  0.87317000  0.19776000  0.76498000  1.0
  H  H64  1  0.87317000  0.23503000  0.43280000  1.0
  H  H65  1  0.87316000  0.56721000  0.80224000  1.0
  H  H66  1  0.37317000  0.76497000  0.19776000  1.0
  H  H67  1  0.37317000  0.43280000  0.23503000  1.0
  H  H68  1  0.37317000  0.80224000  0.56721000  1.0
  H  H69  1  0.12683000  0.76497000  0.19776000  1.0
  H  H70  1  0.12683000  0.43280000  0.23503000  1.0
  H  H71  1  0.12683000  0.80224000  0.56721000  1.0
  C  C72  1  0.60613000  0.36530000  0.82179000  1.0
  C  C73  1  0.60613000  0.17822000  0.54352000  1.0
  C  C74  1  0.60613000  0.45649000  0.63470000  1.0
  C  C75  1  0.89387000  0.36529000  0.82178000  1.0
  C  C76  1  0.89387000  0.17822000  0.54352000  1.0
  C  C77  1  0.89387000  0.45649000  0.63470000  1.0
  C  C78  1  0.39387000  0.82179000  0.36530000  1.0
  C  C79  1  0.39387000  0.54352000  0.17821000  1.0
  C  C80  1  0.39387000  0.63470000  0.45648000  1.0
  C  C81  1  0.10613000  0.82179000  0.36530000  1.0
  C  C82  1  0.10613000  0.54352000  0.17821000  1.0
  C  C83  1  0.10613000  0.63470000  0.45648000  1.0
  C  C84  1  0.67919000  0.32026000  0.80548000  1.0
  C  C85  1  0.67919000  0.19452000  0.51480000  1.0
  C  C86  1  0.67919000  0.48521000  0.67973000  1.0
  C  C87  1  0.82081000  0.32026000  0.80548000  1.0
  C  C88  1  0.82081000  0.19452000  0.51480000  1.0
  C  C89  1  0.82081000  0.48521000  0.67973000  1.0
  C  C90  1  0.32081000  0.80548000  0.32027000  1.0
  C  C91  1  0.32081000  0.51480000  0.19452000  1.0
  C  C92  1  0.32081000  0.67972000  0.48520000  1.0
  C  C93  1  0.17919000  0.80548000  0.32027000  1.0
  C  C94  1  0.17919000  0.51480000  0.19452000  1.0
  C  C95  1  0.17919000  0.67972000  0.48520000  1.0
  C  C96  1  0.53716000  0.32401000  0.78041000  1.0
  C  C97  1  0.53716000  0.21960000  0.54362000  1.0
  C  C98  1  0.53716000  0.45639000  0.67598000  1.0
  C  C99  1  0.96284000  0.32401000  0.78041000  1.0
  C  C100  1  0.96284000  0.21959000  0.54361000  1.0
  C  C101  1  0.96284000  0.45639000  0.67598000  1.0
  C  C102  1  0.46284000  0.78040000  0.32401000  1.0
  C  C103  1  0.46284000  0.54361000  0.21959000  1.0
  C  C104  1  0.46284000  0.67598000  0.45639000  1.0
  C  C105  1  0.03716000  0.78040000  0.32401000  1.0
  C  C106  1  0.03716000  0.54361000  0.21959000  1.0
  C  C107  1  0.03716000  0.67598000  0.45639000  1.0
  C  C108  1  0.46686000  0.45380000  0.85144000  1.0
  C  C109  1  0.46685000  0.14856000  0.60236000  1.0
  C  C110  1  0.46685000  0.39764000  0.54620000  1.0
  C  C111  1  0.03314000  0.45380000  0.85144000  1.0
  C  C112  1  0.03315000  0.14856000  0.60236000  1.0
  C  C113  1  0.03315000  0.39764000  0.54620000  1.0
  C  C114  1  0.53315000  0.85143000  0.45379000  1.0
  C  C115  1  0.53315000  0.60236000  0.14856000  1.0
  C  C116  1  0.53315000  0.54620000  0.39764000  1.0
  C  C117  1  0.96686000  0.85143000  0.45379000  1.0
  C  C118  1  0.96685000  0.60236000  0.14856000  1.0
  C  C119  1  0.96685000  0.54620000  0.39764000  1.0
  C  C120  1  0.75000000  0.36200000  0.81953000  1.0
  C  C121  1  0.75000000  0.18047000  0.54248000  1.0
  C  C122  1  0.75000000  0.45753000  0.63800000  1.0
  C  C123  1  0.25000000  0.81953000  0.36200000  1.0
  C  C124  1  0.25000000  0.54248000  0.18047000  1.0
  C  C125  1  0.25000000  0.63799000  0.45752000  1.0
  C  C126  1  0.53468000  0.49542000  0.89377000  1.0
  C  C127  1  0.53467000  0.10623000  0.60165000  1.0
  C  C128  1  0.53468000  0.39834000  0.50457000  1.0
  C  C129  1  0.96532000  0.49542000  0.89377000  1.0
  C  C130  1  0.96533000  0.10623000  0.60165000  1.0
  C  C131  1  0.96532000  0.39834000  0.50457000  1.0
  C  C132  1  0.46532000  0.89377000  0.49543000  1.0
  C  C133  1  0.46533000  0.60166000  0.10623000  1.0
  C  C134  1  0.46533000  0.50458000  0.39835000  1.0
  C  C135  1  0.03468000  0.89377000  0.49543000  1.0
  C  C136  1  0.03467000  0.60166000  0.10623000  1.0
  C  C137  1  0.03467000  0.50458000  0.39835000  1.0
  C  C138  1  0.39325000  0.50181000  0.86920000  1.0
  C  C139  1  0.39325000  0.13079000  0.63261000  1.0
  C  C140  1  0.39325000  0.36739000  0.49818000  1.0
  C  C141  1  0.10675000  0.50181000  0.86920000  1.0
  C  C142  1  0.10675000  0.13079000  0.63261000  1.0
  C  C143  1  0.10675000  0.36739000  0.49818000  1.0
  C  C144  1  0.60675000  0.86920000  0.50181000  1.0
  C  C145  1  0.60675000  0.63261000  0.13079000  1.0
  C  C146  1  0.60675000  0.49818000  0.36739000  1.0
  C  C147  1  0.89325000  0.86920000  0.50181000  1.0
  C  C148  1  0.89325000  0.63261000  0.13079000  1.0
  C  C149  1  0.89325000  0.49818000  0.36739000  1.0
  C  C150  1  0.46848000  0.36762000  0.79451000  1.0
  C  C151  1  0.46848000  0.20550000  0.57312000  1.0
  C  C152  1  0.46848000  0.42689000  0.63238000  1.0
  C  C153  1  0.03152000  0.36762000  0.79451000  1.0
  C  C154  1  0.03152000  0.20549000  0.57311000  1.0
  C  C155  1  0.03152000  0.42689000  0.63238000  1.0
  C  C156  1  0.53152000  0.79451000  0.36762000  1.0
  C  C157  1  0.53152000  0.57311000  0.20549000  1.0
  C  C158  1  0.53152000  0.63237000  0.42688000  1.0
  C  C159  1  0.96848000  0.79451000  0.36762000  1.0
  C  C160  1  0.96848000  0.57311000  0.20549000  1.0
  C  C161  1  0.96848000  0.63237000  0.42688000  1.0
  C  C162  1  0.60327000  0.45194000  0.87929000  1.0
  C  C163  1  0.60326000  0.12071000  0.57266000  1.0
  C  C164  1  0.60326000  0.42734000  0.54805000  1.0
  C  C165  1  0.89673000  0.45194000  0.87929000  1.0
  C  C166  1  0.89674000  0.12071000  0.57266000  1.0
  C  C167  1  0.89673000  0.42734000  0.54805000  1.0
  C  C168  1  0.39674000  0.87929000  0.45195000  1.0
  C  C169  1  0.39674000  0.57266000  0.12071000  1.0
  C  C170  1  0.39674000  0.54806000  0.42735000  1.0
  C  C171  1  0.10326000  0.87929000  0.45195000  1.0
  C  C172  1  0.10326000  0.57266000  0.12071000  1.0
  C  C173  1  0.10326000  0.54805000  0.42734000  1.0
  C  C174  1  0.68021000  0.23287000  0.77562000  1.0
  C  C175  1  0.68020000  0.22439000  0.45727000  1.0
  C  C176  1  0.68021000  0.54274000  0.76712000  1.0
  C  C177  1  0.81979000  0.23287000  0.77562000  1.0
  C  C178  1  0.81980000  0.22439000  0.45727000  1.0
  C  C179  1  0.81979000  0.54274000  0.76712000  1.0
  C  C180  1  0.31980000  0.77561000  0.23288000  1.0
  C  C181  1  0.31980000  0.45728000  0.22439000  1.0
  C  C182  1  0.31980000  0.76712000  0.54273000  1.0
  C  C183  1  0.18020000  0.77561000  0.23288000  1.0
  C  C184  1  0.18020000  0.45728000  0.22439000  1.0
  C  C185  1  0.18020000  0.76712000  0.54273000  1.0
  C  C186  1  0.75000000  0.19016000  0.76085000  1.0
  C  C187  1  0.75000000  0.23915000  0.42932000  1.0
  C  C188  1  0.75000000  0.57069000  0.80984000  1.0
  C  C189  1  0.25000000  0.76085000  0.19017000  1.0
  C  C190  1  0.25000000  0.42933000  0.23915000  1.0
  C  C191  1  0.25000000  0.80983000  0.57068000  1.0
  C  C192  1  0.75000000  0.09709000  0.72125000  1.0
  C  C193  1  0.75000000  0.27876000  0.37586000  1.0
  C  C194  1  0.75000000  0.62415000  0.90291000  1.0
  C  C195  1  0.25000000  0.72124000  0.09709000  1.0
  C  C196  1  0.25000000  0.37586000  0.27876000  1.0
  C  C197  1  0.25000000  0.90291000  0.62415000  1.0
  O  O198  1  0.39176000  0.57688000  0.93031000  1.0
  O  O199  1  0.39176000  0.06968000  0.64656000  1.0
  O  O200  1  0.39176000  0.35343000  0.42312000  1.0
  O  O201  1  0.10824000  0.57688000  0.93031000  1.0
  O  O202  1  0.10824000  0.06968000  0.64656000  1.0
  O  O203  1  0.10824000  0.35343000  0.42312000  1.0
  O  O204  1  0.60825000  0.93031000  0.57688000  1.0
  O  O205  1  0.60824000  0.64657000  0.06969000  1.0
  O  O206  1  0.60824000  0.42312000  0.35343000  1.0
  O  O207  1  0.89176000  0.93031000  0.57688000  1.0
  O  O208  1  0.89176000  0.64657000  0.06969000  1.0
  O  O209  1  0.89176000  0.42312000  0.35343000  1.0
  O  O210  1  0.25000000  0.53139000  0.99045000  1.0
  O  O211  1  0.25000000  0.00955000  0.54095000  1.0
  O  O212  1  0.25000000  0.45906000  0.46861000  1.0
  O  O213  1  0.75000000  0.99045000  0.53140000  1.0
  O  O214  1  0.75000000  0.54096000  0.00956000  1.0
  O  O215  1  0.75000000  0.46860000  0.45905000  1.0
  O  O216  1  0.25000000  0.63733000  0.87106000  1.0
  O  O217  1  0.25000000  0.12893000  0.76627000  1.0
  O  O218  1  0.25000000  0.23374000  0.36266000  1.0
  O  O219  1  0.75000000  0.87106000  0.63733000  1.0
  O  O220  1  0.75000000  0.76628000  0.12894000  1.0
  O  O221  1  0.75000000  0.36265000  0.23372000  1.0
  O  O222  1  0.33262000  0.46814000  0.82655000  1.0
  O  O223  1  0.33262000  0.17344000  0.64159000  1.0
  O  O224  1  0.33262000  0.35840000  0.53185000  1.0
  O  O225  1  0.16738000  0.46814000  0.82655000  1.0
  O  O226  1  0.16738000  0.17345000  0.64160000  1.0
  O  O227  1  0.16738000  0.35840000  0.53185000  1.0
  O  O228  1  0.66738000  0.82655000  0.46814000  1.0
  O  O229  1  0.66738000  0.64159000  0.17345000  1.0
  O  O230  1  0.66738000  0.53185000  0.35840000  1.0
  O  O231  1  0.83262000  0.82655000  0.46814000  1.0
  O  O232  1  0.83263000  0.64159000  0.17345000  1.0
  O  O233  1  0.83262000  0.53185000  0.35840000  1.0
  O  O234  1  0.68590000  0.05812000  0.70094000  1.0
  O  O235  1  0.68590000  0.29907000  0.35720000  1.0
  O  O236  1  0.68590000  0.64281000  0.94188000  1.0
  O  O237  1  0.81410000  0.05812000  0.70094000  1.0
  O  O238  1  0.81410000  0.29907000  0.35720000  1.0
  O  O239  1  0.81410000  0.64281000  0.94188000  1.0
  O  O240  1  0.31410000  0.70093000  0.05812000  1.0
  O  O241  1  0.31410000  0.35720000  0.29907000  1.0
  O  O242  1  0.31410000  0.94188000  0.64281000  1.0
  O  O243  1  0.18590000  0.70093000  0.05812000  1.0
  O  O244  1  0.18590000  0.35720000  0.29907000  1.0
  O  O245  1  0.18590000  0.94188000  0.64281000  1.0
