# generated using pymatgen
data_Cd2H19C25N7Cl4
_symmetry_space_group_name_H-M   'P 1'
_cell_length_a   11.14830000
_cell_length_b   11.14820000
_cell_length_c   11.92560000
_cell_angle_alpha   75.03630000
_cell_angle_beta   75.03590000
_cell_angle_gamma   82.55260000
_symmetry_Int_Tables_number   1
_chemical_formula_structural   Cd2H19C25N7Cl4
_chemical_formula_sum   'Cd4 H38 C50 N14 Cl8'
_cell_volume   1380.18652952
_cell_formula_units_Z   2
loop_
 _symmetry_equiv_pos_site_id
 _symmetry_equiv_pos_as_xyz
  1  'x, y, z'
loop_
 _atom_site_type_symbol
 _atom_site_label
 _atom_site_symmetry_multiplicity
 _atom_site_fract_x
 _atom_site_fract_y
 _atom_site_fract_z
 _atom_site_occupancy
  Cd  Cd0  1  0.94746000  0.49955000  0.36092000  1.0
  Cd  Cd1  1  0.50045000  0.05254000  0.13908000  1.0
  Cd  Cd2  1  0.05254000  0.50045000  0.63908000  1.0
  Cd  Cd3  1  0.49955000  0.94746000  0.86092000  1.0
  H  H4  1  0.93726000  0.32491000  0.17063000  1.0
  H  H5  1  0.67509000  0.06275000  0.32937000  1.0
  H  H6  1  0.06275000  0.67509000  0.82937000  1.0
  H  H7  1  0.32491000  0.93726000  0.67063000  1.0
  H  H8  1  0.07338000  0.26255000  0.98680000  1.0
  H  H9  1  0.73744000  0.92663000  0.51319000  1.0
  H  H10  1  0.92663000  0.73744000  0.01320000  1.0
  H  H11  1  0.26255000  0.07338000  0.48681000  1.0
  H  H12  1  0.27220000  0.36897000  0.88619000  1.0
  H  H13  1  0.63102000  0.72781000  0.61381000  1.0
  H  H14  1  0.72781000  0.63102000  0.11381000  1.0
  H  H15  1  0.36897000  0.27220000  0.38619000  1.0
  H  H16  1  0.32579000  0.53322000  0.97145000  1.0
  H  H17  1  0.46677000  0.67422000  0.52855000  1.0
  H  H18  1  0.67422000  0.46678000  0.02855000  1.0
  H  H19  1  0.53322000  0.32579000  0.47145000  1.0
  H  H20  1  0.24157000  0.83272000  0.05029000  1.0
  H  H21  1  0.16728000  0.75842000  0.44971000  1.0
  H  H22  1  0.75843000  0.16727000  0.94971000  1.0
  H  H23  1  0.83273000  0.24158000  0.55029000  1.0
  H  H24  1  0.09438000  0.02052000  0.05995000  1.0
  H  H25  1  0.97948000  0.90562000  0.44006000  1.0
  H  H26  1  0.90562000  0.97948000  0.94006000  1.0
  H  H27  1  0.02052000  0.09439000  0.55995000  1.0
  H  H28  1  0.87090000  0.99172000  0.17648000  1.0
  H  H29  1  0.00828000  0.12910000  0.32353000  1.0
  H  H30  1  0.12910000  0.00828000  0.82352000  1.0
  H  H31  1  0.99172000  0.87090000  0.67648000  1.0
  H  H32  1  0.81250000  0.77645000  0.28886000  1.0
  H  H33  1  0.22354000  0.18750000  0.21114000  1.0
  H  H34  1  0.18750000  0.22354000  0.71114000  1.0
  H  H35  1  0.77645000  0.81251000  0.78886000  1.0
  H  H36  1  0.38851000  0.42058000  0.16674000  1.0
  H  H37  1  0.57942000  0.61148000  0.33326000  1.0
  H  H38  1  0.61149000  0.57943000  0.83326000  1.0
  H  H39  1  0.42058000  0.38852000  0.66674000  1.0
  H  H40  1  0.56645000  0.43354000  0.25000000  1.0
  H  H41  1  0.43355000  0.56646000  0.74999000  1.0
  C  C42  1  0.02610000  0.36533000  0.12426000  1.0
  C  C43  1  0.63466000  0.97391000  0.37573000  1.0
  C  C44  1  0.97391000  0.63467000  0.87574000  1.0
  C  C45  1  0.36533000  0.02610000  0.62427000  1.0
  C  C46  1  0.10091000  0.33265000  0.02226000  1.0
  C  C47  1  0.66734000  0.89910000  0.47773000  1.0
  C  C48  1  0.89910000  0.66734000  0.97774000  1.0
  C  C49  1  0.33266000  0.10090000  0.52227000  1.0
  C  C50  1  0.21157000  0.39142000  0.96664000  1.0
  C  C51  1  0.60858000  0.78844000  0.53336000  1.0
  C  C52  1  0.78844000  0.60858000  0.03336000  1.0
  C  C53  1  0.39142000  0.21157000  0.46664000  1.0
  C  C54  1  0.24321000  0.48123000  0.01424000  1.0
  C  C55  1  0.51877000  0.75679000  0.48576000  1.0
  C  C56  1  0.75679000  0.51877000  0.98576000  1.0
  C  C57  1  0.48123000  0.24321000  0.51424000  1.0
  C  C58  1  0.16377000  0.50681000  0.11827000  1.0
  C  C59  1  0.49318000  0.83623000  0.38173000  1.0
  C  C60  1  0.83623000  0.49318000  0.88172000  1.0
  C  C61  1  0.50682000  0.16377000  0.61827000  1.0
  C  C62  1  0.10558000  0.70870000  0.16920000  1.0
  C  C63  1  0.29130000  0.89442000  0.33081000  1.0
  C  C64  1  0.89442000  0.29130000  0.83081000  1.0
  C  C65  1  0.70870000  0.10558000  0.66919000  1.0
  C  C66  1  0.14634000  0.82546000  0.10327000  1.0
  C  C67  1  0.17454000  0.85365000  0.39673000  1.0
  C  C68  1  0.85365000  0.17454000  0.89673000  1.0
  C  C69  1  0.82546000  0.14635000  0.60327000  1.0
  C  C70  1  0.06290000  0.92870000  0.10791000  1.0
  C  C71  1  0.07129000  0.93710000  0.39210000  1.0
  C  C72  1  0.93710000  0.07129000  0.89210000  1.0
  C  C73  1  0.92871000  0.06290000  0.60791000  1.0
  C  C74  1  0.93977000  0.91313000  0.17321000  1.0
  C  C75  1  0.08687000  0.06023000  0.32679000  1.0
  C  C76  1  0.06023000  0.08687000  0.82679000  1.0
  C  C77  1  0.91313000  0.93977000  0.67321000  1.0
  C  C78  1  0.90634000  0.79418000  0.23496000  1.0
  C  C79  1  0.20582000  0.09366000  0.26504000  1.0
  C  C80  1  0.09366000  0.20582000  0.76504000  1.0
  C  C81  1  0.79418000  0.90634000  0.73495000  1.0
  C  C82  1  0.29939000  0.59718000  0.20627000  1.0
  C  C83  1  0.40282000  0.70061000  0.29373000  1.0
  C  C84  1  0.70061000  0.40282000  0.79373000  1.0
  C  C85  1  0.59718000  0.29939000  0.70626000  1.0
  C  C86  1  0.39208000  0.49954000  0.20321000  1.0
  C  C87  1  0.50045000  0.60791000  0.29679000  1.0
  C  C88  1  0.60793000  0.50046000  0.79678000  1.0
  C  C89  1  0.49955000  0.39209000  0.70321000  1.0
  C  C90  1  0.49236000  0.50764000  0.25000000  1.0
  C  C91  1  0.50765000  0.49236000  0.75000000  1.0
  N  N92  1  0.05862000  0.44870000  0.17303000  1.0
  N  N93  1  0.55129000  0.94138000  0.32697000  1.0
  N  N94  1  0.94139000  0.55129000  0.82697000  1.0
  N  N95  1  0.44871000  0.05862000  0.67303000  1.0
  N  N96  1  0.18850000  0.60004000  0.16959000  1.0
  N  N97  1  0.39996000  0.81150000  0.33040000  1.0
  N  N98  1  0.81150000  0.39996000  0.83040000  1.0
  N  N99  1  0.60004000  0.18850000  0.66959000  1.0
  N  N100  1  0.98878000  0.69426000  0.23494000  1.0
  N  N101  1  0.30573000  0.01122000  0.26505000  1.0
  N  N102  1  0.01122000  0.30574000  0.76506000  1.0
  N  N103  1  0.69426000  0.98878000  0.73494000  1.0
  N  N104  1  0.30612000  0.69388000  0.24999000  1.0
  N  N105  1  0.69388000  0.30612000  0.75000000  1.0
  Cl  Cl106  1  0.89163000  0.62868000  0.53352000  1.0
  Cl  Cl107  1  0.37131000  0.10837000  0.96648000  1.0
  Cl  Cl108  1  0.10837000  0.37131000  0.46648000  1.0
  Cl  Cl109  1  0.62868000  0.89163000  0.03352000  1.0
  Cl  Cl110  1  0.75970000  0.40386000  0.36929000  1.0
  Cl  Cl111  1  0.59614000  0.24030000  0.13071000  1.0
  Cl  Cl112  1  0.24030000  0.59614000  0.63071000  1.0
  Cl  Cl113  1  0.40386000  0.75970000  0.86929000  1.0
