# generated using pymatgen
data_CuH10C14(N3O)4
_symmetry_space_group_name_H-M   'P 1'
_cell_length_a   6.60911000
_cell_length_b   8.52020000
_cell_length_c   8.94026000
_cell_angle_alpha   88.97570000
_cell_angle_beta   76.70400000
_cell_angle_gamma   73.00340000
_symmetry_Int_Tables_number   1
_chemical_formula_structural   CuH10C14(N3O)4
_chemical_formula_sum   'Cu1 H10 C14 N12 O4'
_cell_volume   467.88112481
_cell_formula_units_Z   1
loop_
 _symmetry_equiv_pos_site_id
 _symmetry_equiv_pos_as_xyz
  1  'x, y, z'
loop_
 _atom_site_type_symbol
 _atom_site_label
 _atom_site_symmetry_multiplicity
 _atom_site_fract_x
 _atom_site_fract_y
 _atom_site_fract_z
 _atom_site_occupancy
  Cu  Cu0  1  0.00000000  0.00000000  0.50000000  1.0
  H  H1  1  0.34125000  0.35539000  0.85748000  1.0
  H  H2  1  0.65875000  0.64461000  0.14252000  1.0
  H  H3  1  0.41618000  0.50432000  0.72820000  1.0
  H  H4  1  0.58382000  0.49567000  0.27180000  1.0
  H  H5  1  0.03027000  0.75680000  0.74104000  1.0
  H  H6  1  0.96973000  0.24321000  0.25896000  1.0
  H  H7  1  0.21057000  0.70733000  0.97205000  1.0
  H  H8  1  0.78942000  0.29267000  0.02795000  1.0
  H  H9  1  0.38901000  0.91284000  0.02740000  1.0
  H  H10  1  0.61098000  0.08716000  0.97260000  1.0
  C  C11  1  0.42159000  0.37530000  0.74022000  1.0
  C  C12  1  0.57841000  0.62470000  0.25979000  1.0
  C  C13  1  0.24041000  0.20186000  0.61865000  1.0
  C  C14  1  0.75960000  0.79814000  0.38135000  1.0
  C  C15  1  0.22903000  0.06936000  0.72375000  1.0
  C  C16  1  0.77098000  0.93064000  0.27626000  1.0
  C  C17  1  0.11622000  0.83730000  0.77420000  1.0
  C  C18  1  0.88378000  0.16271000  0.22580000  1.0
  C  C19  1  0.21413000  0.80998000  0.89822000  1.0
  C  C20  1  0.78586000  0.19002000  0.10178000  1.0
  C  C21  1  0.31413000  0.92473000  0.92926000  1.0
  C  C22  1  0.68587000  0.07527000  0.07075000  1.0
  C  C23  1  0.66381000  0.27047000  0.70731000  1.0
  C  C24  1  0.33622000  0.72953000  0.29269000  1.0
  N  N25  1  0.12181000  0.96738000  0.68865000  1.0
  N  N26  1  0.87819000  0.03262000  0.31134000  1.0
  N  N27  1  0.30855000  0.33475000  0.63243000  1.0
  N  N28  1  0.69146000  0.66525000  0.36756000  1.0
  N  N29  1  0.18037000  0.20799000  0.48546000  1.0
  N  N30  1  0.81963000  0.79201000  0.51454000  1.0
  N  N31  1  0.29099000  0.42218000  0.50572000  1.0
  N  N32  1  0.70901000  0.57782000  0.49428000  1.0
  N  N33  1  0.32396000  0.05380000  0.84234000  1.0
  N  N34  1  0.67604000  0.94620000  0.15766000  1.0
  N  N35  1  0.21313000  0.34450000  0.41891000  1.0
  N  N36  1  0.78687000  0.65550000  0.58109000  1.0
  O  O37  1  0.71505000  0.15776000  0.60040000  1.0
  O  O38  1  0.28494000  0.84223000  0.39959000  1.0
  O  O39  1  0.77706000  0.30535000  0.78720000  1.0
  O  O40  1  0.22295000  0.69464000  0.21279000  1.0
