# generated using pymatgen
data_PrH8C6O7
_symmetry_space_group_name_H-M   'P 1'
_cell_length_a   7.91962000
_cell_length_b   10.83070000
_cell_length_c   12.96460000
_cell_angle_alpha   71.44720000
_cell_angle_beta   72.21590000
_cell_angle_gamma   68.55840000
_symmetry_Int_Tables_number   1
_chemical_formula_structural   PrH8C6O7
_chemical_formula_sum   'Pr4 H32 C24 O28'
_cell_volume   958.48180168
_cell_formula_units_Z   4
loop_
 _symmetry_equiv_pos_site_id
 _symmetry_equiv_pos_as_xyz
  1  'x, y, z'
loop_
 _atom_site_type_symbol
 _atom_site_label
 _atom_site_symmetry_multiplicity
 _atom_site_fract_x
 _atom_site_fract_y
 _atom_site_fract_z
 _atom_site_occupancy
  Pr  Pr0  1  0.01660000  0.31010000  0.22924000  1.0
  Pr  Pr1  1  0.55590000  0.18987000  0.27076000  1.0
  Pr  Pr2  1  0.98340000  0.68990000  0.77076000  1.0
  Pr  Pr3  1  0.44411000  0.81013000  0.72924000  1.0
  H  H4  1  0.82045000  0.58643000  0.08696000  1.0
  H  H5  1  0.49376000  0.91360000  0.41299000  1.0
  H  H6  1  0.17955000  0.41357000  0.91304000  1.0
  H  H7  1  0.50624000  0.08640000  0.58701000  1.0
  H  H8  1  0.66272000  0.50618000  0.14274000  1.0
  H  H9  1  0.31150000  0.99384000  0.35727000  1.0
  H  H10  1  0.33728000  0.49382000  0.85726000  1.0
  H  H11  1  0.68850000  0.00617000  0.64273000  1.0
  H  H12  1  0.09107000  0.82555000  0.48832000  1.0
  H  H13  1  0.40503000  0.67442000  0.01166000  1.0
  H  H14  1  0.90893000  0.17445000  0.51168000  1.0
  H  H15  1  0.59497000  0.32558000  0.98834000  1.0
  H  H16  1  0.18603000  0.78938000  0.35624000  1.0
  H  H17  1  0.33182000  0.71054000  0.14375000  1.0
  H  H18  1  0.81397000  0.21061000  0.64376000  1.0
  H  H19  1  0.66818000  0.28946000  0.85625000  1.0
  H  H20  1  0.87347000  0.75679000  0.36346000  1.0
  H  H21  1  0.99386000  0.74312000  0.13653000  1.0
  H  H22  1  0.12653000  0.24321000  0.63654000  1.0
  H  H23  1  0.00614000  0.25688000  0.86347000  1.0
  H  H24  1  0.00740000  0.63316000  0.46022000  1.0
  H  H25  1  0.10093000  0.86678000  0.03983000  1.0
  H  H26  1  0.99260000  0.36684000  0.53978000  1.0
  H  H27  1  0.89907000  0.13322000  0.96017000  1.0
  H  H28  1  0.31440000  0.99520000  0.08405000  1.0
  H  H29  1  0.39360000  0.50491000  0.41592000  1.0
  H  H30  1  0.68560000  0.00480000  0.91595000  1.0
  H  H31  1  0.60640000  0.49509000  0.58408000  1.0
  H  H32  1  0.34271000  0.13427000  0.97420000  1.0
  H  H33  1  0.45120000  0.36574000  0.52570000  1.0
  H  H34  1  0.65729000  0.86573000  0.02580000  1.0
  H  H35  1  0.54880000  0.63426000  0.47430000  1.0
  C  C36  1  0.97180000  0.97865000  0.35835000  1.0
  C  C37  1  0.30888000  0.52128000  0.14162000  1.0
  C  C38  1  0.02820000  0.02135000  0.64165000  1.0
  C  C39  1  0.69111000  0.47872000  0.85838000  1.0
  C  C40  1  0.05378000  0.82929000  0.41212000  1.0
  C  C41  1  0.29533000  0.67064000  0.08788000  1.0
  C  C42  1  0.94622000  0.17071000  0.58788000  1.0
  C  C43  1  0.70467000  0.32936000  0.91212000  1.0
  C  C44  1  0.92629000  0.74079000  0.43707000  1.0
  C  C45  1  0.10430000  0.75916000  0.06295000  1.0
  C  C46  1  0.07371000  0.25921000  0.56293000  1.0
  C  C47  1  0.89570000  0.24084000  0.93705000  1.0
  C  C48  1  0.76320000  0.76634000  0.53382000  1.0
  C  C49  1  0.06354000  0.73371000  0.96613000  1.0
  C  C50  1  0.23680000  0.23366000  0.46617000  1.0
  C  C51  1  0.93646000  0.26629000  0.03387000  1.0
  C  C52  1  0.47335000  0.10204000  0.10494000  1.0
  C  C53  1  0.68027000  0.39803000  0.39501000  1.0
  C  C54  1  0.52665000  0.89796000  0.89506000  1.0
  C  C55  1  0.31973000  0.60197000  0.60499000  1.0
  C  C56  1  0.41833000  0.04736000  0.03120000  1.0
  C  C57  1  0.49683000  0.45271000  0.46876000  1.0
  C  C58  1  0.58168000  0.95264000  0.96880000  1.0
  C  C59  1  0.50317000  0.54729000  0.53125000  1.0
  O  O60  1  0.77447000  0.51898000  0.15165000  1.0
  O  O61  1  0.44498000  0.98102000  0.34830000  1.0
  O  O62  1  0.22553000  0.48102000  0.84835000  1.0
  O  O63  1  0.55502000  0.01898000  0.65170000  1.0
  O  O64  1  0.07206000  0.05831000  0.33267000  1.0
  O  O65  1  0.46308000  0.44166000  0.16734000  1.0
  O  O66  1  0.92794000  0.94169000  0.66733000  1.0
  O  O67  1  0.53692000  0.55834000  0.83266000  1.0
  O  O68  1  0.80910000  0.01537000  0.34235000  1.0
  O  O69  1  0.16692000  0.48456000  0.15758000  1.0
  O  O70  1  0.19090000  0.98463000  0.65765000  1.0
  O  O71  1  0.83308000  0.51544000  0.84242000  1.0
  O  O72  1  0.59652000  0.81368000  0.52123000  1.0
  O  O73  1  0.93154000  0.68644000  0.97866000  1.0
  O  O74  1  0.40348000  0.18632000  0.47877000  1.0
  O  O75  1  0.06846000  0.31356000  0.02134000  1.0
  O  O76  1  0.79266000  0.73585000  0.63253000  1.0
  O  O77  1  0.16123000  0.76425000  0.86744000  1.0
  O  O78  1  0.20734000  0.26415000  0.36747000  1.0
  O  O79  1  0.83877000  0.23575000  0.13256000  1.0
  O  O80  1  0.34577000  0.19037000  0.15728000  1.0
  O  O81  1  0.69331000  0.30972000  0.34266000  1.0
  O  O82  1  0.65423000  0.80963000  0.84272000  1.0
  O  O83  1  0.30669000  0.69028000  0.65734000  1.0
  O  O84  1  0.63877000  0.06478000  0.11589000  1.0
  O  O85  1  0.81945000  0.43521000  0.38408000  1.0
  O  O86  1  0.36123000  0.93522000  0.88411000  1.0
  O  O87  1  0.18055000  0.56479000  0.61591000  1.0
