# generated using pymatgen
data_CdH9C12(NO)4
_symmetry_space_group_name_H-M   'P 1'
_cell_length_a   7.50558000
_cell_length_b   10.70870000
_cell_length_c   17.53930000
_cell_angle_alpha   89.99990000
_cell_angle_beta   84.75460000
_cell_angle_gamma   89.99980000
_symmetry_Int_Tables_number   1
_chemical_formula_structural   CdH9C12(NO)4
_chemical_formula_sum   'Cd4 H36 C48 N16 O16'
_cell_volume   1403.81778580
_cell_formula_units_Z   4
loop_
 _symmetry_equiv_pos_site_id
 _symmetry_equiv_pos_as_xyz
  1  'x, y, z'
loop_
 _atom_site_type_symbol
 _atom_site_label
 _atom_site_symmetry_multiplicity
 _atom_site_fract_x
 _atom_site_fract_y
 _atom_site_fract_z
 _atom_site_occupancy
  Cd  Cd0  1  0.25000000  0.46071000  0.50000000  1.0
  Cd  Cd1  1  0.75000000  0.53929000  0.50000000  1.0
  Cd  Cd2  1  0.25000000  0.06478000  0.00000000  1.0
  Cd  Cd3  1  0.75000000  0.93522000  0.00000000  1.0
  H  H4  1  0.92986000  0.27076000  0.62892000  1.0
  H  H5  1  0.57014000  0.27076000  0.37108000  1.0
  H  H6  1  0.07014000  0.72924000  0.37108000  1.0
  H  H7  1  0.42985000  0.72924000  0.62892000  1.0
  H  H8  1  0.12611000  0.02307000  0.75413000  1.0
  H  H9  1  0.37390000  0.02307000  0.24587000  1.0
  H  H10  1  0.87390000  0.97693000  0.24587000  1.0
  H  H11  1  0.62610000  0.97693000  0.75413000  1.0
  H  H12  1  0.91889000  0.06992000  0.72033000  1.0
  H  H13  1  0.58111000  0.06992000  0.27967000  1.0
  H  H14  1  0.08112000  0.93008000  0.27967000  1.0
  H  H15  1  0.41888000  0.93008000  0.72034000  1.0
  H  H16  1  0.90550000  0.25232000  0.80891000  1.0
  H  H17  1  0.59451000  0.25233000  0.19109000  1.0
  H  H18  1  0.09451000  0.74768000  0.19109000  1.0
  H  H19  1  0.40550000  0.74767000  0.80892000  1.0
  H  H20  1  0.11836000  0.21145000  0.83967000  1.0
  H  H21  1  0.38165000  0.21145000  0.16033000  1.0
  H  H22  1  0.88165000  0.78855000  0.16033000  1.0
  H  H23  1  0.61835000  0.78855000  0.83967000  1.0
  H  H24  1  0.00466000  0.15553000  0.15835000  1.0
  H  H25  1  0.49534000  0.15552000  0.84165000  1.0
  H  H26  1  0.99534000  0.84447000  0.84165000  1.0
  H  H27  1  0.50466000  0.84447000  0.15835000  1.0
  H  H28  1  0.90586000  0.34937000  0.22897000  1.0
  H  H29  1  0.59415000  0.34936000  0.77103000  1.0
  H  H30  1  0.09414000  0.65063000  0.77103000  1.0
  H  H31  1  0.40585000  0.65063000  0.22897000  1.0
  H  H32  1  0.99295000  0.55756000  0.16970000  1.0
  H  H33  1  0.50706000  0.55755000  0.83030000  1.0
  H  H34  1  0.00706000  0.44245000  0.83030000  1.0
  H  H35  1  0.49294000  0.44244000  0.16970000  1.0
  H  H36  1  0.15365000  0.67762000  0.05977000  1.0
  H  H37  1  0.34636000  0.67762000  0.94023000  1.0
  H  H38  1  0.84636000  0.32238000  0.94023000  1.0
  H  H39  1  0.65364000  0.32238000  0.05977000  1.0
  C  C40  1  0.35680000  0.28042000  0.63214000  1.0
  C  C41  1  0.14321000  0.28041000  0.36787000  1.0
  C  C42  1  0.64321000  0.71959000  0.36786000  1.0
  C  C43  1  0.85679000  0.71959000  0.63213000  1.0
  C  C44  1  0.53952000  0.33060000  0.60708000  1.0
  C  C45  1  0.96048000  0.33059000  0.39292000  1.0
  C  C46  1  0.46049000  0.66940000  0.39291000  1.0
  C  C47  1  0.03951000  0.66940000  0.60708000  1.0
  C  C48  1  0.07203000  0.26048000  0.63664000  1.0
  C  C49  1  0.42797000  0.26049000  0.36336000  1.0
  C  C50  1  0.92797000  0.73952000  0.36336000  1.0
  C  C51  1  0.57202000  0.73952000  0.63664000  1.0
  C  C52  1  0.03998000  0.10297000  0.74435000  1.0
  C  C53  1  0.46002000  0.10298000  0.25565000  1.0
  C  C54  1  0.96003000  0.89703000  0.25565000  1.0
  C  C55  1  0.53997000  0.89703000  0.74435000  1.0
  C  C56  1  0.99562000  0.17408000  0.81923000  1.0
  C  C57  1  0.50438000  0.17408000  0.18076000  1.0
  C  C58  1  0.00438000  0.82592000  0.18077000  1.0
  C  C59  1  0.49562000  0.82592000  0.81924000  1.0
  C  C60  1  0.89974000  0.09192000  0.88067000  1.0
  C  C61  1  0.60026000  0.09193000  0.11933000  1.0
  C  C62  1  0.10026000  0.90807000  0.11933000  1.0
  C  C63  1  0.39974000  0.90807000  0.88067000  1.0
  C  C64  1  0.04159000  0.24688000  0.13474000  1.0
  C  C65  1  0.45842000  0.24688000  0.86527000  1.0
  C  C66  1  0.95841000  0.75312000  0.86527000  1.0
  C  C67  1  0.54159000  0.75312000  0.13473000  1.0
  C  C68  1  0.98513000  0.35671000  0.17379000  1.0
  C  C69  1  0.51488000  0.35671000  0.82621000  1.0
  C  C70  1  0.01487000  0.64329000  0.82621000  1.0
  C  C71  1  0.48512000  0.64329000  0.17379000  1.0
  C  C72  1  0.03552000  0.47043000  0.14151000  1.0
  C  C73  1  0.46449000  0.47043000  0.85848000  1.0
  C  C74  1  0.96448000  0.52957000  0.85849000  1.0
  C  C75  1  0.53552000  0.52957000  0.14152000  1.0
  C  C76  1  0.14179000  0.47465000  0.07075000  1.0
  C  C77  1  0.35821000  0.47465000  0.92924000  1.0
  C  C78  1  0.85822000  0.52535000  0.92925000  1.0
  C  C79  1  0.64179000  0.52535000  0.07076000  1.0
  C  C80  1  0.19450000  0.35859000  0.03606000  1.0
  C  C81  1  0.30551000  0.35859000  0.96394000  1.0
  C  C82  1  0.80551000  0.64141000  0.96394000  1.0
  C  C83  1  0.69450000  0.64141000  0.03606000  1.0
  C  C84  1  0.19724000  0.58914000  0.03380000  1.0
  C  C85  1  0.30276000  0.58914000  0.96620000  1.0
  C  C86  1  0.80276000  0.41086000  0.96620000  1.0
  C  C87  1  0.69724000  0.41086000  0.03380000  1.0
  N  N88  1  0.14350000  0.24781000  0.06854000  1.0
  N  N89  1  0.35650000  0.24781000  0.93146000  1.0
  N  N90  1  0.85650000  0.75219000  0.93146000  1.0
  N  N91  1  0.64350000  0.75219000  0.06854000  1.0
  N  N92  1  0.20798000  0.32304000  0.60043000  1.0
  N  N93  1  0.29202000  0.32304000  0.39957000  1.0
  N  N94  1  0.79202000  0.67696000  0.39957000  1.0
  N  N95  1  0.70797000  0.67696000  0.60043000  1.0
  N  N96  1  0.13844000  0.18293000  0.68778000  1.0
  N  N97  1  0.36156000  0.18294000  0.31222000  1.0
  N  N98  1  0.86156000  0.81707000  0.31222000  1.0
  N  N99  1  0.63843000  0.81706000  0.68778000  1.0
  N  N100  1  0.31896000  0.19455000  0.68616000  1.0
  N  N101  1  0.18104000  0.19455000  0.31384000  1.0
  N  N102  1  0.68104000  0.80546000  0.31384000  1.0
  N  N103  1  0.81895000  0.80545000  0.68616000  1.0
  O  O104  1  0.54009000  0.40077000  0.54689000  1.0
  O  O105  1  0.95991000  0.40076000  0.45311000  1.0
  O  O106  1  0.45991000  0.59923000  0.45311000  1.0
  O  O107  1  0.04008000  0.59923000  0.54689000  1.0
  O  O108  1  0.66937000  0.30549000  0.64369000  1.0
  O  O109  1  0.83063000  0.30548000  0.35631000  1.0
  O  O110  1  0.33063000  0.69452000  0.35630000  1.0
  O  O111  1  0.16936000  0.69452000  0.64369000  1.0
  O  O112  1  0.94476000  0.09942000  0.94938000  1.0
  O  O113  1  0.55524000  0.09942000  0.05062000  1.0
  O  O114  1  0.05524000  0.90058000  0.05063000  1.0
  O  O115  1  0.44476000  0.90058000  0.94938000  1.0
  O  O116  1  0.77682000  0.02072000  0.86210000  1.0
  O  O117  1  0.72319000  0.02073000  0.13790000  1.0
  O  O118  1  0.22319000  0.97927000  0.13790000  1.0
  O  O119  1  0.27681000  0.97927000  0.86210000  1.0
