# generated using pymatgen
data_H6PbC6N4O3
_symmetry_space_group_name_H-M   'P 1'
_cell_length_a   7.01903000
_cell_length_b   8.02664000
_cell_length_c   8.65673000
_cell_angle_alpha   87.18630000
_cell_angle_beta   70.22120000
_cell_angle_gamma   68.74650000
_symmetry_Int_Tables_number   1
_chemical_formula_structural   H6PbC6N4O3
_chemical_formula_sum   'H12 Pb2 C12 N8 O6'
_cell_volume   426.21887021
_cell_formula_units_Z   2
loop_
 _symmetry_equiv_pos_site_id
 _symmetry_equiv_pos_as_xyz
  1  'x, y, z'
loop_
 _atom_site_type_symbol
 _atom_site_label
 _atom_site_symmetry_multiplicity
 _atom_site_fract_x
 _atom_site_fract_y
 _atom_site_fract_z
 _atom_site_occupancy
  H  H0  1  0.93932000  0.05010000  0.23524000  1.0
  H  H1  1  0.06065000  0.94989000  0.76476000  1.0
  H  H2  1  0.58489000  0.93884000  0.71656000  1.0
  H  H3  1  0.41517000  0.06114000  0.28346000  1.0
  H  H4  1  0.50883000  0.25262000  0.81803000  1.0
  H  H5  1  0.49121000  0.74737000  0.18197000  1.0
  H  H6  1  0.65533000  0.45060000  0.61597000  1.0
  H  H7  1  0.34465000  0.54940000  0.38401000  1.0
  H  H8  1  0.29709000  0.96790000  0.99355000  1.0
  H  H9  1  0.70288000  0.03212000  0.00647000  1.0
  H  H10  1  0.17385000  0.13849000  0.91748000  1.0
  H  H11  1  0.82617000  0.86154000  0.08251000  1.0
  Pb  Pb12  1  0.06614000  0.40514000  0.21987000  1.0
  Pb  Pb13  1  0.93386000  0.59485000  0.78012000  1.0
  C  C14  1  0.84042000  0.09101000  0.36470000  1.0
  C  C15  1  0.15957000  0.90897000  0.63529000  1.0
  C  C16  1  0.76636000  0.97135000  0.46762000  1.0
  C  C17  1  0.23365000  0.02863000  0.53239000  1.0
  C  C18  1  0.64671000  0.02887000  0.63379000  1.0
  C  C19  1  0.35333000  0.97112000  0.36622000  1.0
  C  C20  1  0.60426000  0.20248000  0.69014000  1.0
  C  C21  1  0.39577000  0.79751000  0.30986000  1.0
  C  C22  1  0.68419000  0.31314000  0.57892000  1.0
  C  C23  1  0.31580000  0.68685000  0.42107000  1.0
  C  C24  1  0.82651000  0.78427000  0.39981000  1.0
  C  C25  1  0.17349000  0.21572000  0.60020000  1.0
  N  N26  1  0.80214000  0.25766000  0.41925000  1.0
  N  N27  1  0.19785000  0.74233000  0.58073000  1.0
  N  N28  1  0.79004000  0.45494000  0.07966000  1.0
  N  N29  1  0.20994000  0.54506000  0.92032000  1.0
  N  N30  1  0.68271000  0.36623000  0.08792000  1.0
  N  N31  1  0.31723000  0.63380000  0.91210000  1.0
  N  N32  1  0.57333000  0.28242000  0.09512000  1.0
  N  N33  1  0.42658000  0.71763000  0.90493000  1.0
  O  O34  1  0.80468000  0.66427000  0.49764000  1.0
  O  O35  1  0.19532000  0.33572000  0.50236000  1.0
  O  O36  1  0.90602000  0.75149000  0.24272000  1.0
  O  O37  1  0.09398000  0.24850000  0.75728000  1.0
  O  O38  1  0.21541000  0.09847000  0.01572000  1.0
  O  O39  1  0.78466000  0.90157000  0.98425000  1.0
