# generated using pymatgen
data_ZnH4C3(NO)3
_symmetry_space_group_name_H-M   'P 1'
_cell_length_a   7.68167000
_cell_length_b   8.58358000
_cell_length_c   9.99841000
_cell_angle_alpha   89.99990000
_cell_angle_beta   102.74600000
_cell_angle_gamma   89.99980000
_symmetry_Int_Tables_number   1
_chemical_formula_structural   ZnH4C3(NO)3
_chemical_formula_sum   'Zn4 H16 C12 N12 O12'
_cell_volume   643.01184824
_cell_formula_units_Z   4
loop_
 _symmetry_equiv_pos_site_id
 _symmetry_equiv_pos_as_xyz
  1  'x, y, z'
loop_
 _atom_site_type_symbol
 _atom_site_label
 _atom_site_symmetry_multiplicity
 _atom_site_fract_x
 _atom_site_fract_y
 _atom_site_fract_z
 _atom_site_occupancy
  Zn  Zn0  1  0.21013000  0.53619000  0.13784000  1.0
  Zn  Zn1  1  0.78987000  0.03619000  0.36216000  1.0
  Zn  Zn2  1  0.78986000  0.46382000  0.86215000  1.0
  Zn  Zn3  1  0.21014000  0.96382000  0.63785000  1.0
  H  H4  1  0.92169000  0.81549000  0.13732000  1.0
  H  H5  1  0.07831000  0.31548000  0.36268000  1.0
  H  H6  1  0.07832000  0.18452000  0.86269000  1.0
  H  H7  1  0.92168000  0.68452000  0.63732000  1.0
  H  H8  1  0.32468000  0.65865000  0.46406000  1.0
  H  H9  1  0.67533000  0.15865000  0.03594000  1.0
  H  H10  1  0.67533000  0.34136000  0.53595000  1.0
  H  H11  1  0.32467000  0.84135000  0.96406000  1.0
  H  H12  1  0.50450000  0.48624000  0.29954000  1.0
  H  H13  1  0.49549000  0.98625000  0.20047000  1.0
  H  H14  1  0.49549000  0.51375000  0.70047000  1.0
  H  H15  1  0.50452000  0.01374000  0.79954000  1.0
  H  H16  1  0.42808000  0.32126000  0.32881000  1.0
  H  H17  1  0.57191000  0.82127000  0.17119000  1.0
  H  H18  1  0.57191000  0.67873000  0.67119000  1.0
  H  H19  1  0.42809000  0.17873000  0.82881000  1.0
  C  C20  1  0.00915000  0.80334000  0.23809000  1.0
  C  C21  1  0.99085000  0.30333000  0.26191000  1.0
  C  C22  1  0.99086000  0.19667000  0.76192000  1.0
  C  C23  1  0.00914000  0.69667000  0.73808000  1.0
  C  C24  1  0.21242000  0.72298000  0.40480000  1.0
  C  C25  1  0.78759000  0.22299000  0.09521000  1.0
  C  C26  1  0.78759000  0.27702000  0.59521000  1.0
  C  C27  1  0.21240000  0.77702000  0.90479000  1.0
  C  C28  1  0.55216000  0.57319000  0.03472000  1.0
  C  C29  1  0.44785000  0.07318000  0.46527000  1.0
  C  C30  1  0.44779000  0.42681000  0.96525000  1.0
  C  C31  1  0.55221000  0.92681000  0.53475000  1.0
  N  N32  1  0.14798000  0.70277000  0.26868000  1.0
  N  N33  1  0.85202000  0.20277000  0.23132000  1.0
  N  N34  1  0.85203000  0.29723000  0.73134000  1.0
  N  N35  1  0.14797000  0.79723000  0.76867000  1.0
  N  N36  1  0.98966000  0.88188000  0.34871000  1.0
  N  N37  1  0.01034000  0.38188000  0.15129000  1.0
  N  N38  1  0.01035000  0.11813000  0.65130000  1.0
  N  N39  1  0.98964000  0.61813000  0.84871000  1.0
  N  N40  1  0.12046000  0.83093000  0.45614000  1.0
  N  N41  1  0.87954000  0.33094000  0.04386000  1.0
  N  N42  1  0.87956000  0.16908000  0.54386000  1.0
  N  N43  1  0.12044000  0.66908000  0.95614000  1.0
  O  O44  1  0.68255000  0.62143000  0.98918000  1.0
  O  O45  1  0.31742000  0.12141000  0.51081000  1.0
  O  O46  1  0.31739000  0.37858000  0.01078000  1.0
  O  O47  1  0.68262000  0.87858000  0.48922000  1.0
  O  O48  1  0.49631000  0.63468000  0.13374000  1.0
  O  O49  1  0.50368000  0.13467000  0.36626000  1.0
  O  O50  1  0.50365000  0.36531000  0.86623000  1.0
  O  O51  1  0.49636000  0.86531000  0.63377000  1.0
  O  O52  1  0.40104000  0.43551000  0.32247000  1.0
  O  O53  1  0.59896000  0.93552000  0.17753000  1.0
  O  O54  1  0.59895000  0.56447000  0.67752000  1.0
  O  O55  1  0.40105000  0.06447000  0.82248000  1.0
