# generated using pymatgen
data_AlH6C11SO6
_symmetry_space_group_name_H-M   'P 1'
_cell_length_a   6.59827000
_cell_length_b   12.41834330
_cell_length_c   15.22946231
_cell_angle_alpha   73.39321976
_cell_angle_beta   78.77037606
_cell_angle_gamma   79.24995937
_symmetry_Int_Tables_number   1
_chemical_formula_structural   AlH6C11SO6
_chemical_formula_sum   'Al2 H12 C22 S2 O12'
_cell_volume   1161.52527645
_cell_formula_units_Z   2
loop_
 _symmetry_equiv_pos_site_id
 _symmetry_equiv_pos_as_xyz
  1  'x, y, z'
loop_
 _atom_site_type_symbol
 _atom_site_label
 _atom_site_symmetry_multiplicity
 _atom_site_fract_x
 _atom_site_fract_y
 _atom_site_fract_z
 _atom_site_occupancy
  Al  Al0  1  0.49996000  0.50004000  0.49997000  1.0
  Al  Al1  1  0.99996000  0.50007000  0.49999000  1.0
  H  H2  1  0.23978000  0.63708000  0.42512000  1.0
  H  H3  1  0.76019000  0.36302000  0.57486000  1.0
  H  H4  1  0.18205000  0.53051000  0.22914000  1.0
  H  H5  1  0.27525000  0.53214000  0.06425000  1.0
  H  H6  1  0.81810000  0.46942000  0.77089000  1.0
  H  H7  1  0.72496000  0.46769000  0.93580000  1.0
  H  H8  1  0.43263000  0.53737000  0.76975000  1.0
  H  H9  1  0.34411000  0.53693000  0.93444000  1.0
  H  H10  1  0.56752000  0.46252000  0.23025000  1.0
  H  H11  1  0.65615000  0.46288000  0.06557000  1.0
  H  H12  1  0.85577000  0.10721000  0.55219000  1.0
  H  H13  1  0.14404000  0.89286000  0.44783000  1.0
  C  C14  1  0.68926000  0.70013000  0.48487000  1.0
  C  C15  1  0.81288000  0.50007000  0.33896000  1.0
  C  C16  1  0.31064000  0.29996000  0.51511000  1.0
  C  C17  1  0.18707000  0.49999000  0.66102000  1.0
  C  C18  1  0.86859000  0.49735000  0.23994000  1.0
  C  C19  1  0.13151000  0.50259000  0.76008000  1.0
  C  C20  1  0.06829000  0.51589000  0.19208000  1.0
  C  C21  1  0.11897000  0.51656000  0.09902000  1.0
  C  C22  1  0.93186000  0.48398000  0.80794000  1.0
  C  C23  1  0.88126000  0.48328000  0.90101000  1.0
  C  C24  1  0.27791000  0.52201000  0.80723000  1.0
  C  C25  1  0.22609000  0.52136000  0.90029000  1.0
  C  C26  1  0.72225000  0.47787000  0.19278000  1.0
  C  C27  1  0.77416000  0.47844000  0.09974000  1.0
  C  C28  1  0.97327000  0.49865000  0.04989000  1.0
  C  C29  1  0.02699000  0.50117000  0.95015000  1.0
  C  C30  1  0.57315000  0.11769000  0.52968000  1.0
  C  C31  1  0.42667000  0.88238000  0.47034000  1.0
  C  C32  1  0.38055000  0.18202000  0.51250000  1.0
  C  C33  1  0.61933000  0.81808000  0.48750000  1.0
  C  C34  1  0.41097000  0.99169000  0.48563000  1.0
  C  C35  1  0.58880000  0.00838000  0.51439000  1.0
  S  S36  1  0.22343000  0.10997000  0.47547000  1.0
  S  S37  1  0.77637000  0.89012000  0.52453000  1.0
  O  O38  1  0.55968000  0.65100000  0.46384000  1.0
  O  O39  1  0.95084000  0.52535000  0.37513000  1.0
  O  O40  1  0.12860000  0.34527000  0.49629000  1.0
  O  O41  1  0.36857000  0.52117000  0.62025000  1.0
  O  O42  1  0.44026000  0.34907000  0.53614000  1.0
  O  O43  1  0.04899000  0.47479000  0.62485000  1.0
  O  O44  1  0.87133000  0.65488000  0.50368000  1.0
  O  O45  1  0.63133000  0.47890000  0.37970000  1.0
  O  O46  1  0.25137000  0.55566000  0.45183000  1.0
  O  O47  1  0.74855000  0.44445000  0.54812000  1.0
  O  O48  1  0.72127000  0.15607000  0.55790000  1.0
  O  O49  1  0.27855000  0.84400000  0.44209000  1.0
