# generated using pymatgen
data_ZnH8C13NO4
_symmetry_space_group_name_H-M   'P 1'
_cell_length_a   11.00680000
_cell_length_b   11.01110000
_cell_length_c   14.03400000
_cell_angle_alpha   89.89500000
_cell_angle_beta   89.21270000
_cell_angle_gamma   77.65170000
_symmetry_Int_Tables_number   1
_chemical_formula_structural   ZnH8C13NO4
_chemical_formula_sum   'Zn4 H32 C52 N4 O16'
_cell_volume   1661.37170573
_cell_formula_units_Z   4
loop_
 _symmetry_equiv_pos_site_id
 _symmetry_equiv_pos_as_xyz
  1  'x, y, z'
loop_
 _atom_site_type_symbol
 _atom_site_label
 _atom_site_symmetry_multiplicity
 _atom_site_fract_x
 _atom_site_fract_y
 _atom_site_fract_z
 _atom_site_occupancy
  Zn  Zn0  1  0.16451000  0.26990000  0.20020000  1.0
  Zn  Zn1  1  0.15856000  0.27317000  0.40532000  1.0
  Zn  Zn2  1  0.83549000  0.73010000  0.79981000  1.0
  Zn  Zn3  1  0.84145000  0.72683000  0.59468000  1.0
  H  H4  1  0.74324000  0.35690000  0.43995000  1.0
  H  H5  1  0.52150000  0.33531000  0.43734000  1.0
  H  H6  1  0.57673000  0.18483000  0.15448000  1.0
  H  H7  1  0.80059000  0.20437000  0.15741000  1.0
  H  H8  1  0.11039000  0.67027000  0.45398000  1.0
  H  H9  1  0.12161000  0.89355000  0.45585000  1.0
  H  H10  1  0.20969000  0.87662000  0.15650000  1.0
  H  H11  1  0.20235000  0.64974000  0.15491000  1.0
  H  H12  1  0.20236000  0.07624000  0.55279000  1.0
  H  H13  1  0.20651000  0.06060000  0.73078000  1.0
  H  H14  1  0.13248000  0.46265000  0.73948000  1.0
  H  H15  1  0.13235000  0.46106000  0.56150000  1.0
  H  H16  1  0.32899000  0.10972000  0.87093000  1.0
  H  H17  1  0.31978000  0.12141000  0.04990000  1.0
  H  H18  1  0.00241000  0.40031000  0.04692000  1.0
  H  H19  1  0.00174000  0.40813000  0.86794000  1.0
  H  H20  1  0.25675000  0.64310000  0.56006000  1.0
  H  H21  1  0.47850000  0.66469000  0.56266000  1.0
  H  H22  1  0.42329000  0.81516000  0.84552000  1.0
  H  H23  1  0.19942000  0.79564000  0.84259000  1.0
  H  H24  1  0.88961000  0.32973000  0.54602000  1.0
  H  H25  1  0.87838000  0.10645000  0.54415000  1.0
  H  H26  1  0.79031000  0.12338000  0.84350000  1.0
  H  H27  1  0.79764000  0.35026000  0.84509000  1.0
  H  H28  1  0.79764000  0.92377000  0.44721000  1.0
  H  H29  1  0.79349000  0.93940000  0.26922000  1.0
  H  H30  1  0.86751000  0.53735000  0.26052000  1.0
  H  H31  1  0.86765000  0.53895000  0.43850000  1.0
  H  H32  1  0.67102000  0.89029000  0.12907000  1.0
  H  H33  1  0.68023000  0.87859000  0.95010000  1.0
  H  H34  1  0.99759000  0.59969000  0.95308000  1.0
  H  H35  1  0.99826000  0.59187000  0.13206000  1.0
  C  C36  1  0.91866000  0.29278000  0.30012000  1.0
  C  C37  1  0.78525000  0.28167000  0.29877000  1.0
  C  C38  1  0.70678000  0.31853000  0.37777000  1.0
  C  C39  1  0.58352000  0.30647000  0.37655000  1.0
  C  C40  1  0.53666000  0.25795000  0.29601000  1.0
  C  C41  1  0.61501000  0.22105000  0.21691000  1.0
  C  C42  1  0.73848000  0.23251000  0.21827000  1.0
  C  C43  1  0.40223000  0.25062000  0.29371000  1.0
  C  C44  1  0.14997000  0.51181000  0.30442000  1.0
  C  C45  1  0.15611000  0.64632000  0.30431000  1.0
  C  C46  1  0.13388000  0.71493000  0.38912000  1.0
  C  C47  1  0.13964000  0.83977000  0.39017000  1.0
  C  C48  1  0.16729000  0.89794000  0.30616000  1.0
  C  C49  1  0.18908000  0.82947000  0.22114000  1.0
  C  C50  1  0.18407000  0.70435000  0.22020000  1.0
  C  C51  1  0.17139000  0.03300000  0.30629000  1.0
  C  C52  1  0.18884000  0.15891000  0.59762000  1.0
  C  C53  1  0.19145000  0.15139000  0.69640000  1.0
  C  C54  1  0.16974000  0.26144000  0.74993000  1.0
  C  C55  1  0.14900000  0.37483000  0.70092000  1.0
  C  C56  1  0.14921000  0.37471000  0.60201000  1.0
  C  C57  1  0.16678000  0.25971000  0.85497000  1.0
  C  C58  1  0.25530000  0.17616000  0.90716000  1.0
  C  C59  1  0.25087000  0.18164000  0.00612000  1.0
  C  C60  1  0.07444000  0.34003000  0.00446000  1.0
  C  C61  1  0.07431000  0.34328000  0.90555000  1.0
  C  C62  1  0.08134000  0.70722000  0.69988000  1.0
  C  C63  1  0.21475000  0.71833000  0.70123000  1.0
  C  C64  1  0.29322000  0.68147000  0.62224000  1.0
  C  C65  1  0.41648000  0.69352000  0.62345000  1.0
  C  C66  1  0.46335000  0.74204000  0.70399000  1.0
  C  C67  1  0.38499000  0.77894000  0.78309000  1.0
  C  C68  1  0.26153000  0.76749000  0.78173000  1.0
  C  C69  1  0.59777000  0.74937000  0.70629000  1.0
  C  C70  1  0.85003000  0.48819000  0.69559000  1.0
  C  C71  1  0.84389000  0.35368000  0.69569000  1.0
  C  C72  1  0.86611000  0.28508000  0.61088000  1.0
  C  C73  1  0.86034000  0.16023000  0.60983000  1.0
  C  C74  1  0.83270000  0.10206000  0.69384000  1.0
  C  C75  1  0.81091000  0.17054000  0.77886000  1.0
  C  C76  1  0.81593000  0.29565000  0.77980000  1.0
  C  C77  1  0.82860000  0.96700000  0.69371000  1.0
  C  C78  1  0.81116000  0.84110000  0.40238000  1.0
  C  C79  1  0.80856000  0.84861000  0.30359000  1.0
  C  C80  1  0.83026000  0.73857000  0.25007000  1.0
  C  C81  1  0.85100000  0.62517000  0.29908000  1.0
  C  C82  1  0.85080000  0.62529000  0.39799000  1.0
  C  C83  1  0.83323000  0.74029000  0.14503000  1.0
  C  C84  1  0.74470000  0.82385000  0.09284000  1.0
  C  C85  1  0.74913000  0.81836000  0.99388000  1.0
  C  C86  1  0.92556000  0.65997000  0.99554000  1.0
  C  C87  1  0.92569000  0.65672000  0.09445000  1.0
  N  N88  1  0.16783000  0.26856000  0.55120000  1.0
  N  N89  1  0.16208000  0.26235000  0.05398000  1.0
  N  N90  1  0.83218000  0.73144000  0.44879000  1.0
  N  N91  1  0.83792000  0.73765000  0.94602000  1.0
  O  O92  1  0.96673000  0.30195000  0.38117000  1.0
  O  O93  1  0.97397000  0.29194000  0.21953000  1.0
  O  O94  1  0.34614000  0.25117000  0.37355000  1.0
  O  O95  1  0.35439000  0.24700000  0.21173000  1.0
  O  O96  1  0.14679000  0.46023000  0.38537000  1.0
  O  O97  1  0.14782000  0.45906000  0.22357000  1.0
  O  O98  1  0.16400000  0.08737000  0.38695000  1.0
  O  O99  1  0.18037000  0.08355000  0.22561000  1.0
  O  O100  1  0.03327000  0.69806000  0.61883000  1.0
  O  O101  1  0.02603000  0.70806000  0.78047000  1.0
  O  O102  1  0.65386000  0.74881000  0.62644000  1.0
  O  O103  1  0.64562000  0.75300000  0.78826000  1.0
  O  O104  1  0.85322000  0.53977000  0.61464000  1.0
  O  O105  1  0.85217000  0.54094000  0.77644000  1.0
  O  O106  1  0.83599000  0.91263000  0.61306000  1.0
  O  O107  1  0.81963000  0.91645000  0.77439000  1.0
