# generated using pymatgen
data_DyH11C15(NO4)2
_symmetry_space_group_name_H-M   'P 1'
_cell_length_a   13.36070000
_cell_length_b   14.43370000
_cell_length_c   15.99605595
_cell_angle_alpha   116.81910492
_cell_angle_beta   96.80568575
_cell_angle_gamma   89.99400000
_symmetry_Int_Tables_number   1
_chemical_formula_structural   DyH11C15(NO4)2
_chemical_formula_sum   'Dy4 H44 C60 N8 O32'
_cell_volume   2728.58076113
_cell_formula_units_Z   4
loop_
 _symmetry_equiv_pos_site_id
 _symmetry_equiv_pos_as_xyz
  1  'x, y, z'
loop_
 _atom_site_type_symbol
 _atom_site_label
 _atom_site_symmetry_multiplicity
 _atom_site_fract_x
 _atom_site_fract_y
 _atom_site_fract_z
 _atom_site_occupancy
  Dy  Dy0  1  0.96810000  0.47432000  0.36822000  1.0
  Dy  Dy1  1  0.53183000  0.10607000  0.63172000  1.0
  Dy  Dy2  1  0.03190000  0.52568000  0.63178000  1.0
  Dy  Dy3  1  0.46816000  0.89393000  0.36828000  1.0
  H  H4  1  0.74990000  0.38298000  0.32547000  1.0
  H  H5  1  0.75004000  0.05748000  0.67456000  1.0
  H  H6  1  0.25009000  0.61703000  0.67452000  1.0
  H  H7  1  0.24994000  0.94247000  0.32541000  1.0
  H  H8  1  0.81955000  0.30561000  0.25484000  1.0
  H  H9  1  0.68036000  0.05080000  0.74518000  1.0
  H  H10  1  0.18045000  0.69438000  0.74516000  1.0
  H  H11  1  0.31962000  0.94920000  0.25482000  1.0
  H  H12  1  0.84215000  0.62542000  0.35030000  1.0
  H  H13  1  0.65793000  0.27500000  0.64962000  1.0
  H  H14  1  0.15785000  0.37459000  0.64970000  1.0
  H  H15  1  0.34208000  0.72499000  0.35038000  1.0
  H  H16  1  0.92794000  0.61897000  0.28958000  1.0
  H  H17  1  0.57214000  0.32939000  0.71034000  1.0
  H  H18  1  0.07206000  0.38102000  0.71041000  1.0
  H  H19  1  0.42786000  0.67061000  0.28964000  1.0
  H  H20  1  0.70717000  0.68905000  0.45378000  1.0
  H  H21  1  0.79309000  0.23520000  0.54630000  1.0
  H  H22  1  0.29283000  0.31095000  0.54622000  1.0
  H  H23  1  0.20691000  0.76481000  0.45370000  1.0
  H  H24  1  0.56272000  0.89466000  0.69248000  1.0
  H  H25  1  0.93711000  0.20220000  0.30741000  1.0
  H  H26  1  0.43728000  0.10534000  0.30752000  1.0
  H  H27  1  0.06289000  0.79780000  0.69259000  1.0
  H  H28  1  0.76919000  0.67672000  0.71895000  1.0
  H  H29  1  0.73089000  0.95775000  0.28116000  1.0
  H  H30  1  0.23082000  0.32328000  0.28105000  1.0
  H  H31  1  0.26911000  0.04225000  0.71884000  1.0
  H  H32  1  0.59670000  0.95197000  0.96626000  1.0
  H  H33  1  0.90320000  0.98576000  0.03376000  1.0
  H  H34  1  0.40330000  0.04802000  0.03374000  1.0
  H  H35  1  0.09680000  0.01424000  0.96624000  1.0
  H  H36  1  0.53765000  0.98871000  0.12148000  1.0
  H  H37  1  0.96234000  0.86724000  0.87859000  1.0
  H  H38  1  0.46235000  0.01128000  0.87852000  1.0
  H  H39  1  0.03767000  0.13275000  0.12141000  1.0
  H  H40  1  0.59140000  0.67584000  0.07226000  1.0
  H  H41  1  0.90835000  0.60356000  0.92758000  1.0
  H  H42  1  0.40861000  0.32415000  0.92774000  1.0
  H  H43  1  0.09165000  0.39644000  0.07242000  1.0
  H  H44  1  0.65012000  0.63848000  0.91601000  1.0
  H  H45  1  0.84957000  0.72240000  0.08382000  1.0
  H  H46  1  0.34989000  0.36152000  0.08399000  1.0
  H  H47  1  0.15043000  0.27760000  0.91618000  1.0
  C  C48  1  0.74844000  0.67642000  0.58294000  1.0
  C  C49  1  0.75175000  0.09341000  0.41718000  1.0
  C  C50  1  0.25157000  0.32358000  0.41706000  1.0
  C  C51  1  0.24825000  0.90659000  0.58282000  1.0
  C  C52  1  0.69628000  0.71773000  0.52755000  1.0
  C  C53  1  0.80393000  0.19011000  0.47253000  1.0
  C  C54  1  0.30372000  0.28227000  0.47245000  1.0
  C  C55  1  0.19607000  0.80990000  0.52747000  1.0
  C  C56  1  0.63046000  0.79681000  0.56661000  1.0
  C  C57  1  0.86960000  0.23019000  0.43340000  1.0
  C  C58  1  0.36953000  0.20319000  0.43339000  1.0
  C  C59  1  0.13040000  0.76982000  0.56660000  1.0
  C  C60  1  0.61446000  0.83351000  0.66092000  1.0
  C  C61  1  0.88545000  0.17261000  0.33903000  1.0
  C  C62  1  0.38554000  0.16648000  0.33908000  1.0
  C  C63  1  0.11455000  0.82739000  0.66097000  1.0
  C  C64  1  0.66191000  0.78745000  0.71457000  1.0
  C  C65  1  0.83801000  0.07289000  0.28545000  1.0
  C  C66  1  0.33809000  0.21255000  0.28544000  1.0
  C  C67  1  0.16199000  0.92711000  0.71455000  1.0
  C  C68  1  0.73046000  0.71030000  0.67624000  1.0
  C  C69  1  0.76962000  0.03402000  0.32386000  1.0
  C  C70  1  0.26954000  0.28970000  0.32376000  1.0
  C  C71  1  0.23038000  0.96598000  0.67614000  1.0
  C  C72  1  0.57596000  0.83804000  0.50517000  1.0
  C  C73  1  0.92413000  0.33285000  0.49478000  1.0
  C  C74  1  0.42404000  0.16197000  0.49484000  1.0
  C  C75  1  0.07588000  0.66715000  0.50522000  1.0
  C  C76  1  0.82474000  0.59703000  0.54309000  1.0
  C  C77  1  0.67538000  0.05390000  0.45696000  1.0
  C  C78  1  0.17527000  0.40297000  0.45691000  1.0
  C  C79  1  0.32461000  0.94613000  0.54305000  1.0
  C  C80  1  0.62427000  0.79204000  0.93181000  1.0
  C  C81  1  0.87549000  0.86024000  0.06813000  1.0
  C  C82  1  0.37573000  0.20795000  0.06819000  1.0
  C  C83  1  0.12451000  0.13977000  0.93188000  1.0
  C  C84  1  0.59458000  0.89217000  0.98991000  1.0
  C  C85  1  0.90527000  0.90229000  0.01008000  1.0
  C  C86  1  0.40542000  0.10782000  0.01009000  1.0
  C  C87  1  0.09473000  0.09771000  0.98992000  1.0
  C  C88  1  0.56228000  0.91231000  0.07550000  1.0
  C  C89  1  0.93763000  0.83682000  0.92452000  1.0
  C  C90  1  0.43772000  0.08768000  0.92450000  1.0
  C  C91  1  0.06237000  0.16318000  0.07548000  1.0
  C  C92  1  0.55992000  0.83360000  0.10436000  1.0
  C  C93  1  0.93991000  0.72926000  0.89560000  1.0
  C  C94  1  0.44008000  0.16639000  0.89564000  1.0
  C  C95  1  0.06009000  0.27075000  0.10440000  1.0
  C  C96  1  0.59257000  0.73508000  0.04777000  1.0
  C  C97  1  0.90714000  0.68729000  0.95211000  1.0
  C  C98  1  0.40744000  0.26491000  0.95223000  1.0
  C  C99  1  0.09286000  0.31271000  0.04789000  1.0
  C  C100  1  0.62490000  0.71450000  0.96196000  1.0
  C  C101  1  0.87481000  0.75251000  0.03791000  1.0
  C  C102  1  0.37511000  0.28550000  0.03805000  1.0
  C  C103  1  0.12519000  0.24749000  0.96209000  1.0
  C  C104  1  0.52184000  0.85381000  0.19464000  1.0
  C  C105  1  0.97813000  0.65921000  0.80539000  1.0
  C  C106  1  0.47816000  0.14619000  0.80536000  1.0
  C  C107  1  0.02187000  0.34079000  0.19461000  1.0
  N  N108  1  0.63458000  0.82277000  0.80647000  1.0
  N  N109  1  0.86528000  0.01628000  0.19352000  1.0
  N  N110  1  0.36542000  0.17722000  0.19353000  1.0
  N  N111  1  0.13472000  0.98372000  0.80648000  1.0
  N  N112  1  0.65301000  0.76018000  0.84115000  1.0
  N  N113  1  0.84677000  0.91901000  0.15880000  1.0
  N  N114  1  0.34699000  0.23981000  0.15885000  1.0
  N  N115  1  0.15323000  0.08099000  0.84120000  1.0
  O  O116  1  0.86954000  0.56374000  0.59758000  1.0
  O  O117  1  0.63052000  0.96616000  0.40243000  1.0
  O  O118  1  0.13046000  0.43626000  0.40242000  1.0
  O  O119  1  0.36947000  0.03385000  0.59757000  1.0
  O  O120  1  0.83989000  0.56928000  0.45769000  1.0
  O  O121  1  0.66017000  0.11156000  0.54233000  1.0
  O  O122  1  0.16011000  0.43072000  0.54231000  1.0
  O  O123  1  0.33983000  0.88845000  0.45767000  1.0
  O  O124  1  0.55950000  0.78035000  0.41665000  1.0
  O  O125  1  0.94075000  0.36368000  0.58329000  1.0
  O  O126  1  0.44050000  0.21966000  0.58336000  1.0
  O  O127  1  0.05926000  0.63632000  0.41671000  1.0
  O  O128  1  0.54539000  0.93066000  0.54224000  1.0
  O  O129  1  0.95452000  0.38836000  0.45761000  1.0
  O  O130  1  0.45461000  0.06935000  0.45777000  1.0
  O  O131  1  0.04548000  0.61164000  0.54239000  1.0
  O  O132  1  0.48261000  0.94049000  0.24211000  1.0
  O  O133  1  0.01744000  0.69837000  0.75793000  1.0
  O  O134  1  0.51739000  0.05951000  0.75789000  1.0
  O  O135  1  0.98257000  0.30164000  0.24208000  1.0
  O  O136  1  0.52861000  0.78492000  0.22412000  1.0
  O  O137  1  0.97137000  0.56085000  0.77595000  1.0
  O  O138  1  0.47139000  0.21508000  0.77588000  1.0
  O  O139  1  0.02862000  0.43916000  0.22406000  1.0
  O  O140  1  0.80402000  0.37843000  0.28846000  1.0
  O  O141  1  0.69592000  0.08998000  0.71156000  1.0
  O  O142  1  0.19598000  0.62157000  0.71154000  1.0
  O  O143  1  0.30409000  0.91002000  0.28844000  1.0
  O  O144  1  0.87578000  0.57753000  0.29756000  1.0
  O  O145  1  0.62422000  0.27987000  0.70231000  1.0
  O  O146  1  0.12422000  0.42247000  0.70244000  1.0
  O  O147  1  0.37578000  0.72014000  0.29769000  1.0
