# generated using pymatgen
data_CoH12C12(NO)4
_symmetry_space_group_name_H-M   'P 1'
_cell_length_a   8.49451000
_cell_length_b   8.67120000
_cell_length_c   8.67132000
_cell_angle_alpha   79.06320000
_cell_angle_beta   87.23570000
_cell_angle_gamma   87.23950000
_symmetry_Int_Tables_number   1
_chemical_formula_structural   CoH12C12(NO)4
_chemical_formula_sum   'Co2 H24 C24 N8 O8'
_cell_volume   625.88225610
_cell_formula_units_Z   2
loop_
 _symmetry_equiv_pos_site_id
 _symmetry_equiv_pos_as_xyz
  1  'x, y, z'
loop_
 _atom_site_type_symbol
 _atom_site_label
 _atom_site_symmetry_multiplicity
 _atom_site_fract_x
 _atom_site_fract_y
 _atom_site_fract_z
 _atom_site_occupancy
  Co  Co0  1  0.25000000  0.16098000  0.83902000  1.0
  Co  Co1  1  0.74998000  0.83902000  0.16099000  1.0
  H  H2  1  0.14762000  0.07917000  0.28706000  1.0
  H  H3  1  0.64766000  0.28706000  0.07910000  1.0
  H  H4  1  0.85235000  0.92104000  0.71284000  1.0
  H  H5  1  0.35245000  0.71288000  0.92087000  1.0
  H  H6  1  0.90480000  0.25442000  0.26176000  1.0
  H  H7  1  0.40482000  0.26169000  0.25435000  1.0
  H  H8  1  0.09508000  0.74565000  0.73827000  1.0
  H  H9  1  0.59525000  0.73820000  0.74556000  1.0
  H  H10  1  0.82690000  0.39962000  0.48183000  1.0
  H  H11  1  0.32691000  0.48171000  0.39963000  1.0
  H  H12  1  0.17305000  0.60045000  0.51818000  1.0
  H  H13  1  0.67319000  0.51805000  0.60045000  1.0
  H  H14  1  0.99275000  0.35709000  0.71622000  1.0
  H  H15  1  0.49276000  0.71611000  0.35714000  1.0
  H  H16  1  0.00719000  0.64294000  0.28381000  1.0
  H  H17  1  0.50728000  0.28370000  0.64294000  1.0
  H  H18  1  0.38289000  0.99595000  0.63288000  1.0
  H  H19  1  0.88294000  0.63289000  0.99599000  1.0
  H  H20  1  0.61705000  0.00409000  0.36704000  1.0
  H  H21  1  0.11712000  0.36707000  0.00404000  1.0
  H  H22  1  0.35775000  0.96915000  0.43968000  1.0
  H  H23  1  0.85781000  0.43969000  0.96917000  1.0
  H  H24  1  0.64218000  0.03095000  0.56022000  1.0
  H  H25  1  0.14229000  0.56025000  0.03088000  1.0
  C  C26  1  0.04548000  0.92780000  0.97791000  1.0
  C  C27  1  0.54550000  0.97784000  0.92779000  1.0
  C  C28  1  0.95447000  0.07228000  0.02216000  1.0
  C  C29  1  0.45449000  0.02211000  0.07226000  1.0
  C  C30  1  0.19393000  0.11866000  0.51841000  1.0
  C  C31  1  0.69396000  0.51840000  0.11865000  1.0
  C  C32  1  0.80604000  0.88148000  0.48150000  1.0
  C  C33  1  0.30610000  0.48154000  0.88137000  1.0
  C  C34  1  0.10708000  0.14197000  0.38002000  1.0
  C  C35  1  0.60711000  0.37999000  0.14192000  1.0
  C  C36  1  0.89286000  0.85819000  0.61991000  1.0
  C  C37  1  0.39297000  0.61992000  0.85806000  1.0
  C  C38  1  0.97456000  0.24070000  0.36584000  1.0
  C  C39  1  0.47457000  0.36580000  0.24065000  1.0
  C  C40  1  0.02536000  0.75940000  0.63414000  1.0
  C  C41  1  0.52548000  0.63410000  0.75930000  1.0
  C  C42  1  0.92983000  0.31967000  0.48886000  1.0
  C  C43  1  0.42984000  0.48878000  0.31967000  1.0
  C  C44  1  0.07011000  0.68041000  0.51114000  1.0
  C  C45  1  0.57023000  0.51106000  0.68036000  1.0
  C  C46  1  0.02147000  0.29649000  0.61913000  1.0
  C  C47  1  0.52148000  0.61905000  0.29651000  1.0
  C  C48  1  0.97847000  0.70358000  0.38087000  1.0
  C  C49  1  0.47856000  0.38080000  0.70354000  1.0
  N  N50  1  0.15117000  0.19767000  0.63730000  1.0
  N  N51  1  0.65119000  0.63727000  0.19769000  1.0
  N  N52  1  0.84878000  0.80239000  0.36267000  1.0
  N  N53  1  0.34884000  0.36264000  0.80233000  1.0
  N  N54  1  0.31956000  0.01656000  0.53376000  1.0
  N  N55  1  0.81960000  0.53375000  0.01656000  1.0
  N  N56  1  0.68047000  0.98365000  0.46611000  1.0
  N  N57  1  0.18052000  0.46616000  0.98352000  1.0
  O  O58  1  0.16789000  0.95138000  0.88706000  1.0
  O  O59  1  0.66790000  0.88702000  0.95138000  1.0
  O  O60  1  0.83205000  0.04869000  0.11296000  1.0
  O  O61  1  0.33208000  0.11294000  0.04867000  1.0
  O  O62  1  0.99374000  0.79376000  0.03446000  1.0
  O  O63  1  0.49376000  0.03440000  0.79373000  1.0
  O  O64  1  0.00623000  0.20633000  0.96560000  1.0
  O  O65  1  0.50621000  0.96555000  0.20631000  1.0
