# generated using pymatgen
data_CdH12C14(SN2)2
_symmetry_space_group_name_H-M   'P 1'
_cell_length_a   8.04859000
_cell_length_b   10.04930000
_cell_length_c   10.66250000
_cell_angle_alpha   84.86170000
_cell_angle_beta   72.30250000
_cell_angle_gamma   70.85690000
_symmetry_Int_Tables_number   1
_chemical_formula_structural   CdH12C14(SN2)2
_chemical_formula_sum   'Cd2 H24 C28 S4 N8'
_cell_volume   776.11643421
_cell_formula_units_Z   2
loop_
 _symmetry_equiv_pos_site_id
 _symmetry_equiv_pos_as_xyz
  1  'x, y, z'
loop_
 _atom_site_type_symbol
 _atom_site_label
 _atom_site_symmetry_multiplicity
 _atom_site_fract_x
 _atom_site_fract_y
 _atom_site_fract_z
 _atom_site_occupancy
  Cd  Cd0  1  0.59951000  0.38273000  0.23717000  1.0
  Cd  Cd1  1  0.40049000  0.61726000  0.76284000  1.0
  H  H2  1  0.58299000  0.15092000  0.47193000  1.0
  H  H3  1  0.41702000  0.84909000  0.52807000  1.0
  H  H4  1  0.77232000  0.91738000  0.53622000  1.0
  H  H5  1  0.22769000  0.08262000  0.46378000  1.0
  H  H6  1  0.18595000  0.91193000  0.16763000  1.0
  H  H7  1  0.81405000  0.08807000  0.83237000  1.0
  H  H8  1  0.05498000  0.67291000  0.37433000  1.0
  H  H9  1  0.94502000  0.32710000  0.62566000  1.0
  H  H10  1  0.11133000  0.74983000  0.49062000  1.0
  H  H11  1  0.88867000  0.25017000  0.50937000  1.0
  H  H12  1  0.25366000  0.72630000  0.32316000  1.0
  H  H13  1  0.74634000  0.27370000  0.67684000  1.0
  H  H14  1  0.82634000  0.47406000  0.95293000  1.0
  H  H15  1  0.17366000  0.52594000  0.04706000  1.0
  H  H16  1  0.12295000  0.38748000  0.77578000  1.0
  H  H17  1  0.87705000  0.61252000  0.22422000  1.0
  H  H18  1  0.25865000  0.01139000  0.00023000  1.0
  H  H19  1  0.74135000  0.98861000  0.99976000  1.0
  H  H20  1  0.41249000  0.02761000  0.73845000  1.0
  H  H21  1  0.58751000  0.97239000  0.26155000  1.0
  H  H22  1  0.50817000  0.12010000  0.81541000  1.0
  H  H23  1  0.49184000  0.87991000  0.18458000  1.0
  H  H24  1  0.41075000  0.20264000  0.68799000  1.0
  H  H25  1  0.58925000  0.79737000  0.31201000  1.0
  C  C26  1  0.51415000  0.66022000  0.03834000  1.0
  C  C27  1  0.48583000  0.33976000  0.96169000  1.0
  C  C28  1  0.70016000  0.54634000  0.46433000  1.0
  C  C29  1  0.29983000  0.45366000  0.53568000  1.0
  C  C30  1  0.71896000  0.09441000  0.40801000  1.0
  C  C31  1  0.28105000  0.90560000  0.59199000  1.0
  C  C32  1  0.82398000  0.96513000  0.44286000  1.0
  C  C33  1  0.17602000  0.03487000  0.55714000  1.0
  C  C34  1  0.99634000  0.89601000  0.35569000  1.0
  C  C35  1  0.00366000  0.10399000  0.64430000  1.0
  C  C36  1  0.05343000  0.96368000  0.23765000  1.0
  C  C37  1  0.94657000  0.03632000  0.76235000  1.0
  C  C38  1  0.94108000  0.09492000  0.20886000  1.0
  C  C39  1  0.05892000  0.90508000  0.79114000  1.0
  C  C40  1  0.11172000  0.75482000  0.38732000  1.0
  C  C41  1  0.88828000  0.24518000  0.61268000  1.0
  C  C42  1  0.92593000  0.37186000  0.96054000  1.0
  C  C43  1  0.07407000  0.62814000  0.03945000  1.0
  C  C44  1  0.09065000  0.32227000  0.86109000  1.0
  C  C45  1  0.90936000  0.67773000  0.13890000  1.0
  C  C46  1  0.21431000  0.19047000  0.87428000  1.0
  C  C47  1  0.78569000  0.80953000  0.12571000  1.0
  C  C48  1  0.16434000  0.11465000  0.98851000  1.0
  C  C49  1  0.83567000  0.88535000  0.01149000  1.0
  C  C50  1  0.99742000  0.17104000  0.08507000  1.0
  C  C51  1  0.00258000  0.82896000  0.91493000  1.0
  C  C52  1  0.39602000  0.13238000  0.77245000  1.0
  C  C53  1  0.60398000  0.86763000  0.22755000  1.0
  S  S54  1  0.71453000  0.62644000  0.58581000  1.0
  S  S55  1  0.28546000  0.37357000  0.41420000  1.0
  S  S56  1  0.53015000  0.76514000  0.91318000  1.0
  S  S57  1  0.46985000  0.23485000  0.08683000  1.0
  N  N58  1  0.77514000  0.15780000  0.29423000  1.0
  N  N59  1  0.22487000  0.84220000  0.70576000  1.0
  N  N60  1  0.88042000  0.29917000  0.06996000  1.0
  N  N61  1  0.11959000  0.70083000  0.93004000  1.0
  N  N62  1  0.50181000  0.58637000  0.13154000  1.0
  N  N63  1  0.49816000  0.41362000  0.86847000  1.0
  N  N64  1  0.69358000  0.48841000  0.37513000  1.0
  N  N65  1  0.30642000  0.51159000  0.62487000  1.0
