# generated using pymatgen
data_Co5H30(C17O12)2
_symmetry_space_group_name_H-M   'P 1'
_cell_length_a   8.39012000
_cell_length_b   9.91353000
_cell_length_c   24.88940000
_cell_angle_alpha   90.72390000
_cell_angle_beta   90.00000000
_cell_angle_gamma   89.99990000
_symmetry_Int_Tables_number   1
_chemical_formula_structural   Co5H30(C17O12)2
_chemical_formula_sum   'Co10 H60 C68 O48'
_cell_volume   2070.02819568
_cell_formula_units_Z   2
loop_
 _symmetry_equiv_pos_site_id
 _symmetry_equiv_pos_as_xyz
  1  'x, y, z'
loop_
 _atom_site_type_symbol
 _atom_site_label
 _atom_site_symmetry_multiplicity
 _atom_site_fract_x
 _atom_site_fract_y
 _atom_site_fract_z
 _atom_site_occupancy
  Co  Co0  1  0.66680000  0.25151000  0.90725000  1.0
  Co  Co1  1  0.28782000  0.30775000  0.90042000  1.0
  Co  Co2  1  0.16678000  0.24849000  0.59275000  1.0
  Co  Co3  1  0.78780000  0.19226000  0.59958000  1.0
  Co  Co4  1  0.33321000  0.74850000  0.09275000  1.0
  Co  Co5  1  0.71219000  0.69225000  0.09958000  1.0
  Co  Co6  1  0.83320000  0.75150000  0.40725000  1.0
  Co  Co7  1  0.21218000  0.80774000  0.40042000  1.0
  Co  Co8  1  0.50001000  0.50000000  0.00000000  1.0
  Co  Co9  1  0.99999000  0.00000000  0.50000000  1.0
  H  H10  1  0.02863000  0.96510000  0.81408000  1.0
  H  H11  1  0.98148000  0.53367000  0.83004000  1.0
  H  H12  1  0.72239000  0.80310000  0.93543000  1.0
  H  H13  1  0.22177000  0.81081000  0.76993000  1.0
  H  H14  1  0.21413000  0.63542000  0.78183000  1.0
  H  H15  1  0.03806000  0.91441000  0.70201000  1.0
  H  H16  1  0.83156000  0.64471000  0.58452000  1.0
  H  H17  1  0.06275000  0.48333000  0.72340000  1.0
  H  H18  1  0.46424000  0.25270000  0.98281000  1.0
  H  H19  1  0.78383000  0.24539000  0.00959000  1.0
  H  H20  1  0.79066000  0.38609000  0.98287000  1.0
  H  H21  1  0.17619000  0.37160000  0.99430000  1.0
  H  H22  1  0.02272000  0.30092000  0.96526000  1.0
  H  H23  1  0.14405000  0.27591000  0.80414000  1.0
  H  H24  1  0.01361000  0.23293000  0.84615000  1.0
  H  H25  1  0.52863000  0.53491000  0.68592000  1.0
  H  H26  1  0.48147000  0.96633000  0.66996000  1.0
  H  H27  1  0.22239000  0.69690000  0.56457000  1.0
  H  H28  1  0.72177000  0.68919000  0.73007000  1.0
  H  H29  1  0.71412000  0.86459000  0.71817000  1.0
  H  H30  1  0.53805000  0.58560000  0.79799000  1.0
  H  H31  1  0.33156000  0.85529000  0.91549000  1.0
  H  H32  1  0.56276000  0.01668000  0.77661000  1.0
  H  H33  1  0.96421000  0.24730000  0.51718000  1.0
  H  H34  1  0.28383000  0.25460000  0.49041000  1.0
  H  H35  1  0.29065000  0.11390000  0.51713000  1.0
  H  H36  1  0.67618000  0.12840000  0.50571000  1.0
  H  H37  1  0.52271000  0.19908000  0.53474000  1.0
  H  H38  1  0.64405000  0.22409000  0.69586000  1.0
  H  H39  1  0.51360000  0.26707000  0.65385000  1.0
  H  H40  1  0.97137000  0.03491000  0.18592000  1.0
  H  H41  1  0.01853000  0.46633000  0.16996000  1.0
  H  H42  1  0.27761000  0.19690000  0.06458000  1.0
  H  H43  1  0.77823000  0.18919000  0.23007000  1.0
  H  H44  1  0.78587000  0.36459000  0.21817000  1.0
  H  H45  1  0.96194000  0.08560000  0.29799000  1.0
  H  H46  1  0.16844000  0.35529000  0.41548000  1.0
  H  H47  1  0.93725000  0.51668000  0.27661000  1.0
  H  H48  1  0.53577000  0.74730000  0.01719000  1.0
  H  H49  1  0.21618000  0.75461000  0.99041000  1.0
  H  H50  1  0.20935000  0.61391000  0.01713000  1.0
  H  H51  1  0.82383000  0.62839000  0.00571000  1.0
  H  H52  1  0.97729000  0.69908000  0.03475000  1.0
  H  H53  1  0.85595000  0.72409000  0.19586000  1.0
  H  H54  1  0.98639000  0.76707000  0.15386000  1.0
  H  H55  1  0.47137000  0.46509000  0.31408000  1.0
  H  H56  1  0.51852000  0.03367000  0.33004000  1.0
  H  H57  1  0.77761000  0.30310000  0.43542000  1.0
  H  H58  1  0.27823000  0.31081000  0.26993000  1.0
  H  H59  1  0.28587000  0.13541000  0.28183000  1.0
  H  H60  1  0.46195000  0.41440000  0.20201000  1.0
  H  H61  1  0.66845000  0.14471000  0.08452000  1.0
  H  H62  1  0.43724000  0.98333000  0.22339000  1.0
  H  H63  1  0.03576000  0.75270000  0.48281000  1.0
  H  H64  1  0.71617000  0.74539000  0.50959000  1.0
  H  H65  1  0.70934000  0.88609000  0.48287000  1.0
  H  H66  1  0.32382000  0.87160000  0.49429000  1.0
  H  H67  1  0.47728000  0.80092000  0.46525000  1.0
  H  H68  1  0.35595000  0.77590000  0.30414000  1.0
  H  H69  1  0.48639000  0.73292000  0.34615000  1.0
  C  C70  1  0.86993000  0.89780000  0.87616000  1.0
  C  C71  1  0.97906000  0.87740000  0.83413000  1.0
  C  C72  1  0.02318000  0.74712000  0.81770000  1.0
  C  C73  1  0.95208000  0.63659000  0.84259000  1.0
  C  C74  1  0.84493000  0.65588000  0.88514000  1.0
  C  C75  1  0.80699000  0.78642000  0.90287000  1.0
  C  C76  1  0.80868000  0.03476000  0.88996000  1.0
  C  C77  1  0.76617000  0.53687000  0.90947000  1.0
  C  C78  1  0.14123000  0.72392000  0.77254000  1.0
  C  C79  1  0.05959000  0.70159000  0.71920000  1.0
  C  C80  1  0.01183000  0.81160000  0.68864000  1.0
  C  C81  1  0.93136000  0.79231000  0.63984000  1.0
  C  C82  1  0.89568000  0.66216000  0.62196000  1.0
  C  C83  1  0.94153000  0.55121000  0.65240000  1.0
  C  C84  1  0.02555000  0.57092000  0.70045000  1.0
  C  C85  1  0.88301000  0.91034000  0.60735000  1.0
  C  C86  1  0.89624000  0.41529000  0.63264000  1.0
  C  C87  1  0.36993000  0.60220000  0.62384000  1.0
  C  C88  1  0.47906000  0.62261000  0.66587000  1.0
  C  C89  1  0.52318000  0.75289000  0.68230000  1.0
  C  C90  1  0.45208000  0.86341000  0.65741000  1.0
  C  C91  1  0.34492000  0.84412000  0.61486000  1.0
  C  C92  1  0.30699000  0.71358000  0.59712000  1.0
  C  C93  1  0.30869000  0.46523000  0.61004000  1.0
  C  C94  1  0.26617000  0.96313000  0.59052000  1.0
  C  C95  1  0.64123000  0.77608000  0.72746000  1.0
  C  C96  1  0.55960000  0.79841000  0.78080000  1.0
  C  C97  1  0.51183000  0.68840000  0.81136000  1.0
  C  C98  1  0.43137000  0.70770000  0.86016000  1.0
  C  C99  1  0.39569000  0.83784000  0.87805000  1.0
  C  C100  1  0.44155000  0.94879000  0.84760000  1.0
  C  C101  1  0.52556000  0.92908000  0.79955000  1.0
  C  C102  1  0.38303000  0.58965000  0.89265000  1.0
  C  C103  1  0.39625000  0.08472000  0.86736000  1.0
  C  C104  1  0.13007000  0.10221000  0.12384000  1.0
  C  C105  1  0.02094000  0.12261000  0.16587000  1.0
  C  C106  1  0.97682000  0.25289000  0.18230000  1.0
  C  C107  1  0.04792000  0.36342000  0.15741000  1.0
  C  C108  1  0.15507000  0.34412000  0.11486000  1.0
  C  C109  1  0.19301000  0.21359000  0.09713000  1.0
  C  C110  1  0.19132000  0.96524000  0.11004000  1.0
  C  C111  1  0.23383000  0.46313000  0.09053000  1.0
  C  C112  1  0.85876000  0.27608000  0.22746000  1.0
  C  C113  1  0.94040000  0.29841000  0.28080000  1.0
  C  C114  1  0.98817000  0.18840000  0.31136000  1.0
  C  C115  1  0.06863000  0.20769000  0.36016000  1.0
  C  C116  1  0.10431000  0.33784000  0.37804000  1.0
  C  C117  1  0.05846000  0.44879000  0.34760000  1.0
  C  C118  1  0.97445000  0.42908000  0.29955000  1.0
  C  C119  1  0.11698000  0.08965000  0.39265000  1.0
  C  C120  1  0.10375000  0.58471000  0.36736000  1.0
  C  C121  1  0.63007000  0.39779000  0.37616000  1.0
  C  C122  1  0.52094000  0.37739000  0.33413000  1.0
  C  C123  1  0.47682000  0.24711000  0.31770000  1.0
  C  C124  1  0.54792000  0.13659000  0.34259000  1.0
  C  C125  1  0.65507000  0.15587000  0.38514000  1.0
  C  C126  1  0.69301000  0.28641000  0.40287000  1.0
  C  C127  1  0.69132000  0.53475000  0.38996000  1.0
  C  C128  1  0.73382000  0.03686000  0.40947000  1.0
  C  C129  1  0.35876000  0.22392000  0.27254000  1.0
  C  C130  1  0.44041000  0.20159000  0.21920000  1.0
  C  C131  1  0.48818000  0.31160000  0.18864000  1.0
  C  C132  1  0.56864000  0.29231000  0.13984000  1.0
  C  C133  1  0.60432000  0.16216000  0.12196000  1.0
  C  C134  1  0.55846000  0.05121000  0.15240000  1.0
  C  C135  1  0.47445000  0.07092000  0.20045000  1.0
  C  C136  1  0.61699000  0.41035000  0.10735000  1.0
  C  C137  1  0.60376000  0.91529000  0.13264000  1.0
  O  O138  1  0.48199000  0.32092000  0.95555000  1.0
  O  O139  1  0.84840000  0.13890000  0.86258000  1.0
  O  O140  1  0.70521000  0.04924000  0.92734000  1.0
  O  O141  1  0.72921000  0.54393000  0.96003000  1.0
  O  O142  1  0.73860000  0.43444000  0.87991000  1.0
  O  O143  1  0.84963000  0.01894000  0.63240000  1.0
  O  O144  1  0.87726000  0.89422000  0.55606000  1.0
  O  O145  1  0.77527000  0.40233000  0.60231000  1.0
  O  O146  1  0.97521000  0.30818000  0.64632000  1.0
  O  O147  1  0.82528000  0.29043000  0.97788000  1.0
  O  O148  1  0.13361000  0.33283000  0.95987000  1.0
  O  O149  1  0.09898000  0.30046000  0.83890000  1.0
  O  O150  1  0.98195000  0.17909000  0.54445000  1.0
  O  O151  1  0.34840000  0.36111000  0.63743000  1.0
  O  O152  1  0.20522000  0.45075000  0.57266000  1.0
  O  O153  1  0.22920000  0.95606000  0.53996000  1.0
  O  O154  1  0.23861000  0.06557000  0.62009000  1.0
  O  O155  1  0.34965000  0.48106000  0.86759000  1.0
  O  O156  1  0.37728000  0.60576000  0.94394000  1.0
  O  O157  1  0.27529000  0.09767000  0.89769000  1.0
  O  O158  1  0.47522000  0.19182000  0.85369000  1.0
  O  O159  1  0.32526000  0.20957000  0.52212000  1.0
  O  O160  1  0.63360000  0.16717000  0.54014000  1.0
  O  O161  1  0.59898000  0.19955000  0.66110000  1.0
  O  O162  1  0.51804000  0.67909000  0.04445000  1.0
  O  O163  1  0.15161000  0.86111000  0.13743000  1.0
  O  O164  1  0.29478000  0.95076000  0.07266000  1.0
  O  O165  1  0.27081000  0.45606000  0.03997000  1.0
  O  O166  1  0.26139000  0.56557000  0.12009000  1.0
  O  O167  1  0.15036000  0.98106000  0.36759000  1.0
  O  O168  1  0.12272000  0.10577000  0.44394000  1.0
  O  O169  1  0.22472000  0.59766000  0.39769000  1.0
  O  O170  1  0.02478000  0.69182000  0.35369000  1.0
  O  O171  1  0.17474000  0.70957000  0.02212000  1.0
  O  O172  1  0.86641000  0.66717000  0.04014000  1.0
  O  O173  1  0.90103000  0.69955000  0.16110000  1.0
  O  O174  1  0.01802000  0.82090000  0.45555000  1.0
  O  O175  1  0.65161000  0.63889000  0.36258000  1.0
  O  O176  1  0.79479000  0.54923000  0.42734000  1.0
  O  O177  1  0.77079000  0.04393000  0.46003000  1.0
  O  O178  1  0.76139000  0.93443000  0.37991000  1.0
  O  O179  1  0.65037000  0.51894000  0.13241000  1.0
  O  O180  1  0.62275000  0.39424000  0.05606000  1.0
  O  O181  1  0.72472000  0.90233000  0.10231000  1.0
  O  O182  1  0.52479000  0.80818000  0.14632000  1.0
  O  O183  1  0.67473000  0.79043000  0.47788000  1.0
  O  O184  1  0.36640000  0.83283000  0.45986000  1.0
  O  O185  1  0.40102000  0.80045000  0.33890000  1.0
