# generated using pymatgen
data_MnH14(C10N3)2
_symmetry_space_group_name_H-M   'P 1'
_cell_length_a   5.51383000
_cell_length_b   9.45015000
_cell_length_c   13.22360000
_cell_angle_alpha   106.57100000
_cell_angle_beta   91.91450000
_cell_angle_gamma   102.15100000
_symmetry_Int_Tables_number   1
_chemical_formula_structural   MnH14(C10N3)2
_chemical_formula_sum   'Mn1 H14 C20 N6'
_cell_volume   642.40396540
_cell_formula_units_Z   1
loop_
 _symmetry_equiv_pos_site_id
 _symmetry_equiv_pos_as_xyz
  1  'x, y, z'
loop_
 _atom_site_type_symbol
 _atom_site_label
 _atom_site_symmetry_multiplicity
 _atom_site_fract_x
 _atom_site_fract_y
 _atom_site_fract_z
 _atom_site_occupancy
  Mn  Mn0  1  0.00000000  0.00000000  0.00000000  1.0
  H  H1  1  0.71805000  0.42443000  0.51011000  1.0
  H  H2  1  0.56206000  0.38803000  0.92281000  1.0
  H  H3  1  0.25686000  0.34215000  0.05322000  1.0
  H  H4  1  0.56352000  0.93657000  0.80912000  1.0
  H  H5  1  0.39934000  0.75238000  0.63570000  1.0
  H  H6  1  0.02196000  0.54598000  0.65881000  1.0
  H  H7  1  0.16742000  0.74659000  0.83044000  1.0
  H  H8  1  0.28195000  0.57557000  0.48989000  1.0
  H  H9  1  0.43795000  0.61197000  0.07719000  1.0
  H  H10  1  0.74314000  0.65786000  0.94678000  1.0
  H  H11  1  0.43649000  0.06343000  0.19088000  1.0
  H  H12  1  0.60066000  0.24762000  0.36430000  1.0
  H  H13  1  0.97804000  0.45402000  0.34119000  1.0
  H  H14  1  0.83258000  0.25342000  0.16956000  1.0
  C  C15  1  0.55278000  0.14305000  0.96270000  1.0
  C  C16  1  0.89502000  0.34423000  0.98675000  1.0
  C  C17  1  0.75506000  0.43665000  0.95675000  1.0
  C  C18  1  0.14291000  0.41075000  0.02999000  1.0
  C  C19  1  0.66266000  0.84949000  0.77281000  1.0
  C  C20  1  0.57021000  0.74450000  0.67521000  1.0
  C  C21  1  0.69392000  0.62841000  0.63044000  1.0
  C  C22  1  0.60430000  0.50835000  0.53191000  1.0
  C  C23  1  0.91536000  0.63178000  0.68825000  1.0
  C  C24  1  0.99739000  0.74293000  0.78451000  1.0
  C  C25  1  0.44722000  0.85695000  0.03730000  1.0
  C  C26  1  0.10498000  0.65577000  0.01325000  1.0
  C  C27  1  0.24494000  0.56335000  0.04325000  1.0
  C  C28  1  0.85709000  0.58925000  0.97001000  1.0
  C  C29  1  0.33734000  0.15051000  0.22719000  1.0
  C  C30  1  0.42979000  0.25550000  0.32479000  1.0
  C  C31  1  0.30607000  0.37159000  0.36956000  1.0
  C  C32  1  0.39570000  0.49165000  0.46809000  1.0
  C  C33  1  0.08464000  0.36822000  0.31175000  1.0
  C  C34  1  0.00261000  0.25707000  0.21549000  1.0
  N  N35  1  0.33350000  0.09045000  0.94787000  1.0
  N  N36  1  0.79088000  0.18998000  0.97731000  1.0
  N  N37  1  0.87268000  0.84974000  0.82839000  1.0
  N  N38  1  0.66650000  0.90955000  0.05213000  1.0
  N  N39  1  0.20912000  0.81002000  0.02269000  1.0
  N  N40  1  0.12732000  0.15026000  0.17161000  1.0
