# generated using pymatgen
data_CoH9C16N2O4F3
_symmetry_space_group_name_H-M   'P 1'
_cell_length_a   9.69650000
_cell_length_b   11.13410000
_cell_length_c   17.93960000
_cell_angle_alpha   90.00130000
_cell_angle_beta   90.00110000
_cell_angle_gamma   102.07600000
_symmetry_Int_Tables_number   1
_chemical_formula_structural   CoH9C16N2O4F3
_chemical_formula_sum   'Co4 H36 C64 N8 O16 F12'
_cell_volume   1893.93217274
_cell_formula_units_Z   4
loop_
 _symmetry_equiv_pos_site_id
 _symmetry_equiv_pos_as_xyz
  1  'x, y, z'
loop_
 _atom_site_type_symbol
 _atom_site_label
 _atom_site_symmetry_multiplicity
 _atom_site_fract_x
 _atom_site_fract_y
 _atom_site_fract_z
 _atom_site_occupancy
  Co  Co0  1  0.00000000  0.00000000  0.00000000  1.0
  Co  Co1  1  0.00000000  0.50000000  0.50000000  1.0
  Co  Co2  1  0.50000000  0.50000000  0.50000000  1.0
  Co  Co3  1  0.50000000  0.00000000  0.00000000  1.0
  H  H4  1  0.13793000  0.95912000  0.84819000  1.0
  H  H5  1  0.72864000  0.84849000  0.93063000  1.0
  H  H6  1  0.68095000  0.70294000  0.68607000  1.0
  H  H7  1  0.98074000  0.71970000  0.62381000  1.0
  H  H8  1  0.47319000  0.45366000  0.33395000  1.0
  H  H9  1  0.66753000  0.75416000  0.45901000  1.0
  H  H10  1  0.54491000  0.73013000  0.12915000  1.0
  H  H11  1  0.55810000  0.55885000  0.21433000  1.0
  H  H12  1  0.82262000  0.85497000  0.20619000  1.0
  H  H13  1  0.86204000  0.54089000  0.34814000  1.0
  H  H14  1  0.27136000  0.65154000  0.43059000  1.0
  H  H15  1  0.31906000  0.79712000  0.18603000  1.0
  H  H16  1  0.01928000  0.78033000  0.12377000  1.0
  H  H17  1  0.52682000  0.04636000  0.83398000  1.0
  H  H18  1  0.33247000  0.74585000  0.95903000  1.0
  H  H19  1  0.45514000  0.76985000  0.62916000  1.0
  H  H20  1  0.44191000  0.94116000  0.71434000  1.0
  H  H21  1  0.17742000  0.64503000  0.70616000  1.0
  H  H22  1  0.86207000  0.04088000  0.15181000  1.0
  H  H23  1  0.27137000  0.15150000  0.06938000  1.0
  H  H24  1  0.31905000  0.29707000  0.31394000  1.0
  H  H25  1  0.01926000  0.28030000  0.37620000  1.0
  H  H26  1  0.52682000  0.54635000  0.66605000  1.0
  H  H27  1  0.33248000  0.24585000  0.54099000  1.0
  H  H28  1  0.45510000  0.26987000  0.87085000  1.0
  H  H29  1  0.44191000  0.44116000  0.78568000  1.0
  H  H30  1  0.17739000  0.14504000  0.79382000  1.0
  H  H31  1  0.13794000  0.45910000  0.65187000  1.0
  H  H32  1  0.72863000  0.34845000  0.56940000  1.0
  H  H33  1  0.68093000  0.20286000  0.81397000  1.0
  H  H34  1  0.98071000  0.21967000  0.87623000  1.0
  H  H35  1  0.47319000  0.95364000  0.16602000  1.0
  H  H36  1  0.66752000  0.25416000  0.04097000  1.0
  H  H37  1  0.54486000  0.23015000  0.37083000  1.0
  H  H38  1  0.55810000  0.05884000  0.28566000  1.0
  H  H39  1  0.82257000  0.35497000  0.29384000  1.0
  C  C40  1  0.02950000  0.91137000  0.83894000  1.0
  C  C41  1  0.80360000  0.84742000  0.88537000  1.0
  C  C42  1  0.76183000  0.78697000  0.81919000  1.0
  C  C43  1  0.85069000  0.78945000  0.75702000  1.0
  C  C44  1  0.98805000  0.85675000  0.77078000  1.0
  C  C45  1  0.79572000  0.72942000  0.68834000  1.0
  C  C46  1  0.78767000  0.63717000  0.56321000  1.0
  C  C47  1  0.86619000  0.70101000  0.62816000  1.0
  C  C48  1  0.69500000  0.77620000  0.33989000  1.0
  C  C49  1  0.53614000  0.54661000  0.33340000  1.0
  C  C50  1  0.64471000  0.71298000  0.40417000  1.0
  C  C51  1  0.65242000  0.78349000  0.13550000  1.0
  C  C52  1  0.58218000  0.60634000  0.26737000  1.0
  C  C53  1  0.66471000  0.72622000  0.26862000  1.0
  C  C54  1  0.71490000  0.85269000  0.06839000  1.0
  C  C55  1  0.71974000  0.79282000  0.20153000  1.0
  C  C56  1  0.97050000  0.58866000  0.33889000  1.0
  C  C57  1  0.19636000  0.65260000  0.38533000  1.0
  C  C58  1  0.23815000  0.71306000  0.31915000  1.0
  C  C59  1  0.14931000  0.71059000  0.25698000  1.0
  C  C60  1  0.01195000  0.64328000  0.27072000  1.0
  C  C61  1  0.20431000  0.77062000  0.18830000  1.0
  C  C62  1  0.21234000  0.86282000  0.06315000  1.0
  C  C63  1  0.13380000  0.79900000  0.12813000  1.0
  C  C64  1  0.30502000  0.72380000  0.83990000  1.0
  C  C65  1  0.46386000  0.95340000  0.83342000  1.0
  C  C66  1  0.35530000  0.78702000  0.90418000  1.0
  C  C67  1  0.34761000  0.71654000  0.63551000  1.0
  C  C68  1  0.41783000  0.89366000  0.76739000  1.0
  C  C69  1  0.33532000  0.77377000  0.76863000  1.0
  C  C70  1  0.28516000  0.64735000  0.56839000  1.0
  C  C71  1  0.28029000  0.70718000  0.70152000  1.0
  C  C72  1  0.97051000  0.08864000  0.16106000  1.0
  C  C73  1  0.19641000  0.15257000  0.11464000  1.0
  C  C74  1  0.23818000  0.21302000  0.18081000  1.0
  C  C75  1  0.14931000  0.21055000  0.24297000  1.0
  C  C76  1  0.01196000  0.14325000  0.22921000  1.0
  C  C77  1  0.20429000  0.27058000  0.31166000  1.0
  C  C78  1  0.21233000  0.36283000  0.43680000  1.0
  C  C79  1  0.13381000  0.29899000  0.37184000  1.0
  C  C80  1  0.30501000  0.22381000  0.66011000  1.0
  C  C81  1  0.46386000  0.45340000  0.66666667  1.0
  C  C82  1  0.35530000  0.28702000  0.59583000  1.0
  C  C83  1  0.34759000  0.21652000  0.86450000  1.0
  C  C84  1  0.41783000  0.39366000  0.73263000  1.0
  C  C85  1  0.33529000  0.27379000  0.73138000  1.0
  C  C86  1  0.28511000  0.14731000  0.93161000  1.0
  C  C87  1  0.28027000  0.20719000  0.79847000  1.0
  C  C88  1  0.02950000  0.41134000  0.66111000  1.0
  C  C89  1  0.80363000  0.34739000  0.61467000  1.0
  C  C90  1  0.76184000  0.28693000  0.68084000  1.0
  C  C91  1  0.85067000  0.28940000  0.74301000  1.0
  C  C92  1  0.98803000  0.35672000  0.72928000  1.0
  C  C93  1  0.79567000  0.22937000  0.81170000  1.0
  C  C94  1  0.78766000  0.13718000  0.93685000  1.0
  C  C95  1  0.86619000  0.20099000  0.87187000  1.0
  C  C96  1  0.69498000  0.27620000  0.16010000  1.0
  C  C97  1  0.53614000  0.04660000  0.16658000  1.0
  C  C98  1  0.64470000  0.21298000  0.09581000  1.0
  C  C99  1  0.65238000  0.28346000  0.36449000  1.0
  C  C100  1  0.58217000  0.10634000  0.23261000  1.0
  C  C101  1  0.66467000  0.22622000  0.23136000  1.0
  C  C102  1  0.71484000  0.35265000  0.43161000  1.0
  C  C103  1  0.71971000  0.29281000  0.29848000  1.0
  N  N104  1  0.93747000  0.90866000  0.89549000  1.0
  N  N105  1  0.56617000  0.59838000  0.40110000  1.0
  N  N106  1  0.06250000  0.59138000  0.39544000  1.0
  N  N107  1  0.43386000  0.90162000  0.90112000  1.0
  N  N108  1  0.06253000  0.09133000  0.10451000  1.0
  N  N109  1  0.43384000  0.40163000  0.59890000  1.0
  N  N110  1  0.93749000  0.40861000  0.60456000  1.0
  N  N111  1  0.56615000  0.09838000  0.09888000  1.0
  O  O112  1  0.65325000  0.61916000  0.56313000  1.0
  O  O113  1  0.85987000  0.60661000  0.50946000  1.0
  O  O114  1  0.84861000  0.87583000  0.06205000  1.0
  O  O115  1  0.62866000  0.88097000  0.02085000  1.0
  O  O116  1  0.34673000  0.88083000  0.06313000  1.0
  O  O117  1  0.14020000  0.89332000  0.00940000  1.0
  O  O118  1  0.15143000  0.62416000  0.56207000  1.0
  O  O119  1  0.37138000  0.61906000  0.52084000  1.0
  O  O120  1  0.34675000  0.38084000  0.43688000  1.0
  O  O121  1  0.14013000  0.39338000  0.49054000  1.0
  O  O122  1  0.15140000  0.12417000  0.93795000  1.0
  O  O123  1  0.37134000  0.11903000  0.97915000  1.0
  O  O124  1  0.65327000  0.11917000  0.93687000  1.0
  O  O125  1  0.85980000  0.10669000  0.99060000  1.0
  O  O126  1  0.84857000  0.37583000  0.43793000  1.0
  O  O127  1  0.62862000  0.38093000  0.47916000  1.0
  F  F128  1  0.62703000  0.72079000  0.81415000  1.0
  F  F129  1  0.77414000  0.89203000  0.34673000  1.0
  F  F130  1  0.08404000  0.87072000  0.71473000  1.0
  F  F131  1  0.37294000  0.77924000  0.31410000  1.0
  F  F132  1  0.22585000  0.60796000  0.84673000  1.0
  F  F133  1  0.91597000  0.62932000  0.21467000  1.0
  F  F134  1  0.37296000  0.27921000  0.18585000  1.0
  F  F135  1  0.22586000  0.10798000  0.65327000  1.0
  F  F136  1  0.91596000  0.12928000  0.28527000  1.0
  F  F137  1  0.62704000  0.22074000  0.68589000  1.0
  F  F138  1  0.77415000  0.39205000  0.15327000  1.0
  F  F139  1  0.08401000  0.37068000  0.78533000  1.0
