# generated using pymatgen
data_CdH8(C7N4)2
_symmetry_space_group_name_H-M   'P 1'
_cell_length_a   6.48924000
_cell_length_b   9.52142000
_cell_length_c   13.03640000
_cell_angle_alpha   89.12780000
_cell_angle_beta   87.59590000
_cell_angle_gamma   70.13160000
_symmetry_Int_Tables_number   1
_chemical_formula_structural   CdH8(C7N4)2
_chemical_formula_sum   'Cd2 H16 C28 N16'
_cell_volume   756.86456106
_cell_formula_units_Z   2
loop_
 _symmetry_equiv_pos_site_id
 _symmetry_equiv_pos_as_xyz
  1  'x, y, z'
loop_
 _atom_site_type_symbol
 _atom_site_label
 _atom_site_symmetry_multiplicity
 _atom_site_fract_x
 _atom_site_fract_y
 _atom_site_fract_z
 _atom_site_occupancy
  Cd  Cd0  1  0.12322000  0.75530000  0.25017000  1.0
  Cd  Cd1  1  0.87678000  0.24470000  0.74984000  1.0
  H  H2  1  0.77761000  0.65974000  0.11963000  1.0
  H  H3  1  0.56393000  0.65968000  0.38065000  1.0
  H  H4  1  0.22239000  0.34027000  0.88037000  1.0
  H  H5  1  0.43610000  0.34031000  0.61934000  1.0
  H  H6  1  0.28552000  0.16491000  0.21137000  1.0
  H  H7  1  0.55119000  0.16489000  0.28823000  1.0
  H  H8  1  0.71446000  0.83509000  0.78863000  1.0
  H  H9  1  0.44880000  0.83511000  0.71177000  1.0
  H  H10  1  0.71095000  0.43196000  0.05546000  1.0
  H  H11  1  0.85833000  0.43181000  0.44467000  1.0
  H  H12  1  0.28904000  0.56805000  0.94454000  1.0
  H  H13  1  0.14170000  0.56818000  0.55531000  1.0
  H  H14  1  0.97578000  0.17903000  0.10437000  1.0
  H  H15  1  0.84672000  0.17891000  0.39541000  1.0
  H  H16  1  0.02421000  0.82097000  0.89564000  1.0
  H  H17  1  0.15329000  0.82108000  0.60457000  1.0
  C  C18  1  0.20404000  0.40560000  0.21905000  1.0
  C  C19  1  0.39207000  0.40557000  0.28076000  1.0
  C  C20  1  0.79597000  0.59440000  0.78095000  1.0
  C  C21  1  0.60793000  0.59443000  0.71924000  1.0
  C  C22  1  0.72869000  0.00738000  0.11012000  1.0
  C  C23  1  0.26578000  0.00714000  0.39022000  1.0
  C  C24  1  0.27132000  0.99262000  0.88990000  1.0
  C  C25  1  0.73420000  0.99287000  0.60977000  1.0
  C  C26  1  0.88834000  0.54760000  0.13670000  1.0
  C  C27  1  0.56552000  0.54752000  0.36340000  1.0
  C  C28  1  0.11165000  0.45240000  0.86330000  1.0
  C  C29  1  0.43451000  0.45247000  0.63659000  1.0
  C  C30  1  0.17363000  0.27352000  0.18910000  1.0
  C  C31  1  0.55454000  0.27346000  0.31061000  1.0
  C  C32  1  0.82636000  0.72649000  0.81090000  1.0
  C  C33  1  0.44546000  0.72654000  0.68939000  1.0
  C  C34  1  0.85080000  0.42087000  0.10223000  1.0
  C  C35  1  0.72980000  0.42075000  0.39776000  1.0
  C  C36  1  0.14919000  0.57915000  0.89777000  1.0
  C  C37  1  0.27022000  0.57924000  0.60223000  1.0
  C  C38  1  0.99738000  0.28170000  0.12913000  1.0
  C  C39  1  0.72253000  0.28158000  0.37066000  1.0
  C  C40  1  0.00261000  0.71831000  0.87087000  1.0
  C  C41  1  0.27748000  0.71841000  0.62933000  1.0
  C  C42  1  0.63759000  0.17245000  0.97369000  1.0
  C  C43  1  0.18893000  0.17272000  0.52622000  1.0
  C  C44  1  0.36241000  0.82754000  0.02633000  1.0
  C  C45  1  0.81106000  0.82729000  0.47377000  1.0
  N  N46  1  0.06086000  0.53969000  0.19223000  1.0
  N  N47  1  0.40104000  0.53963000  0.30778000  1.0
  N  N48  1  0.93914000  0.46032000  0.80777000  1.0
  N  N49  1  0.59898000  0.46036000  0.69222000  1.0
  N  N50  1  0.83220000  0.91291000  0.16551000  1.0
  N  N51  1  0.25813000  0.91218000  0.33499000  1.0
  N  N52  1  0.16781000  0.08710000  0.83451000  1.0
  N  N53  1  0.74191000  0.08780000  0.66503000  1.0
  N  N54  1  0.59556000  0.11332000  0.05824000  1.0
  N  N55  1  0.29136000  0.11369000  0.44202000  1.0
  N  N56  1  0.40444000  0.88668000  0.94177000  1.0
  N  N57  1  0.70853000  0.88638000  0.55795000  1.0
  N  N58  1  0.65470000  0.23765000  0.89788000  1.0
  N  N59  1  0.10538000  0.23797000  0.60172000  1.0
  N  N60  1  0.34529000  0.76235000  0.10213000  1.0
  N  N61  1  0.89463000  0.76202000  0.39830000  1.0
