# generated using pymatgen
data_TbH7C7SO7
_symmetry_space_group_name_H-M   'P 1'
_cell_length_a   8.46502000
_cell_length_b   17.12030000
_cell_length_c   17.12030000
_cell_angle_alpha   90.00000000
_cell_angle_beta   90.00000000
_cell_angle_gamma   90.00000000
_symmetry_Int_Tables_number   1
_chemical_formula_structural   TbH7C7SO7
_chemical_formula_sum   'Tb8 H56 C56 S8 O56'
_cell_volume   2481.13691134
_cell_formula_units_Z   8
loop_
 _symmetry_equiv_pos_site_id
 _symmetry_equiv_pos_as_xyz
  1  'x, y, z'
loop_
 _atom_site_type_symbol
 _atom_site_label
 _atom_site_symmetry_multiplicity
 _atom_site_fract_x
 _atom_site_fract_y
 _atom_site_fract_z
 _atom_site_occupancy
  Tb  Tb0  1  0.84991000  0.10946000  0.03444000  1.0
  Tb  Tb1  1  0.84991000  0.89054000  0.96556000  1.0
  Tb  Tb2  1  0.15009000  0.03444000  0.89054000  1.0
  Tb  Tb3  1  0.15009000  0.96556000  0.10946000  1.0
  Tb  Tb4  1  0.65009000  0.39054000  0.53444000  1.0
  Tb  Tb5  1  0.65009000  0.60946000  0.46556000  1.0
  Tb  Tb6  1  0.34991000  0.46556000  0.39054000  1.0
  Tb  Tb7  1  0.34991000  0.53444000  0.60946000  1.0
  H  H8  1  0.92856000  0.25815000  0.25966000  1.0
  H  H9  1  0.92856000  0.74186000  0.74034000  1.0
  H  H10  1  0.07144000  0.25966000  0.74186000  1.0
  H  H11  1  0.07144000  0.74034000  0.25814000  1.0
  H  H12  1  0.57144000  0.24186000  0.75966000  1.0
  H  H13  1  0.57144000  0.75815000  0.24034000  1.0
  H  H14  1  0.42856000  0.24034000  0.24186000  1.0
  H  H15  1  0.42856000  0.75966000  0.75814000  1.0
  H  H16  1  0.17199000  0.04913000  0.32967000  1.0
  H  H17  1  0.17199000  0.95087000  0.67033000  1.0
  H  H18  1  0.82801000  0.32967000  0.95087000  1.0
  H  H19  1  0.82801000  0.67033000  0.04913000  1.0
  H  H20  1  0.32801000  0.45087000  0.82967000  1.0
  H  H21  1  0.32801000  0.54913000  0.17033000  1.0
  H  H22  1  0.67199000  0.17033000  0.45087000  1.0
  H  H23  1  0.67199000  0.82967000  0.54913000  1.0
  H  H24  1  0.24808000  0.11328000  0.45615000  1.0
  H  H25  1  0.24808000  0.88672000  0.54385000  1.0
  H  H26  1  0.75192000  0.45615000  0.88672000  1.0
  H  H27  1  0.75192000  0.54385000  0.11328000  1.0
  H  H28  1  0.25192000  0.38672000  0.95615000  1.0
  H  H29  1  0.25192000  0.61328000  0.04385000  1.0
  H  H30  1  0.74808000  0.04385000  0.38672000  1.0
  H  H31  1  0.74808000  0.95615000  0.61328000  1.0
  H  H32  1  0.16016000  0.24951000  0.48383000  1.0
  H  H33  1  0.16016000  0.75049000  0.51617000  1.0
  H  H34  1  0.83984000  0.48383000  0.75049000  1.0
  H  H35  1  0.83984000  0.51617000  0.24951000  1.0
  H  H36  1  0.33984000  0.25049000  0.98383000  1.0
  H  H37  1  0.33984000  0.74951000  0.01617000  1.0
  H  H38  1  0.66016000  0.01617000  0.25049000  1.0
  H  H39  1  0.66016000  0.98383000  0.74951000  1.0
  H  H40  1  0.80816000  0.03719000  0.88356000  1.0
  H  H41  1  0.80816000  0.96281000  0.11644000  1.0
  H  H42  1  0.19184000  0.88356000  0.96281000  1.0
  H  H43  1  0.19184000  0.11644000  0.03719000  1.0
  H  H44  1  0.69184000  0.46281000  0.38356000  1.0
  H  H45  1  0.69184000  0.53719000  0.61644000  1.0
  H  H46  1  0.30816000  0.61644000  0.46281000  1.0
  H  H47  1  0.30816000  0.38356000  0.53719000  1.0
  H  H48  1  0.77853000  0.24269000  0.12942000  1.0
  H  H49  1  0.77853000  0.75731000  0.87058000  1.0
  H  H50  1  0.22147000  0.12942000  0.75731000  1.0
  H  H51  1  0.22147000  0.87058000  0.24269000  1.0
  H  H52  1  0.72147000  0.25731000  0.62942000  1.0
  H  H53  1  0.72147000  0.74269000  0.37058000  1.0
  H  H54  1  0.27853000  0.37058000  0.25731000  1.0
  H  H55  1  0.27853000  0.62942000  0.74269000  1.0
  H  H56  1  0.61746000  0.23077000  0.08518000  1.0
  H  H57  1  0.61746000  0.76923000  0.91482000  1.0
  H  H58  1  0.38254000  0.08518000  0.76923000  1.0
  H  H59  1  0.38254000  0.91482000  0.23077000  1.0
  H  H60  1  0.88254000  0.26923000  0.58518000  1.0
  H  H61  1  0.88254000  0.73077000  0.41482000  1.0
  H  H62  1  0.11746000  0.41482000  0.26923000  1.0
  H  H63  1  0.11746000  0.58518000  0.73077000  1.0
  C  C64  1  0.04008000  0.26106000  0.37292000  1.0
  C  C65  1  0.04008000  0.73894000  0.62708000  1.0
  C  C66  1  0.95992000  0.37292000  0.73894000  1.0
  C  C67  1  0.95992000  0.62708000  0.26106000  1.0
  C  C68  1  0.45992000  0.23894000  0.87292000  1.0
  C  C69  1  0.45992000  0.76106000  0.12708000  1.0
  C  C70  1  0.54008000  0.12708000  0.23894000  1.0
  C  C71  1  0.54008000  0.87292000  0.76106000  1.0
  C  C72  1  0.99752000  0.22604000  0.30265000  1.0
  C  C73  1  0.99752000  0.77397000  0.69735000  1.0
  C  C74  1  0.00248000  0.30265000  0.77396000  1.0
  C  C75  1  0.00248000  0.69735000  0.22604000  1.0
  C  C76  1  0.50248000  0.27397000  0.80265000  1.0
  C  C77  1  0.50248000  0.72604000  0.19735000  1.0
  C  C78  1  0.49752000  0.19735000  0.27397000  1.0
  C  C79  1  0.49752000  0.80265000  0.72603000  1.0
  C  C80  1  0.04407000  0.14903000  0.28798000  1.0
  C  C81  1  0.04407000  0.85097000  0.71202000  1.0
  C  C82  1  0.95593000  0.28798000  0.85097000  1.0
  C  C83  1  0.95593000  0.71202000  0.14903000  1.0
  C  C84  1  0.45593000  0.35097000  0.78798000  1.0
  C  C85  1  0.45593000  0.64903000  0.21202000  1.0
  C  C86  1  0.54407000  0.21202000  0.35097000  1.0
  C  C87  1  0.54407000  0.78798000  0.64903000  1.0
  C  C88  1  0.00049000  0.10989000  0.21294000  1.0
  C  C89  1  0.00049000  0.89011000  0.78706000  1.0
  C  C90  1  0.99951000  0.21294000  0.89011000  1.0
  C  C91  1  0.99951000  0.78706000  0.10989000  1.0
  C  C92  1  0.49951000  0.39011000  0.71294000  1.0
  C  C93  1  0.49951000  0.60989000  0.28706000  1.0
  C  C94  1  0.50049000  0.28706000  0.39011000  1.0
  C  C95  1  0.50049000  0.71294000  0.60989000  1.0
  C  C96  1  0.13424000  0.10846000  0.34338000  1.0
  C  C97  1  0.13424000  0.89154000  0.65662000  1.0
  C  C98  1  0.86576000  0.34338000  0.89154000  1.0
  C  C99  1  0.86576000  0.65662000  0.10846000  1.0
  C  C100  1  0.36576000  0.39154000  0.84338000  1.0
  C  C101  1  0.36576000  0.60846000  0.15662000  1.0
  C  C102  1  0.63424000  0.15662000  0.39154000  1.0
  C  C103  1  0.63424000  0.84338000  0.60846000  1.0
  C  C104  1  0.17605000  0.14446000  0.41356000  1.0
  C  C105  1  0.17605000  0.85554000  0.58644000  1.0
  C  C106  1  0.82395000  0.41356000  0.85554000  1.0
  C  C107  1  0.82395000  0.58644000  0.14446000  1.0
  C  C108  1  0.32395000  0.35554000  0.91356000  1.0
  C  C109  1  0.32395000  0.64446000  0.08644000  1.0
  C  C110  1  0.67605000  0.08644000  0.35554000  1.0
  C  C111  1  0.67605000  0.91356000  0.64446000  1.0
  C  C112  1  0.12845000  0.22089000  0.42920000  1.0
  C  C113  1  0.12845000  0.77911000  0.57080000  1.0
  C  C114  1  0.87155000  0.42920000  0.77911000  1.0
  C  C115  1  0.87155000  0.57080000  0.22089000  1.0
  C  C116  1  0.37155000  0.27911000  0.92920000  1.0
  C  C117  1  0.37155000  0.72089000  0.07080000  1.0
  C  C118  1  0.62845000  0.07080000  0.27911000  1.0
  C  C119  1  0.62845000  0.92920000  0.72089000  1.0
  S  S120  1  0.97942000  0.35849000  0.39158000  1.0
  S  S121  1  0.97942000  0.64151000  0.60842000  1.0
  S  S122  1  0.02058000  0.39158000  0.64150000  1.0
  S  S123  1  0.02058000  0.60842000  0.35850000  1.0
  S  S124  1  0.52058000  0.14151000  0.89158000  1.0
  S  S125  1  0.52058000  0.85849000  0.10842000  1.0
  S  S126  1  0.47942000  0.10842000  0.14150000  1.0
  S  S127  1  0.47942000  0.89158000  0.85849000  1.0
  O  O128  1  0.84824000  0.35255000  0.44711000  1.0
  O  O129  1  0.84824000  0.64745000  0.55289000  1.0
  O  O130  1  0.15176000  0.44711000  0.64745000  1.0
  O  O131  1  0.15176000  0.55289000  0.35255000  1.0
  O  O132  1  0.65176000  0.14745000  0.94711000  1.0
  O  O133  1  0.65176000  0.85255000  0.05289000  1.0
  O  O134  1  0.34824000  0.05289000  0.14745000  1.0
  O  O135  1  0.34824000  0.94711000  0.85255000  1.0
  O  O136  1  0.11738000  0.39712000  0.42778000  1.0
  O  O137  1  0.11738000  0.60288000  0.57222000  1.0
  O  O138  1  0.88262000  0.42778000  0.60288000  1.0
  O  O139  1  0.88262000  0.57222000  0.39712000  1.0
  O  O140  1  0.38262000  0.10288000  0.92778000  1.0
  O  O141  1  0.38262000  0.89712000  0.07222000  1.0
  O  O142  1  0.61737000  0.07222000  0.10288000  1.0
  O  O143  1  0.61738000  0.92778000  0.89712000  1.0
  O  O144  1  0.93130000  0.39290000  0.31676000  1.0
  O  O145  1  0.93130000  0.60710000  0.68324000  1.0
  O  O146  1  0.06870000  0.31676000  0.60710000  1.0
  O  O147  1  0.06870000  0.68324000  0.39290000  1.0
  O  O148  1  0.56870000  0.10710000  0.81676000  1.0
  O  O149  1  0.56870000  0.89290000  0.18324000  1.0
  O  O150  1  0.43130000  0.18324000  0.10710000  1.0
  O  O151  1  0.43130000  0.81676000  0.89290000  1.0
  O  O152  1  0.93744000  0.15093000  0.15885000  1.0
  O  O153  1  0.93745000  0.84907000  0.84115000  1.0
  O  O154  1  0.06256000  0.15885000  0.84907000  1.0
  O  O155  1  0.06256000  0.84115000  0.15093000  1.0
  O  O156  1  0.56255000  0.34907000  0.65885000  1.0
  O  O157  1  0.56255000  0.65093000  0.34115000  1.0
  O  O158  1  0.43745000  0.34115000  0.34907000  1.0
  O  O159  1  0.43745000  0.65885000  0.65093000  1.0
  O  O160  1  0.03013000  0.03751000  0.20685000  1.0
  O  O161  1  0.03013000  0.96249000  0.79315000  1.0
  O  O162  1  0.96987000  0.20685000  0.96249000  1.0
  O  O163  1  0.96987000  0.79315000  0.03751000  1.0
  O  O164  1  0.46987000  0.46249000  0.70685000  1.0
  O  O165  1  0.46987000  0.53751000  0.29315000  1.0
  O  O166  1  0.53013000  0.29315000  0.46249000  1.0
  O  O167  1  0.53013000  0.70685000  0.53751000  1.0
  O  O168  1  0.88027000  0.02541000  0.92633000  1.0
  O  O169  1  0.88027000  0.97459000  0.07366000  1.0
  O  O170  1  0.11973000  0.92634000  0.97459000  1.0
  O  O171  1  0.11973000  0.07367000  0.02541000  1.0
  O  O172  1  0.61973000  0.47459000  0.42634000  1.0
  O  O173  1  0.61973000  0.52541000  0.57366000  1.0
  O  O174  1  0.38027000  0.57366000  0.47459000  1.0
  O  O175  1  0.38027000  0.42634000  0.52541000  1.0
  O  O176  1  0.73242000  0.23806000  0.07735000  1.0
  O  O177  1  0.73242000  0.76194000  0.92265000  1.0
  O  O178  1  0.26758000  0.07735000  0.76194000  1.0
  O  O179  1  0.26758000  0.92265000  0.23806000  1.0
  O  O180  1  0.76758000  0.26194000  0.57735000  1.0
  O  O181  1  0.76758000  0.73806000  0.42265000  1.0
  O  O182  1  0.23242000  0.42265000  0.26194000  1.0
  O  O183  1  0.23242000  0.57735000  0.73806000  1.0
