# generated using pymatgen
data_Bi2H15C17(SBr3)2
_symmetry_space_group_name_H-M   'P 1'
_cell_length_a   10.41150000
_cell_length_b   10.98330000
_cell_length_c   13.90460000
_cell_angle_alpha   99.15330000
_cell_angle_beta   96.73060000
_cell_angle_gamma   92.46450000
_symmetry_Int_Tables_number   1
_chemical_formula_structural   Bi2H15C17(SBr3)2
_chemical_formula_sum   'Bi4 H30 C34 S4 Br12'
_cell_volume   1555.87759852
_cell_formula_units_Z   2
loop_
 _symmetry_equiv_pos_site_id
 _symmetry_equiv_pos_as_xyz
  1  'x, y, z'
loop_
 _atom_site_type_symbol
 _atom_site_label
 _atom_site_symmetry_multiplicity
 _atom_site_fract_x
 _atom_site_fract_y
 _atom_site_fract_z
 _atom_site_occupancy
  Bi  Bi0  1  0.34454000  0.89527000  0.55385000  1.0
  Bi  Bi1  1  0.65545000  0.10476000  0.44615000  1.0
  Bi  Bi2  1  0.24272000  0.09609000  0.28484000  1.0
  Bi  Bi3  1  0.75727000  0.90392000  0.71515000  1.0
  H  H4  1  0.49215000  0.36672000  0.12618000  1.0
  H  H5  1  0.50786000  0.63327000  0.87382000  1.0
  H  H6  1  0.53562000  0.50075000  0.27226000  1.0
  H  H7  1  0.46438000  0.49926000  0.72774000  1.0
  H  H8  1  0.42983000  0.54322000  0.42218000  1.0
  H  H9  1  0.57017000  0.45680000  0.57782000  1.0
  H  H10  1  0.12404000  0.71354000  0.26316000  1.0
  H  H11  1  0.87595000  0.28645000  0.73683000  1.0
  H  H12  1  0.22808000  0.66854000  0.11431000  1.0
  H  H13  1  0.77192000  0.33145000  0.88569000  1.0
  H  H14  1  0.03897000  0.78632000  0.40187000  1.0
  H  H15  1  0.96103000  0.21367000  0.59813000  1.0
  H  H16  1  0.00003000  0.71851000  0.50423000  1.0
  H  H17  1  0.99997000  0.28150000  0.49577000  1.0
  H  H18  1  0.98599000  0.62430000  0.38502000  1.0
  H  H19  1  0.01401000  0.37570000  0.61498000  1.0
  H  H20  1  0.43342000  0.19920000  0.84204000  1.0
  H  H21  1  0.56658000  0.80080000  0.15797000  1.0
  H  H22  1  0.47827000  0.97890000  0.81511000  1.0
  H  H23  1  0.52173000  0.02109000  0.18490000  1.0
  H  H24  1  0.78185000  0.04846000  0.06167000  1.0
  H  H25  1  0.21815000  0.95154000  0.93833000  1.0
  H  H26  1  0.72665000  0.26549000  0.09382000  1.0
  H  H27  1  0.27335000  0.73451000  0.90618000  1.0
  H  H28  1  0.79312000  0.83070000  0.05112000  1.0
  H  H29  1  0.20688000  0.16930000  0.94888000  1.0
  H  H30  1  0.84147000  0.72955000  0.94879000  1.0
  H  H31  1  0.15854000  0.27045000  0.05121000  1.0
  H  H32  1  0.89323000  0.89065000  0.96957000  1.0
  H  H33  1  0.10679000  0.10934000  0.03044000  1.0
  C  C34  1  0.49862000  0.42745000  0.07189000  1.0
  C  C35  1  0.50139000  0.57254000  0.92812000  1.0
  C  C36  1  0.54620000  0.38016000  0.98440000  1.0
  C  C37  1  0.45380000  0.61983000  0.01560000  1.0
  C  C38  1  0.45001000  0.54509000  0.08956000  1.0
  C  C39  1  0.54999000  0.45490000  0.91044000  1.0
  C  C40  1  0.39024000  0.58045000  0.18092000  1.0
  C  C41  1  0.60976000  0.41955000  0.81908000  1.0
  C  C42  1  0.44497000  0.54687000  0.26960000  1.0
  C  C43  1  0.55503000  0.45313000  0.73040000  1.0
  C  C44  1  0.38566000  0.57066000  0.35456000  1.0
  C  C45  1  0.61434000  0.42935000  0.64544000  1.0
  C  C46  1  0.26910000  0.62992000  0.35301000  1.0
  C  C47  1  0.73090000  0.37008000  0.64699000  1.0
  C  C48  1  0.21318000  0.66522000  0.26598000  1.0
  C  C49  1  0.78682000  0.33478000  0.73402000  1.0
  C  C50  1  0.27351000  0.64038000  0.18124000  1.0
  C  C51  1  0.72649000  0.35961000  0.81875000  1.0
  C  C52  1  0.04104000  0.70172000  0.43443000  1.0
  C  C53  1  0.95896000  0.29828000  0.56557000  1.0
  C  C54  1  0.57873000  0.24901000  0.96871000  1.0
  C  C55  1  0.42127000  0.75099000  0.03129000  1.0
  C  C56  1  0.50925000  0.16633000  0.89070000  1.0
  C  C57  1  0.49076000  0.83367000  0.10930000  1.0
  C  C58  1  0.53590000  0.04254000  0.87435000  1.0
  C  C59  1  0.46410000  0.95746000  0.12565000  1.0
  C  C60  1  0.63675000  0.00021000  0.93389000  1.0
  C  C61  1  0.36325000  0.99978000  0.06611000  1.0
  C  C62  1  0.70475000  0.08013000  0.01357000  1.0
  C  C63  1  0.29526000  0.91986000  0.98643000  1.0
  C  C64  1  0.67358000  0.20338000  0.03141000  1.0
  C  C65  1  0.32642000  0.79662000  0.96859000  1.0
  C  C66  1  0.81466000  0.82335000  0.97513000  1.0
  C  C67  1  0.18534000  0.17665000  0.02487000  1.0
  S  S68  1  0.20366000  0.65854000  0.46603000  1.0
  S  S69  1  0.79634000  0.34147000  0.53397000  1.0
  S  S70  1  0.67082000  0.84480000  0.89670000  1.0
  S  S71  1  0.32919000  0.15520000  0.10330000  1.0
  Br  Br72  1  0.21400000  0.90638000  0.70895000  1.0
  Br  Br73  1  0.78599000  0.09362000  0.29105000  1.0
  Br  Br74  1  0.46945000  0.90258000  0.36263000  1.0
  Br  Br75  1  0.53053000  0.09743000  0.63738000  1.0
  Br  Br76  1  0.15529000  0.05140000  0.46496000  1.0
  Br  Br77  1  0.84471000  0.94860000  0.53505000  1.0
  Br  Br78  1  0.06159000  0.93522000  0.17076000  1.0
  Br  Br79  1  0.93842000  0.06479000  0.82925000  1.0
  Br  Br80  1  0.52139000  0.72911000  0.61863000  1.0
  Br  Br81  1  0.47860000  0.27091000  0.38138000  1.0
  Br  Br82  1  0.10945000  0.29801000  0.28935000  1.0
  Br  Br83  1  0.89055000  0.70200000  0.71064000  1.0
