# generated using pymatgen
data_CuH4C10(N3O)2
_symmetry_space_group_name_H-M   'P 1'
_cell_length_a   7.05771000
_cell_length_b   7.05775000
_cell_length_c   12.14600000
_cell_angle_alpha   92.94660000
_cell_angle_beta   92.94540000
_cell_angle_gamma   109.11700000
_symmetry_Int_Tables_number   1
_chemical_formula_structural   CuH4C10(N3O)2
_chemical_formula_sum   'Cu2 H8 C20 N12 O4'
_cell_volume   569.39612531
_cell_formula_units_Z   2
loop_
 _symmetry_equiv_pos_site_id
 _symmetry_equiv_pos_as_xyz
  1  'x, y, z'
loop_
 _atom_site_type_symbol
 _atom_site_label
 _atom_site_symmetry_multiplicity
 _atom_site_fract_x
 _atom_site_fract_y
 _atom_site_fract_z
 _atom_site_occupancy
  Cu  Cu0  1  0.00000000  0.99999000  1.00000000  1.0
  Cu  Cu1  1  0.00000000  0.00000000  0.50000000  1.0
  H  H2  1  0.64143000  0.04675000  0.91715000  1.0
  H  H3  1  0.95326000  0.35859000  0.58285000  1.0
  H  H4  1  0.35857000  0.95324000  0.08285000  1.0
  H  H5  1  0.04675000  0.64142000  0.41715000  1.0
  H  H6  1  0.57632000  0.84489000  0.97476000  1.0
  H  H7  1  0.15511000  0.42369000  0.52523000  1.0
  H  H8  1  0.42368000  0.15510000  0.02523000  1.0
  H  H9  1  0.84491000  0.57632000  0.47476000  1.0
  C  C10  1  0.60630000  0.39368000  0.24999000  1.0
  C  C11  1  0.39369000  0.60632000  0.75001000  1.0
  C  C12  1  0.48232000  0.51768000  0.24999000  1.0
  C  C13  1  0.51768000  0.48233000  0.75001000  1.0
  C  C14  1  0.56892000  0.23336000  0.32207000  1.0
  C  C15  1  0.76662000  0.43108000  0.17792000  1.0
  C  C16  1  0.43107000  0.76663000  0.67793000  1.0
  C  C17  1  0.23337000  0.56892000  0.82208000  1.0
  C  C18  1  0.38317000  0.15314000  0.36782000  1.0
  C  C19  1  0.84689000  0.61680000  0.13218000  1.0
  C  C20  1  0.61683000  0.84687000  0.63218000  1.0
  C  C21  1  0.15312000  0.38320000  0.86782000  1.0
  C  C22  1  0.85668000  0.28949000  0.14609000  1.0
  C  C23  1  0.71051000  0.14334000  0.35393000  1.0
  C  C24  1  0.14330000  0.71049000  0.85392000  1.0
  C  C25  1  0.28948000  0.85667000  0.64608000  1.0
  C  C26  1  0.45384000  0.62221000  0.15897000  1.0
  C  C27  1  0.37780000  0.54618000  0.34101000  1.0
  C  C28  1  0.54617000  0.37778000  0.84103000  1.0
  C  C29  1  0.62221000  0.45384000  0.65899000  1.0
  N  N30  1  0.22966000  0.07867000  0.40575000  1.0
  N  N31  1  0.92133000  0.77033000  0.09424000  1.0
  N  N32  1  0.77033000  0.92133000  0.59425000  1.0
  N  N33  1  0.07867000  0.22967000  0.90576000  1.0
  N  N34  1  0.94311000  0.18122000  0.11772000  1.0
  N  N35  1  0.81879000  0.05690000  0.38230000  1.0
  N  N36  1  0.05689000  0.81878000  0.88228000  1.0
  N  N37  1  0.18121000  0.94310000  0.61771000  1.0
  N  N38  1  0.42018000  0.70861000  0.08446000  1.0
  N  N39  1  0.29140000  0.57983000  0.41552000  1.0
  N  N40  1  0.57981000  0.29138000  0.91554000  1.0
  N  N41  1  0.70861000  0.42019000  0.58448000  1.0
  O  O42  1  0.66738000  0.91852000  0.92092000  1.0
  O  O43  1  0.08148000  0.33264000  0.57908000  1.0
  O  O44  1  0.33263000  0.08147000  0.07908000  1.0
  O  O45  1  0.91853000  0.66737000  0.42091000  1.0
