# generated using pymatgen
data_AlH3C10N3O11
_symmetry_space_group_name_H-M   'P 1'
_cell_length_a   6.80065000
_cell_length_b   11.01557751
_cell_length_c   11.06754964
_cell_angle_alpha   82.90977203
_cell_angle_beta   73.97338620
_cell_angle_gamma   73.74921226
_symmetry_Int_Tables_number   1
_chemical_formula_structural   AlH3C10N3O11
_chemical_formula_sum   'Al2 H6 C20 N6 O22'
_cell_volume   764.08305766
_cell_formula_units_Z   2
loop_
 _symmetry_equiv_pos_site_id
 _symmetry_equiv_pos_as_xyz
  1  'x, y, z'
loop_
 _atom_site_type_symbol
 _atom_site_label
 _atom_site_symmetry_multiplicity
 _atom_site_fract_x
 _atom_site_fract_y
 _atom_site_fract_z
 _atom_site_occupancy
  Al  Al0  1  0.49204000  0.50728000  0.50304000  1.0
  Al  Al1  1  0.99288000  0.50676000  0.50011000  1.0
  H  H2  1  0.71026000  0.65437000  0.41779000  1.0
  H  H3  1  0.28493000  0.35327000  0.56452000  1.0
  H  H4  1  0.61109000  0.11738000  0.54126000  1.0
  H  H5  1  0.37541000  0.89358000  0.45343000  1.0
  H  H6  1  0.16992000  0.34275000  0.23713000  1.0
  H  H7  1  0.44522000  0.32299000  0.77115000  1.0
  C  C8  1  0.35635000  0.50534000  0.27662000  1.0
  C  C9  1  0.13044000  0.73020000  0.50826000  1.0
  C  C10  1  0.63809000  0.50029000  0.72673000  1.0
  C  C11  1  0.85439000  0.28149000  0.49421000  1.0
  C  C12  1  0.06008000  0.87160000  0.49928000  1.0
  C  C13  1  0.92541000  0.13985000  0.50049000  1.0
  C  C14  1  0.84667000  0.93779000  0.51981000  1.0
  C  C15  1  0.13917000  0.07351000  0.47620000  1.0
  C  C16  1  0.77808000  0.06839000  0.52337000  1.0
  C  C17  1  0.20814000  0.94284000  0.47407000  1.0
  C  C18  1  0.42751000  0.50023000  0.13534000  1.0
  C  C19  1  0.36470000  0.41966000  0.07011000  1.0
  C  C20  1  0.56881000  0.56836000  0.06796000  1.0
  C  C21  1  0.23246000  0.34061000  0.13557000  1.0
  C  C22  1  0.18631000  0.25776000  0.07127000  1.0
  C  C23  1  0.57811000  0.49264000  0.86860000  1.0
  C  C24  1  0.64775000  0.56213000  0.93632000  1.0
  C  C25  1  0.44176000  0.41530000  0.93572000  1.0
  C  C26  1  0.38956000  0.32850000  0.87278000  1.0
  C  C27  1  0.26725000  0.25062000  0.93966000  1.0
  N  N28  1  0.68564000  0.87072000  0.52462000  1.0
  N  N29  1  0.30108000  0.14204000  0.46156000  1.0
  N  N30  1  0.79700000  0.63981000  0.87097000  1.0
  N  N31  1  0.63499000  0.65315000  0.13425000  1.0
  N  N32  1  0.06806000  0.16800000  0.14422000  1.0
  N  N33  1  0.21083000  0.16533000  0.86964000  1.0
  O  O34  1  0.50537000  0.48875000  0.33012000  1.0
  O  O35  1  0.98482000  0.67289000  0.53087000  1.0
  O  O36  1  0.83333000  0.48392000  0.67249000  1.0
  O  O37  1  0.65705000  0.33297000  0.51761000  1.0
  O  O38  1  0.48486000  0.52050000  0.67616000  1.0
  O  O39  1  0.99990000  0.33966000  0.46556000  1.0
  O  O40  1  0.15930000  0.52476000  0.32688000  1.0
  O  O41  1  0.32645000  0.67888000  0.49391000  1.0
  O  O42  1  0.73872000  0.56614000  0.44991000  1.0
  O  O43  1  0.24702000  0.44557000  0.55181000  1.0
  O  O44  1  0.55606000  0.85901000  0.62444000  1.0
  O  O45  1  0.68887000  0.83750000  0.42008000  1.0
  O  O46  1  0.30664000  0.18135000  0.56102000  1.0
  O  O47  1  0.42322000  0.15097000  0.35759000  1.0
  O  O48  1  0.71512000  0.75252000  0.84854000  1.0
  O  O49  1  0.98701000  0.58608000  0.84681000  1.0
  O  O50  1  0.82736000  0.63661000  0.11892000  1.0
  O  O51  1  0.49264000  0.73370000  0.19847000  1.0
  O  O52  1  0.91473000  0.20984000  0.23255000  1.0
  O  O53  1  0.13456000  0.05680000  0.11352000  1.0
  O  O54  1  0.35789000  0.09175000  0.80061000  1.0
  O  O55  1  0.01917000  0.17755000  0.88406000  1.0
