# generated using pymatgen
data_CoP2H22C24(NO3)2
_symmetry_space_group_name_H-M   'P 1'
_cell_length_a   10.71450000
_cell_length_b   10.81460000
_cell_length_c   11.19420000
_cell_angle_alpha   82.67280000
_cell_angle_beta   75.73680000
_cell_angle_gamma   62.39700000
_symmetry_Int_Tables_number   1
_chemical_formula_structural   CoP2H22C24(NO3)2
_chemical_formula_sum   'Co2 P4 H44 C48 N4 O12'
_cell_volume   1113.89993397
_cell_formula_units_Z   2
loop_
 _symmetry_equiv_pos_site_id
 _symmetry_equiv_pos_as_xyz
  1  'x, y, z'
loop_
 _atom_site_type_symbol
 _atom_site_label
 _atom_site_symmetry_multiplicity
 _atom_site_fract_x
 _atom_site_fract_y
 _atom_site_fract_z
 _atom_site_occupancy
  Co  Co0  1  0.18950000  0.80533000  0.98464000  1.0
  Co  Co1  1  0.79541000  0.21519000  0.00324000  1.0
  P  P2  1  0.37449000  0.98309000  0.87413000  1.0
  P  P3  1  0.61350000  0.03389000  0.11073000  1.0
  P  P4  1  0.06229000  0.04902000  0.17864000  1.0
  P  P5  1  0.93861000  0.94977000  0.82027000  1.0
  H  H6  1  0.35703000  0.09923000  0.67635000  1.0
  H  H7  1  0.66089000  0.91223000  0.30293000  1.0
  H  H8  1  0.51705000  0.06845000  0.72129000  1.0
  H  H9  1  0.49909000  0.93009000  0.27050000  1.0
  H  H10  1  0.05821000  0.17121000  0.50205000  1.0
  H  H11  1  0.94530000  0.82667000  0.50151000  1.0
  H  H12  1  0.60226000  0.25577000  0.76906000  1.0
  H  H13  1  0.38447000  0.74476000  0.22859000  1.0
  H  H14  1  0.73596000  0.26835000  0.29404000  1.0
  H  H15  1  0.27255000  0.72795000  0.70480000  1.0
  H  H16  1  0.60991000  0.50824000  0.36820000  1.0
  H  H17  1  0.39424000  0.48765000  0.63309000  1.0
  H  H18  1  0.90751000  0.01046000  0.35211000  1.0
  H  H19  1  0.10259000  0.98322000  0.65230000  1.0
  H  H20  1  0.06831000  0.98580000  0.39106000  1.0
  H  H21  1  0.94279000  0.01351000  0.60726000  1.0
  H  H22  1  0.93047000  0.40785000  0.58208000  1.0
  H  H23  1  0.07007000  0.58944000  0.42276000  1.0
  H  H24  1  0.36091000  0.30106000  0.90185000  1.0
  H  H25  1  0.62467000  0.70662000  0.09420000  1.0
  H  H26  1  0.67732000  0.44818000  0.73703000  1.0
  H  H27  1  0.32597000  0.54154000  0.26989000  1.0
  H  H28  1  0.48274000  0.67970000  0.47425000  1.0
  H  H29  1  0.52083000  0.31972000  0.52485000  1.0
  H  H30  1  0.50584000  0.67839000  0.83516000  1.0
  H  H31  1  0.50701000  0.31077000  0.18170000  1.0
  H  H32  1  0.83082000  0.65147000  0.29032000  1.0
  H  H33  1  0.16249000  0.33692000  0.71452000  1.0
  H  H34  1  0.35297000  0.90912000  0.57022000  1.0
  H  H35  1  0.65414000  0.09482000  0.42166000  1.0
  H  H36  1  0.73156000  0.83904000  0.69234000  1.0
  H  H37  1  0.27423000  0.16055000  0.30396000  1.0
  H  H38  1  0.86332000  0.61209000  0.59404000  1.0
  H  H39  1  0.13891000  0.38281000  0.41008000  1.0
  H  H40  1  0.96260000  0.40323000  0.21693000  1.0
  H  H41  1  0.04198000  0.58546000  0.78611000  1.0
  H  H42  1  0.18699000  0.33285000  0.05500000  1.0
  H  H43  1  0.81934000  0.66277000  0.95271000  1.0
  H  H44  1  0.93686000  0.81705000  0.19785000  1.0
  H  H45  1  0.04892000  0.17909000  0.80897000  1.0
  H  H46  1  0.23182000  0.10714000  0.08797000  1.0
  H  H47  1  0.75485000  0.90858000  0.90491000  1.0
  H  H48  1  0.56218000  0.88177000  0.96571000  1.0
  H  H49  1  0.41989000  0.12795000  0.02582000  1.0
  C  C50  1  0.75987000  0.48009000  0.48066000  1.0
  C  C51  1  0.24200000  0.51631000  0.52295000  1.0
  C  C52  1  0.44758000  0.02081000  0.71572000  1.0
  C  C53  1  0.56216000  0.98612000  0.27173000  1.0
  C  C54  1  0.68370000  0.62393000  0.52824000  1.0
  C  C55  1  0.31877000  0.37300000  0.47406000  1.0
  C  C56  1  0.95884000  0.24455000  0.47314000  1.0
  C  C57  1  0.04456000  0.75266000  0.53025000  1.0
  C  C58  1  0.53149000  0.35659000  0.81266000  1.0
  C  C59  1  0.46203000  0.64265000  0.19071000  1.0
  C  C60  1  0.90572000  0.20117000  0.39278000  1.0
  C  C61  1  0.09974000  0.79574000  0.60900000  1.0
  C  C62  1  0.77832000  0.29949000  0.35737000  1.0
  C  C63  1  0.22738000  0.69689000  0.64384000  1.0
  C  C64  1  0.70740000  0.43560000  0.39979000  1.0
  C  C65  1  0.29630000  0.56054000  0.60239000  1.0
  C  C66  1  0.98251000  0.05601000  0.34297000  1.0
  C  C67  1  0.02520000  0.94141000  0.65785000  1.0
  C  C68  1  0.53119000  0.89024000  0.64098000  1.0
  C  C69  1  0.47584000  0.11216000  0.35206000  1.0
  C  C70  1  0.31331000  0.50808000  0.94832000  1.0
  C  C71  1  0.68565000  0.49299000  0.06007000  1.0
  C  C72  1  0.88696000  0.38036000  0.51699000  1.0
  C  C73  1  0.11472000  0.61653000  0.48718000  1.0
  C  C74  1  0.39825000  0.38068000  0.88829000  1.0
  C  C75  1  0.59378000  0.62231000  0.11464000  1.0
  C  C76  1  0.57371000  0.46295000  0.79456000  1.0
  C  C77  1  0.42876000  0.53018000  0.21316000  1.0
  C  C78  1  0.54011000  0.71367000  0.51989000  1.0
  C  C79  1  0.46379000  0.28546000  0.47914000  1.0
  C  C80  1  0.18053000  0.53730000  0.04246000  1.0
  C  C81  1  0.81483000  0.46394000  0.96486000  1.0
  C  C82  1  0.47921000  0.59121000  0.84970000  1.0
  C  C83  1  0.52846000  0.40081000  0.16309000  1.0
  C  C84  1  0.93082000  0.61620000  0.22070000  1.0
  C  C85  1  0.06272000  0.37628000  0.78443000  1.0
  C  C86  1  0.46554000  0.84389000  0.57534000  1.0
  C  C87  1  0.54052000  0.15792000  0.41927000  1.0
  C  C88  1  0.67672000  0.80485000  0.64365000  1.0
  C  C89  1  0.32859000  0.19429000  0.35366000  1.0
  C  C90  1  0.75091000  0.67499000  0.58845000  1.0
  C  C91  1  0.25221000  0.32159000  0.41339000  1.0
  C  C92  1  0.00370000  0.47865000  0.17980000  1.0
  C  C93  1  0.99618000  0.51393000  0.82446000  1.0
  C  C94  1  0.12987000  0.43872000  0.08920000  1.0
  C  C95  1  0.87143000  0.55758000  0.91679000  1.0
  C  C96  1  0.98853000  0.70817000  0.17064000  1.0
  C  C97  1  0.00131000  0.28761000  0.83500000  1.0
  N  N98  1  0.35162000  0.61402000  0.92529000  1.0
  N  N99  1  0.65591000  0.38057000  0.08740000  1.0
  N  N100  1  0.11092000  0.66910000  0.08483000  1.0
  N  N101  1  0.87763000  0.33151000  0.92116000  1.0
  O  O102  1  0.26324000  0.93424000  0.87174000  1.0
  O  O103  1  0.71900000  0.09312000  0.10365000  1.0
  O  O104  1  0.32314000  0.11147000  0.95245000  1.0
  O  O105  1  0.66545000  0.90495000  0.03262000  1.0
  O  O106  1  0.50572000  0.85598000  0.92142000  1.0
  O  O107  1  0.47063000  0.15482000  0.07652000  1.0
  O  O108  1  0.13957000  0.89449000  0.14411000  1.0
  O  O109  1  0.88012000  0.10023000  0.85990000  1.0
  O  O110  1  0.95170000  0.14820000  0.10734000  1.0
  O  O111  1  0.04169000  0.83693000  0.89232000  1.0
  O  O112  1  0.17927000  0.10273000  0.17600000  1.0
  O  O113  1  0.81101000  0.91466000  0.81726000  1.0
