# generated using pymatgen
data_CuH20(C4N3)6
_symmetry_space_group_name_H-M   'P 1'
_cell_length_a   9.27168000
_cell_length_b   11.31790000
_cell_length_c   11.71870000
_cell_angle_alpha   89.99970000
_cell_angle_beta   96.25750000
_cell_angle_gamma   89.99940000
_symmetry_Int_Tables_number   1
_chemical_formula_structural   CuH20(C4N3)6
_chemical_formula_sum   'Cu2 H40 C48 N36'
_cell_volume   1222.38635073
_cell_formula_units_Z   2
loop_
 _symmetry_equiv_pos_site_id
 _symmetry_equiv_pos_as_xyz
  1  'x, y, z'
loop_
 _atom_site_type_symbol
 _atom_site_label
 _atom_site_symmetry_multiplicity
 _atom_site_fract_x
 _atom_site_fract_y
 _atom_site_fract_z
 _atom_site_occupancy
  Cu  Cu0  1  0.00000000  0.00000000  0.00000000  1.0
  Cu  Cu1  1  0.00000000  0.50000000  0.50000000  1.0
  H  H2  1  0.75477000  0.61318000  0.79428000  1.0
  H  H3  1  0.24524000  0.11318000  0.70572000  1.0
  H  H4  1  0.24524000  0.38682000  0.20572000  1.0
  H  H5  1  0.75476000  0.88682000  0.29429000  1.0
  H  H6  1  0.84787000  0.81977000  0.78901000  1.0
  H  H7  1  0.15214000  0.31977000  0.71099000  1.0
  H  H8  1  0.15213000  0.18023000  0.21099000  1.0
  H  H9  1  0.84787000  0.68023000  0.28901000  1.0
  H  H10  1  0.28691000  0.89073000  0.14912000  1.0
  H  H11  1  0.71309000  0.39074000  0.35088000  1.0
  H  H12  1  0.71309000  0.10927000  0.85088000  1.0
  H  H13  1  0.28691000  0.60926000  0.64912000  1.0
  H  H14  1  0.45649000  0.94420000  0.17973000  1.0
  H  H15  1  0.54350000  0.44420000  0.32027000  1.0
  H  H16  1  0.54351000  0.05580000  0.82027000  1.0
  H  H17  1  0.45649000  0.55580000  0.67974000  1.0
  H  H18  1  0.65272000  0.91324000  0.07725000  1.0
  H  H19  1  0.34728000  0.41324000  0.42275000  1.0
  H  H20  1  0.34727000  0.08676000  0.92275000  1.0
  H  H21  1  0.65272000  0.58675000  0.57725000  1.0
  H  H22  1  0.60190000  0.55660000  0.94929000  1.0
  H  H23  1  0.39809000  0.05660000  0.55071000  1.0
  H  H24  1  0.39810000  0.44340000  0.05071000  1.0
  H  H25  1  0.60190000  0.94340000  0.44929000  1.0
  H  H26  1  0.33027000  0.91357000  0.36197000  1.0
  H  H27  1  0.66974000  0.41356000  0.13804000  1.0
  H  H28  1  0.66973000  0.08644000  0.63803000  1.0
  H  H29  1  0.33026000  0.58643000  0.86197000  1.0
  H  H30  1  0.15359000  0.93295000  0.50815000  1.0
  H  H31  1  0.84642000  0.43295000  0.99185000  1.0
  H  H32  1  0.84642000  0.06705000  0.49184000  1.0
  H  H33  1  0.15358000  0.56705000  0.00816000  1.0
  H  H34  1  0.01869000  0.75684000  0.56424000  1.0
  H  H35  1  0.98131000  0.25683000  0.93575000  1.0
  H  H36  1  0.98132000  0.24317000  0.43576000  1.0
  H  H37  1  0.01868000  0.74317000  0.06425000  1.0
  H  H38  1  0.21624000  0.54333000  0.33947000  1.0
  H  H39  1  0.78376000  0.04332000  0.16053000  1.0
  H  H40  1  0.78377000  0.45667000  0.66053000  1.0
  H  H41  1  0.21624000  0.95668000  0.83947000  1.0
  C  C42  1  0.73009000  0.67701000  0.85891000  1.0
  C  C43  1  0.26991000  0.17701000  0.64109000  1.0
  C  C44  1  0.26991000  0.32299000  0.14109000  1.0
  C  C45  1  0.73009000  0.82299000  0.35891000  1.0
  C  C46  1  0.78231000  0.79242000  0.85617000  1.0
  C  C47  1  0.21769000  0.29242000  0.64383000  1.0
  C  C48  1  0.21769000  0.20758000  0.14383000  1.0
  C  C49  1  0.78231000  0.70758000  0.35617000  1.0
  C  C50  1  0.67324000  0.84440000  0.01603000  1.0
  C  C51  1  0.32676000  0.34440000  0.48397000  1.0
  C  C52  1  0.32675000  0.15560000  0.98397000  1.0
  C  C53  1  0.67325000  0.65560000  0.51604000  1.0
  C  C54  1  0.61488000  0.73097000  0.02555000  1.0
  C  C55  1  0.38511000  0.23097000  0.47445000  1.0
  C  C56  1  0.38511000  0.26903000  0.97445000  1.0
  C  C57  1  0.61488000  0.76903000  0.52555000  1.0
  C  C58  1  0.64626000  0.64536000  0.94518000  1.0
  C  C59  1  0.35374000  0.14537000  0.55481000  1.0
  C  C60  1  0.35374000  0.35464000  0.05481000  1.0
  C  C61  1  0.64625000  0.85463000  0.44519000  1.0
  C  C62  1  0.53102000  0.69654000  0.11804000  1.0
  C  C63  1  0.46898000  0.19654000  0.38195000  1.0
  C  C64  1  0.46898000  0.30346000  0.88195000  1.0
  C  C65  1  0.53102000  0.80346000  0.61805000  1.0
  C  C66  1  0.38922000  0.69497000  0.25663000  1.0
  C  C67  1  0.61078000  0.19497000  0.24337000  1.0
  C  C68  1  0.61078000  0.30503000  0.74337000  1.0
  C  C69  1  0.38922000  0.80503000  0.75663000  1.0
  C  C70  1  0.28717000  0.72475000  0.33846000  1.0
  C  C71  1  0.71284000  0.22474000  0.16154000  1.0
  C  C72  1  0.71284000  0.27525000  0.66154000  1.0
  C  C73  1  0.28716000  0.77525000  0.83846000  1.0
  C  C74  1  0.26913000  0.83667000  0.38625000  1.0
  C  C75  1  0.73088000  0.33666000  0.11376000  1.0
  C  C76  1  0.73088000  0.16334000  0.61375000  1.0
  C  C77  1  0.26912000  0.66334000  0.88625000  1.0
  C  C78  1  0.17188000  0.84820000  0.46841000  1.0
  C  C79  1  0.82813000  0.34819000  0.03159000  1.0
  C  C80  1  0.82813000  0.15180000  0.53159000  1.0
  C  C81  1  0.17187000  0.65180000  0.96841000  1.0
  C  C82  1  0.09432000  0.75046000  0.49973000  1.0
  C  C83  1  0.90568000  0.25045000  0.00027000  1.0
  C  C84  1  0.90569000  0.24954000  0.50027000  1.0
  C  C85  1  0.09432000  0.74955000  0.99973000  1.0
  C  C86  1  0.20498000  0.63096000  0.37506000  1.0
  C  C87  1  0.79502000  0.13096000  0.12494000  1.0
  C  C88  1  0.79502000  0.36904000  0.62494000  1.0
  C  C89  1  0.20498000  0.86904000  0.87506000  1.0
  N  N90  1  0.39390000  0.87918000  0.13707000  1.0
  N  N91  1  0.60610000  0.37919000  0.36292000  1.0
  N  N92  1  0.60611000  0.12082000  0.86292000  1.0
  N  N93  1  0.39390000  0.62082000  0.63708000  1.0
  N  N94  1  0.75669000  0.87467000  0.93438000  1.0
  N  N95  1  0.24331000  0.37467000  0.56562000  1.0
  N  N96  1  0.24330000  0.12533000  0.06562000  1.0
  N  N97  1  0.75670000  0.62533000  0.43438000  1.0
  N  N98  1  0.43994000  0.76662000  0.17436000  1.0
  N  N99  1  0.56006000  0.26662000  0.32564000  1.0
  N  N100  1  0.56007000  0.23338000  0.82564000  1.0
  N  N101  1  0.43993000  0.73338000  0.67436000  1.0
  N  N102  1  0.53563000  0.58877000  0.16362000  1.0
  N  N103  1  0.46437000  0.08877000  0.33638000  1.0
  N  N104  1  0.46437000  0.41123000  0.83638000  1.0
  N  N105  1  0.53563000  0.91122000  0.66362000  1.0
  N  N106  1  0.44594000  0.58729000  0.24884000  1.0
  N  N107  1  0.55406000  0.08730000  0.25117000  1.0
  N  N108  1  0.55405000  0.41270000  0.75116000  1.0
  N  N109  1  0.44594000  0.91270000  0.74884000  1.0
  N  N110  1  0.11074000  0.64298000  0.45272000  1.0
  N  N111  1  0.88927000  0.14297000  0.04728000  1.0
  N  N112  1  0.88927000  0.35703000  0.54728000  1.0
  N  N113  1  0.11073000  0.85703000  0.95272000  1.0
  N  N114  1  0.97534000  0.06903000  0.83829000  1.0
  N  N115  1  0.02466000  0.56904000  0.66170000  1.0
  N  N116  1  0.02466000  0.93097000  0.16170000  1.0
  N  N117  1  0.97534000  0.43097000  0.33830000  1.0
  N  N118  1  0.97698000  0.00807000  0.75427000  1.0
  N  N119  1  0.02302000  0.50807000  0.74573000  1.0
  N  N120  1  0.02303000  0.99193000  0.24573000  1.0
  N  N121  1  0.97697000  0.49194000  0.25427000  1.0
  N  N122  1  0.97997000  0.95087000  0.67116000  1.0
  N  N123  1  0.02004000  0.45088000  0.82884000  1.0
  N  N124  1  0.02003000  0.04913000  0.32883000  1.0
  N  N125  1  0.97996000  0.54913000  0.17117000  1.0
