# generated using pymatgen
data_CdH28C32(NO)4
_symmetry_space_group_name_H-M   'P 1'
_cell_length_a   10.29210000
_cell_length_b   12.47700000
_cell_length_c   12.55310000
_cell_angle_alpha   118.34900000
_cell_angle_beta   95.26700000
_cell_angle_gamma   94.36380000
_symmetry_Int_Tables_number   1
_chemical_formula_structural   CdH28C32(NO)4
_chemical_formula_sum   'Cd2 H56 C64 N8 O8'
_cell_volume   1399.45079761
_cell_formula_units_Z   2
loop_
 _symmetry_equiv_pos_site_id
 _symmetry_equiv_pos_as_xyz
  1  'x, y, z'
loop_
 _atom_site_type_symbol
 _atom_site_label
 _atom_site_symmetry_multiplicity
 _atom_site_fract_x
 _atom_site_fract_y
 _atom_site_fract_z
 _atom_site_occupancy
  Cd  Cd0  1  0.23669000  0.67113000  0.79535000  1.0
  Cd  Cd1  1  0.76331000  0.32887000  0.20465000  1.0
  H  H2  1  0.55159000  0.95261000  0.61169000  1.0
  H  H3  1  0.44841000  0.04739000  0.38831000  1.0
  H  H4  1  0.26253000  0.97254000  0.00229000  1.0
  H  H5  1  0.73747000  0.02746000  0.99771000  1.0
  H  H6  1  0.00659000  0.68418000  0.58947000  1.0
  H  H7  1  0.99340000  0.31582000  0.41053000  1.0
  H  H8  1  0.83873000  0.76120000  0.49704000  1.0
  H  H9  1  0.16127000  0.23880000  0.50296000  1.0
  H  H10  1  0.79433000  0.97693000  0.60702000  1.0
  H  H11  1  0.20567000  0.02307000  0.39298000  1.0
  H  H12  1  0.91583000  0.12519000  0.81292000  1.0
  H  H13  1  0.08417000  0.87481000  0.18708000  1.0
  H  H14  1  0.15117000  0.22578000  0.97132000  1.0
  H  H15  1  0.84883000  0.77422000  0.02868000  1.0
  H  H16  1  0.03080000  0.19267000  0.04726000  1.0
  H  H17  1  0.96920000  0.80733000  0.95274000  1.0
  H  H18  1  0.32821000  0.18773000  0.09381000  1.0
  H  H19  1  0.67179000  0.81227000  0.90619000  1.0
  H  H20  1  0.20984000  0.15027000  0.16927000  1.0
  H  H21  1  0.79016000  0.84973000  0.83073000  1.0
  H  H22  1  0.25221000  0.40024000  0.17675000  1.0
  H  H23  1  0.74779000  0.59977000  0.82325000  1.0
  H  H24  1  0.14675000  0.35810000  0.25814000  1.0
  H  H25  1  0.85325000  0.64190000  0.74186000  1.0
  H  H26  1  0.44811000  0.37996000  0.28792000  1.0
  H  H27  1  0.55189000  0.62004000  0.71208000  1.0
  H  H28  1  0.35157000  0.30713000  0.35170000  1.0
  H  H29  1  0.64843000  0.69287000  0.64830000  1.0
  H  H30  1  0.22658000  0.43496000  0.52532000  1.0
  H  H31  1  0.77343000  0.56504000  0.47469000  1.0
  H  H32  1  0.40194000  0.88030000  0.71816000  1.0
  H  H33  1  0.59806000  0.11970000  0.28184000  1.0
  H  H34  1  0.61095000  0.80599000  0.41094000  1.0
  H  H35  1  0.38905000  0.19401000  0.58906000  1.0
  H  H36  1  0.52368000  0.58320000  0.30772000  1.0
  H  H37  1  0.47632000  0.41680000  0.69229000  1.0
  H  H38  1  0.91162000  0.51243000  0.94919000  1.0
  H  H39  1  0.08838000  0.48757000  0.05081000  1.0
  H  H40  1  0.73225000  0.36478000  0.94590000  1.0
  H  H41  1  0.26775000  0.63522000  0.05410000  1.0
  H  H42  1  0.64156000  0.17622000  0.75083000  1.0
  H  H43  1  0.35844000  0.82378000  0.24917000  1.0
  H  H44  1  0.73483000  0.13335000  0.55942000  1.0
  H  H45  1  0.26517000  0.86665000  0.44058000  1.0
  H  H46  1  0.91894000  0.27881000  0.56609000  1.0
  H  H47  1  0.08106000  0.72119000  0.43391000  1.0
  H  H48  1  0.59301000  0.54609000  0.97529000  1.0
  H  H49  1  0.40699000  0.45391000  0.02471000  1.0
  H  H50  1  0.77609000  0.57818000  0.13633000  1.0
  H  H51  1  0.22390000  0.42181000  0.86367000  1.0
  H  H52  1  0.85398000  0.78853000  0.30959000  1.0
  H  H53  1  0.14602000  0.21146000  0.69041000  1.0
  H  H54  1  0.74264000  0.96571000  0.32557000  1.0
  H  H55  1  0.25736000  0.03429000  0.67443000  1.0
  H  H56  1  0.55437000  0.92932000  0.16467000  1.0
  H  H57  1  0.44563000  0.07068000  0.83533000  1.0
  C  C58  1  0.51146000  0.85567000  0.56934000  1.0
  C  C59  1  0.48854000  0.14433000  0.43066000  1.0
  C  C60  1  0.18696000  0.95554000  0.92785000  1.0
  C  C61  1  0.81304000  0.04446000  0.07215000  1.0
  C  C62  1  0.02951000  0.98555000  0.81629000  1.0
  C  C63  1  0.97049000  0.01445000  0.18371000  1.0
  C  C64  1  0.05551000  0.86217000  0.75446000  1.0
  C  C65  1  0.94449000  0.13783000  0.24554000  1.0
  C  C66  1  0.98656000  0.77901000  0.63867000  1.0
  C  C67  1  0.01344000  0.22099000  0.36133000  1.0
  C  C68  1  0.89271000  0.82315000  0.58799000  1.0
  C  C69  1  0.10729000  0.17685000  0.41201000  1.0
  C  C70  1  0.86783000  0.94616000  0.65048000  1.0
  C  C71  1  0.13217000  0.05384000  0.34952000  1.0
  C  C72  1  0.93549000  0.03019000  0.76590000  1.0
  C  C73  1  0.06451000  0.96981000  0.23410000  1.0
  C  C74  1  0.12715000  0.17190000  0.01704000  1.0
  C  C75  1  0.87285000  0.82810000  0.98296000  1.0
  C  C76  1  0.23192000  0.20653000  0.12537000  1.0
  C  C77  1  0.76808000  0.79347000  0.87463000  1.0
  C  C78  1  0.23952000  0.34180000  0.21954000  1.0
  C  C79  1  0.76048000  0.65821000  0.78046000  1.0
  C  C80  1  0.35371000  0.37631000  0.32107000  1.0
  C  C81  1  0.64629000  0.62369000  0.67893000  1.0
  C  C82  1  0.28371000  0.50991000  0.52223000  1.0
  C  C83  1  0.71629000  0.49009000  0.47777000  1.0
  C  C84  1  0.41246000  0.60933000  0.45632000  1.0
  C  C85  1  0.58754000  0.39067000  0.54368000  1.0
  C  C86  1  0.37805000  0.69220000  0.57152000  1.0
  C  C87  1  0.62195000  0.30780000  0.42848000  1.0
  C  C88  1  0.42762000  0.81713000  0.62924000  1.0
  C  C89  1  0.57238000  0.18287000  0.37076000  1.0
  C  C90  1  0.54571000  0.77214000  0.45525000  1.0
  C  C91  1  0.45429000  0.22786000  0.54475000  1.0
  C  C92  1  0.49712000  0.64722000  0.39613000  1.0
  C  C93  1  0.50288000  0.35278000  0.60387000  1.0
  C  C94  1  0.03606000  0.49213000  0.76094000  1.0
  C  C95  1  0.96394000  0.50787000  0.23906000  1.0
  C  C96  1  0.92666000  0.40421000  0.75815000  1.0
  C  C97  1  0.07334000  0.59580000  0.24185000  1.0
  C  C98  1  0.87288000  0.42844000  0.86471000  1.0
  C  C99  1  0.12712000  0.57156000  0.13529000  1.0
  C  C100  1  0.77163000  0.34599000  0.86207000  1.0
  C  C101  1  0.22837000  0.65401000  0.13793000  1.0
  C  C102  1  0.72203000  0.23941000  0.75245000  1.0
  C  C103  1  0.27797000  0.76060000  0.24754000  1.0
  C  C104  1  0.77490000  0.21507000  0.64576000  1.0
  C  C105  1  0.22510000  0.78493000  0.35424000  1.0
  C  C106  1  0.87705000  0.29669000  0.64855000  1.0
  C  C107  1  0.12295000  0.70331000  0.35145000  1.0
  C  C108  1  0.45215000  0.71753000  0.96535000  1.0
  C  C109  1  0.54785000  0.28247000  0.03465000  1.0
  C  C110  1  0.56353000  0.73633000  0.06094000  1.0
  C  C111  1  0.43647000  0.26366000  0.93905000  1.0
  C  C112  1  0.62610000  0.63733000  0.05274000  1.0
  C  C113  1  0.37390000  0.36267000  0.94726000  1.0
  C  C114  1  0.72914000  0.65599000  0.14278000  1.0
  C  C115  1  0.27086000  0.34401000  0.85722000  1.0
  C  C116  1  0.77178000  0.77407000  0.24066000  1.0
  C  C117  1  0.22822000  0.22593000  0.75934000  1.0
  C  C118  1  0.70945000  0.87339000  0.24947000  1.0
  C  C119  1  0.29055000  0.12661000  0.75053000  1.0
  C  C120  1  0.60530000  0.85423000  0.16037000  1.0
  C  C121  1  0.39470000  0.14577000  0.83962000  1.0
  N  N122  1  0.15418000  0.84700000  0.82729000  1.0
  N  N123  1  0.84582000  0.15300000  0.17271000  1.0
  N  N124  1  0.11473000  0.04177000  0.92613000  1.0
  N  N125  1  0.88527000  0.95822000  0.07387000  1.0
  N  N126  1  0.35034000  0.49442000  0.42857000  1.0
  N  N127  1  0.64966000  0.50558000  0.57143000  1.0
  N  N128  1  0.29785000  0.62639000  0.60988000  1.0
  N  N129  1  0.70215000  0.37361000  0.39013000  1.0
  O  O130  1  0.07387000  0.59244000  0.86217000  1.0
  O  O131  1  0.92613000  0.40756000  0.13783000  1.0
  O  O132  1  0.08846000  0.46587000  0.66513000  1.0
  O  O133  1  0.91154000  0.53413000  0.33487000  1.0
  O  O134  1  0.42276000  0.61122000  0.87020000  1.0
  O  O135  1  0.57723000  0.38878000  0.12980000  1.0
  O  O136  1  0.38954000  0.80736000  0.98218000  1.0
  O  O137  1  0.61047000  0.19264000  0.01782000  1.0
