# generated using pymatgen
data_CuH7C10IN2
_symmetry_space_group_name_H-M   'P 1'
_cell_length_a   9.27928000
_cell_length_b   9.79975000
_cell_length_c   11.25640000
_cell_angle_alpha   70.43160000
_cell_angle_beta   82.78470000
_cell_angle_gamma   89.52710000
_symmetry_Int_Tables_number   1
_chemical_formula_structural   CuH7C10IN2
_chemical_formula_sum   'Cu4 H28 C40 I4 N8'
_cell_volume   956.21225997
_cell_formula_units_Z   4
loop_
 _symmetry_equiv_pos_site_id
 _symmetry_equiv_pos_as_xyz
  1  'x, y, z'
loop_
 _atom_site_type_symbol
 _atom_site_label
 _atom_site_symmetry_multiplicity
 _atom_site_fract_x
 _atom_site_fract_y
 _atom_site_fract_z
 _atom_site_occupancy
  Cu  Cu0  1  0.23706000  0.23177000  0.25646000  1.0
  Cu  Cu1  1  0.76293000  0.76823000  0.74354000  1.0
  Cu  Cu2  1  0.32738000  0.47293000  0.07297000  1.0
  Cu  Cu3  1  0.67262000  0.52706000  0.92702000  1.0
  H  H4  1  0.87587000  0.26342000  0.63427000  1.0
  H  H5  1  0.12414000  0.73660000  0.36573000  1.0
  H  H6  1  0.43810000  0.73859000  0.50559000  1.0
  H  H7  1  0.56189000  0.26142000  0.49442000  1.0
  H  H8  1  0.59537000  0.86658000  0.10638000  1.0
  H  H9  1  0.40464000  0.13341000  0.89363000  1.0
  H  H10  1  0.58233000  0.68487000  0.32524000  1.0
  H  H11  1  0.41766000  0.31513000  0.67477000  1.0
  H  H12  1  0.35707000  0.82561000  0.64632000  1.0
  H  H13  1  0.64293000  0.17439000  0.35368000  1.0
  H  H14  1  0.12518000  0.06662000  0.89793000  1.0
  H  H15  1  0.87482000  0.93338000  0.10207000  1.0
  H  H16  1  0.26393000  0.67606000  0.82511000  1.0
  H  H17  1  0.73607000  0.32394000  0.17489000  1.0
  H  H18  1  0.02796000  0.11049000  0.72134000  1.0
  H  H19  1  0.97203000  0.88951000  0.27867000  1.0
  H  H20  1  0.46442000  0.10071000  0.07748000  1.0
  H  H21  1  0.53558000  0.89929000  0.92252000  1.0
  H  H22  1  0.80852000  0.59299000  0.28062000  1.0
  H  H23  1  0.19149000  0.40702000  0.71939000  1.0
  H  H24  1  0.01044000  0.49020000  0.17315000  1.0
  H  H25  1  0.98956000  0.50980000  0.82685000  1.0
  H  H26  1  0.74238000  0.47859000  0.52011000  1.0
  H  H27  1  0.25763000  0.52142000  0.47989000  1.0
  H  H28  1  0.16263000  0.94544000  0.12190000  1.0
  H  H29  1  0.83736000  0.05455000  0.87810000  1.0
  H  H30  1  0.26112000  0.69312000  0.18687000  1.0
  H  H31  1  0.73889000  0.30687000  0.81312000  1.0
  C  C32  1  0.90487000  0.31746000  0.53247000  1.0
  C  C33  1  0.09513000  0.68255000  0.46754000  1.0
  C  C34  1  0.18882000  0.95473000  0.70309000  1.0
  C  C35  1  0.81118000  0.04527000  0.29691000  1.0
  C  C36  1  0.27933000  0.98388000  0.48473000  1.0
  C  C37  1  0.72066000  0.01612000  0.51526000  1.0
  C  C38  1  0.37250000  0.94638000  0.38477000  1.0
  C  C39  1  0.62750000  0.05362000  0.61523000  1.0
  C  C40  1  0.44559000  0.81628000  0.40941000  1.0
  C  C41  1  0.55441000  0.18373000  0.59059000  1.0
  C  C42  1  0.53295000  0.88758000  0.18674000  1.0
  C  C43  1  0.46705000  0.11242000  0.81326000  1.0
  C  C44  1  0.52697000  0.78671000  0.30904000  1.0
  C  C45  1  0.47303000  0.21330000  0.69097000  1.0
  C  C46  1  0.10443000  0.14062000  0.52484000  1.0
  C  C47  1  0.89556000  0.85938000  0.47516000  1.0
  C  C48  1  0.28094000  0.91167000  0.61435000  1.0
  C  C49  1  0.71906000  0.08833000  0.38565000  1.0
  C  C50  1  0.19359000  0.88308000  0.84012000  1.0
  C  C51  1  0.80641000  0.11692000  0.15987000  1.0
  C  C52  1  0.16034000  0.95523000  0.92801000  1.0
  C  C53  1  0.83966000  0.04477000  0.07199000  1.0
  C  C54  1  0.24099000  0.74089000  0.88679000  1.0
  C  C55  1  0.75900000  0.25910000  0.11321000  1.0
  C  C56  1  0.01740000  0.26665000  0.46501000  1.0
  C  C57  1  0.98260000  0.73336000  0.53499000  1.0
  C  C58  1  0.09997000  0.07251000  0.65586000  1.0
  C  C59  1  0.90003000  0.92749000  0.34414000  1.0
  C  C60  1  0.46006000  0.01618000  0.17047000  1.0
  C  C61  1  0.53994000  0.98382000  0.82953000  1.0
  C  C62  1  0.86555000  0.50083000  0.33670000  1.0
  C  C63  1  0.13445000  0.49917000  0.66330000  1.0
  C  C64  1  0.97866000  0.44401000  0.27588000  1.0
  C  C65  1  0.02134000  0.55598000  0.72412000  1.0
  C  C66  1  0.82893000  0.43689000  0.46800000  1.0
  C  C67  1  0.17107000  0.56311000  0.53200000  1.0
  C  C68  1  0.18119000  0.88720000  0.05438000  1.0
  C  C69  1  0.81881000  0.11279000  0.94562000  1.0
  C  C70  1  0.23567000  0.74893000  0.09076000  1.0
  C  C71  1  0.76434000  0.25107000  0.90924000  1.0
  I  I72  1  0.18259000  0.28992000  0.01873000  1.0
  I  I73  1  0.81740000  0.71008000  0.98126000  1.0
  I  I74  1  0.45630000  0.42672000  0.26606000  1.0
  I  I75  1  0.54370000  0.57328000  0.73393000  1.0
  N  N76  1  0.38158000  0.04598000  0.26651000  1.0
  N  N77  1  0.61842000  0.95403000  0.73348000  1.0
  N  N78  1  0.19126000  0.09488000  0.44118000  1.0
  N  N79  1  0.80873000  0.90513000  0.55882000  1.0
  N  N80  1  0.05439000  0.33141000  0.33810000  1.0
  N  N81  1  0.94561000  0.66859000  0.66190000  1.0
  N  N82  1  0.26397000  0.67591000  0.00816000  1.0
  N  N83  1  0.73603000  0.32408000  0.99183000  1.0
