# generated using pymatgen
data_CuH32C24S2(N2O)4
_symmetry_space_group_name_H-M   'P 1'
_cell_length_a   7.36777000
_cell_length_b   9.34849000
_cell_length_c   10.35950000
_cell_angle_alpha   79.64810000
_cell_angle_beta   89.69360000
_cell_angle_gamma   75.39500000
_symmetry_Int_Tables_number   1
_chemical_formula_structural   CuH32C24S2(N2O)4
_chemical_formula_sum   'Cu1 H32 C24 S2 N8 O4'
_cell_volume   678.64234791
_cell_formula_units_Z   1
loop_
 _symmetry_equiv_pos_site_id
 _symmetry_equiv_pos_as_xyz
  1  'x, y, z'
loop_
 _atom_site_type_symbol
 _atom_site_label
 _atom_site_symmetry_multiplicity
 _atom_site_fract_x
 _atom_site_fract_y
 _atom_site_fract_z
 _atom_site_occupancy
  Cu  Cu0  1  0.00000000  0.50000000  0.00000000  1.0
  H  H1  1  0.77322000  0.72365000  0.52840000  1.0
  H  H2  1  0.22677000  0.27635000  0.47160000  1.0
  H  H3  1  0.05978000  0.59364000  0.25002000  1.0
  H  H4  1  0.94023000  0.40635000  0.74998000  1.0
  H  H5  1  0.61386000  0.49800000  0.07166000  1.0
  H  H6  1  0.38615000  0.50199000  0.92834000  1.0
  H  H7  1  0.40189000  0.56651000  0.25549000  1.0
  H  H8  1  0.59812000  0.43348000  0.74451000  1.0
  H  H9  1  0.52669000  0.65684000  0.43901000  1.0
  H  H10  1  0.47330000  0.34316000  0.56098000  1.0
  H  H11  1  0.20016000  0.72327000  0.64600000  1.0
  H  H12  1  0.79984000  0.27673000  0.35400000  1.0
  H  H13  1  0.95304000  0.79269000  0.65715000  1.0
  H  H14  1  0.04696000  0.20732000  0.34286000  1.0
  H  H15  1  0.12244000  0.99661000  0.62119000  1.0
  H  H16  1  0.87756000  0.00340000  0.37881000  1.0
  H  H17  1  0.20931000  0.94254000  0.47359000  1.0
  H  H18  1  0.79068000  0.05747000  0.52640000  1.0
  H  H19  1  0.74155000  0.18877000  0.13097000  1.0
  H  H20  1  0.25845000  0.81124000  0.86902000  1.0
  H  H21  1  0.67118000  0.02494000  0.80345000  1.0
  H  H22  1  0.32883000  0.97505000  0.19655000  1.0
  H  H23  1  0.91764000  0.97143000  0.83510000  1.0
  H  H24  1  0.08237000  0.02858000  0.16489000  1.0
  H  H25  1  0.79881000  0.16653000  0.78725000  1.0
  H  H26  1  0.20118000  0.83347000  0.21275000  1.0
  H  H27  1  0.62391000  0.89697000  0.03217000  1.0
  H  H28  1  0.37608000  0.10304000  0.96782000  1.0
  H  H29  1  0.69756000  0.96836000  0.16637000  1.0
  H  H30  1  0.30243000  0.03165000  0.83363000  1.0
  H  H31  1  0.86540000  0.84824000  0.08077000  1.0
  H  H32  1  0.13459000  0.15176000  0.91924000  1.0
  C  C33  1  0.30194000  0.28571000  0.20204000  1.0
  C  C34  1  0.69806000  0.71428000  0.79797000  1.0
  C  C35  1  0.80423000  0.63414000  0.35953000  1.0
  C  C36  1  0.19577000  0.36585000  0.64048000  1.0
  C  C37  1  0.91414000  0.58964000  0.25539000  1.0
  C  C38  1  0.08586000  0.41034000  0.74462000  1.0
  C  C39  1  0.66174000  0.53597000  0.15553000  1.0
  C  C40  1  0.33827000  0.46402000  0.84447000  1.0
  C  C41  1  0.54647000  0.57410000  0.25750000  1.0
  C  C42  1  0.45353000  0.42590000  0.74249000  1.0
  C  C43  1  0.61696000  0.62463000  0.35979000  1.0
  C  C44  1  0.38304000  0.37537000  0.64021000  1.0
  C  C45  1  0.04644000  0.71019000  0.47888000  1.0
  C  C46  1  0.95356000  0.28980000  0.52113000  1.0
  C  C47  1  0.06996000  0.78895000  0.59065000  1.0
  C  C48  1  0.93004000  0.21106000  0.40935000  1.0
  C  C49  1  0.08852000  0.94873000  0.53745000  1.0
  C  C50  1  0.91147000  0.05128000  0.46255000  1.0
  C  C51  1  0.77103000  0.19542000  0.02525000  1.0
  C  C52  1  0.22897000  0.80458000  0.97475000  1.0
  C  C53  1  0.78856000  0.05844000  0.84370000  1.0
  C  C54  1  0.21144000  0.94156000  0.15630000  1.0
  C  C55  1  0.73547000  0.93895000  0.07014000  1.0
  C  C56  1  0.26453000  0.06105000  0.92986000  1.0
  S  S57  1  0.45133000  0.18783000  0.31952000  1.0
  S  S58  1  0.54866000  0.81217000  0.68048000  1.0
  N  N59  1  0.19087000  0.35394000  0.11654000  1.0
  N  N60  1  0.80912000  0.64607000  0.88346000  1.0
  N  N61  1  0.84102000  0.54401000  0.15639000  1.0
  N  N62  1  0.15899000  0.45598000  0.84361000  1.0
  N  N63  1  0.87090000  0.68937000  0.46141000  1.0
  N  N64  1  0.12910000  0.31062000  0.53859000  1.0
  N  N65  1  0.75947000  0.07109000  0.98051000  1.0
  N  N66  1  0.24054000  0.92892000  0.01949000  1.0
  O  O67  1  0.17730000  0.67208000  0.40633000  1.0
  O  O68  1  0.82270000  0.32791000  0.59368000  1.0
  O  O69  1  0.80759000  0.30837000  0.95778000  1.0
  O  O70  1  0.19243000  0.69164000  0.04221000  1.0
