# generated using pymatgen
data_ZnH17C18(NO2)2
_symmetry_space_group_name_H-M   'P 1'
_cell_length_a   11.22640000
_cell_length_b   13.96200000
_cell_length_c   15.37980000
_cell_angle_alpha   92.10190000
_cell_angle_beta   93.47660000
_cell_angle_gamma   90.29330000
_symmetry_Int_Tables_number   1
_chemical_formula_structural   ZnH17C18(NO2)2
_chemical_formula_sum   'Zn2 H34 C36 N4 O8'
_cell_volume   2404.55532032
_cell_formula_units_Z   2
loop_
 _symmetry_equiv_pos_site_id
 _symmetry_equiv_pos_as_xyz
  1  'x, y, z'
loop_
 _atom_site_type_symbol
 _atom_site_label
 _atom_site_symmetry_multiplicity
 _atom_site_fract_x
 _atom_site_fract_y
 _atom_site_fract_z
 _atom_site_occupancy
  Zn  Zn0  1  0.49711000  0.40144000  0.49782000  1.0
  Zn  Zn1  1  0.49931000  0.60110000  0.50027000  1.0
  H  H2  1  0.89023000  0.64752000  0.50439000  1.0
  H  H3  1  0.11101000  0.64669000  0.51905000  1.0
  H  H4  1  0.59257000  0.25489000  0.61795000  1.0
  H  H5  1  0.40186000  0.24339000  0.37938000  1.0
  H  H6  1  0.90187000  0.42868000  0.52101000  1.0
  H  H7  1  0.09174000  0.42907000  0.48112000  1.0
  H  H8  1  0.65320000  0.40370000  0.06479000  1.0
  H  H9  1  0.31244000  0.50912000  0.93023000  1.0
  H  H10  1  0.35085000  0.59180000  0.05325000  1.0
  H  H11  1  0.69608000  0.49408000  0.94836000  1.0
  H  H12  1  0.32158000  0.92957000  0.43594000  1.0
  H  H13  1  0.67746000  0.93662000  0.56075000  1.0
  H  H14  1  0.33011000  0.75008000  0.43871000  1.0
  H  H15  1  0.66951000  0.75686000  0.55838000  1.0
  H  H16  1  0.59843000  0.07555000  0.62351000  1.0
  H  H17  1  0.39917000  0.06378000  0.37352000  1.0
  H  H18  1  0.71137000  0.23528000  0.27235000  1.0
  H  H19  1  0.55786000  0.26734000  0.27062000  1.0
  H  H20  1  0.62746000  0.24488000  0.17098000  1.0
  H  H21  1  0.75937000  0.38990000  0.20461000  1.0
  H  H22  1  0.69094000  0.41052000  0.30388000  1.0
  H  H23  1  0.13701000  0.42318000  0.69668000  1.0
  H  H24  1  0.28298000  0.37539000  0.69096000  1.0
  H  H25  1  0.21205000  0.37688000  0.79142000  1.0
  H  H26  1  0.21559000  0.55830000  0.79453000  1.0
  H  H27  1  0.28906000  0.55585000  0.69636000  1.0
  H  H28  1  0.27514000  0.64128000  0.17379000  1.0
  H  H29  1  0.16956000  0.51223000  0.23894000  1.0
  H  H30  1  0.19105000  0.61347000  0.31338000  1.0
  H  H31  1  0.28501000  0.51335000  0.32319000  1.0
  H  H32  1  0.78880000  0.47190000  0.82137000  1.0
  H  H33  1  0.78190000  0.64269000  0.78804000  1.0
  H  H34  1  0.69681000  0.60712000  0.69041000  1.0
  H  H35  1  0.84632000  0.56824000  0.70585000  1.0
  C  C36  1  0.49300000  0.49305000  0.32817000  1.0
  C  C37  1  0.50421000  0.50370000  0.67015000  1.0
  C  C38  1  0.50235000  0.49805000  0.04719000  1.0
  C  C39  1  0.50394000  0.49960000  0.95117000  1.0
  C  C40  1  0.40120000  0.89451000  0.46310000  1.0
  C  C41  1  0.59780000  0.89854000  0.53394000  1.0
  C  C42  1  0.40458000  0.79512000  0.46464000  1.0
  C  C43  1  0.59464000  0.79902000  0.53278000  1.0
  C  C44  1  0.49934000  0.94854000  0.49856000  1.0
  C  C45  1  0.55494000  0.10947000  0.56747000  1.0
  C  C46  1  0.44208000  0.10290000  0.42960000  1.0
  C  C47  1  0.55200000  0.20886000  0.56530000  1.0
  C  C48  1  0.44350000  0.20241000  0.43188000  1.0
  C  C49  1  0.49890000  0.05421000  0.49856000  1.0
  C  C50  1  0.26351000  0.50362000  0.49528000  1.0
  C  C51  1  0.73263000  0.50477000  0.50880000  1.0
  C  C52  1  0.93491000  0.57827000  0.50883000  1.0
  C  C53  1  0.06409000  0.57801000  0.50832000  1.0
  C  C54  1  0.86468000  0.50026000  0.51414000  1.0
  C  C55  1  0.13157000  0.50001000  0.49396000  1.0
  C  C56  1  0.58515000  0.44494000  0.09712000  1.0
  C  C57  1  0.39749000  0.50788000  0.89935000  1.0
  C  C58  1  0.58127000  0.44136000  0.18771000  1.0
  C  C59  1  0.39647000  0.51194000  0.80859000  1.0
  C  C60  1  0.49246000  0.49259000  0.23049000  1.0
  C  C61  1  0.50531000  0.50652000  0.76811000  1.0
  C  C62  1  0.40823000  0.54737000  0.18131000  1.0
  C  C63  1  0.61394000  0.49954000  0.81863000  1.0
  C  C64  1  0.41534000  0.54890000  0.09069000  1.0
  C  C65  1  0.61149000  0.49587000  0.90942000  1.0
  C  C66  1  0.67472000  0.38257000  0.23649000  1.0
  C  C67  1  0.64094000  0.27601000  0.23757000  1.0
  C  C68  1  0.27835000  0.51663000  0.75614000  1.0
  C  C69  1  0.22436000  0.41701000  0.73239000  1.0
  C  C70  1  0.23706000  0.55795000  0.27603000  1.0
  C  C71  1  0.76431000  0.58331000  0.73913000  1.0
  N  N72  1  0.49955000  0.74835000  0.49906000  1.0
  N  N73  1  0.49739000  0.25428000  0.49853000  1.0
  N  N74  1  0.32004000  0.60255000  0.21980000  1.0
  N  N75  1  0.72390000  0.49534000  0.77826000  1.0
  O  O76  1  0.48465000  0.41231000  0.36382000  1.0
  O  O77  1  0.50603000  0.42139000  0.63212000  1.0
  O  O78  1  0.50271000  0.57407000  0.36872000  1.0
  O  O79  1  0.49895000  0.58367000  0.63287000  1.0
  O  O80  1  0.31507000  0.42230000  0.49558000  1.0
  O  O81  1  0.67875000  0.42384000  0.50022000  1.0
  O  O82  1  0.31515000  0.58531000  0.49546000  1.0
  O  O83  1  0.68317000  0.58676000  0.51216000  1.0
