# generated using pymatgen
data_AgH14C14S4N5O3
_symmetry_space_group_name_H-M   'P 1'
_cell_length_a   9.43860000
_cell_length_b   9.43861000
_cell_length_c   11.32770000
_cell_angle_alpha   89.87070000
_cell_angle_beta   89.87130000
_cell_angle_gamma   112.23100000
_symmetry_Int_Tables_number   1
_chemical_formula_structural   AgH14C14S4N5O3
_chemical_formula_sum   'Ag2 H28 C28 S8 N10 O6'
_cell_volume   934.13176615
_cell_formula_units_Z   2
loop_
 _symmetry_equiv_pos_site_id
 _symmetry_equiv_pos_as_xyz
  1  'x, y, z'
loop_
 _atom_site_type_symbol
 _atom_site_label
 _atom_site_symmetry_multiplicity
 _atom_site_fract_x
 _atom_site_fract_y
 _atom_site_fract_z
 _atom_site_occupancy
  Ag  Ag0  1  0.08438000  0.91562000  0.75000000  1.0
  Ag  Ag1  1  0.91562000  0.08438000  0.25000000  1.0
  H  H2  1  0.52738000  0.87268000  0.92168000  1.0
  H  H3  1  0.87267000  0.52738000  0.42168000  1.0
  H  H4  1  0.47262000  0.12732000  0.07832000  1.0
  H  H5  1  0.12732000  0.47262000  0.57832000  1.0
  H  H6  1  0.56900000  0.92292000  0.07393000  1.0
  H  H7  1  0.92291000  0.56900000  0.57393000  1.0
  H  H8  1  0.43100000  0.07709000  0.92607000  1.0
  H  H9  1  0.07708000  0.43099000  0.42606000  1.0
  H  H10  1  0.47399000  0.72802000  0.03309000  1.0
  H  H11  1  0.72802000  0.47398000  0.53309000  1.0
  H  H12  1  0.52602000  0.27198000  0.96691000  1.0
  H  H13  1  0.27198000  0.52601000  0.46691000  1.0
  H  H14  1  0.04839000  0.75539000  0.23650000  1.0
  H  H15  1  0.75538000  0.04838000  0.73650000  1.0
  H  H16  1  0.95162000  0.24462000  0.76350000  1.0
  H  H17  1  0.24462000  0.95163000  0.26350000  1.0
  H  H18  1  0.98292000  0.56260000  0.18460000  1.0
  H  H19  1  0.56260000  0.98292000  0.68460000  1.0
  H  H20  1  0.01707000  0.43741000  0.81540000  1.0
  H  H21  1  0.43741000  0.01708000  0.31541000  1.0
  H  H22  1  0.15564000  0.43587000  0.14263000  1.0
  H  H23  1  0.43585000  0.15561000  0.64265000  1.0
  H  H24  1  0.84435000  0.56413000  0.85736000  1.0
  H  H25  1  0.56414000  0.84437000  0.35737000  1.0
  H  H26  1  0.39799000  0.40036000  0.19409000  1.0
  H  H27  1  0.40034000  0.39796000  0.69409000  1.0
  H  H28  1  0.60200000  0.59963000  0.80591000  1.0
  H  H29  1  0.59964000  0.60201000  0.30591000  1.0
  C  C30  1  0.56188000  0.83783000  0.00572000  1.0
  C  C31  1  0.83783000  0.56188000  0.50572000  1.0
  C  C32  1  0.43813000  0.16217000  0.99428000  1.0
  C  C33  1  0.16217000  0.43812000  0.49428000  1.0
  C  C34  1  0.71259000  0.82498000  0.98998000  1.0
  C  C35  1  0.82498000  0.71259000  0.48999000  1.0
  C  C36  1  0.28741000  0.17503000  0.01001000  1.0
  C  C37  1  0.17502000  0.28741000  0.51001000  1.0
  C  C38  1  0.95020000  0.78586000  0.00339000  1.0
  C  C39  1  0.78586000  0.95020000  0.50339000  1.0
  C  C40  1  0.04980000  0.21415000  0.99661000  1.0
  C  C41  1  0.21415000  0.04980000  0.49661000  1.0
  C  C42  1  0.07834000  0.67454000  0.18215000  1.0
  C  C43  1  0.67453000  0.07833000  0.68216000  1.0
  C  C44  1  0.92166000  0.32547000  0.81785000  1.0
  C  C45  1  0.32547000  0.92167000  0.31785000  1.0
  C  C46  1  0.22448000  0.65886000  0.21976000  1.0
  C  C47  1  0.65886000  0.22447000  0.71977000  1.0
  C  C48  1  0.77552000  0.34112000  0.78023000  1.0
  C  C49  1  0.34114000  0.77553000  0.28023000  1.0
  C  C50  1  0.24712000  0.52513000  0.18900000  1.0
  C  C51  1  0.52511000  0.24709000  0.68901000  1.0
  C  C52  1  0.75288000  0.47488000  0.81100000  1.0
  C  C53  1  0.47488000  0.75289000  0.31100000  1.0
  C  C54  1  0.38132000  0.50447000  0.21869000  1.0
  C  C55  1  0.50445000  0.38131000  0.71871000  1.0
  C  C56  1  0.61866000  0.49552000  0.78130000  1.0
  C  C57  1  0.49554000  0.61869000  0.28130000  1.0
  S  S58  1  0.79473000  0.74602000  0.09658000  1.0
  S  S59  1  0.74602000  0.79474000  0.59658000  1.0
  S  S60  1  0.20527000  0.25398000  0.90342000  1.0
  S  S61  1  0.25398000  0.20526000  0.40342000  1.0
  S  S62  1  0.11017000  0.74429000  0.02948000  1.0
  S  S63  1  0.74429000  0.11017000  0.52949000  1.0
  S  S64  1  0.88984000  0.25572000  0.97052000  1.0
  S  S65  1  0.25571000  0.88983000  0.47052000  1.0
  N  N66  1  0.79871000  0.87330000  0.89607000  1.0
  N  N67  1  0.87330000  0.79871000  0.39607000  1.0
  N  N68  1  0.20129000  0.12670000  0.10393000  1.0
  N  N69  1  0.12670000  0.20129000  0.60393000  1.0
  N  N70  1  0.93365000  0.85146000  0.90323000  1.0
  N  N71  1  0.85146000  0.93366000  0.40323000  1.0
  N  N72  1  0.06635000  0.14855000  0.09676000  1.0
  N  N73  1  0.14854000  0.06634000  0.59677000  1.0
  N  N74  1  0.27487000  0.72513000  0.75000000  1.0
  N  N75  1  0.72514000  0.27488000  0.24999000  1.0
  O  O76  1  0.13189000  0.66624000  0.72530000  1.0
  O  O77  1  0.66625000  0.13189000  0.22530000  1.0
  O  O78  1  0.86812000  0.33376000  0.27469000  1.0
  O  O79  1  0.33375000  0.86811000  0.77469000  1.0
  O  O80  1  0.35467000  0.64534000  0.75000000  1.0
  O  O81  1  0.64534000  0.35467000  0.25000000  1.0
