# generated using pymatgen
data_Zn3H42C54(NO6)2
_symmetry_space_group_name_H-M   'P 1'
_cell_length_a   10.29140000
_cell_length_b   10.91530000
_cell_length_c   12.96460000
_cell_angle_alpha   75.73000000
_cell_angle_beta   67.27500000
_cell_angle_gamma   63.91420000
_symmetry_Int_Tables_number   1
_chemical_formula_structural   Zn3H42C54(NO6)2
_chemical_formula_sum   'Zn3 H42 C54 N2 O12'
_cell_volume   1201.29817197
_cell_formula_units_Z   1
loop_
 _symmetry_equiv_pos_site_id
 _symmetry_equiv_pos_as_xyz
  1  'x, y, z'
loop_
 _atom_site_type_symbol
 _atom_site_label
 _atom_site_symmetry_multiplicity
 _atom_site_fract_x
 _atom_site_fract_y
 _atom_site_fract_z
 _atom_site_occupancy
  Zn  Zn0  1  0.29720000  0.03629000  0.28166000  1.0
  Zn  Zn1  1  0.70280000  0.96370000  0.71834000  1.0
  Zn  Zn2  1  0.00000000  0.00000000  0.50000000  1.0
  H  H3  1  0.48557000  0.17960000  0.26885000  1.0
  H  H4  1  0.51442000  0.82040000  0.73114000  1.0
  H  H5  1  0.73665000  0.19225000  0.14843000  1.0
  H  H6  1  0.26334000  0.80776000  0.85157000  1.0
  H  H7  1  0.79191000  0.89602000  0.95123000  1.0
  H  H8  1  0.20808000  0.10398000  0.04877000  1.0
  H  H9  1  0.54004000  0.89187000  0.08304000  1.0
  H  H10  1  0.45995000  0.10813000  0.91696000  1.0
  H  H11  1  0.93689000  0.14944000  0.95158000  1.0
  H  H12  1  0.06310000  0.85057000  0.04843000  1.0
  H  H13  1  0.97704000  0.00462000  0.88817000  1.0
  H  H14  1  0.02295000  0.99538000  0.11183000  1.0
  H  H15  1  0.05183000  0.19357000  0.71960000  1.0
  H  H16  1  0.94817000  0.80643000  0.28040000  1.0
  H  H17  1  0.10703000  0.31549000  0.82772000  1.0
  H  H18  1  0.89297000  0.68451000  0.17227000  1.0
  H  H19  1  0.35010000  0.35255000  0.75117000  1.0
  H  H20  1  0.64991000  0.64745000  0.24883000  1.0
  H  H21  1  0.53828000  0.26737000  0.56853000  1.0
  H  H22  1  0.46172000  0.73262000  0.43147000  1.0
  H  H23  1  0.47865000  0.15080000  0.45960000  1.0
  H  H24  1  0.52135000  0.84920000  0.54040000  1.0
  H  H25  1  0.69421000  0.29593000  0.37884000  1.0
  H  H26  1  0.30579000  0.70409000  0.62116000  1.0
  H  H27  1  0.49036000  0.45031000  0.29269000  1.0
  H  H28  1  0.50965000  0.54969000  0.70732000  1.0
  H  H29  1  0.56222000  0.55052000  0.09484000  1.0
  H  H30  1  0.43778000  0.44948000  0.90516000  1.0
  H  H31  1  0.83744000  0.49468000  0.98267000  1.0
  H  H32  1  0.16257000  0.50532000  0.01733000  1.0
  H  H33  1  0.03853000  0.34021000  0.07005000  1.0
  H  H34  1  0.96147000  0.65979000  0.92995000  1.0
  H  H35  1  0.28149000  0.67962000  0.12937000  1.0
  H  H36  1  0.71851000  0.32038000  0.87063000  1.0
  H  H37  1  0.24628000  0.45841000  0.16004000  1.0
  H  H38  1  0.75373000  0.54159000  0.83995000  1.0
  H  H39  1  0.17820000  0.34572000  0.35327000  1.0
  H  H40  1  0.82180000  0.65427000  0.64672000  1.0
  H  H41  1  0.14503000  0.45151000  0.51567000  1.0
  H  H42  1  0.85497000  0.54848000  0.48432000  1.0
  H  H43  1  0.17464000  0.67377000  0.48517000  1.0
  H  H44  1  0.82536000  0.32622000  0.51483000  1.0
  C  C45  1  0.55773000  0.11851000  0.19765000  1.0
  C  C46  1  0.44226000  0.88149000  0.80236000  1.0
  C  C47  1  0.69753000  0.12451000  0.13022000  1.0
  C  C48  1  0.30246000  0.87550000  0.86978000  1.0
  C  C49  1  0.78633000  0.04375000  0.03988000  1.0
  C  C50  1  0.21367000  0.95625000  0.96012000  1.0
  C  C51  1  0.72919000  0.95878000  0.02188000  1.0
  C  C52  1  0.27080000  0.04122000  0.97812000  1.0
  C  C53  1  0.58881000  0.95708000  0.09311000  1.0
  C  C54  1  0.41119000  0.04292000  0.90689000  1.0
  C  C55  1  0.94072000  0.04419000  0.96919000  1.0
  C  C56  1  0.05928000  0.95582000  0.03081000  1.0
  C  C57  1  0.22139000  0.10424000  0.51429000  1.0
  C  C58  1  0.77861000  0.89576000  0.48571000  1.0
  C  C59  1  0.26129000  0.16580000  0.58320000  1.0
  C  C60  1  0.73871000  0.83419000  0.41680000  1.0
  C  C61  1  0.15789000  0.21013000  0.68785000  1.0
  C  C62  1  0.84211000  0.78987000  0.31215000  1.0
  C  C63  1  0.18924000  0.27831000  0.74743000  1.0
  C  C64  1  0.81077000  0.72169000  0.25256000  1.0
  C  C65  1  0.32554000  0.29971000  0.70433000  1.0
  C  C66  1  0.67447000  0.70028000  0.29567000  1.0
  C  C67  1  0.43082000  0.25270000  0.60125000  1.0
  C  C68  1  0.56919000  0.74730000  0.39875000  1.0
  C  C69  1  0.39843000  0.18675000  0.54056000  1.0
  C  C70  1  0.60157000  0.81324000  0.45944000  1.0
  C  C71  1  0.99785000  0.21527000  0.28282000  1.0
  C  C72  1  0.00215000  0.78474000  0.71718000  1.0
  C  C73  1  0.87786000  0.30980000  0.22991000  1.0
  C  C74  1  0.12215000  0.69021000  0.77010000  1.0
  C  C75  1  0.72324000  0.34096000  0.29234000  1.0
  C  C76  1  0.27676000  0.65905000  0.70767000  1.0
  C  C77  1  0.61022000  0.42651000  0.24374000  1.0
  C  C78  1  0.38978000  0.57350000  0.75627000  1.0
  C  C79  1  0.65094000  0.48220000  0.13218000  1.0
  C  C80  1  0.34906000  0.51780000  0.86782000  1.0
  C  C81  1  0.80498000  0.45141000  0.06953000  1.0
  C  C82  1  0.19503000  0.54859000  0.93047000  1.0
  C  C83  1  0.91813000  0.36529000  0.11802000  1.0
  C  C84  1  0.08188000  0.63472000  0.88198000  1.0
  C  C85  1  0.25801000  0.81688000  0.28427000  1.0
  C  C86  1  0.74199000  0.18312000  0.71573000  1.0
  C  C87  1  0.23007000  0.68921000  0.30532000  1.0
  C  C88  1  0.76993000  0.31079000  0.69468000  1.0
  C  C89  1  0.25003000  0.62880000  0.21349000  1.0
  C  C90  1  0.74997000  0.37120000  0.78651000  1.0
  C  C91  1  0.23029000  0.50608000  0.23102000  1.0
  C  C92  1  0.76971000  0.49392000  0.76897000  1.0
  C  C93  1  0.19206000  0.44239000  0.33978000  1.0
  C  C94  1  0.80794000  0.55760000  0.66022000  1.0
  C  C95  1  0.17344000  0.50187000  0.43114000  1.0
  C  C96  1  0.82656000  0.49813000  0.56885000  1.0
  C  C97  1  0.19095000  0.62561000  0.41437000  1.0
  C  C98  1  0.80905000  0.37439000  0.58562000  1.0
  N  N99  1  0.50360000  0.03598000  0.17953000  1.0
  N  N100  1  0.49640000  0.96402000  0.82047000  1.0
  O  O101  1  0.29880000  0.10396000  0.40977000  1.0
  O  O102  1  0.70121000  0.89604000  0.59022000  1.0
  O  O103  1  0.11468000  0.06028000  0.56273000  1.0
  O  O104  1  0.88532000  0.93972000  0.43727000  1.0
  O  O105  1  0.13763000  0.18038000  0.21836000  1.0
  O  O106  1  0.86238000  0.81962000  0.78164000  1.0
  O  O107  1  0.95478000  0.17638000  0.38601000  1.0
  O  O108  1  0.04523000  0.82361000  0.61399000  1.0
  O  O109  1  0.32703000  0.85538000  0.18694000  1.0
  O  O110  1  0.67296000  0.14462000  0.81306000  1.0
  O  O111  1  0.21584000  0.88640000  0.36861000  1.0
  O  O112  1  0.78416000  0.11359000  0.63139000  1.0
