# generated using pymatgen
data_BaPH7(CO4)2
_symmetry_space_group_name_H-M   'P 1'
_cell_length_a   6.32352000
_cell_length_b   10.68640000
_cell_length_c   11.77250000
_cell_angle_alpha   90.00010000
_cell_angle_beta   90.00010000
_cell_angle_gamma   88.60910000
_symmetry_Int_Tables_number   1
_chemical_formula_structural   BaPH7(CO4)2
_chemical_formula_sum   'Ba4 P4 H28 C8 O32'
_cell_volume   795.30010776
_cell_formula_units_Z   4
loop_
 _symmetry_equiv_pos_site_id
 _symmetry_equiv_pos_as_xyz
  1  'x, y, z'
loop_
 _atom_site_type_symbol
 _atom_site_label
 _atom_site_symmetry_multiplicity
 _atom_site_fract_x
 _atom_site_fract_y
 _atom_site_fract_z
 _atom_site_occupancy
  Ba  Ba0  1  0.05813000  0.80498000  0.57584000  1.0
  Ba  Ba1  1  0.44187000  0.69502000  0.07584000  1.0
  Ba  Ba2  1  0.94187000  0.19502000  0.42416000  1.0
  Ba  Ba3  1  0.55813000  0.30498000  0.92416000  1.0
  P  P4  1  0.88349000  0.47520000  0.67935000  1.0
  P  P5  1  0.61652000  0.02481000  0.17935000  1.0
  P  P6  1  0.11652000  0.52480000  0.32065000  1.0
  P  P7  1  0.38348000  0.97519000  0.82066000  1.0
  H  H8  1  0.26007000  0.48383000  0.63289000  1.0
  H  H9  1  0.23994000  0.01617000  0.13289000  1.0
  H  H10  1  0.73994000  0.51617000  0.36710000  1.0
  H  H11  1  0.76006000  0.98383000  0.86712000  1.0
  H  H12  1  0.23637000  0.28103000  0.68920000  1.0
  H  H13  1  0.26363000  0.21897000  0.18920000  1.0
  H  H14  1  0.76363000  0.71898000  0.31079000  1.0
  H  H15  1  0.73637000  0.78102000  0.81080000  1.0
  H  H16  1  0.77500000  0.27675000  0.66250000  1.0
  H  H17  1  0.72499000  0.22325000  0.16249000  1.0
  H  H18  1  0.22499000  0.72325000  0.33751000  1.0
  H  H19  1  0.27500000  0.77675000  0.83750000  1.0
  H  H20  1  0.62330000  0.80331000  0.45716000  1.0
  H  H21  1  0.87671000  0.69669000  0.95716000  1.0
  H  H22  1  0.37670000  0.19669000  0.54284000  1.0
  H  H23  1  0.12330000  0.30331000  0.04284000  1.0
  H  H24  1  0.58761000  0.66321000  0.57863000  1.0
  H  H25  1  0.91239000  0.83679000  0.07863000  1.0
  H  H26  1  0.41239000  0.33679000  0.42137000  1.0
  H  H27  1  0.08761000  0.16320000  0.92137000  1.0
  H  H28  1  0.72775000  0.90151000  0.36659000  1.0
  H  H29  1  0.77225000  0.59849000  0.86659000  1.0
  H  H30  1  0.27225000  0.09849000  0.63341000  1.0
  H  H31  1  0.22774000  0.40151000  0.13341000  1.0
  H  H32  1  0.55231000  0.78874000  0.63936000  1.0
  H  H33  1  0.94769000  0.71126000  0.13937000  1.0
  H  H34  1  0.44769000  0.21126000  0.36063000  1.0
  H  H35  1  0.05231000  0.28874000  0.86063000  1.0
  C  C36  1  0.23055000  0.56444000  0.79971000  1.0
  C  C37  1  0.26945000  0.93557000  0.29972000  1.0
  C  C38  1  0.76946000  0.43557000  0.20029000  1.0
  C  C39  1  0.73052000  0.06443000  0.70030000  1.0
  C  C40  1  0.17292000  0.46489000  0.71215000  1.0
  C  C41  1  0.32709000  0.03511000  0.21215000  1.0
  C  C42  1  0.82709000  0.53511000  0.28785000  1.0
  C  C43  1  0.67291000  0.96489000  0.78786000  1.0
  O  O44  1  0.19055000  0.67780000  0.76915000  1.0
  O  O45  1  0.30945000  0.82219000  0.26915000  1.0
  O  O46  1  0.80947000  0.32220000  0.23085000  1.0
  O  O47  1  0.69053000  0.17780000  0.73086000  1.0
  O  O48  1  0.30889000  0.53223000  0.89398000  1.0
  O  O49  1  0.19113000  0.96777000  0.39397000  1.0
  O  O50  1  0.69112000  0.46777000  0.10603000  1.0
  O  O51  1  0.80886000  0.03223000  0.60603000  1.0
  O  O52  1  0.22718000  0.34368000  0.75529000  1.0
  O  O53  1  0.27282000  0.15632000  0.25529000  1.0
  O  O54  1  0.77282000  0.65632000  0.24470000  1.0
  O  O55  1  0.72718000  0.84368000  0.74471000  1.0
  O  O56  1  0.77099000  0.47081000  0.79407000  1.0
  O  O57  1  0.72901000  0.02918000  0.29407000  1.0
  O  O58  1  0.22901000  0.52919000  0.20592000  1.0
  O  O59  1  0.27099000  0.97081000  0.70593000  1.0
  O  O60  1  0.83642000  0.34981000  0.61218000  1.0
  O  O61  1  0.66359000  0.15019000  0.11218000  1.0
  O  O62  1  0.16358000  0.65019000  0.38782000  1.0
  O  O63  1  0.33641000  0.84980000  0.88782000  1.0
  O  O64  1  0.83653000  0.58641000  0.60288000  1.0
  O  O65  1  0.66347000  0.91359000  0.10287000  1.0
  O  O66  1  0.16346000  0.41359000  0.39712000  1.0
  O  O67  1  0.33653000  0.08641000  0.89713000  1.0
  O  O68  1  0.74629000  0.81812000  0.40628000  1.0
  O  O69  1  0.75371000  0.68188000  0.90628000  1.0
  O  O70  1  0.25371000  0.18187000  0.59371000  1.0
  O  O71  1  0.24629000  0.31812000  0.09371000  1.0
  O  O72  1  0.49609000  0.74030000  0.57412000  1.0
  O  O73  1  0.00391000  0.75970000  0.07412000  1.0
  O  O74  1  0.50391000  0.25970000  0.42588000  1.0
  O  O75  1  0.99609000  0.24030000  0.92588000  1.0
