# generated using pymatgen
data_Na3ErH10C14(NO4)4
_symmetry_space_group_name_H-M   'P 1'
_cell_length_a   8.74753000
_cell_length_b   9.03975000
_cell_length_c   14.92840000
_cell_angle_alpha   100.11500000
_cell_angle_beta   105.18500000
_cell_angle_gamma   94.70600000
_symmetry_Int_Tables_number   1
_chemical_formula_structural   Na3ErH10C14(NO4)4
_chemical_formula_sum   'Na6 Er2 H20 C28 N8 O32'
_cell_volume   1111.31492971
_cell_formula_units_Z   2
loop_
 _symmetry_equiv_pos_site_id
 _symmetry_equiv_pos_as_xyz
  1  'x, y, z'
loop_
 _atom_site_type_symbol
 _atom_site_label
 _atom_site_symmetry_multiplicity
 _atom_site_fract_x
 _atom_site_fract_y
 _atom_site_fract_z
 _atom_site_occupancy
  Na  Na0  1  0.73807000  0.39362000  0.24469000  1.0
  Na  Na1  1  0.26195000  0.60635000  0.75532000  1.0
  Na  Na2  1  0.61541000  0.03231000  0.16382000  1.0
  Na  Na3  1  0.38459000  0.96769000  0.83618000  1.0
  Na  Na4  1  0.93478000  0.11858000  0.35933000  1.0
  Na  Na5  1  0.06522000  0.88142000  0.64067000  1.0
  Er  Er6  1  0.23177000  0.88326000  0.23456000  1.0
  Er  Er7  1  0.76821000  0.11674000  0.76544000  1.0
  H  H8  1  0.42801000  0.18270000  0.05438000  1.0
  H  H9  1  0.57199000  0.81730000  0.94562000  1.0
  H  H10  1  0.46788000  0.33127000  0.13455000  1.0
  H  H11  1  0.53212000  0.66874000  0.86545000  1.0
  H  H12  1  0.73683000  0.87910000  0.32686000  1.0
  H  H13  1  0.26317000  0.12090000  0.67314000  1.0
  H  H14  1  0.84319000  0.81696000  0.26163000  1.0
  H  H15  1  0.15681000  0.18305000  0.73837000  1.0
  H  H16  1  0.05285000  0.35341000  0.54163000  1.0
  H  H17  1  0.94717000  0.64660000  0.45837000  1.0
  H  H18  1  0.14722000  0.21923000  0.51290000  1.0
  H  H19  1  0.85279000  0.78078000  0.48709000  1.0
  H  H20  1  0.06369000  0.47075000  0.38003000  1.0
  H  H21  1  0.93633000  0.52925000  0.61997000  1.0
  H  H22  1  0.01672000  0.59555000  0.31636000  1.0
  H  H23  1  0.98331000  0.40445000  0.68364000  1.0
  H  H24  1  0.62215000  0.54369000  0.43386000  1.0
  H  H25  1  0.37786000  0.45631000  0.56613000  1.0
  H  H26  1  0.25950000  0.47676000  0.04792000  1.0
  H  H27  1  0.74048000  0.52326000  0.95208000  1.0
  C  C28  1  0.44706000  0.67179000  0.36221000  1.0
  C  C29  1  0.55292000  0.32820000  0.63780000  1.0
  C  C30  1  0.54199000  0.62794000  0.44172000  1.0
  C  C31  1  0.45800000  0.37205000  0.55828000  1.0
  C  C32  1  0.44116000  0.79353000  0.53998000  1.0
  C  C33  1  0.55884000  0.20647000  0.46003000  1.0
  C  C34  1  0.34871000  0.84267000  0.46105000  1.0
  C  C35  1  0.65130000  0.15734000  0.53896000  1.0
  C  C36  1  0.43876000  0.60830000  0.25985000  1.0
  C  C37  1  0.56123000  0.39172000  0.74016000  1.0
  C  C38  1  0.43400000  0.85101000  0.63991000  1.0
  C  C39  1  0.56601000  0.14899000  0.36008000  1.0
  C  C40  1  0.24122000  0.96584000  0.46208000  1.0
  C  C41  1  0.75879000  0.03418000  0.53793000  1.0
  C  C42  1  0.01025000  0.22572000  0.09140000  1.0
  C  C43  1  0.98975000  0.77428000  0.90860000  1.0
  C  C44  1  0.90350000  0.17425000  0.00047000  1.0
  C  C45  1  0.09648000  0.82576000  0.99952000  1.0
  C  C46  1  0.06178000  0.32748000  0.94160000  1.0
  C  C47  1  0.93822000  0.67251000  0.05840000  1.0
  C  C48  1  0.16013000  0.38646000  0.03378000  1.0
  C  C49  1  0.83988000  0.61352000  0.96622000  1.0
  C  C50  1  0.99407000  0.16271000  0.17597000  1.0
  C  C51  1  0.00591000  0.83732000  0.82403000  1.0
  C  C52  1  0.75200000  0.06235000  0.97327000  1.0
  C  C53  1  0.24799000  0.93764000  0.02674000  1.0
  C  C54  1  0.08743000  0.37155000  0.85365000  1.0
  C  C55  1  0.91255000  0.62844000  0.14635000  1.0
  N  N56  1  0.35418000  0.77935000  0.37414000  1.0
  N  N57  1  0.64581000  0.22065000  0.62587000  1.0
  N  N58  1  0.53870000  0.68807000  0.52960000  1.0
  N  N59  1  0.46129000  0.31191000  0.47040000  1.0
  N  N60  1  0.93435000  0.22540000  0.92745000  1.0
  N  N61  1  0.06566000  0.77459000  0.07255000  1.0
  N  N62  1  0.13538000  0.33380000  0.10785000  1.0
  N  N63  1  0.86464000  0.66616000  0.89214000  1.0
  O  O64  1  0.35454000  0.67531000  0.19942000  1.0
  O  O65  1  0.64547000  0.32470000  0.80058000  1.0
  O  O66  1  0.51177000  0.49820000  0.24287000  1.0
  O  O67  1  0.48826000  0.50182000  0.75713000  1.0
  O  O68  1  0.54111000  0.95704000  0.69207000  1.0
  O  O69  1  0.45891000  0.04294000  0.30792000  1.0
  O  O70  1  0.32247000  0.78848000  0.66468000  1.0
  O  O71  1  0.67751000  0.21152000  0.33531000  1.0
  O  O72  1  0.23461000  0.04185000  0.54029000  1.0
  O  O73  1  0.76539000  0.95816000  0.45972000  1.0
  O  O74  1  0.16468000  0.98456000  0.38024000  1.0
  O  O75  1  0.83532000  0.01545000  0.61977000  1.0
  O  O76  1  0.08161000  0.06179000  0.19734000  1.0
  O  O77  1  0.91839000  0.93822000  0.80264000  1.0
  O  O78  1  0.90111000  0.21497000  0.22091000  1.0
  O  O79  1  0.09888000  0.78503000  0.77908000  1.0
  O  O80  1  0.72246000  0.98691000  0.03155000  1.0
  O  O81  1  0.27755000  0.01308000  0.96845000  1.0
  O  O82  1  0.66512000  0.05285000  0.88841000  1.0
  O  O83  1  0.33489000  0.94715000  0.11159000  1.0
  O  O84  1  0.99233000  0.29051000  0.77359000  1.0
  O  O85  1  0.00764000  0.70948000  0.22641000  1.0
  O  O86  1  0.19344000  0.47593000  0.86095000  1.0
  O  O87  1  0.80653000  0.52406000  0.13905000  1.0
  O  O88  1  0.51572000  0.24895000  0.10416000  1.0
  O  O89  1  0.48428000  0.75104000  0.89585000  1.0
  O  O90  1  0.76599000  0.88817000  0.26883000  1.0
  O  O91  1  0.23400000  0.11182000  0.73117000  1.0
  O  O92  1  0.08384000  0.29590000  0.48750000  1.0
  O  O93  1  0.91620000  0.70414000  0.51250000  1.0
  O  O94  1  0.98541000  0.53880000  0.36157000  1.0
  O  O95  1  0.01461000  0.46120000  0.63843000  1.0
