# generated using pymatgen
data_CaH4(C2O)4
_symmetry_space_group_name_H-M   'P 1'
_cell_length_a   6.62330000
_cell_length_b   9.62387000
_cell_length_c   13.48240000
_cell_angle_alpha   108.19300000
_cell_angle_beta   89.99960000
_cell_angle_gamma   90.00000000
_symmetry_Int_Tables_number   1
_chemical_formula_structural   CaH4(C2O)4
_chemical_formula_sum   'Ca4 H16 C32 O16'
_cell_volume   816.43131116
_cell_formula_units_Z   4
loop_
 _symmetry_equiv_pos_site_id
 _symmetry_equiv_pos_as_xyz
  1  'x, y, z'
loop_
 _atom_site_type_symbol
 _atom_site_label
 _atom_site_symmetry_multiplicity
 _atom_site_fract_x
 _atom_site_fract_y
 _atom_site_fract_z
 _atom_site_occupancy
  Ca  Ca0  1  0.96368000  0.18192000  0.48377000  1.0
  Ca  Ca1  1  0.46369000  0.31808000  0.51623000  1.0
  Ca  Ca2  1  0.03632000  0.81808000  0.51624000  1.0
  Ca  Ca3  1  0.53631000  0.68192000  0.48376000  1.0
  H  H4  1  0.11315000  0.22362000  0.85939000  1.0
  H  H5  1  0.61316000  0.27638000  0.14060000  1.0
  H  H6  1  0.88685000  0.77637000  0.14061000  1.0
  H  H7  1  0.38683000  0.72363000  0.85939000  1.0
  H  H8  1  0.31322000  0.17690000  0.00113000  1.0
  H  H9  1  0.81323000  0.32310000  0.99887000  1.0
  H  H10  1  0.68679000  0.82308000  0.99887000  1.0
  H  H11  1  0.18677000  0.67691000  0.00113000  1.0
  H  H12  1  0.78793000  0.98999000  0.78037000  1.0
  H  H13  1  0.28792000  0.51001000  0.21963000  1.0
  H  H14  1  0.21208000  0.01000000  0.21962000  1.0
  H  H15  1  0.71207000  0.48999000  0.78038000  1.0
  H  H16  1  0.65266000  0.05765000  0.96165000  1.0
  H  H17  1  0.15266000  0.44236000  0.03835000  1.0
  H  H18  1  0.34736000  0.94235000  0.03835000  1.0
  H  H19  1  0.84734000  0.55764000  0.96165000  1.0
  C  C20  1  0.20833000  0.16416000  0.65796000  1.0
  C  C21  1  0.70832000  0.33584000  0.34204000  1.0
  C  C22  1  0.79168000  0.83584000  0.34204000  1.0
  C  C23  1  0.29167000  0.66417000  0.65796000  1.0
  C  C24  1  0.34104000  0.14043000  0.74161000  1.0
  C  C25  1  0.84104000  0.35957000  0.25839000  1.0
  C  C26  1  0.65897000  0.85957000  0.25839000  1.0
  C  C27  1  0.15895000  0.64043000  0.74161000  1.0
  C  C28  1  0.26333000  0.17522000  0.84304000  1.0
  C  C29  1  0.76333000  0.32479000  0.15696000  1.0
  C  C30  1  0.73668000  0.82478000  0.15696000  1.0
  C  C31  1  0.23666000  0.67522000  0.84304000  1.0
  C  C32  1  0.53251000  0.07512000  0.71955000  1.0
  C  C33  1  0.03250000  0.42488000  0.28045000  1.0
  C  C34  1  0.46750000  0.92488000  0.28044000  1.0
  C  C35  1  0.96748000  0.57512000  0.71956000  1.0
  C  C36  1  0.37543000  0.14754000  0.92239000  1.0
  C  C37  1  0.87543000  0.35246000  0.07762000  1.0
  C  C38  1  0.62459000  0.85245000  0.07761000  1.0
  C  C39  1  0.12457000  0.64755000  0.92239000  1.0
  C  C40  1  0.64157000  0.04381000  0.79925000  1.0
  C  C41  1  0.14157000  0.45619000  0.20075000  1.0
  C  C42  1  0.35843000  0.95618000  0.20075000  1.0
  C  C43  1  0.85842000  0.54381000  0.79925000  1.0
  C  C44  1  0.63021000  0.03469000  0.61391000  1.0
  C  C45  1  0.13019000  0.46532000  0.38609000  1.0
  C  C46  1  0.36980000  0.96530000  0.38609000  1.0
  C  C47  1  0.86980000  0.53469000  0.61391000  1.0
  C  C48  1  0.56503000  0.08122000  0.90036000  1.0
  C  C49  1  0.06503000  0.41879000  0.09964000  1.0
  C  C50  1  0.43499000  0.91877000  0.09963000  1.0
  C  C51  1  0.93497000  0.58121000  0.90036000  1.0
  O  O52  1  0.07719000  0.06680000  0.61593000  1.0
  O  O53  1  0.57718000  0.43320000  0.38407000  1.0
  O  O54  1  0.92282000  0.93320000  0.38407000  1.0
  O  O55  1  0.42281000  0.56680000  0.61593000  1.0
  O  O56  1  0.22482000  0.28043000  0.63290000  1.0
  O  O57  1  0.72482000  0.21957000  0.36710000  1.0
  O  O58  1  0.77519000  0.71958000  0.36711000  1.0
  O  O59  1  0.27518000  0.78042000  0.63289000  1.0
  O  O60  1  0.64053000  0.12880000  0.56562000  1.0
  O  O61  1  0.14053000  0.37120000  0.43438000  1.0
  O  O62  1  0.35946000  0.87119000  0.43437000  1.0
  O  O63  1  0.85946000  0.62880000  0.56563000  1.0
  O  O64  1  0.70739000  0.90705000  0.58096000  1.0
  O  O65  1  0.20739000  0.59295000  0.41904000  1.0
  O  O66  1  0.29260000  0.09295000  0.41904000  1.0
  O  O67  1  0.79259000  0.40705000  0.58096000  1.0
