# generated using pymatgen
data_CdH35C26N4ClO8
_symmetry_space_group_name_H-M   'P 1'
_cell_length_a   11.56510000
_cell_length_b   12.04670000
_cell_length_c   14.85900000
_cell_angle_alpha   99.63990000
_cell_angle_beta   109.23400000
_cell_angle_gamma   93.43400000
_symmetry_Int_Tables_number   1
_chemical_formula_structural   CdH35C26N4ClO8
_chemical_formula_sum   'Cd2 H70 C52 N8 Cl2 O16'
_cell_volume   1912.24139492
_cell_formula_units_Z   2
loop_
 _symmetry_equiv_pos_site_id
 _symmetry_equiv_pos_as_xyz
  1  'x, y, z'
loop_
 _atom_site_type_symbol
 _atom_site_label
 _atom_site_symmetry_multiplicity
 _atom_site_fract_x
 _atom_site_fract_y
 _atom_site_fract_z
 _atom_site_occupancy
  Cd  Cd0  1  0.00446000  0.21446000  0.31225000  1.0
  Cd  Cd1  1  0.99554000  0.78554000  0.68775000  1.0
  H  H2  1  0.89392000  0.10105000  0.61414000  1.0
  H  H3  1  0.10609000  0.89895000  0.38587000  1.0
  H  H4  1  0.73099000  0.94128000  0.51810000  1.0
  H  H5  1  0.26901000  0.05873000  0.48190000  1.0
  H  H6  1  0.67181000  0.89718000  0.33442000  1.0
  H  H7  1  0.32819000  0.10282000  0.66558000  1.0
  H  H8  1  0.70923000  0.93835000  0.19085000  1.0
  H  H9  1  0.29076000  0.06165000  0.80915000  1.0
  H  H10  1  0.71197000  0.08859000  0.20722000  1.0
  H  H11  1  0.28803000  0.91141000  0.79278000  1.0
  H  H12  1  0.78036000  0.13257000  0.10003000  1.0
  H  H13  1  0.21964000  0.86743000  0.89997000  1.0
  H  H14  1  0.78340000  0.99063000  0.04198000  1.0
  H  H15  1  0.21660000  0.00936000  0.95802000  1.0
  H  H16  1  0.01781000  0.04627000  0.08446000  1.0
  H  H17  1  0.98218000  0.95373000  0.91554000  1.0
  H  H18  1  0.91219000  0.10295000  0.99236000  1.0
  H  H19  1  0.08780000  0.89704000  0.00764000  1.0
  H  H20  1  0.17955000  0.18843000  0.14039000  1.0
  H  H21  1  0.82045000  0.81157000  0.85961000  1.0
  H  H22  1  0.15161000  0.33099000  0.17217000  1.0
  H  H23  1  0.84839000  0.66900000  0.82783000  1.0
  H  H24  1  0.95599000  0.92003000  0.28052000  1.0
  H  H25  1  0.04400000  0.07997000  0.71948000  1.0
  H  H26  1  0.03966000  0.96263000  0.20924000  1.0
  H  H27  1  0.96033000  0.03737000  0.79076000  1.0
  H  H28  1  0.94316000  0.75808000  0.16875000  1.0
  H  H29  1  0.05683000  0.24192000  0.83124000  1.0
  H  H30  1  0.79471000  0.80139000  0.12336000  1.0
  H  H31  1  0.20528000  0.19861000  0.87663000  1.0
  H  H32  1  0.20301000  0.31834000  0.02870000  1.0
  H  H33  1  0.79698000  0.68166000  0.97129000  1.0
  H  H34  1  0.04086000  0.32842000  0.99233000  1.0
  H  H35  1  0.95914000  0.67158000  0.00766000  1.0
  H  H36  1  0.90953000  0.55884000  0.14433000  1.0
  H  H37  1  0.09046000  0.44116000  0.85567000  1.0
  H  H38  1  0.12511000  0.66452000  0.19464000  1.0
  H  H39  1  0.87489000  0.33548000  0.80536000  1.0
  H  H40  1  0.29187000  0.61559000  0.33572000  1.0
  H  H41  1  0.70813000  0.38441000  0.66428000  1.0
  H  H42  1  0.35871000  0.50254000  0.44970000  1.0
  H  H43  1  0.64129000  0.49746000  0.55030000  1.0
  H  H44  1  0.28627000  0.35836000  0.41142000  1.0
  H  H45  1  0.71374000  0.64164000  0.58858000  1.0
  H  H46  1  0.14302000  0.54415000  0.60260000  1.0
  H  H47  1  0.85699000  0.45585000  0.39740000  1.0
  H  H48  1  0.11655000  0.57530000  0.48569000  1.0
  H  H49  1  0.88346000  0.42471000  0.51431000  1.0
  H  H50  1  0.23260000  0.73539000  0.62016000  1.0
  H  H51  1  0.76740000  0.26462000  0.37984000  1.0
  H  H52  1  0.35368000  0.65504000  0.66419000  1.0
  H  H53  1  0.64632000  0.34496000  0.33582000  1.0
  H  H54  1  0.50633000  0.75423000  0.63122000  1.0
  H  H55  1  0.49368000  0.24577000  0.36878000  1.0
  H  H56  1  0.41031000  0.86028000  0.59138000  1.0
  H  H57  1  0.58970000  0.13972000  0.40863000  1.0
  H  H58  1  0.42692000  0.81105000  0.42681000  1.0
  H  H59  1  0.57308000  0.18895000  0.57319000  1.0
  H  H60  1  0.57467000  0.85083000  0.52250000  1.0
  H  H61  1  0.42533000  0.14917000  0.47751000  1.0
  H  H62  1  0.42199000  0.49802000  0.62553000  1.0
  H  H63  1  0.57801000  0.50198000  0.37447000  1.0
  H  H64  1  0.30940000  0.44027000  0.66905000  1.0
  H  H65  1  0.69060000  0.55973000  0.33095000  1.0
  H  H66  1  0.42930000  0.29248000  0.66007000  1.0
  H  H67  1  0.57070000  0.70752000  0.33993000  1.0
  H  H68  1  0.30475000  0.25213000  0.54631000  1.0
  H  H69  1  0.69525000  0.74787000  0.45369000  1.0
  H  H70  1  0.16612000  0.38686000  0.50988000  1.0
  H  H71  1  0.83388000  0.61314000  0.49012000  1.0
  C  C72  1  0.03291000  0.23319000  0.54310000  1.0
  C  C73  1  0.96710000  0.76681000  0.45690000  1.0
  C  C74  1  0.92928000  0.13726000  0.48801000  1.0
  C  C75  1  0.07073000  0.86274000  0.51199000  1.0
  C  C76  1  0.86816000  0.07836000  0.53559000  1.0
  C  C77  1  0.13186000  0.92165000  0.46441000  1.0
  C  C78  1  0.77500000  0.99063000  0.48047000  1.0
  C  C79  1  0.22501000  0.00938000  0.51953000  1.0
  C  C80  1  0.74324000  0.96606000  0.37964000  1.0
  C  C81  1  0.25676000  0.03395000  0.62035000  1.0
  C  C82  1  0.80533000  0.03132000  0.33644000  1.0
  C  C83  1  0.19467000  0.96868000  0.66356000  1.0
  C  C84  1  0.76818000  0.01999000  0.22745000  1.0
  C  C85  1  0.23182000  0.98001000  0.77255000  1.0
  C  C86  1  0.83817000  0.06358000  0.09885000  1.0
  C  C87  1  0.16182000  0.93642000  0.90115000  1.0
  C  C88  1  0.94590000  0.10347000  0.07085000  1.0
  C  C89  1  0.05410000  0.89653000  0.92915000  1.0
  C  C90  1  0.11587000  0.25148000  0.11826000  1.0
  C  C91  1  0.88413000  0.74852000  0.88174000  1.0
  C  C92  1  0.94636000  0.93688000  0.20817000  1.0
  C  C93  1  0.05364000  0.06312000  0.79183000  1.0
  C  C94  1  0.89369000  0.82517000  0.13620000  1.0
  C  C95  1  0.10630000  0.17482000  0.86379000  1.0
  C  C96  1  0.11232000  0.27312000  0.01975000  1.0
  C  C97  1  0.88767000  0.72688000  0.98025000  1.0
  C  C98  1  0.83860000  0.38699000  0.21748000  1.0
  C  C99  1  0.16140000  0.61302000  0.78253000  1.0
  C  C100  1  0.96875000  0.44890000  0.24516000  1.0
  C  C101  1  0.03124000  0.55110000  0.75485000  1.0
  C  C102  1  0.98826000  0.53794000  0.20033000  1.0
  C  C103  1  0.01173000  0.46206000  0.79967000  1.0
  C  C104  1  0.10620000  0.59615000  0.22954000  1.0
  C  C105  1  0.89380000  0.40385000  0.77046000  1.0
  C  C106  1  0.19977000  0.56852000  0.30665000  1.0
  C  C107  1  0.80023000  0.43147000  0.69334000  1.0
  C  C108  1  0.17350000  0.47940000  0.34883000  1.0
  C  C109  1  0.82650000  0.52060000  0.65117000  1.0
  C  C110  1  0.27242000  0.44726000  0.43190000  1.0
  C  C111  1  0.72758000  0.55274000  0.56810000  1.0
  C  C112  1  0.18811000  0.56185000  0.55133000  1.0
  C  C113  1  0.81190000  0.43815000  0.44867000  1.0
  C  C114  1  0.28123000  0.66646000  0.59731000  1.0
  C  C115  1  0.71878000  0.33354000  0.40269000  1.0
  C  C116  1  0.43720000  0.77680000  0.56748000  1.0
  C  C117  1  0.56280000  0.22320000  0.43252000  1.0
  C  C118  1  0.49361000  0.78559000  0.49035000  1.0
  C  C119  1  0.50639000  0.21441000  0.50966000  1.0
  C  C120  1  0.34347000  0.43243000  0.60766000  1.0
  C  C121  1  0.65654000  0.56757000  0.39234000  1.0
  C  C122  1  0.38471000  0.31632000  0.58896000  1.0
  C  C123  1  0.61529000  0.68368000  0.41104000  1.0
  N  N124  1  0.89703000  0.11327000  0.39071000  1.0
  N  N125  1  0.10298000  0.88672000  0.60929000  1.0
  N  N126  1  0.87481000  0.03445000  0.19618000  1.0
  N  N127  1  0.12519000  0.96555000  0.80382000  1.0
  N  N128  1  0.06094000  0.41810000  0.31558000  1.0
  N  N129  1  0.93906000  0.58190000  0.68442000  1.0
  N  N130  1  0.23995000  0.45523000  0.52314000  1.0
  N  N131  1  0.76005000  0.54478000  0.47686000  1.0
  Cl  Cl132  1  0.21061000  0.14759000  0.32772000  1.0
  Cl  Cl133  1  0.78939000  0.85241000  0.67228000  1.0
  O  O134  1  0.06477000  0.29186000  0.48755000  1.0
  O  O135  1  0.93523000  0.70814000  0.51245000  1.0
  O  O136  1  0.07715000  0.24899000  0.63334000  1.0
  O  O137  1  0.92286000  0.75100000  0.36666000  1.0
  O  O138  1  0.99840000  0.21637000  0.12417000  1.0
  O  O139  1  0.00160000  0.78363000  0.87583000  1.0
  O  O140  1  0.91159000  0.83268000  0.04674000  1.0
  O  O141  1  0.08840000  0.16732000  0.95326000  1.0
  O  O142  1  0.82974000  0.29059000  0.24275000  1.0
  O  O143  1  0.17026000  0.70940000  0.75724000  1.0
  O  O144  1  0.75127000  0.43749000  0.17632000  1.0
  O  O145  1  0.24873000  0.56253000  0.82370000  1.0
  O  O146  1  0.33287000  0.69241000  0.52741000  1.0
  O  O147  1  0.66714000  0.30759000  0.47259000  1.0
  O  O148  1  0.47003000  0.32216000  0.53859000  1.0
  O  O149  1  0.52997000  0.67784000  0.46141000  1.0
