# generated using pymatgen
data_ErH7C8SO9
_symmetry_space_group_name_H-M   'P 1'
_cell_length_a   6.34973000
_cell_length_b   8.53919000
_cell_length_c   10.57970000
_cell_angle_alpha   90.20950000
_cell_angle_beta   100.13100000
_cell_angle_gamma   107.70800000
_symmetry_Int_Tables_number   1
_chemical_formula_structural   ErH7C8SO9
_chemical_formula_sum   'Er2 H14 C16 S2 O18'
_cell_volume   536.94709002
_cell_formula_units_Z   2
loop_
 _symmetry_equiv_pos_site_id
 _symmetry_equiv_pos_as_xyz
  1  'x, y, z'
loop_
 _atom_site_type_symbol
 _atom_site_label
 _atom_site_symmetry_multiplicity
 _atom_site_fract_x
 _atom_site_fract_y
 _atom_site_fract_z
 _atom_site_occupancy
  Er  Er0  1  0.15479000  0.25049000  0.61822000  1.0
  Er  Er1  1  0.84521000  0.74950000  0.38178000  1.0
  H  H2  1  0.61730000  0.41083000  0.14404000  1.0
  H  H3  1  0.38271000  0.58918000  0.85597000  1.0
  H  H4  1  0.65782000  0.36597000  0.91889000  1.0
  H  H5  1  0.34218000  0.63404000  0.08111000  1.0
  H  H6  1  0.18381000  0.15383000  0.05719000  1.0
  H  H7  1  0.81619000  0.84617000  0.94281000  1.0
  H  H8  1  0.52316000  0.08419000  0.67782000  1.0
  H  H9  1  0.47683000  0.91581000  0.32218000  1.0
  H  H10  1  0.29372000  0.95643000  0.60741000  1.0
  H  H11  1  0.70627000  0.04357000  0.39259000  1.0
  H  H12  1  0.65407000  0.35809000  0.70952000  1.0
  H  H13  1  0.34593000  0.64190000  0.29048000  1.0
  H  H14  1  0.58177000  0.50902000  0.64784000  1.0
  H  H15  1  0.41824000  0.49097000  0.35216000  1.0
  C  C16  1  0.02344000  0.22377000  0.20162000  1.0
  C  C17  1  0.97656000  0.77623000  0.79838000  1.0
  C  C18  1  0.86885000  0.30245000  0.22805000  1.0
  C  C19  1  0.13114000  0.69755000  0.77195000  1.0
  C  C20  1  0.73748000  0.35064000  0.12389000  1.0
  C  C21  1  0.26252000  0.64937000  0.87611000  1.0
  C  C22  1  0.76122000  0.32609000  0.99763000  1.0
  C  C23  1  0.23878000  0.67392000  0.00237000  1.0
  C  C24  1  0.92542000  0.25731000  0.97362000  1.0
  C  C25  1  0.07459000  0.74270000  0.02638000  1.0
  C  C26  1  0.05422000  0.20502000  0.07606000  1.0
  C  C27  1  0.94579000  0.79499000  0.92394000  1.0
  C  C28  1  0.84656000  0.34517000  0.36233000  1.0
  C  C29  1  0.15344000  0.65483000  0.63767000  1.0
  C  C30  1  0.98501000  0.24994000  0.84410000  1.0
  C  C31  1  0.01498000  0.75005000  0.15590000  1.0
  S  S32  1  0.21084000  0.16127000  0.32262000  1.0
  S  S33  1  0.78916000  0.83873000  0.67738000  1.0
  O  O34  1  0.08156000  0.01789000  0.38433000  1.0
  O  O35  1  0.91844000  0.98211000  0.61567000  1.0
  O  O36  1  0.30580000  0.30227000  0.42120000  1.0
  O  O37  1  0.69420000  0.69772000  0.57880000  1.0
  O  O38  1  0.37646000  0.12655000  0.25854000  1.0
  O  O39  1  0.62353000  0.87345000  0.74146000  1.0
  O  O40  1  0.85893000  0.24290000  0.44932000  1.0
  O  O41  1  0.14107000  0.75710000  0.55068000  1.0
  O  O42  1  0.81826000  0.48211000  0.38255000  1.0
  O  O43  1  0.18176000  0.51789000  0.61745000  1.0
  O  O44  1  0.17276000  0.22758000  0.83735000  1.0
  O  O45  1  0.82723000  0.77241000  0.16265000  1.0
  O  O46  1  0.85728000  0.26927000  0.74080000  1.0
  O  O47  1  0.14272000  0.73073000  0.25920000  1.0
  O  O48  1  0.36931000  0.07435000  0.63611000  1.0
  O  O49  1  0.63069000  0.92565000  0.36389000  1.0
  O  O50  1  0.52880000  0.40762000  0.69335000  1.0
  O  O51  1  0.47119000  0.59237000  0.30665000  1.0
