# generated using pymatgen
data_CuH18C16N2O5
_symmetry_space_group_name_H-M   'P 1'
_cell_length_a   6.75673000
_cell_length_b   9.82397000
_cell_length_c   12.56140000
_cell_angle_alpha   86.05510000
_cell_angle_beta   83.68760000
_cell_angle_gamma   76.16000000
_symmetry_Int_Tables_number   1
_chemical_formula_structural   CuH18C16N2O5
_chemical_formula_sum   'Cu2 H36 C32 N4 O10'
_cell_volume   803.90333159
_cell_formula_units_Z   2
loop_
 _symmetry_equiv_pos_site_id
 _symmetry_equiv_pos_as_xyz
  1  'x, y, z'
loop_
 _atom_site_type_symbol
 _atom_site_label
 _atom_site_symmetry_multiplicity
 _atom_site_fract_x
 _atom_site_fract_y
 _atom_site_fract_z
 _atom_site_occupancy
  Cu  Cu0  1  0.73346000  0.27145000  0.20682000  1.0
  Cu  Cu1  1  0.26657000  0.72854000  0.79317000  1.0
  H  H2  1  0.55499000  0.84903000  0.54602000  1.0
  H  H3  1  0.44500000  0.15096000  0.45399000  1.0
  H  H4  1  0.71144000  0.97005000  0.54419000  1.0
  H  H5  1  0.28855000  0.02993000  0.45582000  1.0
  H  H6  1  0.81234000  0.79851000  0.39554000  1.0
  H  H7  1  0.18766000  0.20149000  0.60446000  1.0
  H  H8  1  0.57282000  0.87631000  0.34246000  1.0
  H  H9  1  0.42717000  0.12369000  0.65755000  1.0
  H  H10  1  0.72026000  0.56092000  0.28380000  1.0
  H  H11  1  0.27976000  0.43909000  0.71619000  1.0
  H  H12  1  0.71663000  0.79879000  0.19311000  1.0
  H  H13  1  0.28332000  0.20122000  0.80687000  1.0
  H  H14  1  0.32528000  0.55046000  0.45972000  1.0
  H  H15  1  0.67479000  0.44955000  0.54028000  1.0
  H  H16  1  0.34803000  0.38208000  0.51856000  1.0
  H  H17  1  0.65201000  0.61793000  0.48144000  1.0
  H  H18  1  0.80148000  0.98067000  0.86976000  1.0
  H  H19  1  0.19851000  0.01932000  0.13025000  1.0
  H  H20  1  0.72521000  0.82093000  0.99099000  1.0
  H  H21  1  0.27473000  0.17907000  0.00899000  1.0
  H  H22  1  0.76032000  0.02014000  0.07039000  1.0
  H  H23  1  0.23969000  0.97986000  0.92960000  1.0
  H  H24  1  0.02355000  0.36448000  0.44031000  1.0
  H  H25  1  0.97647000  0.63557000  0.55970000  1.0
  H  H26  1  0.00806000  0.53159000  0.37816000  1.0
  H  H27  1  0.99198000  0.46845000  0.62185000  1.0
  H  H28  1  0.80892000  0.18637000  0.74320000  1.0
  H  H29  1  0.19105000  0.81362000  0.25680000  1.0
  H  H30  1  0.73608000  0.61158000  0.89076000  1.0
  H  H31  1  0.26390000  0.38841000  0.10923000  1.0
  H  H32  1  0.77487000  0.42345000  0.81696000  1.0
  H  H33  1  0.22512000  0.57654000  0.18304000  1.0
  H  H34  1  0.05131000  0.13542000  0.28410000  1.0
  H  H35  1  0.94869000  0.86458000  0.71593000  1.0
  H  H36  1  0.15276000  0.26830000  0.25263000  1.0
  H  H37  1  0.84726000  0.73169000  0.74738000  1.0
  C  C38  1  0.41300000  0.38691000  0.34822000  1.0
  C  C39  1  0.58701000  0.61311000  0.65177000  1.0
  C  C40  1  0.75631000  0.34270000  0.98143000  1.0
  C  C41  1  0.24369000  0.65729000  0.01857000  1.0
  C  C42  1  0.59574000  0.94009000  0.50130000  1.0
  C  C43  1  0.40425000  0.05990000  0.49871000  1.0
  C  C44  1  0.69191000  0.89553000  0.38859000  1.0
  C  C45  1  0.30808000  0.10446000  0.61142000  1.0
  C  C46  1  0.72697000  0.57768000  0.19691000  1.0
  C  C47  1  0.27305000  0.42232000  0.80308000  1.0
  C  C48  1  0.74282000  0.47459000  0.03354000  1.0
  C  C49  1  0.25719000  0.52540000  0.96645000  1.0
  C  C50  1  0.72423000  0.70855000  0.14595000  1.0
  C  C51  1  0.27575000  0.29146000  0.85404000  1.0
  C  C52  1  0.28955000  0.44864000  0.44944000  1.0
  C  C53  1  0.71049000  0.55138000  0.55057000  1.0
  C  C54  1  0.78630000  0.08458000  0.90024000  1.0
  C  C55  1  0.21369000  0.91541000  0.09976000  1.0
  C  C56  1  0.79183000  0.00691000  0.33017000  1.0
  C  C57  1  0.20815000  0.99309000  0.66984000  1.0
  C  C58  1  0.72880000  0.72090000  0.03457000  1.0
  C  C59  1  0.27116000  0.27910000  0.96542000  1.0
  C  C60  1  0.76595000  0.10473000  0.01008000  1.0
  C  C61  1  0.23405000  0.89526000  0.98992000  1.0
  C  C62  1  0.05922000  0.46655000  0.44944000  1.0
  C  C63  1  0.94082000  0.53349000  0.55058000  1.0
  C  C64  1  0.79065000  0.20012000  0.82949000  1.0
  C  C65  1  0.20933000  0.79986000  0.17051000  1.0
  C  C66  1  0.73769000  0.60301000  0.97746000  1.0
  C  C67  1  0.26231000  0.39698000  0.02253000  1.0
  C  C68  1  0.77417000  0.33108000  0.87027000  1.0
  C  C69  1  0.22582000  0.66891000  0.12973000  1.0
  N  N70  1  0.73579000  0.46380000  0.14190000  1.0
  N  N71  1  0.26423000  0.53620000  0.85809000  1.0
  N  N72  1  0.75320000  0.23012000  0.04963000  1.0
  N  N73  1  0.24681000  0.76988000  0.95037000  1.0
  O  O74  1  0.07503000  0.20690000  0.22524000  1.0
  O  O75  1  0.92498000  0.79308000  0.77478000  1.0
  O  O76  1  0.60920000  0.35099000  0.34955000  1.0
  O  O77  1  0.39082000  0.64902000  0.65044000  1.0
  O  O78  1  0.32266000  0.37550000  0.26761000  1.0
  O  O79  1  0.67733000  0.62450000  0.73240000  1.0
  O  O80  1  0.68967000  0.08447000  0.25739000  1.0
  O  O81  1  0.31033000  0.91552000  0.74262000  1.0
  O  O82  1  0.96170000  0.01710000  0.35650000  1.0
  O  O83  1  0.03828000  0.98290000  0.64351000  1.0
