# generated using pymatgen
data_UAg2H12C24N4(Cl2O5)2
_symmetry_space_group_name_H-M   'P 1'
_cell_length_a   7.39183000
_cell_length_b   9.42269000
_cell_length_c   11.24780000
_cell_angle_alpha   91.94670000
_cell_angle_beta   91.43490000
_cell_angle_gamma   98.88890000
_symmetry_Int_Tables_number   1
_chemical_formula_structural   UAg2H12C24N4(Cl2O5)2
_chemical_formula_sum   'U1 Ag2 H12 C24 N4 Cl4 O10'
_cell_volume   773.19986960
_cell_formula_units_Z   1
loop_
 _symmetry_equiv_pos_site_id
 _symmetry_equiv_pos_as_xyz
  1  'x, y, z'
loop_
 _atom_site_type_symbol
 _atom_site_label
 _atom_site_symmetry_multiplicity
 _atom_site_fract_x
 _atom_site_fract_y
 _atom_site_fract_z
 _atom_site_occupancy
  U  U0  1  0.99999000  0.00001000  0.00001000  1.0
  Ag  Ag1  1  0.41840000  0.89209000  0.81120000  1.0
  Ag  Ag2  1  0.58158000  0.10791000  0.18880000  1.0
  H  H3  1  0.13237000  0.73930000  0.35881000  1.0
  H  H4  1  0.86766000  0.26071000  0.64119000  1.0
  H  H5  1  0.34885000  0.14816000  0.63440000  1.0
  H  H6  1  0.65119000  0.85184000  0.36560000  1.0
  H  H7  1  0.24482000  0.70773000  0.56749000  1.0
  H  H8  1  0.75523000  0.29228000  0.43250000  1.0
  H  H9  1  0.69270000  0.67785000  0.82612000  1.0
  H  H10  1  0.30728000  0.32214000  0.17388000  1.0
  H  H11  1  0.11302000  0.36036000  0.88299000  1.0
  H  H12  1  0.88695000  0.63964000  0.11701000  1.0
  H  H13  1  0.12821000  0.62582000  0.85410000  1.0
  H  H14  1  0.87176000  0.37418000  0.14591000  1.0
  C  C15  1  0.12156000  0.98305000  0.24870000  1.0
  C  C16  1  0.87845000  0.01696000  0.75130000  1.0
  C  C17  1  0.18295000  0.97026000  0.37542000  1.0
  C  C18  1  0.81708000  0.02975000  0.62458000  1.0
  C  C19  1  0.18088000  0.83193000  0.41792000  1.0
  C  C20  1  0.81914000  0.16808000  0.58208000  1.0
  C  C21  1  0.24475000  0.08620000  0.45527000  1.0
  C  C22  1  0.75528000  0.91380000  0.54474000  1.0
  C  C23  1  0.30159000  0.05948000  0.57084000  1.0
  C  C24  1  0.69845000  0.94053000  0.42916000  1.0
  C  C25  1  0.24266000  0.81451000  0.53328000  1.0
  C  C26  1  0.75738000  0.18550000  0.46671000  1.0
  C  C27  1  0.38529000  0.20648000  0.88602000  1.0
  C  C28  1  0.61468000  0.79351000  0.11399000  1.0
  C  C29  1  0.56618000  0.45680000  0.84619000  1.0
  C  C30  1  0.43378000  0.54319000  0.15381000  1.0
  C  C31  1  0.40207000  0.36527000  0.86552000  1.0
  C  C32  1  0.59790000  0.63471000  0.13447000  1.0
  C  C33  1  0.56555000  0.60388000  0.83481000  1.0
  C  C34  1  0.43442000  0.39611000  0.16520000  1.0
  C  C35  1  0.24242000  0.42817000  0.86722000  1.0
  C  C36  1  0.75755000  0.57183000  0.13278000  1.0
  C  C37  1  0.25025000  0.57422000  0.85113000  1.0
  C  C38  1  0.74972000  0.42578000  0.14888000  1.0
  N  N39  1  0.30226000  0.92654000  0.60888000  1.0
  N  N40  1  0.69778000  0.07347000  0.39112000  1.0
  N  N41  1  0.41044000  0.66139000  0.83684000  1.0
  N  N42  1  0.58953000  0.33860000  0.16316000  1.0
  Cl  Cl43  1  0.24994000  0.26369000  0.42000000  1.0
  Cl  Cl44  1  0.75009000  0.73632000  0.58001000  1.0
  Cl  Cl45  1  0.77475000  0.39704000  0.84209000  1.0
  Cl  Cl46  1  0.22521000  0.60295000  0.15791000  1.0
  O  O47  1  0.20230000  0.08114000  0.18498000  1.0
  O  O48  1  0.79770000  0.91887000  0.81502000  1.0
  O  O49  1  0.11833000  0.85381000  0.95186000  1.0
  O  O50  1  0.88168000  0.14617000  0.04814000  1.0
  O  O51  1  0.99033000  0.89128000  0.20484000  1.0
  O  O52  1  0.00969000  0.10871000  0.79517000  1.0
  O  O53  1  0.27022000  0.16057000  0.96395000  1.0
  O  O54  1  0.72977000  0.83943000  0.03605000  1.0
  O  O55  1  0.48045000  0.13324000  0.82525000  1.0
  O  O56  1  0.51953000  0.86675000  0.17474000  1.0
