# generated using pymatgen
data_Co3H14C12(NO4)4
_symmetry_space_group_name_H-M   'P 1'
_cell_length_a   7.28539000
_cell_length_b   8.85047000
_cell_length_c   9.12004000
_cell_angle_alpha   113.27800000
_cell_angle_beta   108.40100000
_cell_angle_gamma   100.36900000
_symmetry_Int_Tables_number   1
_chemical_formula_structural   Co3H14C12(NO4)4
_chemical_formula_sum   'Co3 H14 C12 N4 O16'
_cell_volume   480.21808482
_cell_formula_units_Z   1
loop_
 _symmetry_equiv_pos_site_id
 _symmetry_equiv_pos_as_xyz
  1  'x, y, z'
loop_
 _atom_site_type_symbol
 _atom_site_label
 _atom_site_symmetry_multiplicity
 _atom_site_fract_x
 _atom_site_fract_y
 _atom_site_fract_z
 _atom_site_occupancy
  Co  Co0  1  0.10416000  0.25102000  0.76197000  1.0
  Co  Co1  1  0.89631000  0.74979000  0.23851000  1.0
  Co  Co2  1  0.00014000  0.00002000  0.00034000  1.0
  H  H3  1  0.33099000  0.62257000  0.50889000  1.0
  H  H4  1  0.66837000  0.37763000  0.49078000  1.0
  H  H5  1  0.46944000  0.26474000  0.94817000  1.0
  H  H6  1  0.53063000  0.73519000  0.05173000  1.0
  H  H7  1  0.52477000  0.38657000  0.86446000  1.0
  H  H8  1  0.47531000  0.61318000  0.13515000  1.0
  H  H9  1  0.75183000  0.30145000  0.73943000  1.0
  H  H10  1  0.24794000  0.69812000  0.26004000  1.0
  H  H11  1  0.75554000  0.14150000  0.77784000  1.0
  H  H12  1  0.24502000  0.85858000  0.22235000  1.0
  H  H13  1  0.31807000  0.88140000  0.99515000  1.0
  H  H14  1  0.68198000  0.11872000  0.00514000  1.0
  H  H15  1  0.41425000  0.08101000  0.14612000  1.0
  H  H16  1  0.58586000  0.91909000  0.85428000  1.0
  C  C17  1  0.24979000  0.58356000  0.77749000  1.0
  C  C18  1  0.75012000  0.41655000  0.22239000  1.0
  C  C19  1  0.20338000  0.44884000  0.59417000  1.0
  C  C20  1  0.79662000  0.55139000  0.40581000  1.0
  C  C21  1  0.25089000  0.48916000  0.47479000  1.0
  C  C22  1  0.74881000  0.51100000  0.52502000  1.0
  C  C23  1  0.18568000  0.34843000  0.30715000  1.0
  C  C24  1  0.81433000  0.65160000  0.69281000  1.0
  C  C25  1  0.22179000  0.37402000  0.16446000  1.0
  C  C26  1  0.77784000  0.62557000  0.83523000  1.0
  C  C27  1  0.02974000  0.15070000  0.38079000  1.0
  C  C28  1  0.97056000  0.84949000  0.61949000  1.0
  N  N29  1  0.10214000  0.28421000  0.55152000  1.0
  N  N30  1  0.89819000  0.71589000  0.44866000  1.0
  N  N31  1  0.08054000  0.18292000  0.25979000  1.0
  N  N32  1  0.91975000  0.81708000  0.74050000  1.0
  O  O33  1  0.16945000  0.52947000  0.86060000  1.0
  O  O34  1  0.83041000  0.47051000  0.13925000  1.0
  O  O35  1  0.36420000  0.74273000  0.84040000  1.0
  O  O36  1  0.63571000  0.25742000  0.15971000  1.0
  O  O37  1  0.32836000  0.52455000  0.20395000  1.0
  O  O38  1  0.67083000  0.47488000  0.79502000  1.0
  O  O39  1  0.14048000  0.23694000  0.01082000  1.0
  O  O40  1  0.85903000  0.76216000  0.98892000  1.0
  O  O41  1  0.91238000  0.00264000  0.33687000  1.0
  O  O42  1  0.08789000  0.99751000  0.66339000  1.0
  O  O43  1  0.41115000  0.30098000  0.86068000  1.0
  O  O44  1  0.58889000  0.69936000  0.13958000  1.0
  O  O45  1  0.80109000  0.20027000  0.71670000  1.0
  O  O46  1  0.19914000  0.79958000  0.28320000  1.0
  O  O47  1  0.29637000  0.97185000  0.09261000  1.0
  O  O48  1  0.70385000  0.02820000  0.90786000  1.0
