# generated using pymatgen
data_ZnH10C15NO9
_symmetry_space_group_name_H-M   'P 1'
_cell_length_a   9.66768000
_cell_length_b   10.73920000
_cell_length_c   11.00200000
_cell_angle_alpha   86.26290000
_cell_angle_beta   86.35240000
_cell_angle_gamma   89.76380000
_symmetry_Int_Tables_number   1
_chemical_formula_structural   ZnH10C15NO9
_chemical_formula_sum   'Zn2 H20 C30 N2 O18'
_cell_volume   1137.52435294
_cell_formula_units_Z   2
loop_
 _symmetry_equiv_pos_site_id
 _symmetry_equiv_pos_as_xyz
  1  'x, y, z'
loop_
 _atom_site_type_symbol
 _atom_site_label
 _atom_site_symmetry_multiplicity
 _atom_site_fract_x
 _atom_site_fract_y
 _atom_site_fract_z
 _atom_site_occupancy
  Zn  Zn0  1  0.35668000  0.49842000  0.51057000  1.0
  Zn  Zn1  1  0.65064000  0.50286000  0.49291000  1.0
  H  H2  1  0.26680000  0.89577000  0.47967000  1.0
  H  H3  1  0.56599000  0.84505000  0.65373000  1.0
  H  H4  1  0.85160000  0.43058000  0.67893000  1.0
  H  H5  1  0.11378000  0.41712000  0.68554000  1.0
  H  H6  1  0.31194000  0.83916000  0.27006000  1.0
  H  H7  1  0.74126000  0.93855000  0.22718000  1.0
  H  H8  1  0.34888000  0.10990000  0.73099000  1.0
  H  H9  1  0.73351000  0.15110000  0.64206000  1.0
  H  H10  1  0.73019000  0.67825000  0.14961000  1.0
  H  H11  1  0.31873000  0.29216000  0.21662000  1.0
  H  H12  1  0.73581000  0.78987000  0.76198000  1.0
  H  H13  1  0.70773000  0.90585000  0.45434000  1.0
  H  H14  1  0.13184000  0.46339000  0.00420000  1.0
  H  H15  1  0.15674000  0.56287000  0.32467000  1.0
  H  H16  1  0.89613000  0.56558000  0.31423000  1.0
  H  H17  1  0.33014000  0.14515000  0.38771000  1.0
  H  H18  1  0.57462000  0.11923000  0.31069000  1.0
  H  H19  1  0.28107000  0.09972000  0.54100000  1.0
  H  H20  1  0.71152000  0.12305000  0.40914000  1.0
  H  H21  1  0.39017000  0.89011000  0.65623000  1.0
  C  C22  1  0.51923000  0.48448000  0.26026000  1.0
  C  C23  1  0.06413000  0.45241000  0.60382000  1.0
  C  C24  1  0.08780000  0.53316000  0.40315000  1.0
  C  C25  1  0.94460000  0.53619000  0.39817000  1.0
  C  C26  1  0.48699000  0.73870000  0.46986000  1.0
  C  C27  1  0.49263000  0.51156000  0.73584000  1.0
  C  C28  1  0.51052000  0.26141000  0.51267000  1.0
  C  C29  1  0.35400000  0.94718000  0.43013000  1.0
  C  C30  1  0.61752000  0.93723000  0.40367000  1.0
  C  C31  1  0.35780000  0.08340000  0.46606000  1.0
  C  C32  1  0.60981000  0.08157000  0.39898000  1.0
  C  C33  1  0.53847000  0.04439000  0.62208000  1.0
  C  C34  1  0.49289000  0.90833000  0.60957000  1.0
  C  C35  1  0.48669000  0.88064000  0.47301000  1.0
  C  C36  1  0.50382000  0.12026000  0.50027000  1.0
  C  C37  1  0.32855000  0.93601000  0.29619000  1.0
  C  C38  1  0.64810000  0.89411000  0.27760000  1.0
  C  C39  1  0.46250000  0.09518000  0.73499000  1.0
  C  C40  1  0.69247000  0.05430000  0.64627000  1.0
  C  C41  1  0.75034000  0.58852000  0.10687000  1.0
  C  C42  1  0.28702000  0.37492000  0.15966000  1.0
  C  C43  1  0.72105000  0.62522000  0.84589000  1.0
  C  C44  1  0.62589000  0.53632000  0.05045000  1.0
  C  C45  1  0.26527000  0.39176000  0.88797000  1.0
  C  C46  1  0.39768000  0.43682000  0.07503000  1.0
  C  C47  1  0.61313000  0.54963000  0.92408000  1.0
  C  C48  1  0.38645000  0.44655000  0.94789000  1.0
  C  C49  1  0.49553000  0.50317000  0.87294000  1.0
  C  C50  1  0.51636000  0.48245000  0.12493000  1.0
  C  C51  1  0.92053000  0.45781000  0.59959000  1.0
  N  N52  1  0.14610000  0.49149000  0.50572000  1.0
  N  N53  1  0.86224000  0.49997000  0.49708000  1.0
  O  O54  1  0.40463000  0.46276000  0.32185000  1.0
  O  O55  1  0.58062000  0.81696000  0.22971000  1.0
  O  O56  1  0.52290000  0.11674000  0.82534000  1.0
  O  O57  1  0.76790000  0.96541000  0.66991000  1.0
  O  O58  1  0.86537000  0.54098000  0.09940000  1.0
  O  O59  1  0.16442000  0.40664000  0.15914000  1.0
  O  O60  1  0.84076000  0.59441000  0.82327000  1.0
  O  O61  1  0.66633000  0.73709000  0.81080000  1.0
  O  O62  1  0.28280000  0.31874000  0.80783000  1.0
  O  O63  1  0.13714000  0.43050000  0.92156000  1.0
  O  O64  1  0.63372000  0.51019000  0.30349000  1.0
  O  O65  1  0.37362000  0.68347000  0.45674000  1.0
  O  O66  1  0.60285000  0.68664000  0.48936000  1.0
  O  O67  1  0.38114000  0.54336000  0.68772000  1.0
  O  O68  1  0.60721000  0.48536000  0.67979000  1.0
  O  O69  1  0.39782000  0.31516000  0.54381000  1.0
  O  O70  1  0.62760000  0.31395000  0.48954000  1.0
  O  O71  1  0.32171000  0.02496000  0.22154000  1.0
