# generated using pymatgen
data_CaP2H8(C2O5)2
_symmetry_space_group_name_H-M   'P 1'
_cell_length_a   5.52632000
_cell_length_b   7.29338000
_cell_length_c   13.00442000
_cell_angle_alpha   74.73417133
_cell_angle_beta   89.99912506
_cell_angle_gamma   89.99970000
_symmetry_Int_Tables_number   1
_chemical_formula_structural   CaP2H8(C2O5)2
_chemical_formula_sum   'Ca2 P4 H16 C8 O20'
_cell_volume   505.65548090
_cell_formula_units_Z   2
loop_
 _symmetry_equiv_pos_site_id
 _symmetry_equiv_pos_as_xyz
  1  'x, y, z'
loop_
 _atom_site_type_symbol
 _atom_site_label
 _atom_site_symmetry_multiplicity
 _atom_site_fract_x
 _atom_site_fract_y
 _atom_site_fract_z
 _atom_site_occupancy
  Ca  Ca0  1  0.37447000  0.25000000  0.50000000  1.0
  Ca  Ca1  1  0.62553000  0.75000000  0.50000000  1.0
  P  P2  1  0.82429000  0.42925000  0.34299000  1.0
  P  P3  1  0.17571000  0.92926000  0.34299000  1.0
  P  P4  1  0.17572000  0.57075000  0.65701000  1.0
  P  P5  1  0.82429000  0.07076000  0.65700000  1.0
  H  H6  1  0.79494000  0.11386000  0.34232000  1.0
  H  H7  1  0.20507000  0.61386000  0.34231000  1.0
  H  H8  1  0.20506000  0.88614000  0.65769000  1.0
  H  H9  1  0.79493000  0.38614000  0.65769000  1.0
  H  H10  1  0.79336000  0.46490000  0.99779000  1.0
  H  H11  1  0.20662000  0.96491000  0.99779000  1.0
  H  H12  1  0.20663000  0.53510000  0.00221000  1.0
  H  H13  1  0.79336000  0.03509000  0.00221000  1.0
  H  H14  1  0.55543000  0.60372000  0.21042000  1.0
  H  H15  1  0.44457000  0.10375000  0.21042000  1.0
  H  H16  1  0.44459000  0.39627000  0.78958000  1.0
  H  H17  1  0.55543000  0.89627000  0.78958000  1.0
  H  H18  1  0.81360000  0.74095000  0.22370000  1.0
  H  H19  1  0.18637000  0.24095000  0.22370000  1.0
  H  H20  1  0.18642000  0.25905000  0.77630000  1.0
  H  H21  1  0.81361000  0.75905000  0.77630000  1.0
  C  C22  1  0.86639000  0.55465000  0.12262000  1.0
  C  C23  1  0.13361000  0.05465000  0.12262000  1.0
  C  C24  1  0.13363000  0.44535000  0.87738000  1.0
  C  C25  1  0.86640000  0.94535000  0.87737000  1.0
  C  C26  1  0.75311000  0.60072000  0.21782000  1.0
  C  C27  1  0.24689000  0.10073000  0.21781000  1.0
  C  C28  1  0.24691000  0.39927000  0.78219000  1.0
  C  C29  1  0.75311000  0.89928000  0.78219000  1.0
  O  O30  1  0.70449000  0.24055000  0.32915000  1.0
  O  O31  1  0.29552000  0.74055000  0.32915000  1.0
  O  O32  1  0.29551000  0.75945000  0.67086000  1.0
  O  O33  1  0.70448000  0.25946000  0.67085000  1.0
  O  O34  1  0.68473000  0.48366000  0.43145000  1.0
  O  O35  1  0.31527000  0.98367000  0.43145000  1.0
  O  O36  1  0.31527000  0.51634000  0.56855000  1.0
  O  O37  1  0.68474000  0.01633000  0.56855000  1.0
  O  O38  1  0.09800000  0.41069000  0.36141000  1.0
  O  O39  1  0.90200000  0.91068000  0.36141000  1.0
  O  O40  1  0.90200000  0.58931000  0.63860000  1.0
  O  O41  1  0.09800000  0.08933000  0.63859000  1.0
  O  O42  1  0.08794000  0.57285000  0.10470000  1.0
  O  O43  1  0.91203000  0.07283000  0.10471000  1.0
  O  O44  1  0.91206000  0.42713000  0.89530000  1.0
  O  O45  1  0.08795000  0.92714000  0.89529000  1.0
  O  O46  1  0.71026000  0.49453000  0.06250000  1.0
  O  O47  1  0.28973000  0.99455000  0.06249000  1.0
  O  O48  1  0.28973000  0.50547000  0.93750000  1.0
  O  O49  1  0.71026000  0.00545000  0.93751000  1.0
