# generated using pymatgen
data_ZnH14(C3O)4
_symmetry_space_group_name_H-M   'P 1'
_cell_length_a   6.75201000
_cell_length_b   7.88660000
_cell_length_c   10.74710000
_cell_angle_alpha   68.48440000
_cell_angle_beta   89.59980000
_cell_angle_gamma   88.84980000
_symmetry_Int_Tables_number   1
_chemical_formula_structural   ZnH14(C3O)4
_chemical_formula_sum   'Zn2 H28 C24 O8'
_cell_volume   532.30180045
_cell_formula_units_Z   2
loop_
 _symmetry_equiv_pos_site_id
 _symmetry_equiv_pos_as_xyz
  1  'x, y, z'
loop_
 _atom_site_type_symbol
 _atom_site_label
 _atom_site_symmetry_multiplicity
 _atom_site_fract_x
 _atom_site_fract_y
 _atom_site_fract_z
 _atom_site_occupancy
  Zn  Zn0  1  0.01076000  0.03957000  0.92559000  1.0
  Zn  Zn1  1  0.51067000  0.96485000  0.07450000  1.0
  H  H2  1  0.15849000  0.50606000  0.10729000  1.0
  H  H3  1  0.65819000  0.61296000  0.89271000  1.0
  H  H4  1  0.94038000  0.42850000  0.05653000  1.0
  H  H5  1  0.44012000  0.48476000  0.94354000  1.0
  H  H6  1  0.62068000  0.46280000  0.33443000  1.0
  H  H7  1  0.12028000  0.79724000  0.66556000  1.0
  H  H8  1  0.62224000  0.40254000  0.19068000  1.0
  H  H9  1  0.12176000  0.59318000  0.80919000  1.0
  H  H10  1  0.63235000  0.12486000  0.39711000  1.0
  H  H11  1  0.13171000  0.52220000  0.60267000  1.0
  H  H12  1  0.80593000  0.11679000  0.19469000  1.0
  H  H13  1  0.30525000  0.31135000  0.80496000  1.0
  H  H14  1  0.93147000  0.97457000  0.34161000  1.0
  H  H15  1  0.43076000  0.31620000  0.65804000  1.0
  H  H16  1  0.24634000  0.08686000  0.41403000  1.0
  H  H17  1  0.74570000  0.50053000  0.58599000  1.0
  H  H18  1  0.33821000  0.30426000  0.31796000  1.0
  H  H19  1  0.83774000  0.62163000  0.68225000  1.0
  H  H20  1  0.15575000  0.59064000  0.31388000  1.0
  H  H21  1  0.65548000  0.90396000  0.68646000  1.0
  H  H22  1  0.93359000  0.57466000  0.40635000  1.0
  H  H23  1  0.43338000  0.98077000  0.59383000  1.0
  H  H24  1  0.93063000  0.05986000  0.54845000  1.0
  H  H25  1  0.43016000  0.60820000  0.45151000  1.0
  H  H26  1  0.80090000  0.25652000  0.54781000  1.0
  H  H27  1  0.30053000  0.80428000  0.45214000  1.0
  H  H28  1  0.16423000  0.30975000  0.52189000  1.0
  H  H29  1  0.66393000  0.83132000  0.47832000  1.0
  C  C30  1  0.08239000  0.22799000  0.23113000  1.0
  C  C31  1  0.58181000  0.45876000  0.76881000  1.0
  C  C32  1  0.02425000  0.42634000  0.14423000  1.0
  C  C33  1  0.52386000  0.57020000  0.85580000  1.0
  C  C34  1  0.89912000  0.51241000  0.22650000  1.0
  C  C35  1  0.39868000  0.73858000  0.77358000  1.0
  C  C36  1  0.71117000  0.39982000  0.27698000  1.0
  C  C37  1  0.21071000  0.67669000  0.72296000  1.0
  C  C38  1  0.76843000  0.20292000  0.36389000  1.0
  C  C39  1  0.26790000  0.56679000  0.63594000  1.0
  C  C40  1  0.89144000  0.11716000  0.28106000  1.0
  C  C41  1  0.39076000  0.39809000  0.71868000  1.0
  C  C42  1  0.20182000  0.22721000  0.35240000  1.0
  C  C43  1  0.70131000  0.57919000  0.64768000  1.0
  C  C44  1  0.02135000  0.50984000  0.34878000  1.0
  C  C45  1  0.52104000  0.85825000  0.65141000  1.0
  C  C46  1  0.88908000  0.20072000  0.48477000  1.0
  C  C47  1  0.38868000  0.68541000  0.51518000  1.0
  C  C48  1  0.07697000  0.31192000  0.43535000  1.0
  C  C49  1  0.57660000  0.74694000  0.56480000  1.0
  C  C50  1  0.19422000  0.13942000  0.14690000  1.0
  C  C51  1  0.69374000  0.28600000  0.85300000  1.0
  C  C52  1  0.84335000  0.71023000  0.14480000  1.0
  C  C53  1  0.34319000  0.85478000  0.85534000  1.0
  O  O54  1  0.13350000  0.17313000  0.02792000  1.0
  O  O55  1  0.63320000  0.20060000  0.97194000  1.0
  O  O56  1  0.34241000  0.03395000  0.19849000  1.0
  O  O57  1  0.84221000  0.23237000  0.80146000  1.0
  O  O58  1  0.94491000  0.79095000  0.03970000  1.0
  O  O59  1  0.44486000  0.83018000  0.96044000  1.0
  O  O60  1  0.70207000  0.78246000  0.18852000  1.0
  O  O61  1  0.20214000  0.97104000  0.81160000  1.0
