# generated using pymatgen
data_CdH12C12(N5O)2
_symmetry_space_group_name_H-M   'P 1'
_cell_length_a   7.92384000
_cell_length_b   8.42872000
_cell_length_c   10.86470000
_cell_angle_alpha   95.53690000
_cell_angle_beta   89.99990000
_cell_angle_gamma   90.00000000
_symmetry_Int_Tables_number   1
_chemical_formula_structural   CdH12C12(N5O)2
_chemical_formula_sum   'Cd2 H24 C24 N20 O4'
_cell_volume   722.24412613
_cell_formula_units_Z   2
loop_
 _symmetry_equiv_pos_site_id
 _symmetry_equiv_pos_as_xyz
  1  'x, y, z'
loop_
 _atom_site_type_symbol
 _atom_site_label
 _atom_site_symmetry_multiplicity
 _atom_site_fract_x
 _atom_site_fract_y
 _atom_site_fract_z
 _atom_site_occupancy
  Cd  Cd0  1  0.00000000  0.50000000  0.50000000  1.0
  Cd  Cd1  1  0.50000000  0.00000000  0.00000000  1.0
  H  H2  1  0.71142000  0.42855000  0.69011000  1.0
  H  H3  1  0.21142000  0.07145000  0.80989000  1.0
  H  H4  1  0.28858000  0.57145000  0.30989000  1.0
  H  H5  1  0.78858000  0.92855000  0.19011000  1.0
  H  H6  1  0.53783000  0.21286000  0.76694000  1.0
  H  H7  1  0.03783000  0.28714000  0.73306000  1.0
  H  H8  1  0.46217000  0.78714000  0.23306000  1.0
  H  H9  1  0.96217000  0.71286000  0.26694000  1.0
  H  H10  1  0.93135000  0.11716000  0.41883000  1.0
  H  H11  1  0.43135000  0.38284000  0.08117000  1.0
  H  H12  1  0.06865000  0.88284000  0.58117000  1.0
  H  H13  1  0.56865000  0.61716000  0.91883000  1.0
  H  H14  1  0.76469000  0.88775000  0.48225000  1.0
  H  H15  1  0.26469000  0.61225000  0.01775000  1.0
  H  H16  1  0.23531000  0.11225000  0.51775000  1.0
  H  H17  1  0.73531000  0.38775000  0.98225000  1.0
  H  H18  1  0.65913000  0.65556000  0.49899000  1.0
  H  H19  1  0.15913000  0.84444000  0.00101000  1.0
  H  H20  1  0.34087000  0.34444000  0.50101000  1.0
  H  H21  1  0.84087000  0.15556000  0.99899000  1.0
  H  H22  1  0.67233000  0.51060000  0.39291000  1.0
  H  H23  1  0.17233000  0.98940000  0.10709000  1.0
  H  H24  1  0.32767000  0.48940000  0.60709000  1.0
  H  H25  1  0.82767000  0.01060000  0.89291000  1.0
  C  C26  1  0.72021000  0.30648000  0.64702000  1.0
  C  C27  1  0.22021000  0.19352000  0.85298000  1.0
  C  C28  1  0.27979000  0.69352000  0.35298000  1.0
  C  C29  1  0.77979000  0.80648000  0.14702000  1.0
  C  C30  1  0.62324000  0.18566000  0.68954000  1.0
  C  C31  1  0.12324000  0.31434000  0.81046000  1.0
  C  C32  1  0.37676000  0.81434000  0.31046000  1.0
  C  C33  1  0.87676000  0.68566000  0.18954000  1.0
  C  C34  1  0.84225000  0.13289000  0.49548000  1.0
  C  C35  1  0.34225000  0.36711000  0.00452000  1.0
  C  C36  1  0.15775000  0.86711000  0.50452000  1.0
  C  C37  1  0.65775000  0.63289000  0.99548000  1.0
  C  C38  1  0.74941000  0.00559000  0.53135000  1.0
  C  C39  1  0.24941000  0.49441000  0.96865000  1.0
  C  C40  1  0.25059000  0.99441000  0.46865000  1.0
  C  C41  1  0.75059000  0.50559000  0.03135000  1.0
  C  C42  1  0.54871000  0.89520000  0.67604000  1.0
  C  C43  1  0.04871000  0.60480000  0.82396000  1.0
  C  C44  1  0.45129000  0.10480000  0.32396000  1.0
  C  C45  1  0.95129000  0.39520000  0.17604000  1.0
  C  C46  1  0.63981000  0.02984000  0.63292000  1.0
  C  C47  1  0.13981000  0.47016000  0.86708000  1.0
  C  C48  1  0.36019000  0.97016000  0.36708000  1.0
  C  C49  1  0.86019000  0.52984000  0.13292000  1.0
  N  N50  1  0.83132000  0.28106000  0.55344000  1.0
  N  N51  1  0.33132000  0.21894000  0.94656000  1.0
  N  N52  1  0.16868000  0.71894000  0.44656000  1.0
  N  N53  1  0.66868000  0.78107000  0.05344000  1.0
  N  N54  1  0.47230000  0.88983000  0.78715000  1.0
  N  N55  1  0.97229000  0.61017000  0.71285000  1.0
  N  N56  1  0.52770000  0.11017000  0.21285000  1.0
  N  N57  1  0.02771000  0.38983000  0.28715000  1.0
  N  N58  1  0.40415000  0.74334000  0.78518000  1.0
  N  N59  1  0.90415000  0.75666000  0.71482000  1.0
  N  N60  1  0.59585000  0.25666000  0.21482000  1.0
  N  N61  1  0.09585000  0.24334000  0.28518000  1.0
  N  N62  1  0.43839000  0.66334000  0.67754000  1.0
  N  N63  1  0.93839000  0.83666000  0.82246000  1.0
  N  N64  1  0.56161000  0.33666000  0.32246000  1.0
  N  N65  1  0.06161000  0.16334000  0.17754000  1.0
  N  N66  1  0.52879000  0.75456000  0.60770000  1.0
  N  N67  1  0.02879000  0.74544000  0.89230000  1.0
  N  N68  1  0.47121000  0.24544000  0.39230000  1.0
  N  N69  1  0.97121000  0.25456000  0.10770000  1.0
  O  O70  1  0.73893000  0.59901000  0.43754000  1.0
  O  O71  1  0.23893000  0.90099000  0.06246000  1.0
  O  O72  1  0.26107000  0.40099000  0.56246000  1.0
  O  O73  1  0.76107000  0.09901000  0.93754000  1.0
