# generated using pymatgen
data_HoH9C10(N2O5)2
_symmetry_space_group_name_H-M   'P 1'
_cell_length_a   9.22707000
_cell_length_b   10.86700000
_cell_length_c   14.25900000
_cell_angle_alpha   104.89300000
_cell_angle_beta   90.00000000
_cell_angle_gamma   90.00000000
_symmetry_Int_Tables_number   1
_chemical_formula_structural   HoH9C10(N2O5)2
_chemical_formula_sum   'Ho4 H36 C40 N16 O40'
_cell_volume   1381.72888694
_cell_formula_units_Z   4
loop_
 _symmetry_equiv_pos_site_id
 _symmetry_equiv_pos_as_xyz
  1  'x, y, z'
loop_
 _atom_site_type_symbol
 _atom_site_label
 _atom_site_symmetry_multiplicity
 _atom_site_fract_x
 _atom_site_fract_y
 _atom_site_fract_z
 _atom_site_occupancy
  Ho  Ho0  1  0.37372000  0.04229000  0.76457000  1.0
  Ho  Ho1  1  0.87372000  0.45771000  0.73543000  1.0
  Ho  Ho2  1  0.62628000  0.95771000  0.23543000  1.0
  Ho  Ho3  1  0.12628000  0.54229000  0.26457000  1.0
  H  H4  1  0.60596000  0.72058000  0.01627000  1.0
  H  H5  1  0.10596000  0.77942000  0.48373000  1.0
  H  H6  1  0.39404000  0.27942000  0.98373000  1.0
  H  H7  1  0.89404000  0.22058000  0.51627000  1.0
  H  H8  1  0.10912000  0.68509000  0.92520000  1.0
  H  H9  1  0.60912000  0.81491000  0.57480000  1.0
  H  H10  1  0.89088000  0.31491000  0.07480000  1.0
  H  H11  1  0.39088000  0.18509000  0.42520000  1.0
  H  H12  1  0.09650000  0.80528000  0.73111000  1.0
  H  H13  1  0.59650000  0.69472000  0.76889000  1.0
  H  H14  1  0.90350000  0.19472000  0.26889000  1.0
  H  H15  1  0.40350000  0.30528000  0.23111000  1.0
  H  H16  1  0.44399000  0.40948000  0.84286000  1.0
  H  H17  1  0.94399000  0.09052000  0.65714000  1.0
  H  H18  1  0.55601000  0.59052000  0.15714000  1.0
  H  H19  1  0.05601000  0.90948000  0.34286000  1.0
  H  H20  1  0.84152000  0.05860000  0.94879000  1.0
  H  H21  1  0.34152000  0.44140000  0.55121000  1.0
  H  H22  1  0.15848000  0.94140000  0.05121000  1.0
  H  H23  1  0.65848000  0.55860000  0.44879000  1.0
  H  H24  1  0.58606000  0.92923000  0.87294000  1.0
  H  H25  1  0.08606000  0.57078000  0.62706000  1.0
  H  H26  1  0.41394000  0.07078000  0.12706000  1.0
  H  H27  1  0.91394000  0.42923000  0.37294000  1.0
  H  H28  1  0.55634000  0.07327000  0.93466000  1.0
  H  H29  1  0.05634000  0.42673000  0.56534000  1.0
  H  H30  1  0.44366000  0.92674000  0.06534000  1.0
  H  H31  1  0.94366000  0.57327000  0.43466000  1.0
  H  H32  1  0.34642000  0.89127000  0.55926000  1.0
  H  H33  1  0.84642000  0.60873000  0.94074000  1.0
  H  H34  1  0.65358000  0.10873000  0.44074000  1.0
  H  H35  1  0.15358000  0.39127000  0.05926000  1.0
  H  H36  1  0.20871000  0.98325000  0.58326000  1.0
  H  H37  1  0.70871000  0.51675000  0.91674000  1.0
  H  H38  1  0.79129000  0.01675000  0.41674000  1.0
  H  H39  1  0.29129000  0.48325000  0.08326000  1.0
  C  C40  1  0.16422000  0.29414000  0.73942000  1.0
  C  C41  1  0.66422000  0.20586000  0.76058000  1.0
  C  C42  1  0.83578000  0.70586000  0.26058000  1.0
  C  C43  1  0.33577000  0.79414000  0.23942000  1.0
  C  C44  1  0.21079000  0.41800000  0.80471000  1.0
  C  C45  1  0.71079000  0.08200000  0.69529000  1.0
  C  C46  1  0.78921000  0.58200000  0.19529000  1.0
  C  C47  1  0.28921000  0.91800000  0.30471000  1.0
  C  C48  1  0.34320000  0.46230000  0.84958000  1.0
  C  C49  1  0.84320000  0.03770000  0.65042000  1.0
  C  C50  1  0.65680000  0.53770000  0.15042000  1.0
  C  C51  1  0.15680000  0.96230000  0.34958000  1.0
  C  C52  1  0.31439000  0.58649000  0.90309000  1.0
  C  C53  1  0.81439000  0.91350000  0.59690000  1.0
  C  C54  1  0.68561000  0.41350000  0.09690000  1.0
  C  C55  1  0.18561000  0.08649000  0.40310000  1.0
  C  C56  1  0.40583000  0.68807000  0.96270000  1.0
  C  C57  1  0.90583000  0.81192000  0.53730000  1.0
  C  C58  1  0.59417000  0.31192000  0.03730000  1.0
  C  C59  1  0.09417000  0.18807000  0.46270000  1.0
  C  C60  1  0.14131000  0.18251000  0.94064000  1.0
  C  C61  1  0.64131000  0.31749000  0.55936000  1.0
  C  C62  1  0.85869000  0.81749000  0.05936000  1.0
  C  C63  1  0.35869000  0.68251000  0.44064000  1.0
  C  C64  1  0.06258000  0.06748000  0.88619000  1.0
  C  C65  1  0.56258000  0.43252000  0.61381000  1.0
  C  C66  1  0.93742000  0.93252000  0.11381000  1.0
  C  C67  1  0.43742000  0.56748000  0.38619000  1.0
  C  C68  1  0.92613000  0.01585000  0.89819000  1.0
  C  C69  1  0.42612000  0.48415000  0.60181000  1.0
  C  C70  1  0.07387000  0.98415000  0.10181000  1.0
  C  C71  1  0.57388000  0.51586000  0.39819000  1.0
  C  C72  1  0.92654000  0.89551000  0.83275000  1.0
  C  C73  1  0.42655000  0.60449000  0.66725000  1.0
  C  C74  1  0.07345000  0.10449000  0.16725000  1.0
  C  C75  1  0.57346000  0.39551000  0.33275000  1.0
  C  C76  1  0.82558000  0.78567000  0.81264000  1.0
  C  C77  1  0.32558000  0.71433000  0.68736000  1.0
  C  C78  1  0.17442000  0.21433000  0.18736000  1.0
  C  C79  1  0.67442000  0.28567000  0.31264000  1.0
  N  N80  1  0.17164000  0.60969000  0.88818000  1.0
  N  N81  1  0.67164000  0.89031000  0.61182000  1.0
  N  N82  1  0.82836000  0.39031000  0.11182000  1.0
  N  N83  1  0.32836000  0.10969000  0.38818000  1.0
  N  N84  1  0.10783000  0.50939000  0.82944000  1.0
  N  N85  1  0.60783000  0.99061000  0.67056000  1.0
  N  N86  1  0.89217000  0.49061000  0.17056000  1.0
  N  N87  1  0.39217000  0.00939000  0.32944000  1.0
  N  N88  1  0.13813000  0.98536000  0.81590000  1.0
  N  N89  1  0.63813000  0.51464000  0.68409000  1.0
  N  N90  1  0.86187000  0.01464000  0.18409000  1.0
  N  N91  1  0.36187000  0.48536000  0.31591000  1.0
  N  N92  1  0.05539000  0.88304000  0.78515000  1.0
  N  N93  1  0.55540000  0.61696000  0.71484000  1.0
  N  N94  1  0.94460000  0.11696000  0.21484000  1.0
  N  N95  1  0.44460000  0.38304000  0.28516000  1.0
  O  O96  1  0.07439000  0.26513000  0.00429000  1.0
  O  O97  1  0.57439000  0.23487000  0.49571000  1.0
  O  O98  1  0.92561000  0.73487000  0.99571000  1.0
  O  O99  1  0.42561000  0.76513000  0.50429000  1.0
  O  O100  1  0.27688000  0.18691000  0.91897000  1.0
  O  O101  1  0.77688000  0.31309000  0.58103000  1.0
  O  O102  1  0.72312000  0.81309000  0.08103000  1.0
  O  O103  1  0.22312000  0.68691000  0.41897000  1.0
  O  O104  1  0.03649000  0.29092000  0.70497000  1.0
  O  O105  1  0.53649000  0.20908000  0.79503000  1.0
  O  O106  1  0.96351000  0.70908000  0.29503000  1.0
  O  O107  1  0.46351000  0.79092000  0.20497000  1.0
  O  O108  1  0.24794000  0.19923000  0.72233000  1.0
  O  O109  1  0.74794000  0.30077000  0.77767000  1.0
  O  O110  1  0.75206000  0.80077000  0.27767000  1.0
  O  O111  1  0.25206000  0.69923000  0.22233000  1.0
  O  O112  1  0.53931000  0.65021000  0.97588000  1.0
  O  O113  1  0.03931000  0.84979000  0.52412000  1.0
  O  O114  1  0.46069000  0.34979000  0.02412000  1.0
  O  O115  1  0.96069000  0.15021000  0.47588000  1.0
  O  O116  1  0.35736000  0.79696000  0.99460000  1.0
  O  O117  1  0.85736000  0.70302000  0.50540000  1.0
  O  O118  1  0.64264000  0.20302000  0.00540000  1.0
  O  O119  1  0.14264000  0.29697000  0.49460000  1.0
  O  O120  1  0.87961000  0.67946000  0.76682000  1.0
  O  O121  1  0.37961000  0.82054000  0.73318000  1.0
  O  O122  1  0.12039000  0.32054000  0.23318000  1.0
  O  O123  1  0.62039000  0.17946000  0.26682000  1.0
  O  O124  1  0.69485000  0.80358000  0.84087000  1.0
  O  O125  1  0.19485000  0.69642000  0.65913000  1.0
  O  O126  1  0.30515000  0.19643000  0.15913000  1.0
  O  O127  1  0.80515000  0.30358000  0.34087000  1.0
  O  O128  1  0.51365000  0.99991000  0.88593000  1.0
  O  O129  1  0.01364000  0.50009000  0.61407000  1.0
  O  O130  1  0.48636000  0.00009000  0.11407000  1.0
  O  O131  1  0.98635000  0.49991000  0.38593000  1.0
  O  O132  1  0.30973000  0.97577000  0.60079000  1.0
  O  O133  1  0.80973000  0.52423000  0.89921000  1.0
  O  O134  1  0.69027000  0.02423000  0.39921000  1.0
  O  O135  1  0.19027000  0.47577000  0.10079000  1.0
