# generated using pymatgen
data_Ba2H22(C6O5)3
_symmetry_space_group_name_H-M   'P 1'
_cell_length_a   7.49086000
_cell_length_b   12.03020000
_cell_length_c   14.46150000
_cell_angle_alpha   114.56800000
_cell_angle_beta   100.01400000
_cell_angle_gamma   90.00520000
_symmetry_Int_Tables_number   1
_chemical_formula_structural   Ba2H22(C6O5)3
_chemical_formula_sum   'Ba4 H44 C36 O30'
_cell_volume   1163.36232975
_cell_formula_units_Z   2
loop_
 _symmetry_equiv_pos_site_id
 _symmetry_equiv_pos_as_xyz
  1  'x, y, z'
loop_
 _atom_site_type_symbol
 _atom_site_label
 _atom_site_symmetry_multiplicity
 _atom_site_fract_x
 _atom_site_fract_y
 _atom_site_fract_z
 _atom_site_occupancy
  Ba  Ba0  1  0.93994000  0.16141000  0.88538000  1.0
  Ba  Ba1  1  0.55972000  0.27600000  0.11459000  1.0
  Ba  Ba2  1  0.06006000  0.83859000  0.11461000  1.0
  Ba  Ba3  1  0.44028000  0.72400000  0.88541000  1.0
  H  H4  1  0.09925000  0.45615000  0.99483000  1.0
  H  H5  1  0.40082000  0.46166000  0.00523000  1.0
  H  H6  1  0.90083000  0.54380000  0.00516000  1.0
  H  H7  1  0.59926000  0.53837000  0.99477000  1.0
  H  H8  1  0.09661000  0.42631000  0.09148000  1.0
  H  H9  1  0.40332000  0.33511000  0.90864000  1.0
  H  H10  1  0.90337000  0.57369000  0.90852000  1.0
  H  H11  1  0.59666000  0.66489000  0.09136000  1.0
  H  H12  1  0.19128000  0.09204000  0.04544000  1.0
  H  H13  1  0.30851000  0.04656000  0.95443000  1.0
  H  H14  1  0.80872000  0.90796000  0.95456000  1.0
  H  H15  1  0.69148000  0.95344000  0.04556000  1.0
  H  H16  1  0.77521000  0.36982000  0.78914000  1.0
  H  H17  1  0.72501000  0.58046000  0.21068000  1.0
  H  H18  1  0.22478000  0.63018000  0.21086000  1.0
  H  H19  1  0.27499000  0.41954000  0.78932000  1.0
  H  H20  1  0.60435000  0.28986000  0.78758000  1.0
  H  H21  1  0.89580000  0.50203000  0.21229000  1.0
  H  H22  1  0.39565000  0.71015000  0.21242000  1.0
  H  H23  1  0.10419000  0.49797000  0.78771000  1.0
  H  H24  1  0.43753000  0.30242000  0.63305000  1.0
  H  H25  1  0.06228000  0.66883000  0.36684000  1.0
  H  H26  1  0.56247000  0.69759000  0.36695000  1.0
  H  H27  1  0.93773000  0.33118000  0.63316000  1.0
  H  H28  1  0.47798000  0.22807000  0.45253000  1.0
  H  H29  1  0.02206000  0.77524000  0.54734000  1.0
  H  H30  1  0.52201000  0.77193000  0.54746000  1.0
  H  H31  1  0.97794000  0.22476000  0.45266000  1.0
  H  H32  1  0.18837000  0.88247000  0.37893000  1.0
  H  H33  1  0.31149000  0.50341000  0.62125000  1.0
  H  H34  1  0.81163000  0.11753000  0.62107000  1.0
  H  H35  1  0.68851000  0.49659000  0.37875000  1.0
  H  H36  1  0.14641000  0.96103000  0.56298000  1.0
  H  H37  1  0.35318000  0.39761000  0.43719000  1.0
  H  H38  1  0.85360000  0.03897000  0.43702000  1.0
  H  H39  1  0.64682000  0.60239000  0.56281000  1.0
  H  H40  1  0.59927000  0.08810000  0.32248000  1.0
  H  H41  1  0.90085000  0.76543000  0.67755000  1.0
  H  H42  1  0.40073000  0.91191000  0.67752000  1.0
  H  H43  1  0.09915000  0.23457000  0.32245000  1.0
  H  H44  1  0.41007000  0.15710000  0.27949000  1.0
  H  H45  1  0.08994000  0.87750000  0.72031000  1.0
  H  H46  1  0.58993000  0.84290000  0.72051000  1.0
  H  H47  1  0.91006000  0.12250000  0.27969000  1.0
  C  C48  1  0.28840000  0.13684000  0.61033000  1.0
  C  C49  1  0.21133000  0.52603000  0.38969000  1.0
  C  C50  1  0.71160000  0.86317000  0.38967000  1.0
  C  C51  1  0.78868000  0.47398000  0.61031000  1.0
  C  C52  1  0.38086000  0.21083000  0.57743000  1.0
  C  C53  1  0.11902000  0.63294000  0.42253000  1.0
  C  C54  1  0.61913000  0.78917000  0.42257000  1.0
  C  C55  1  0.88099000  0.36706000  0.57748000  1.0
  C  C56  1  0.40227000  0.16920000  0.47493000  1.0
  C  C57  1  0.09771000  0.69395000  0.52501000  1.0
  C  C58  1  0.59773000  0.83080000  0.52507000  1.0
  C  C59  1  0.90230000  0.30605000  0.47498000  1.0
  C  C60  1  0.33084000  0.05064000  0.40350000  1.0
  C  C61  1  0.16920000  0.64698000  0.59655000  1.0
  C  C62  1  0.66916000  0.94937000  0.59650000  1.0
  C  C63  1  0.83080000  0.35302000  0.40345000  1.0
  C  C64  1  0.23886000  0.97509000  0.43520000  1.0
  C  C65  1  0.26102000  0.53968000  0.56491000  1.0
  C  C66  1  0.76113000  0.02491000  0.56480000  1.0
  C  C67  1  0.73899000  0.46032000  0.43509000  1.0
  C  C68  1  0.21805000  0.01860000  0.53752000  1.0
  C  C69  1  0.28170000  0.48070000  0.46259000  1.0
  C  C70  1  0.78195000  0.98140000  0.46248000  1.0
  C  C71  1  0.71830000  0.51930000  0.53741000  1.0
  C  C72  1  0.26683000  0.18176000  0.72057000  1.0
  C  C73  1  0.23280000  0.46074000  0.27944000  1.0
  C  C74  1  0.73316000  0.81824000  0.27943000  1.0
  C  C75  1  0.76720000  0.53926000  0.72056000  1.0
  C  C76  1  0.46428000  0.06912000  0.27191000  1.0
  C  C77  1  0.03587000  0.79716000  0.72805000  1.0
  C  C78  1  0.53572000  0.93088000  0.72809000  1.0
  C  C79  1  0.96412000  0.20284000  0.27195000  1.0
  C  C80  1  0.48896000  0.99859000  0.16039000  1.0
  C  C81  1  0.01125000  0.83837000  0.83962000  1.0
  C  C82  1  0.51105000  0.00142000  0.83962000  1.0
  C  C83  1  0.98874000  0.16163000  0.16038000  1.0
  O  O84  1  0.16230000  0.12129000  0.74589000  1.0
  O  O85  1  0.33704000  0.37481000  0.25403000  1.0
  O  O86  1  0.83770000  0.87872000  0.25411000  1.0
  O  O87  1  0.66295000  0.62519000  0.74597000  1.0
  O  O88  1  0.35951000  0.28364000  0.78548000  1.0
  O  O89  1  0.14043000  0.49792000  0.21459000  1.0
  O  O90  1  0.64049000  0.71636000  0.21452000  1.0
  O  O91  1  0.85956000  0.50208000  0.78540000  1.0
  O  O92  1  0.34541000  0.00136000  0.30092000  1.0
  O  O93  1  0.15481000  0.70042000  0.69915000  1.0
  O  O94  1  0.65458000  0.99865000  0.69908000  1.0
  O  O95  1  0.84519000  0.29958000  0.30085000  1.0
  O  O96  1  0.59571000  0.05764000  0.13366000  1.0
  O  O97  1  0.90429000  0.92399000  0.86622000  1.0
  O  O98  1  0.40427000  0.94236000  0.86634000  1.0
  O  O99  1  0.09571000  0.07600000  0.13378000  1.0
  O  O100  1  0.41013000  0.89333000  0.10357000  1.0
  O  O101  1  0.09040000  0.79021000  0.89658000  1.0
  O  O102  1  0.58988000  0.10665000  0.89643000  1.0
  O  O103  1  0.90960000  0.20978000  0.10342000  1.0
  O  O104  1  0.04915000  0.39599000  0.01440000  1.0
  O  O105  1  0.45078000  0.38188000  0.98570000  1.0
  O  O106  1  0.95081000  0.60402000  0.98561000  1.0
  O  O107  1  0.54918000  0.61811000  0.01430000  1.0
  O  O108  1  0.24983000  0.11900000  0.99991000  1.0
  O  O109  1  0.75016000  0.88099000  0.00009000  1.0
  O  O110  1  0.73867000  0.29614000  0.79785000  1.0
  O  O111  1  0.76146000  0.49809000  0.20204000  1.0
  O  O112  1  0.26132000  0.70386000  0.20215000  1.0
  O  O113  1  0.23854000  0.50191000  0.79797000  1.0
