# generated using pymatgen
data_Co2H28C52N4(O3F4)3
_symmetry_space_group_name_H-M   'P 1'
_cell_length_a   7.11524000
_cell_length_b   16.14770000
_cell_length_c   22.50740000
_cell_angle_alpha   77.34500000
_cell_angle_beta   89.99970000
_cell_angle_gamma   89.99950000
_symmetry_Int_Tables_number   1
_chemical_formula_structural   Co2H28C52N4(O3F4)3
_chemical_formula_sum   'Co4 H56 C104 N8 O18 F24'
_cell_volume   2523.16084029
_cell_formula_units_Z   2
loop_
 _symmetry_equiv_pos_site_id
 _symmetry_equiv_pos_as_xyz
  1  'x, y, z'
loop_
 _atom_site_type_symbol
 _atom_site_label
 _atom_site_symmetry_multiplicity
 _atom_site_fract_x
 _atom_site_fract_y
 _atom_site_fract_z
 _atom_site_occupancy
  Co  Co0  1  0.87144000  0.46265000  0.98715000  1.0
  Co  Co1  1  0.87125000  0.03739000  0.51287000  1.0
  Co  Co2  1  0.12880000  0.53743000  0.01287000  1.0
  Co  Co3  1  0.12858000  0.96262000  0.48714000  1.0
  H  H4  1  0.85047000  0.28836000  0.86178000  1.0
  H  H5  1  0.10081000  0.31407000  0.93297000  1.0
  H  H6  1  0.53440000  0.27471000  0.80783000  1.0
  H  H7  1  0.48238000  0.44368000  0.90684000  1.0
  H  H8  1  0.82157000  0.25229000  0.01058000  1.0
  H  H9  1  0.55540000  0.17660000  0.94840000  1.0
  H  H10  1  0.45155000  0.66638000  0.90141000  1.0
  H  H11  1  0.31853000  0.80669000  0.85251000  1.0
  H  H12  1  0.79693000  0.92883000  0.91500000  1.0
  H  H13  1  0.93369000  0.78982000  0.95739000  1.0
  H  H14  1  0.97021000  0.03039000  0.70513000  1.0
  H  H15  1  0.09943000  0.02644000  0.80700000  1.0
  H  H16  1  0.60021000  0.90459000  0.75902000  1.0
  H  H17  1  0.47310000  0.91430000  0.65583000  1.0
  H  H18  1  0.85045000  0.21164000  0.63824000  1.0
  H  H19  1  0.10075000  0.18596000  0.56704000  1.0
  H  H20  1  0.53439000  0.22529000  0.69217000  1.0
  H  H21  1  0.48231000  0.05634000  0.59316000  1.0
  H  H22  1  0.82150000  0.24773000  0.48941000  1.0
  H  H23  1  0.55537000  0.32342000  0.55160000  1.0
  H  H24  1  0.45144000  0.83360000  0.59859000  1.0
  H  H25  1  0.31850000  0.69327000  0.64748000  1.0
  H  H26  1  0.79695000  0.57118000  0.58500000  1.0
  H  H27  1  0.93363000  0.71020000  0.54261000  1.0
  H  H28  1  0.97027000  0.46959000  0.79488000  1.0
  H  H29  1  0.09947000  0.47354000  0.69300000  1.0
  H  H30  1  0.60024000  0.59540000  0.74096000  1.0
  H  H31  1  0.47315000  0.58570000  0.84416000  1.0
  H  H32  1  0.14946000  0.71161000  0.13825000  1.0
  H  H33  1  0.89915000  0.68588000  0.06706000  1.0
  H  H34  1  0.46549000  0.72526000  0.19217000  1.0
  H  H35  1  0.51756000  0.55626000  0.09317000  1.0
  H  H36  1  0.17836000  0.74765000  0.98942000  1.0
  H  H37  1  0.44451000  0.82333000  0.05160000  1.0
  H  H38  1  0.54826000  0.33363000  0.09853000  1.0
  H  H39  1  0.68144000  0.19336000  0.14745000  1.0
  H  H40  1  0.20316000  0.07108000  0.08499000  1.0
  H  H41  1  0.06629000  0.21007000  0.04258000  1.0
  H  H42  1  0.02967000  0.96968000  0.29495000  1.0
  H  H43  1  0.90066000  0.97363000  0.19306000  1.0
  H  H44  1  0.39975000  0.09548000  0.24092000  1.0
  H  H45  1  0.52665000  0.08580000  0.34415000  1.0
  H  H46  1  0.14943000  0.78840000  0.36177000  1.0
  H  H47  1  0.89909000  0.81413000  0.43295000  1.0
  H  H48  1  0.46547000  0.77474000  0.30783000  1.0
  H  H49  1  0.51750000  0.94375000  0.40683000  1.0
  H  H50  1  0.17828000  0.75238000  0.51057000  1.0
  H  H51  1  0.44446000  0.67669000  0.44841000  1.0
  H  H52  1  0.54815000  0.16636000  0.40146000  1.0
  H  H53  1  0.68139000  0.30662000  0.35255000  1.0
  H  H54  1  0.20317000  0.42894000  0.41500000  1.0
  H  H55  1  0.06624000  0.28997000  0.45742000  1.0
  H  H56  1  0.02973000  0.53030000  0.20506000  1.0
  H  H57  1  0.90069000  0.52635000  0.30695000  1.0
  H  H58  1  0.39979000  0.40450000  0.25907000  1.0
  H  H59  1  0.52672000  0.41419000  0.15585000  1.0
  C  C60  1  0.24634000  0.26116000  0.77937000  1.0
  C  C61  1  0.05557000  0.26628000  0.79534000  1.0
  C  C62  1  0.99800000  0.28517000  0.84974000  1.0
  C  C63  1  0.13897000  0.29932000  0.88959000  1.0
  C  C64  1  0.32924000  0.29569000  0.87388000  1.0
  C  C65  1  0.38581000  0.27714000  0.81896000  1.0
  C  C66  1  0.54074000  0.38195000  0.92684000  1.0
  C  C67  1  0.71233000  0.28053000  0.97936000  1.0
  C  C68  1  0.58255000  0.24230000  0.94916000  1.0
  C  C69  1  0.79597000  0.63565000  0.95722000  1.0
  C  C70  1  0.70542000  0.71879000  0.93048000  1.0
  C  C71  1  0.53006000  0.72421000  0.90172000  1.0
  C  C72  1  0.45404000  0.80336000  0.87551000  1.0
  C  C73  1  0.54866000  0.87836000  0.87909000  1.0
  C  C74  1  0.72076000  0.87253000  0.90988000  1.0
  C  C75  1  0.79867000  0.79368000  0.93442000  1.0
  C  C76  1  0.45531000  0.96429000  0.85240000  1.0
  C  C77  1  0.35986000  0.96474000  0.79094000  1.0
  C  C78  1  0.13522000  0.98085000  0.61088000  1.0
  C  C79  1  0.21164000  0.97232000  0.67381000  1.0
  C  C80  1  0.10822000  0.00284000  0.71737000  1.0
  C  C81  1  0.18217000  0.00005000  0.77506000  1.0
  C  C82  1  0.46207000  0.93266000  0.74757000  1.0
  C  C83  1  0.38971000  0.93707000  0.68956000  1.0
  C  C84  1  0.31476000  0.98090000  0.90175000  1.0
  C  C85  1  0.60128000  0.03850000  0.83925000  1.0
  C  C86  1  0.24633000  0.23884000  0.72064000  1.0
  C  C87  1  0.05556000  0.23372000  0.70467000  1.0
  C  C88  1  0.99797000  0.21484000  0.65027000  1.0
  C  C89  1  0.13893000  0.20070000  0.61042000  1.0
  C  C90  1  0.32920000  0.20433000  0.62612000  1.0
  C  C91  1  0.38579000  0.22287000  0.68104000  1.0
  C  C92  1  0.54067000  0.11807000  0.57316000  1.0
  C  C93  1  0.71227000  0.21949000  0.52064000  1.0
  C  C94  1  0.58250000  0.25772000  0.55084000  1.0
  C  C95  1  0.79585000  0.86437000  0.54278000  1.0
  C  C96  1  0.70535000  0.78122000  0.56951000  1.0
  C  C97  1  0.53000000  0.77578000  0.59828000  1.0
  C  C98  1  0.45401000  0.69663000  0.62448000  1.0
  C  C99  1  0.54865000  0.62163000  0.62091000  1.0
  C  C100  1  0.72076000  0.62747000  0.59012000  1.0
  C  C101  1  0.79863000  0.70634000  0.56557000  1.0
  C  C102  1  0.45533000  0.53569000  0.64759000  1.0
  C  C103  1  0.35988000  0.53524000  0.70905000  1.0
  C  C104  1  0.13533000  0.51916000  0.88911000  1.0
  C  C105  1  0.21172000  0.52767000  0.82618000  1.0
  C  C106  1  0.10827000  0.49714000  0.78263000  1.0
  C  C107  1  0.18221000  0.49993000  0.72494000  1.0
  C  C108  1  0.46210000  0.56733000  0.75241000  1.0
  C  C109  1  0.38977000  0.56292000  0.81043000  1.0
  C  C110  1  0.31480000  0.51908000  0.59824000  1.0
  C  C111  1  0.60133000  0.46149000  0.66075000  1.0
  C  C112  1  0.75355000  0.73882000  0.22065000  1.0
  C  C113  1  0.94433000  0.73370000  0.20468000  1.0
  C  C114  1  0.00191000  0.71479000  0.15029000  1.0
  C  C115  1  0.86095000  0.70063000  0.11044000  1.0
  C  C116  1  0.67067000  0.70426000  0.12613000  1.0
  C  C117  1  0.61410000  0.72282000  0.18105000  1.0
  C  C118  1  0.45920000  0.61799000  0.07318000  1.0
  C  C119  1  0.28760000  0.71941000  0.02064000  1.0
  C  C120  1  0.41737000  0.75764000  0.05085000  1.0
  C  C121  1  0.20398000  0.36433000  0.04276000  1.0
  C  C122  1  0.29451000  0.28117000  0.06949000  1.0
  C  C123  1  0.46985000  0.27576000  0.09825000  1.0
  C  C124  1  0.54594000  0.19664000  0.12446000  1.0
  C  C125  1  0.45139000  0.12163000  0.12089000  1.0
  C  C126  1  0.27927000  0.12741000  0.09010000  1.0
  C  C127  1  0.20130000  0.20626000  0.06555000  1.0
  C  C128  1  0.54488000  0.03574000  0.14758000  1.0
  C  C129  1  0.64018000  0.03533000  0.20907000  1.0
  C  C130  1  0.86455000  0.01919000  0.38914000  1.0
  C  C131  1  0.78820000  0.02773000  0.32621000  1.0
  C  C132  1  0.89170000  0.99723000  0.28266000  1.0
  C  C133  1  0.81785000  0.00003000  0.22497000  1.0
  C  C134  1  0.53789000  0.06742000  0.25241000  1.0
  C  C135  1  0.61016000  0.06300000  0.31044000  1.0
  C  C136  1  0.68561000  0.01917000  0.09827000  1.0
  C  C137  1  0.39910000  0.96146000  0.16071000  1.0
  C  C138  1  0.75354000  0.76118000  0.27936000  1.0
  C  C139  1  0.94431000  0.76630000  0.29533000  1.0
  C  C140  1  0.00188000  0.78521000  0.34973000  1.0
  C  C141  1  0.86090000  0.79937000  0.38957000  1.0
  C  C142  1  0.67063000  0.79574000  0.37388000  1.0
  C  C143  1  0.61408000  0.77718000  0.31896000  1.0
  C  C144  1  0.45915000  0.88203000  0.42682000  1.0
  C  C145  1  0.28754000  0.78061000  0.47935000  1.0
  C  C146  1  0.41731000  0.74238000  0.44915000  1.0
  C  C147  1  0.20385000  0.13569000  0.45724000  1.0
  C  C148  1  0.29441000  0.21884000  0.43051000  1.0
  C  C149  1  0.46976000  0.22423000  0.40175000  1.0
  C  C150  1  0.54589000  0.30335000  0.37554000  1.0
  C  C151  1  0.45138000  0.37837000  0.37911000  1.0
  C  C152  1  0.27925000  0.37260000  0.40990000  1.0
  C  C153  1  0.20126000  0.29375000  0.43445000  1.0
  C  C154  1  0.54489000  0.46425000  0.35242000  1.0
  C  C155  1  0.64021000  0.46466000  0.29094000  1.0
  C  C156  1  0.86465000  0.48082000  0.11087000  1.0
  C  C157  1  0.78827000  0.47226000  0.17380000  1.0
  C  C158  1  0.89176000  0.50275000  0.21735000  1.0
  C  C159  1  0.81789000  0.49995000  0.27503000  1.0
  C  C160  1  0.53793000  0.43257000  0.24759000  1.0
  C  C161  1  0.61022000  0.43698000  0.18956000  1.0
  C  C162  1  0.68561000  0.48081000  0.40174000  1.0
  C  C163  1  0.39912000  0.53854000  0.33928000  1.0
  N  N164  1  0.68579000  0.36731000  0.96493000  1.0
  N  N165  1  0.47340000  0.30743000  0.91592000  1.0
  N  N166  1  0.68572000  0.13270000  0.53506000  1.0
  N  N167  1  0.47335000  0.19258000  0.58408000  1.0
  N  N168  1  0.31418000  0.63263000  0.03508000  1.0
  N  N169  1  0.52651000  0.69250000  0.08409000  1.0
  N  N170  1  0.31411000  0.86739000  0.46491000  1.0
  N  N171  1  0.52646000  0.80751000  0.41591000  1.0
  O  O172  1  0.71265000  0.56671000  0.95462000  1.0
  O  O173  1  0.23193000  0.95072000  0.57260000  1.0
  O  O174  1  0.97957000  0.01970000  0.59818000  1.0
  O  O175  1  0.95752000  0.63898000  0.98158000  1.0
  O  O176  1  0.71264000  0.93333000  0.54538000  1.0
  O  O177  1  0.23200000  0.54927000  0.92741000  1.0
  O  O178  1  0.97964000  0.48031000  0.90180000  1.0
  O  O179  1  0.95740000  0.86103000  0.51840000  1.0
  O  O180  1  0.28723000  0.43329000  0.04538000  1.0
  O  O181  1  0.76793000  0.04929000  0.42744000  1.0
  O  O182  1  0.02023000  0.98031000  0.40182000  1.0
  O  O183  1  0.04244000  0.36100000  0.01839000  1.0
  O  O184  1  0.28717000  0.06674000  0.45462000  1.0
  O  O185  1  0.76796000  0.45070000  0.07258000  1.0
  O  O186  1  0.02029000  0.51971000  0.09817000  1.0
  O  O187  1  0.04233000  0.13899000  0.48161000  1.0
  O  O188  1  0.93794000  0.25000000  0.75001000  1.0
  O  O189  1  0.06193000  0.75000000  0.25001000  1.0
  F  F190  1  0.66952000  0.06035000  0.89055000  1.0
  F  F191  1  0.52591000  0.11008000  0.80445000  1.0
  F  F192  1  0.75234000  0.01816000  0.80807000  1.0
  F  F193  1  0.24561000  0.06173000  0.89003000  1.0
  F  F194  1  0.39538000  0.96732000  0.95781000  1.0
  F  F195  1  0.16450000  0.92726000  0.90668000  1.0
  F  F196  1  0.66957000  0.43964000  0.60944000  1.0
  F  F197  1  0.52597000  0.38991000  0.69555000  1.0
  F  F198  1  0.75238000  0.48184000  0.69192000  1.0
  F  F199  1  0.24566000  0.43824000  0.60996000  1.0
  F  F200  1  0.39542000  0.53265000  0.54218000  1.0
  F  F201  1  0.16453000  0.57271000  0.59331000  1.0
  F  F202  1  0.33101000  0.93960000  0.10939000  1.0
  F  F203  1  0.47467000  0.88991000  0.19549000  1.0
  F  F204  1  0.24792000  0.98168000  0.19190000  1.0
  F  F205  1  0.75489000  0.93837000  0.11000000  1.0
  F  F206  1  0.60517000  0.03273000  0.04218000  1.0
  F  F207  1  0.83579000  0.07285000  0.09339000  1.0
  F  F208  1  0.33102000  0.56039000  0.39060000  1.0
  F  F209  1  0.47470000  0.61008000  0.30450000  1.0
  F  F210  1  0.24795000  0.51831000  0.30809000  1.0
  F  F211  1  0.75489000  0.56161000  0.39001000  1.0
  F  F212  1  0.60515000  0.46724000  0.45782000  1.0
  F  F213  1  0.83577000  0.42712000  0.40662000  1.0
