# generated using pymatgen
data_NdAgH12C14N2O11
_symmetry_space_group_name_H-M   'P 1'
_cell_length_a   7.29591000
_cell_length_b   13.93940000
_cell_length_c   19.46570000
_cell_angle_alpha   77.36200000
_cell_angle_beta   89.99970000
_cell_angle_gamma   89.99910000
_symmetry_Int_Tables_number   1
_chemical_formula_structural   NdAgH12C14N2O11
_chemical_formula_sum   'Nd4 Ag4 H48 C56 N8 O44'
_cell_volume   1931.70973309
_cell_formula_units_Z   4
loop_
 _symmetry_equiv_pos_site_id
 _symmetry_equiv_pos_as_xyz
  1  'x, y, z'
loop_
 _atom_site_type_symbol
 _atom_site_label
 _atom_site_symmetry_multiplicity
 _atom_site_fract_x
 _atom_site_fract_y
 _atom_site_fract_z
 _atom_site_occupancy
  Nd  Nd0  1  0.56947000  0.79885000  0.85662000  1.0
  Nd  Nd1  1  0.06949000  0.70113000  0.64339000  1.0
  Nd  Nd2  1  0.43051000  0.20115000  0.14338000  1.0
  Nd  Nd3  1  0.93052000  0.29887000  0.35661000  1.0
  Ag  Ag4  1  0.05862000  0.87467000  0.01918000  1.0
  Ag  Ag5  1  0.55860000  0.62534000  0.48083000  1.0
  Ag  Ag6  1  0.94140000  0.12533000  0.98082000  1.0
  Ag  Ag7  1  0.44140000  0.37467000  0.51917000  1.0
  H  H8  1  0.93366000  0.16447000  0.81567000  1.0
  H  H9  1  0.43366000  0.33551000  0.68433000  1.0
  H  H10  1  0.06637000  0.83554000  0.18433000  1.0
  H  H11  1  0.56636000  0.66448000  0.31567000  1.0
  H  H12  1  0.68908000  0.25683000  0.86733000  1.0
  H  H13  1  0.18905000  0.24316000  0.63266000  1.0
  H  H14  1  0.31094000  0.74317000  0.13266000  1.0
  H  H15  1  0.81094000  0.75684000  0.36734000  1.0
  H  H16  1  0.40580000  0.16362000  0.91924000  1.0
  H  H17  1  0.90579000  0.33638000  0.58076000  1.0
  H  H18  1  0.59422000  0.83639000  0.08076000  1.0
  H  H19  1  0.09420000  0.66362000  0.41925000  1.0
  H  H20  1  0.69499000  0.59771000  0.13492000  1.0
  H  H21  1  0.19494000  0.90229000  0.36508000  1.0
  H  H22  1  0.30501000  0.40229000  0.86507000  1.0
  H  H23  1  0.80505000  0.09770000  0.63492000  1.0
  H  H24  1  0.40770000  0.49414000  0.15139000  1.0
  H  H25  1  0.90765000  0.00587000  0.34863000  1.0
  H  H26  1  0.59232000  0.50586000  0.84861000  1.0
  H  H27  1  0.09237000  0.99414000  0.65137000  1.0
  H  H28  1  0.18145000  0.51529000  0.05059000  1.0
  H  H29  1  0.68144000  0.98469000  0.44945000  1.0
  H  H30  1  0.81851000  0.48471000  0.94942000  1.0
  H  H31  1  0.31856000  0.01531000  0.55055000  1.0
  H  H32  1  0.43539000  0.97174000  0.73469000  1.0
  H  H33  1  0.93540000  0.52825000  0.76531000  1.0
  H  H34  1  0.56461000  0.02827000  0.26531000  1.0
  H  H35  1  0.06461000  0.47174000  0.23469000  1.0
  H  H36  1  0.24437000  0.94823000  0.77381000  1.0
  H  H37  1  0.74439000  0.55174000  0.72620000  1.0
  H  H38  1  0.75563000  0.05175000  0.22619000  1.0
  H  H39  1  0.25561000  0.44826000  0.27380000  1.0
  H  H40  1  0.64633000  0.77171000  0.70275000  1.0
  H  H41  1  0.14634000  0.72828000  0.79726000  1.0
  H  H42  1  0.35368000  0.22829000  0.29726000  1.0
  H  H43  1  0.85366000  0.27172000  0.20275000  1.0
  H  H44  1  0.48671000  0.69385000  0.73234000  1.0
  H  H45  1  0.98670000  0.80612000  0.76768000  1.0
  H  H46  1  0.51329000  0.30614000  0.26766000  1.0
  H  H47  1  0.01330000  0.19387000  0.23233000  1.0
  H  H48  1  0.79712000  0.64897000  0.80971000  1.0
  H  H49  1  0.29711000  0.85102000  0.69030000  1.0
  H  H50  1  0.20288000  0.35102000  0.19030000  1.0
  H  H51  1  0.70288000  0.14897000  0.30970000  1.0
  H  H52  1  0.89291000  0.64041000  0.88369000  1.0
  H  H53  1  0.39291000  0.85958000  0.61632000  1.0
  H  H54  1  0.10709000  0.35958000  0.11632000  1.0
  H  H55  1  0.60708000  0.14042000  0.38369000  1.0
  C  C56  1  0.90771000  0.97050000  0.80233000  1.0
  C  C57  1  0.40772000  0.52949000  0.69766000  1.0
  C  C58  1  0.09227000  0.02950000  0.19767000  1.0
  C  C59  1  0.59228000  0.47052000  0.30233000  1.0
  C  C60  1  0.77582000  0.03053000  0.83582000  1.0
  C  C61  1  0.27582000  0.46947000  0.66419000  1.0
  C  C62  1  0.22419000  0.96949000  0.16418000  1.0
  C  C63  1  0.72419000  0.53053000  0.33581000  1.0
  C  C64  1  0.80735000  0.12899000  0.83781000  1.0
  C  C65  1  0.30735000  0.37101000  0.66219000  1.0
  C  C66  1  0.19264000  0.87102000  0.16218000  1.0
  C  C67  1  0.69265000  0.62899000  0.33780000  1.0
  C  C68  1  0.67191000  0.17922000  0.86697000  1.0
  C  C69  1  0.17188000  0.32076000  0.63303000  1.0
  C  C70  1  0.32809000  0.82079000  0.13303000  1.0
  C  C71  1  0.82810000  0.67923000  0.36697000  1.0
  C  C72  1  0.51470000  0.12867000  0.89557000  1.0
  C  C73  1  0.01467000  0.37134000  0.60443000  1.0
  C  C74  1  0.48531000  0.87133000  0.10443000  1.0
  C  C75  1  0.98531000  0.62868000  0.39557000  1.0
  C  C76  1  0.49949000  0.02904000  0.89497000  1.0
  C  C77  1  0.99949000  0.47096000  0.60503000  1.0
  C  C78  1  0.50052000  0.97096000  0.10502000  1.0
  C  C79  1  0.00051000  0.52904000  0.39497000  1.0
  C  C80  1  0.34701000  0.96452000  0.93119000  1.0
  C  C81  1  0.84700000  0.53549000  0.56881000  1.0
  C  C82  1  0.65302000  0.03548000  0.06881000  1.0
  C  C83  1  0.15298000  0.46452000  0.43119000  1.0
  C  C84  1  0.78249000  0.73809000  0.01452000  1.0
  C  C85  1  0.28249000  0.76191000  0.48549000  1.0
  C  C86  1  0.21749000  0.26192000  0.98549000  1.0
  C  C87  1  0.71751000  0.23809000  0.51451000  1.0
  C  C88  1  0.62445000  0.66712000  0.02843000  1.0
  C  C89  1  0.12445000  0.83288000  0.47159000  1.0
  C  C90  1  0.37556000  0.33287000  0.97157000  1.0
  C  C91  1  0.87556000  0.16712000  0.52841000  1.0
  C  C92  1  0.59444000  0.60218000  0.09303000  1.0
  C  C93  1  0.09440000  0.89781000  0.40698000  1.0
  C  C94  1  0.40558000  0.39781000  0.90696000  1.0
  C  C95  1  0.90561000  0.10220000  0.59302000  1.0
  C  C96  1  0.43467000  0.54576000  0.10181000  1.0
  C  C97  1  0.93464000  0.95425000  0.39821000  1.0
  C  C98  1  0.56534000  0.45424000  0.89819000  1.0
  C  C99  1  0.06536000  0.04575000  0.60179000  1.0
  C  C100  1  0.30954000  0.55631000  0.04637000  1.0
  C  C101  1  0.80950000  0.94368000  0.45364000  1.0
  C  C102  1  0.69045000  0.44368000  0.95363000  1.0
  C  C103  1  0.19051000  0.05632000  0.54636000  1.0
  C  C104  1  0.35209000  0.62167000  0.98313000  1.0
  C  C105  1  0.85209000  0.87834000  0.51688000  1.0
  C  C106  1  0.64789000  0.37832000  0.01688000  1.0
  C  C107  1  0.14790000  0.12167000  0.48312000  1.0
  C  C108  1  0.22659000  0.63832000  0.91997000  1.0
  C  C109  1  0.72659000  0.86169000  0.58005000  1.0
  C  C110  1  0.77338000  0.36169000  0.08004000  1.0
  C  C111  1  0.27341000  0.13831000  0.41995000  1.0
  N  N112  1  0.62513000  0.98246000  0.86388000  1.0
  N  N113  1  0.12511000  0.51754000  0.63612000  1.0
  N  N114  1  0.37489000  0.01754000  0.13611000  1.0
  N  N115  1  0.87488000  0.48247000  0.36388000  1.0
  N  N116  1  0.50623000  0.67517000  0.97471000  1.0
  N  N117  1  0.00622000  0.82484000  0.52530000  1.0
  N  N118  1  0.49377000  0.32482000  0.02529000  1.0
  N  N119  1  0.99377000  0.17517000  0.47470000  1.0
  O  O120  1  0.06468000  0.00562000  0.78619000  1.0
  O  O121  1  0.56468000  0.49436000  0.71382000  1.0
  O  O122  1  0.93531000  0.99437000  0.21382000  1.0
  O  O123  1  0.43532000  0.50563000  0.28617000  1.0
  O  O124  1  0.84509000  0.88820000  0.79300000  1.0
  O  O125  1  0.34510000  0.61181000  0.70698000  1.0
  O  O126  1  0.15490000  0.11180000  0.20700000  1.0
  O  O127  1  0.65490000  0.38819000  0.29301000  1.0
  O  O128  1  0.34715000  0.87519000  0.92607000  1.0
  O  O129  1  0.84717000  0.62481000  0.57393000  1.0
  O  O130  1  0.65285000  0.12481000  0.07392000  1.0
  O  O131  1  0.15283000  0.37520000  0.42607000  1.0
  O  O132  1  0.23208000  0.00156000  0.96717000  1.0
  O  O133  1  0.73207000  0.49846000  0.53283000  1.0
  O  O134  1  0.76793000  0.99844000  0.03283000  1.0
  O  O135  1  0.26792000  0.50156000  0.46716000  1.0
  O  O136  1  0.89232000  0.74129000  0.06466000  1.0
  O  O137  1  0.39226000  0.75870000  0.43533000  1.0
  O  O138  1  0.10770000  0.25871000  0.93533000  1.0
  O  O139  1  0.60774000  0.24130000  0.56466000  1.0
  O  O140  1  0.79020000  0.79515000  0.95371000  1.0
  O  O141  1  0.29019000  0.70484000  0.54628000  1.0
  O  O142  1  0.20977000  0.20485000  0.04629000  1.0
  O  O143  1  0.70981000  0.29516000  0.45372000  1.0
  O  O144  1  0.28938000  0.69528000  0.86359000  1.0
  O  O145  1  0.78938000  0.80471000  0.63644000  1.0
  O  O146  1  0.71058000  0.30473000  0.13642000  1.0
  O  O147  1  0.21062000  0.19528000  0.36356000  1.0
  O  O148  1  0.07348000  0.59670000  0.92670000  1.0
  O  O149  1  0.57347000  0.90329000  0.57331000  1.0
  O  O150  1  0.92650000  0.40331000  0.07331000  1.0
  O  O151  1  0.42653000  0.09670000  0.42669000  1.0
  O  O152  1  0.36538000  0.91796000  0.76300000  1.0
  O  O153  1  0.86539000  0.58203000  0.73701000  1.0
  O  O154  1  0.63463000  0.08204000  0.23700000  1.0
  O  O155  1  0.13463000  0.41797000  0.26299000  1.0
  O  O156  1  0.56743000  0.74527000  0.74484000  1.0
  O  O157  1  0.06744000  0.75472000  0.75517000  1.0
  O  O158  1  0.43257000  0.25473000  0.25516000  1.0
  O  O159  1  0.93258000  0.24528000  0.24483000  1.0
  O  O160  1  0.77498000  0.65941000  0.85747000  1.0
  O  O161  1  0.27499000  0.84058000  0.64254000  1.0
  O  O162  1  0.22501000  0.34058000  0.14253000  1.0
  O  O163  1  0.72500000  0.15942000  0.35746000  1.0
