# generated using pymatgen
data_CoH7C7N2ClO4
_symmetry_space_group_name_H-M   'P 1'
_cell_length_a   7.65192000
_cell_length_b   8.00060000
_cell_length_c   9.00625918
_cell_angle_alpha   80.06807369
_cell_angle_beta   64.90414117
_cell_angle_gamma   66.01740000
_symmetry_Int_Tables_number   1
_chemical_formula_structural   CoH7C7N2ClO4
_chemical_formula_sum   'Co2 H14 C14 N4 Cl2 O8'
_cell_volume   456.20751007
_cell_formula_units_Z   2
loop_
 _symmetry_equiv_pos_site_id
 _symmetry_equiv_pos_as_xyz
  1  'x, y, z'
loop_
 _atom_site_type_symbol
 _atom_site_label
 _atom_site_symmetry_multiplicity
 _atom_site_fract_x
 _atom_site_fract_y
 _atom_site_fract_z
 _atom_site_occupancy
  Co  Co0  1  0.50000000  0.50000000  1.00000000  1.0
  Co  Co1  1  0.50000000  0.00000000  0.00000000  1.0
  H  H2  1  0.03069000  0.93048000  0.78463000  1.0
  H  H3  1  0.18448000  0.56957000  0.78473000  1.0
  H  H4  1  0.96931000  0.06952000  0.21537000  1.0
  H  H5  1  0.81552000  0.43043000  0.21527000  1.0
  H  H6  1  0.26629000  0.84066000  0.61026000  1.0
  H  H7  1  0.12267000  0.65949000  0.61051000  1.0
  H  H8  1  0.73372000  0.15934000  0.38974000  1.0
  H  H9  1  0.87734000  0.34051000  0.38948000  1.0
  H  H10  1  0.05504000  0.24993000  0.88967000  1.0
  H  H11  1  0.94495000  0.75007000  0.11034000  1.0
  H  H12  1  0.32427000  0.06698000  0.39793000  1.0
  H  H13  1  0.27732000  0.43328000  0.39809000  1.0
  H  H14  1  0.67573000  0.93302000  0.60207000  1.0
  H  H15  1  0.72268000  0.56672000  0.60191000  1.0
  C  C16  1  0.31298000  0.84595000  0.82873000  1.0
  C  C17  1  0.85812000  0.65399000  0.82910000  1.0
  C  C18  1  0.68702000  0.15405000  0.17127000  1.0
  C  C19  1  0.14188000  0.34602000  0.17090000  1.0
  C  C20  1  0.19029000  0.92813000  0.71850000  1.0
  C  C21  1  0.09079000  0.57190000  0.71872000  1.0
  C  C22  1  0.80971000  0.07187000  0.28150000  1.0
  C  C23  1  0.90921000  0.42810000  0.28128000  1.0
  C  C24  1  0.12130000  0.25000000  0.75705000  1.0
  C  C25  1  0.87870000  0.75000000  0.24295000  1.0
  C  C26  1  0.26149000  0.16095000  0.49762000  1.0
  C  C27  1  0.24045000  0.33924000  0.49770000  1.0
  C  C28  1  0.73851000  0.83905000  0.50238000  1.0
  C  C29  1  0.75954000  0.66076000  0.50231000  1.0
  N  N30  1  0.18610000  0.10938000  0.66013000  1.0
  N  N31  1  0.15331000  0.39070000  0.66025000  1.0
  N  N32  1  0.81390000  0.89062000  0.33987000  1.0
  N  N33  1  0.84669000  0.60930000  0.33975000  1.0
  Cl  Cl34  1  0.59980000  0.24994000  0.80051000  1.0
  Cl  Cl35  1  0.40020000  0.75006000  0.19949000  1.0
  O  O36  1  0.31643000  0.68795000  0.88372000  1.0
  O  O37  1  0.79978000  0.81195000  0.88412000  1.0
  O  O38  1  0.68357000  0.31205000  0.11628000  1.0
  O  O39  1  0.20022000  0.18805000  0.11588000  1.0
  O  O40  1  0.39791000  0.94018000  0.85054000  1.0
  O  O41  1  0.75145000  0.55969000  0.85099000  1.0
  O  O42  1  0.60209000  0.05982000  0.14946000  1.0
  O  O43  1  0.24855000  0.44031000  0.14901000  1.0
