# generated using pymatgen
data_ZnH8C8(N2Cl)2
_symmetry_space_group_name_H-M   'P 1'
_cell_length_a   7.30194000
_cell_length_b   7.30190000
_cell_length_c   10.20580000
_cell_angle_alpha   90.00060000
_cell_angle_beta   90.00010000
_cell_angle_gamma   88.33520000
_symmetry_Int_Tables_number   1
_chemical_formula_structural   ZnH8C8(N2Cl)2
_chemical_formula_sum   'Zn2 H16 C16 N8 Cl4'
_cell_volume   543.92351994
_cell_formula_units_Z   2
loop_
 _symmetry_equiv_pos_site_id
 _symmetry_equiv_pos_as_xyz
  1  'x, y, z'
loop_
 _atom_site_type_symbol
 _atom_site_label
 _atom_site_symmetry_multiplicity
 _atom_site_fract_x
 _atom_site_fract_y
 _atom_site_fract_z
 _atom_site_occupancy
  Zn  Zn0  1  0.75000000  0.75000000  0.75000000  1.0
  Zn  Zn1  1  0.25000000  0.25000000  0.25000000  1.0
  H  H2  1  0.86899000  0.34414000  0.81313000  1.0
  H  H3  1  0.63101000  0.15586000  0.81313000  1.0
  H  H4  1  0.34414000  0.86898000  0.68687000  1.0
  H  H5  1  0.15586000  0.63101000  0.68687000  1.0
  H  H6  1  0.13102000  0.65586000  0.18687000  1.0
  H  H7  1  0.36899000  0.84414000  0.18687000  1.0
  H  H8  1  0.65586000  0.13101000  0.31313000  1.0
  H  H9  1  0.84414000  0.36898000  0.31313000  1.0
  H  H10  1  0.96215000  0.83184000  0.01095000  1.0
  H  H11  1  0.53786000  0.66817000  0.01095000  1.0
  H  H12  1  0.83183000  0.96215000  0.48905000  1.0
  H  H13  1  0.66816000  0.53785000  0.48905000  1.0
  H  H14  1  0.03786000  0.16817000  0.98905000  1.0
  H  H15  1  0.46215000  0.33183000  0.98905000  1.0
  H  H16  1  0.16816000  0.03785000  0.51095000  1.0
  H  H17  1  0.33183000  0.46214000  0.51095000  1.0
  C  C18  1  0.92743000  0.41420000  0.89678000  1.0
  C  C19  1  0.57257000  0.08581000  0.89679000  1.0
  C  C20  1  0.41419000  0.92743000  0.60322000  1.0
  C  C21  1  0.08581000  0.57257000  0.60322000  1.0
  C  C22  1  0.07257000  0.58581000  0.10322000  1.0
  C  C23  1  0.42743000  0.91419000  0.10322000  1.0
  C  C24  1  0.58581000  0.07257000  0.39679000  1.0
  C  C25  1  0.91420000  0.42743000  0.39678000  1.0
  C  C26  1  0.97835000  0.68323000  0.00583000  1.0
  C  C27  1  0.52165000  0.81677000  0.00583000  1.0
  C  C28  1  0.68323000  0.97835000  0.49417000  1.0
  C  C29  1  0.81677000  0.52165000  0.49416000  1.0
  C  C30  1  0.02165000  0.31677000  0.99417000  1.0
  C  C31  1  0.47835000  0.18323000  0.99417000  1.0
  C  C32  1  0.31677000  0.02165000  0.50583000  1.0
  C  C33  1  0.18323000  0.47835000  0.50583000  1.0
  N  N34  1  0.90584000  0.59698000  0.90300000  1.0
  N  N35  1  0.59416000  0.90303000  0.90300000  1.0
  N  N36  1  0.59697000  0.90584000  0.59700000  1.0
  N  N37  1  0.90303000  0.59416000  0.59699000  1.0
  N  N38  1  0.09416000  0.40302000  0.09700000  1.0
  N  N39  1  0.40584000  0.09698000  0.09700000  1.0
  N  N40  1  0.40303000  0.09416000  0.40300000  1.0
  N  N41  1  0.09698000  0.40584000  0.40301000  1.0
  Cl  Cl42  1  0.51790000  0.51790000  0.75000000  1.0
  Cl  Cl43  1  0.98210000  0.98210000  0.75000000  1.0
  Cl  Cl44  1  0.48210000  0.48210000  0.25000000  1.0
  Cl  Cl45  1  0.01789000  0.01789000  0.25000000  1.0
