# generated using pymatgen
data_NaH6C6S2NO5
_symmetry_space_group_name_H-M   'P 1'
_cell_length_a   7.91468000
_cell_length_b   10.87610000
_cell_length_c   11.11360000
_cell_angle_alpha   89.99960000
_cell_angle_beta   90.00020000
_cell_angle_gamma   89.99980000
_symmetry_Int_Tables_number   1
_chemical_formula_structural   NaH6C6S2NO5
_chemical_formula_sum   'Na4 H24 C24 S8 N4 O20'
_cell_volume   956.66814728
_cell_formula_units_Z   4
loop_
 _symmetry_equiv_pos_site_id
 _symmetry_equiv_pos_as_xyz
  1  'x, y, z'
loop_
 _atom_site_type_symbol
 _atom_site_label
 _atom_site_symmetry_multiplicity
 _atom_site_fract_x
 _atom_site_fract_y
 _atom_site_fract_z
 _atom_site_occupancy
  Na  Na0  1  0.52229000  0.19524000  0.70988000  1.0
  Na  Na1  1  0.47772000  0.69523000  0.29011000  1.0
  Na  Na2  1  0.02229000  0.19523000  0.79011000  1.0
  Na  Na3  1  0.97772000  0.69524000  0.20988000  1.0
  H  H4  1  0.01656000  0.58228000  0.56934000  1.0
  H  H5  1  0.98346000  0.08232000  0.43064000  1.0
  H  H6  1  0.51653000  0.58231000  0.93065000  1.0
  H  H7  1  0.48345000  0.08228000  0.06935000  1.0
  H  H8  1  0.04071000  0.53376000  0.78794000  1.0
  H  H9  1  0.95926000  0.03380000  0.21204000  1.0
  H  H10  1  0.54071000  0.53378000  0.71205000  1.0
  H  H11  1  0.45929000  0.03375000  0.28794000  1.0
  H  H12  1  0.16836000  0.68548000  0.92868000  1.0
  H  H13  1  0.83156000  0.18552000  0.07132000  1.0
  H  H14  1  0.66840000  0.68548000  0.57132000  1.0
  H  H15  1  0.33164000  0.18547000  0.42868000  1.0
  H  H16  1  0.28184000  0.88424000  0.85354000  1.0
  H  H17  1  0.71810000  0.38428000  0.14648000  1.0
  H  H18  1  0.78190000  0.88424000  0.64647000  1.0
  H  H19  1  0.21816000  0.38423000  0.35354000  1.0
  H  H20  1  0.44572000  0.40802000  0.53663000  1.0
  H  H21  1  0.55429000  0.90800000  0.46336000  1.0
  H  H22  1  0.94572000  0.40800000  0.96336000  1.0
  H  H23  1  0.05428000  0.90802000  0.03663000  1.0
  H  H24  1  0.27805000  0.35929000  0.59456000  1.0
  H  H25  1  0.72196000  0.85927000  0.40544000  1.0
  H  H26  1  0.77805000  0.35928000  0.90544000  1.0
  H  H27  1  0.22195000  0.85929000  0.09455000  1.0
  C  C28  1  0.21306000  0.84278000  0.66958000  1.0
  C  C29  1  0.78693000  0.34281000  0.33044000  1.0
  C  C30  1  0.71307000  0.84279000  0.83043000  1.0
  C  C31  1  0.28695000  0.34277000  0.16958000  1.0
  C  C32  1  0.13841000  0.75898000  0.59101000  1.0
  C  C33  1  0.86159000  0.25902000  0.40898000  1.0
  C  C34  1  0.63841000  0.75900000  0.90898000  1.0
  C  C35  1  0.36160000  0.25898000  0.09101000  1.0
  C  C36  1  0.07593000  0.64681000  0.63098000  1.0
  C  C37  1  0.92408000  0.14685000  0.36902000  1.0
  C  C38  1  0.57591000  0.64683000  0.86902000  1.0
  C  C39  1  0.42408000  0.14681000  0.13098000  1.0
  C  C40  1  0.08871000  0.62097000  0.75385000  1.0
  C  C41  1  0.91127000  0.12100000  0.24613000  1.0
  C  C42  1  0.58871000  0.62099000  0.74613000  1.0
  C  C43  1  0.41130000  0.12096000  0.25386000  1.0
  C  C44  1  0.16101000  0.70608000  0.83304000  1.0
  C  C45  1  0.83894000  0.20611000  0.16696000  1.0
  C  C46  1  0.66104000  0.70609000  0.66697000  1.0
  C  C47  1  0.33899000  0.20607000  0.33305000  1.0
  C  C48  1  0.22479000  0.81837000  0.79197000  1.0
  C  C49  1  0.77516000  0.31841000  0.20802000  1.0
  C  C50  1  0.72483000  0.81838000  0.70802000  1.0
  C  C51  1  0.27521000  0.31836000  0.29198000  1.0
  S  S52  1  0.27099000  0.98013000  0.59366000  1.0
  S  S53  1  0.72901000  0.48017000  0.40636000  1.0
  S  S54  1  0.77098000  0.98015000  0.90635000  1.0
  S  S55  1  0.22902000  0.48013000  0.09367000  1.0
  S  S56  1  0.12520000  0.81909000  0.44298000  1.0
  S  S57  1  0.87480000  0.31911000  0.55701000  1.0
  S  S58  1  0.62520000  0.81909000  0.05701000  1.0
  S  S59  1  0.37480000  0.31909000  0.94299000  1.0
  N  N60  1  0.23353000  0.94108000  0.45815000  1.0
  N  N61  1  0.76652000  0.44111000  0.54187000  1.0
  N  N62  1  0.73349000  0.94109000  0.04186000  1.0
  N  N63  1  0.26648000  0.44107000  0.95815000  1.0
  O  O64  1  0.45199000  0.00696000  0.60566000  1.0
  O  O65  1  0.54800000  0.50698000  0.39438000  1.0
  O  O66  1  0.95200000  0.00697000  0.89437000  1.0
  O  O67  1  0.04803000  0.50696000  0.10567000  1.0
  O  O68  1  0.16323000  0.07954000  0.63688000  1.0
  O  O69  1  0.83673000  0.57957000  0.36312000  1.0
  O  O70  1  0.66326000  0.07955000  0.86312000  1.0
  O  O71  1  0.33679000  0.57954000  0.13689000  1.0
  O  O72  1  0.20442000  0.73479000  0.35709000  1.0
  O  O73  1  0.79558000  0.23480000  0.64290000  1.0
  O  O74  1  0.70443000  0.73479000  0.14289000  1.0
  O  O75  1  0.29559000  0.23479000  0.85709000  1.0
  O  O76  1  0.94906000  0.84440000  0.41263000  1.0
  O  O77  1  0.05097000  0.34439000  0.58737000  1.0
  O  O78  1  0.44904000  0.84438000  0.08737000  1.0
  O  O79  1  0.55095000  0.34440000  0.91264000  1.0
  O  O80  1  0.40151000  0.35637000  0.60140000  1.0
  O  O81  1  0.59851000  0.85636000  0.39859000  1.0
  O  O82  1  0.90150000  0.35637000  0.89859000  1.0
  O  O83  1  0.09850000  0.85637000  0.10140000  1.0
