# generated using pymatgen
data_Cu2H26C28(NO2)5
_symmetry_space_group_name_H-M   'P 1'
_cell_length_a   11.48420000
_cell_length_b   12.37240000
_cell_length_c   14.33500000
_cell_angle_alpha   101.61300000
_cell_angle_beta   103.03900000
_cell_angle_gamma   96.49360000
_symmetry_Int_Tables_number   1
_chemical_formula_structural   Cu2H26C28(NO2)5
_chemical_formula_sum   'Cu4 H52 C56 N10 O20'
_cell_volume   1916.68239655
_cell_formula_units_Z   2
loop_
 _symmetry_equiv_pos_site_id
 _symmetry_equiv_pos_as_xyz
  1  'x, y, z'
loop_
 _atom_site_type_symbol
 _atom_site_label
 _atom_site_symmetry_multiplicity
 _atom_site_fract_x
 _atom_site_fract_y
 _atom_site_fract_z
 _atom_site_occupancy
  Cu  Cu0  1  0.10448000  0.06172000  0.70621000  1.0
  Cu  Cu1  1  0.89552000  0.93828000  0.29379000  1.0
  Cu  Cu2  1  0.90008000  0.05571000  0.51526000  1.0
  Cu  Cu3  1  0.09992000  0.94431000  0.48475000  1.0
  H  H4  1  0.43130000  0.30934000  0.54391000  1.0
  H  H5  1  0.56870000  0.69064000  0.45610000  1.0
  H  H6  1  0.41352000  0.39586000  0.26516000  1.0
  H  H7  1  0.58647000  0.60413000  0.73484000  1.0
  H  H8  1  0.75671000  0.44714000  0.47760000  1.0
  H  H9  1  0.24329000  0.55285000  0.52239000  1.0
  H  H10  1  0.80362000  0.32346000  0.77157000  1.0
  H  H11  1  0.19637000  0.67655000  0.22843000  1.0
  H  H12  1  0.93944000  0.39921000  0.76066000  1.0
  H  H13  1  0.06057000  0.60080000  0.23934000  1.0
  H  H14  1  0.03631000  0.30268000  0.34674000  1.0
  H  H15  1  0.96369000  0.69734000  0.65328000  1.0
  H  H16  1  0.04725000  0.29068000  0.47064000  1.0
  H  H17  1  0.95274000  0.70933000  0.52937000  1.0
  H  H18  1  0.58767000  0.65913000  0.16243000  1.0
  H  H19  1  0.41235000  0.34086000  0.83756000  1.0
  H  H20  1  0.71188000  0.58414000  0.17082000  1.0
  H  H21  1  0.28813000  0.41585000  0.82919000  1.0
  H  H22  1  0.68879000  0.88658000  0.47803000  1.0
  H  H23  1  0.31119000  0.11342000  0.52198000  1.0
  H  H24  1  0.46882000  0.85982000  0.38918000  1.0
  H  H25  1  0.53117000  0.14019000  0.61083000  1.0
  H  H26  1  0.54630000  0.17581000  0.31219000  1.0
  H  H27  1  0.45371000  0.82418000  0.68779000  1.0
  H  H28  1  0.76168000  0.18600000  0.39939000  1.0
  H  H29  1  0.23833000  0.81398000  0.60059000  1.0
  H  H30  1  0.31544000  0.06692000  0.34108000  1.0
  H  H31  1  0.68456000  0.93309000  0.65891000  1.0
  H  H32  1  0.30766000  0.92383000  0.29310000  1.0
  H  H33  1  0.69234000  0.07619000  0.70690000  1.0
  H  H34  1  0.37637000  0.11012000  0.19177000  1.0
  H  H35  1  0.62364000  0.88988000  0.80822000  1.0
  H  H36  1  0.36439000  0.96513000  0.14283000  1.0
  H  H37  1  0.63562000  0.03487000  0.85717000  1.0
  H  H38  1  0.16138000  0.08988000  0.19216000  1.0
  H  H39  1  0.83862000  0.91013000  0.80784000  1.0
  H  H40  1  0.14312000  0.94200000  0.15281000  1.0
  H  H41  1  0.85688000  0.05800000  0.84718000  1.0
  H  H42  1  0.16674000  0.85472000  0.98210000  1.0
  H  H43  1  0.83327000  0.14529000  0.01790000  1.0
  H  H44  1  0.13725000  0.87694000  0.80951000  1.0
  H  H45  1  0.86275000  0.12306000  0.19049000  1.0
  H  H46  1  0.13479000  0.21603000  0.89506000  1.0
  H  H47  1  0.86521000  0.78397000  0.10493000  1.0
  H  H48  1  0.16440000  0.20847000  0.07316000  1.0
  H  H49  1  0.83560000  0.79154000  0.92683000  1.0
  H  H50  1  0.82217000  0.36384000  0.57936000  1.0
  H  H51  1  0.17783000  0.63618000  0.42063000  1.0
  H  H52  1  0.25476000  0.31560000  0.50571000  1.0
  H  H53  1  0.74523000  0.68439000  0.49430000  1.0
  H  H54  1  0.52032000  0.57513000  0.27974000  1.0
  H  H55  1  0.47968000  0.42486000  0.72026000  1.0
  C  C56  1  0.60073000  0.37434000  0.52114000  1.0
  C  C57  1  0.39926000  0.62565000  0.47885000  1.0
  C  C58  1  0.47470000  0.34081000  0.49213000  1.0
  C  C59  1  0.52529000  0.65918000  0.50787000  1.0
  C  C60  1  0.40793000  0.34747000  0.39961000  1.0
  C  C61  1  0.59207000  0.65251000  0.60039000  1.0
  C  C62  1  0.46761000  0.39022000  0.33651000  1.0
  C  C63  1  0.53239000  0.60978000  0.66349000  1.0
  C  C64  1  0.59280000  0.42641000  0.36566000  1.0
  C  C65  1  0.40720000  0.57358000  0.63433000  1.0
  C  C66  1  0.65954000  0.41601000  0.45702000  1.0
  C  C67  1  0.34046000  0.58398000  0.54297000  1.0
  C  C68  1  0.66570000  0.36571000  0.62191000  1.0
  C  C69  1  0.33431000  0.63430000  0.37809000  1.0
  C  C70  1  0.85930000  0.33563000  0.72044000  1.0
  C  C71  1  0.14071000  0.66437000  0.27956000  1.0
  C  C72  1  0.90392000  0.22564000  0.68461000  1.0
  C  C73  1  0.09608000  0.77437000  0.31540000  1.0
  C  C74  1  0.27285000  0.31396000  0.36388000  1.0
  C  C75  1  0.72715000  0.68604000  0.63612000  1.0
  C  C76  1  0.08436000  0.26823000  0.40641000  1.0
  C  C77  1  0.91564000  0.73178000  0.59360000  1.0
  C  C78  1  0.06045000  0.13977000  0.37324000  1.0
  C  C79  1  0.93954000  0.86023000  0.62676000  1.0
  C  C80  1  0.65857000  0.48326000  0.30484000  1.0
  C  C81  1  0.34143000  0.51672000  0.69516000  1.0
  C  C82  1  0.65509000  0.62759000  0.21291000  1.0
  C  C83  1  0.34492000  0.37240000  0.78709000  1.0
  C  C84  1  0.73835000  0.72946000  0.29007000  1.0
  C  C85  1  0.26166000  0.27054000  0.70994000  1.0
  C  C86  1  0.65155000  0.94752000  0.44005000  1.0
  C  C87  1  0.34844000  0.05247000  0.55995000  1.0
  C  C88  1  0.53010000  0.93464000  0.39093000  1.0
  C  C89  1  0.46990000  0.06536000  0.60908000  1.0
  C  C90  1  0.48727000  0.01646000  0.34383000  1.0
  C  C91  1  0.51274000  0.98354000  0.65618000  1.0
  C  C92  1  0.57269000  0.10868000  0.34700000  1.0
  C  C93  1  0.42731000  0.89131000  0.65298000  1.0
  C  C94  1  0.69296000  0.11616000  0.39628000  1.0
  C  C95  1  0.30705000  0.88383000  0.60371000  1.0
  C  C96  1  0.35536000  0.00680000  0.29503000  1.0
  C  C97  1  0.64464000  0.99321000  0.70497000  1.0
  C  C98  1  0.32911000  0.02728000  0.19103000  1.0
  C  C99  1  0.67090000  0.97273000  0.80897000  1.0
  C  C100  1  0.19245000  0.02134000  0.14779000  1.0
  C  C101  1  0.80756000  0.97867000  0.85221000  1.0
  C  C102  1  0.16865000  0.03052000  0.04285000  1.0
  C  C103  1  0.83135000  0.96949000  0.95715000  1.0
  C  C104  1  0.16087000  0.93703000  0.96668000  1.0
  C  C105  1  0.83913000  0.06298000  0.03332000  1.0
  C  C106  1  0.14487000  0.94813000  0.87043000  1.0
  C  C107  1  0.85513000  0.05188000  0.12957000  1.0
  C  C108  1  0.14302000  0.13836000  0.91866000  1.0
  C  C109  1  0.85697000  0.86164000  0.08133000  1.0
  C  C110  1  0.15917000  0.13301000  0.01670000  1.0
  C  C111  1  0.84083000  0.86700000  0.98330000  1.0
  N  N112  1  0.78751000  0.37176000  0.63913000  1.0
  N  N113  1  0.21250000  0.62824000  0.36086000  1.0
  N  N114  1  0.21153000  0.31298000  0.43435000  1.0
  N  N115  1  0.78847000  0.68701000  0.56566000  1.0
  N  N116  1  0.59474000  0.55168000  0.25750000  1.0
  N  N117  1  0.40527000  0.44832000  0.74250000  1.0
  N  N118  1  0.73131000  0.03717000  0.44260000  1.0
  N  N119  1  0.26868000  0.96282000  0.55740000  1.0
  N  N120  1  0.13598000  0.04736000  0.84658000  1.0
  N  N121  1  0.86402000  0.95264000  0.15343000  1.0
  O  O122  1  0.60972000  0.35267000  0.68531000  1.0
  O  O123  1  0.39029000  0.64734000  0.31469000  1.0
  O  O124  1  0.88646000  0.19791000  0.58985000  1.0
  O  O125  1  0.11355000  0.80210000  0.41016000  1.0
  O  O126  1  0.95150000  0.17515000  0.74598000  1.0
  O  O127  1  0.04850000  0.82486000  0.25401000  1.0
  O  O128  1  0.22121000  0.29271000  0.27441000  1.0
  O  O129  1  0.77878000  0.70730000  0.72560000  1.0
  O  O130  1  0.14371000  0.08418000  0.38544000  1.0
  O  O131  1  0.85628000  0.91584000  0.61456000  1.0
  O  O132  1  0.94605000  0.09998000  0.33533000  1.0
  O  O133  1  0.05393000  0.90003000  0.66467000  1.0
  O  O134  1  0.76284000  0.46962000  0.30048000  1.0
  O  O135  1  0.23716000  0.53036000  0.69951000  1.0
  O  O136  1  0.74901000  0.73779000  0.37917000  1.0
  O  O137  1  0.25099000  0.26220000  0.62084000  1.0
  O  O138  1  0.78754000  0.79705000  0.24630000  1.0
  O  O139  1  0.21247000  0.20294000  0.75372000  1.0
  O  O140  1  0.06501000  0.06418000  0.57238000  1.0
  O  O141  1  0.93499000  0.93581000  0.42762000  1.0
