# generated using pymatgen
data_Zr3H35(C2O)18
_symmetry_space_group_name_H-M   'P 1'
_cell_length_a   14.70580154
_cell_length_b   14.70900000
_cell_length_c   14.78316906
_cell_angle_alpha   90.77538846
_cell_angle_beta   119.21209467
_cell_angle_gamma   119.45314594
_symmetry_Int_Tables_number   1
_chemical_formula_structural   Zr3H35(C2O)18
_chemical_formula_sum   'Zr6 H70 C72 O36'
_cell_volume   2291.12149488
_cell_formula_units_Z   2
loop_
 _symmetry_equiv_pos_site_id
 _symmetry_equiv_pos_as_xyz
  1  'x, y, z'
loop_
 _atom_site_type_symbol
 _atom_site_label
 _atom_site_symmetry_multiplicity
 _atom_site_fract_x
 _atom_site_fract_y
 _atom_site_fract_z
 _atom_site_occupancy
  Zr  Zr0  1  0.23459000  0.61552000  0.12258000  1.0
  Zr  Zr1  1  0.75896000  0.37204000  0.87913000  1.0
  Zr  Zr2  1  0.99510000  0.37609000  0.12149000  1.0
  Zr  Zr3  1  0.99884000  0.61209000  0.88071000  1.0
  Zr  Zr4  1  0.99023000  0.61352000  0.11503000  1.0
  Zr  Zr5  1  0.00427000  0.37534000  0.88600000  1.0
  H  H6  1  0.17163000  0.58832000  0.28084000  1.0
  H  H7  1  0.81147000  0.59058000  0.90230000  1.0
  H  H8  1  0.82068000  0.21274000  0.91302000  1.0
  H  H9  1  0.18594000  0.58893000  0.90662000  1.0
  H  H10  1  0.61271000  0.67068000  0.37498000  1.0
  H  H11  1  0.62060000  0.74882000  0.47466000  1.0
  H  H12  1  0.79394000  0.73765000  0.62529000  1.0
  H  H13  1  0.77816000  0.65148000  0.52547000  1.0
  H  H14  1  0.37100000  0.96179000  0.65698000  1.0
  H  H15  1  0.52658000  0.08239000  0.74628000  1.0
  H  H16  1  0.40826000  0.09124000  0.63870000  1.0
  H  H17  1  0.65081000  0.01394000  0.38620000  1.0
  H  H18  1  0.57092000  0.86900000  0.36157000  1.0
  H  H19  1  0.48822000  0.92112000  0.27802000  1.0
  H  H20  1  0.22549000  0.92760000  0.47588000  1.0
  H  H21  1  0.17187000  0.81150000  0.37736000  1.0
  H  H22  1  0.24018000  0.82118000  0.51794000  1.0
  H  H23  1  0.83342000  0.13920000  0.62306000  1.0
  H  H24  1  0.78063000  0.02606000  0.66748000  1.0
  H  H25  1  0.75442000  0.00360000  0.53666000  1.0
  H  H26  1  0.39321000  0.44191000  0.71167000  1.0
  H  H27  1  0.50451000  0.40754000  0.77625000  1.0
  H  H28  1  0.34921000  0.31825000  0.74147000  1.0
  H  H29  1  0.58463000  0.71370000  0.20500000  1.0
  H  H30  1  0.51349000  0.58023000  0.21347000  1.0
  H  H31  1  0.67473000  0.65649000  0.25731000  1.0
  H  H32  1  0.18546000  0.32935000  0.76001000  1.0
  H  H33  1  0.19818000  0.45309000  0.78642000  1.0
  H  H34  1  0.25742000  0.43419000  0.71362000  1.0
  H  H35  1  0.82876000  0.68482000  0.21606000  1.0
  H  H36  1  0.81344000  0.73479000  0.10632000  1.0
  H  H37  1  0.76486000  0.76441000  0.18509000  1.0
  H  H38  1  0.95926000  0.10918000  0.78637000  1.0
  H  H39  1  0.12336000  0.19637000  0.88400000  1.0
  H  H40  1  0.05586000  0.06423000  0.79910000  1.0
  H  H41  1  0.08993000  0.94008000  0.25524000  1.0
  H  H42  1  0.16958000  0.90889000  0.21638000  1.0
  H  H43  1  0.24069000  0.04700000  0.28902000  1.0
  H  H44  1  0.00608000  0.87561000  0.79466000  1.0
  H  H45  1  0.87131000  0.79333000  0.79620000  1.0
  H  H46  1  0.89016000  0.90575000  0.74562000  1.0
  H  H47  1  0.17819000  0.24321000  0.23728000  1.0
  H  H48  1  0.04910000  0.13036000  0.22933000  1.0
  H  H49  1  0.19394000  0.14408000  0.29814000  1.0
  H  H50  1  0.94216000  0.70024000  0.44522000  1.0
  H  H51  1  0.03571000  0.71792000  0.39542000  1.0
  H  H52  1  0.87215000  0.61541000  0.31276000  1.0
  H  H53  1  0.89257000  0.23006000  0.52984000  1.0
  H  H54  1  0.83260000  0.27445000  0.58526000  1.0
  H  H55  1  0.74366000  0.20793000  0.44177000  1.0
  H  H56  1  0.99920000  0.70217000  0.63284000  1.0
  H  H57  1  0.13390000  0.70085000  0.71113000  1.0
  H  H58  1  0.11364000  0.75376000  0.60092000  1.0
  H  H59  1  0.74697000  0.20290000  0.31037000  1.0
  H  H60  1  0.82469000  0.26876000  0.24625000  1.0
  H  H61  1  0.89949000  0.23470000  0.36184000  1.0
  H  H62  1  0.66274000  0.92657000  0.95143000  1.0
  H  H63  1  0.77044000  0.07315000  0.01388000  1.0
  H  H64  1  0.75839000  0.98816000  0.09546000  1.0
  H  H65  1  0.23090000  0.99759000  0.92048000  1.0
  H  H66  1  0.24331000  0.93045000  0.01928000  1.0
  H  H67  1  0.33992000  0.07730000  0.06126000  1.0
  H  H68  1  0.59864000  0.82790000  0.09302000  1.0
  H  H69  1  0.43226000  0.73673000  0.01438000  1.0
  H  H70  1  0.51353000  0.77922000  0.94892000  1.0
  H  H71  1  0.50807000  0.23189000  0.07064000  1.0
  H  H72  1  0.54647000  0.25191000  0.97242000  1.0
  H  H73  1  0.38689000  0.16425000  0.92904000  1.0
  H  H74  1  0.48439000  0.27232000  0.47625000  1.0
  H  H75  1  0.29046000  0.49729000  0.51178000  1.0
  C  C76  1  0.29599000  0.80158000  0.30366000  1.0
  C  C77  1  0.68957000  0.50429000  0.98594000  1.0
  C  C78  1  0.70464000  0.18076000  0.70547000  1.0
  C  C79  1  0.30855000  0.50316000  0.00388000  1.0
  C  C80  1  0.29668000  0.49662000  0.31075000  1.0
  C  C81  1  0.30253000  0.80329000  0.00474000  1.0
  C  C82  1  0.69357000  0.48314000  0.68713000  1.0
  C  C83  1  0.69206000  0.19329000  0.00248000  1.0
  C  C84  1  0.96130000  0.48511000  0.28749000  1.0
  C  C85  1  0.03182000  0.20767000  0.01950000  1.0
  C  C86  1  0.98296000  0.48281000  0.68855000  1.0
  C  C87  1  0.01226000  0.80721000  0.00533000  1.0
  C  C88  1  0.60163000  0.07165000  0.61298000  1.0
  C  C89  1  0.39961000  0.89879000  0.40942000  1.0
  C  C90  1  0.47588000  0.01557000  0.58415000  1.0
  C  C91  1  0.52688000  0.95336000  0.44081000  1.0
  C  C92  1  0.37528000  0.92751000  0.48329000  1.0
  C  C93  1  0.62741000  0.02981000  0.54780000  1.0
  C  C94  1  0.59520000  0.52481000  0.97613000  1.0
  C  C95  1  0.40958000  0.51788000  0.99157000  1.0
  C  C96  1  0.46842000  0.46593000  0.88231000  1.0
  C  C97  1  0.53859000  0.58503000  0.08195000  1.0
  C  C98  1  0.37664000  0.46887000  0.88769000  1.0
  C  C99  1  0.63305000  0.60028000  0.06871000  1.0
  C  C100  1  0.05563000  0.11906000  0.02626000  1.0
  C  C101  1  0.03582000  0.91933000  0.01529000  1.0
  C  C102  1  0.03259000  0.06073000  0.93184000  1.0
  C  C103  1  0.09100000  0.99156000  0.11835000  1.0
  C  C104  1  0.00617000  0.95385000  0.92180000  1.0
  C  C105  1  0.09083000  0.08742000  0.12129000  1.0
  C  C106  1  0.93777000  0.47428000  0.37647000  1.0
  C  C107  1  0.96229000  0.47786000  0.57797000  1.0
  C  C108  1  0.96744000  0.56866000  0.44238000  1.0
  C  C109  1  0.90169000  0.37619000  0.49974000  1.0
  C  C110  1  0.99573000  0.57550000  0.54899000  1.0
  C  C111  1  0.89690000  0.37508000  0.40183000  1.0
  C  C112  1  0.39630000  0.49719000  0.41278000  1.0
  C  C113  1  0.59087000  0.48029000  0.58597000  1.0
  C  C114  1  0.52448000  0.57180000  0.45624000  1.0
  C  C115  1  0.45945000  0.39873000  0.53799000  1.0
  C  C116  1  0.61887000  0.56608000  0.54293000  1.0
  C  C117  1  0.36591000  0.41372000  0.46202000  1.0
  C  C118  1  0.61940000  0.67653000  0.45205000  1.0
  C  C119  1  0.72556000  0.66843000  0.54790000  1.0
  C  C120  1  0.59149000  0.09279000  0.00371000  1.0
  C  C121  1  0.40530000  0.90533000  0.00647000  1.0
  C  C122  1  0.59899000  0.00080000  0.01200000  1.0
  C  C123  1  0.39974000  0.99820000  0.00090000  1.0
  C  C124  1  0.50398000  0.90565000  0.01212000  1.0
  C  C125  1  0.49234000  0.09236000  0.99755000  1.0
  C  C126  1  0.44480000  0.03950000  0.66092000  1.0
  C  C127  1  0.56090000  0.93825000  0.36282000  1.0
  C  C128  1  0.24550000  0.86818000  0.46121000  1.0
  C  C129  1  0.75624000  0.05250000  0.59475000  1.0
  C  C130  1  0.42836000  0.40553000  0.77342000  1.0
  C  C131  1  0.58070000  0.63731000  0.19551000  1.0
  C  C132  1  0.24838000  0.41975000  0.78229000  1.0
  C  C133  1  0.76710000  0.70056000  0.14874000  1.0
  C  C134  1  0.04203000  0.10945000  0.84511000  1.0
  C  C135  1  0.15062000  0.97024000  0.22447000  1.0
  C  C136  1  0.94052000  0.87861000  0.80866000  1.0
  C  C137  1  0.13117000  0.15501000  0.22671000  1.0
  C  C138  1  0.95584000  0.65645000  0.39766000  1.0
  C  C139  1  0.83967000  0.26722000  0.51592000  1.0
  C  C140  1  0.06378000  0.68870000  0.62720000  1.0
  C  C141  1  0.83921000  0.26537000  0.32531000  1.0
  C  C142  1  0.70279000  0.99795000  0.01771000  1.0
  C  C143  1  0.29864000  0.00047000  0.00109000  1.0
  C  C144  1  0.51088000  0.80688000  0.01659000  1.0
  C  C145  1  0.48417000  0.19062000  0.99204000  1.0
  C  C146  1  0.41631000  0.28693000  0.55529000  1.0
  C  C147  1  0.23865000  0.35074000  0.44788000  1.0
  O  O148  1  0.33136000  0.75554000  0.26676000  1.0
  O  O149  1  0.65317000  0.41832000  0.91910000  1.0
  O  O150  1  0.66943000  0.23114000  0.73692000  1.0
  O  O151  1  0.34009000  0.57607000  0.08197000  1.0
  O  O152  1  0.18111000  0.42022000  0.27138000  1.0
  O  O153  1  0.18819000  0.75777000  0.92175000  1.0
  O  O154  1  0.80711000  0.56532000  0.72834000  1.0
  O  O155  1  0.80775000  0.23538000  0.08019000  1.0
  O  O156  1  0.97138000  0.56594000  0.25095000  1.0
  O  O157  1  0.02257000  0.24476000  0.93992000  1.0
  O  O158  1  0.99804000  0.41341000  0.73424000  1.0
  O  O159  1  0.99219000  0.75971000  0.07166000  1.0
  O  O160  1  0.01291000  0.23743000  0.08710000  1.0
  O  O161  1  0.98543000  0.55995000  0.73315000  1.0
  O  O162  1  0.01187000  0.76322000  0.92950000  1.0
  O  O163  1  0.97998000  0.41729000  0.25783000  1.0
  O  O164  1  0.33633000  0.57003000  0.26953000  1.0
  O  O165  1  0.65679000  0.23041000  0.92338000  1.0
  O  O166  1  0.65771000  0.40671000  0.72696000  1.0
  O  O167  1  0.33582000  0.76763000  0.08536000  1.0
  O  O168  1  0.19471000  0.41947000  0.93497000  1.0
  O  O169  1  0.17916000  0.76541000  0.25613000  1.0
  O  O170  1  0.80513000  0.57270000  0.06740000  1.0
  O  O171  1  0.82173000  0.22222000  0.74528000  1.0
  O  O172  1  0.13391000  0.56170000  0.93504000  1.0
  O  O173  1  0.86844000  0.29288000  0.93772000  1.0
  O  O174  1  0.86112000  0.55988000  0.92732000  1.0
  O  O175  1  0.12420000  0.56197000  0.20137000  1.0
  O  O176  1  0.89455000  0.44446000  0.04679000  1.0
  O  O177  1  0.09448000  0.64338000  0.04916000  1.0
  O  O178  1  0.90138000  0.44260000  0.85301000  1.0
  O  O179  1  0.09846000  0.44726000  0.05442000  1.0
  O  O180  1  0.43755000  0.22716000  0.50563000  1.0
  O  O181  1  0.36059000  0.24509000  0.59766000  1.0
  O  O182  1  0.22107000  0.42042000  0.48922000  1.0
  O  O183  1  0.16260000  0.25175000  0.41570000  1.0
