# generated using pymatgen
data_MgH10C9NO5
_symmetry_space_group_name_H-M   'P 1'
_cell_length_a   7.37751000
_cell_length_b   11.63303067
_cell_length_c   12.40890000
_cell_angle_alpha   89.09404633
_cell_angle_beta   72.74890000
_cell_angle_gamma   71.52726416
_symmetry_Int_Tables_number   1
_chemical_formula_structural   MgH10C9NO5
_chemical_formula_sum   'Mg4 H40 C36 N4 O20'
_cell_volume   961.05640226
_cell_formula_units_Z   4
loop_
 _symmetry_equiv_pos_site_id
 _symmetry_equiv_pos_as_xyz
  1  'x, y, z'
loop_
 _atom_site_type_symbol
 _atom_site_label
 _atom_site_symmetry_multiplicity
 _atom_site_fract_x
 _atom_site_fract_y
 _atom_site_fract_z
 _atom_site_occupancy
  Mg  Mg0  1  0.71153000  0.74891000  0.24269000  1.0
  Mg  Mg1  1  0.20310000  0.75097000  0.25739000  1.0
  Mg  Mg2  1  0.28847000  0.25109000  0.75731000  1.0
  Mg  Mg3  1  0.79691000  0.24903000  0.74261000  1.0
  H  H4  1  0.59109000  0.56942000  0.44396000  1.0
  H  H5  1  0.10433000  0.93093000  0.05603000  1.0
  H  H6  1  0.40890000  0.43059000  0.55604000  1.0
  H  H7  1  0.89567000  0.06906000  0.94397000  1.0
  H  H8  1  0.18920000  0.91369000  0.46933000  1.0
  H  H9  1  0.07181000  0.58661000  0.03079000  1.0
  H  H10  1  0.81080000  0.08632000  0.53067000  1.0
  H  H11  1  0.92818000  0.41339000  0.96921000  1.0
  H  H12  1  0.63774000  0.82027000  0.60590000  1.0
  H  H13  1  0.56385000  0.68004000  0.89403000  1.0
  H  H14  1  0.36227000  0.17973000  0.39410000  1.0
  H  H15  1  0.43615000  0.31996000  0.10597000  1.0
  H  H16  1  0.57928000  0.97634000  0.58579000  1.0
  H  H17  1  0.64125000  0.52395000  0.91398000  1.0
  H  H18  1  0.42073000  0.02366000  0.41421000  1.0
  H  H19  1  0.35875000  0.47605000  0.08602000  1.0
  H  H20  1  0.81381000  0.89468000  0.60854000  1.0
  H  H21  1  0.81667000  0.60569000  0.89181000  1.0
  H  H22  1  0.18620000  0.10532000  0.39146000  1.0
  H  H23  1  0.18333000  0.39431000  0.10820000  1.0
  H  H24  1  0.21152000  0.37396000  0.36834000  1.0
  H  H25  1  0.45380000  0.12598000  0.13168000  1.0
  H  H26  1  0.78848000  0.62604000  0.63166000  1.0
  H  H27  1  0.54620000  0.87402000  0.86832000  1.0
  H  H28  1  0.02777000  0.35419000  0.31029000  1.0
  H  H29  1  0.19225000  0.14577000  0.18961000  1.0
  H  H30  1  0.97223000  0.64581000  0.68971000  1.0
  H  H31  1  0.80775000  0.85423000  0.81039000  1.0
  H  H32  1  0.95418000  0.41930000  0.45063000  1.0
  H  H33  1  0.32400000  0.08056000  0.04933000  1.0
  H  H34  1  0.04582000  0.58070000  0.54937000  1.0
  H  H35  1  0.67600000  0.91944000  0.95067000  1.0
  H  H36  1  0.50472000  0.56524000  0.65751000  1.0
  H  H37  1  0.22720000  0.93487000  0.84250000  1.0
  H  H38  1  0.49528000  0.43476000  0.34249000  1.0
  H  H39  1  0.77280000  0.06513000  0.15749000  1.0
  H  H40  1  0.09457000  0.93341000  0.68163000  1.0
  H  H41  1  0.20956000  0.56659000  0.81854000  1.0
  H  H42  1  0.90543000  0.06659000  0.31837000  1.0
  H  H43  1  0.79044000  0.43341000  0.18146000  1.0
  C  C44  1  0.79742000  0.85674000  0.44183000  1.0
  C  C45  1  0.59559000  0.64330000  0.05830000  1.0
  C  C46  1  0.20258000  0.14326000  0.55817000  1.0
  C  C47  1  0.40442000  0.35669000  0.94170000  1.0
  C  C48  1  0.02318000  0.54023000  0.32275000  1.0
  C  C49  1  0.38589000  0.95972000  0.17726000  1.0
  C  C50  1  0.97682000  0.45977000  0.67725000  1.0
  C  C51  1  0.61411000  0.04028000  0.82273000  1.0
  C  C52  1  0.47654000  0.64235000  0.50380000  1.0
  C  C53  1  0.12224000  0.85798000  0.99624000  1.0
  C  C54  1  0.52347000  0.35765000  0.49620000  1.0
  C  C55  1  0.87776000  0.14202000  0.00376000  1.0
  C  C56  1  0.25215000  0.84179000  0.51712000  1.0
  C  C57  1  0.11060000  0.65851000  0.98301000  1.0
  C  C58  1  0.74785000  0.15821000  0.48289000  1.0
  C  C59  1  0.88940000  0.34148000  0.01700000  1.0
  C  C60  1  0.70320000  0.88949000  0.56809000  1.0
  C  C61  1  0.66048000  0.61079000  0.93197000  1.0
  C  C62  1  0.29680000  0.11051000  0.43191000  1.0
  C  C63  1  0.33952000  0.38921000  0.06803000  1.0
  C  C64  1  0.05810000  0.41424000  0.36496000  1.0
  C  C65  1  0.33722000  0.08572000  0.13503000  1.0
  C  C66  1  0.94190000  0.58576000  0.63504000  1.0
  C  C67  1  0.66278000  0.91428000  0.86497000  1.0
  C  C68  1  0.42818000  0.64442000  0.62029000  1.0
  C  C69  1  0.19241000  0.85577000  0.87976000  1.0
  C  C70  1  0.57182000  0.35558000  0.37971000  1.0
  C  C71  1  0.80759000  0.14422000  0.12024000  1.0
  C  C72  1  0.20338000  0.84923000  0.63379000  1.0
  C  C73  1  0.18602000  0.65093000  0.86632000  1.0
  C  C74  1  0.79662000  0.15077000  0.36621000  1.0
  C  C75  1  0.81398000  0.34906000  0.13368000  1.0
  C  C76  1  0.28669000  0.74843000  0.68805000  1.0
  C  C77  1  0.22294000  0.75164000  0.81204000  1.0
  C  C78  1  0.71330000  0.25157000  0.31195000  1.0
  C  C79  1  0.77705000  0.24836000  0.18796000  1.0
  N  N80  1  0.38285000  0.73812000  0.45435000  1.0
  N  N81  1  0.07470000  0.76227000  0.04573000  1.0
  N  N82  1  0.61716000  0.26188000  0.54565000  1.0
  N  N83  1  0.92530000  0.23772000  0.95427000  1.0
  O  O84  1  0.42583000  0.73019000  0.34236000  1.0
  O  O85  1  0.99815000  0.77024000  0.15773000  1.0
  O  O86  1  0.57418000  0.26981000  0.65764000  1.0
  O  O87  1  0.00186000  0.22975000  0.84227000  1.0
  O  O88  1  0.68541000  0.84222000  0.38651000  1.0
  O  O89  1  0.41390000  0.65770000  0.11351000  1.0
  O  O90  1  0.31459000  0.15778000  0.61349000  1.0
  O  O91  1  0.58610000  0.34230000  0.88649000  1.0
  O  O92  1  0.86218000  0.58546000  0.29614000  1.0
  O  O93  1  0.24357000  0.91448000  0.20359000  1.0
  O  O94  1  0.13782000  0.41453000  0.70386000  1.0
  O  O95  1  0.75644000  0.08552000  0.79640000  1.0
  O  O96  1  0.72537000  0.65376000  0.10247000  1.0
  O  O97  1  0.98176000  0.84623000  0.39777000  1.0
  O  O98  1  0.27463000  0.34624000  0.89753000  1.0
  O  O99  1  0.01824000  0.15377000  0.60223000  1.0
  O  O100  1  0.56280000  0.90844000  0.18235000  1.0
  O  O101  1  0.15379000  0.59155000  0.31791000  1.0
  O  O102  1  0.43720000  0.09156000  0.81764000  1.0
  O  O103  1  0.84621000  0.40845000  0.68209000  1.0
