# generated using pymatgen
data_InH7(C4O3)2
_symmetry_space_group_name_H-M   'P 1'
_cell_length_a   7.08944000
_cell_length_b   7.09309000
_cell_length_c   21.12186742
_cell_angle_alpha   94.94911737
_cell_angle_beta   94.91923330
_cell_angle_gamma   119.18600000
_symmetry_Int_Tables_number   1
_chemical_formula_structural   InH7(C4O3)2
_chemical_formula_sum   'In4 H28 C32 O24'
_cell_volume   913.80033498
_cell_formula_units_Z   4
loop_
 _symmetry_equiv_pos_site_id
 _symmetry_equiv_pos_as_xyz
  1  'x, y, z'
loop_
 _atom_site_type_symbol
 _atom_site_label
 _atom_site_symmetry_multiplicity
 _atom_site_fract_x
 _atom_site_fract_y
 _atom_site_fract_z
 _atom_site_occupancy
  In  In0  1  0.85885000  0.88742000  0.48417000  1.0
  In  In1  1  0.40346000  0.37455000  0.51580000  1.0
  In  In2  1  0.62388000  0.15322000  0.01579000  1.0
  In  In3  1  0.13718000  0.60844000  0.98418000  1.0
  H  H4  1  0.72488000  0.45677000  0.44611000  1.0
  H  H5  1  0.01064000  0.27835000  0.55385000  1.0
  H  H6  1  0.52820000  0.76094000  0.05391000  1.0
  H  H7  1  0.70631000  0.47423000  0.94609000  1.0
  H  H8  1  0.21932000  0.90695000  0.56739000  1.0
  H  H9  1  0.33963000  0.65158000  0.43264000  1.0
  H  H10  1  0.90105000  0.08921000  0.93255000  1.0
  H  H11  1  0.15638000  0.96853000  0.06745000  1.0
  H  H12  1  0.00683000  0.65909000  0.56374000  1.0
  H  H13  1  0.09535000  0.44265000  0.43627000  1.0
  H  H14  1  0.69234000  0.84501000  0.93623000  1.0
  H  H15  1  0.90849000  0.75610000  0.06383000  1.0
  H  H16  1  0.77209000  0.46128000  0.72802000  1.0
  H  H17  1  0.73354000  0.04352000  0.27192000  1.0
  H  H18  1  0.29400000  0.48279000  0.77176000  1.0
  H  H19  1  0.71063000  0.52189000  0.22838000  1.0
  H  H20  1  0.76164000  0.31228000  0.83078000  1.0
  H  H21  1  0.48162000  0.93016000  0.16919000  1.0
  H  H22  1  0.18120000  0.23072000  0.66908000  1.0
  H  H23  1  0.56078000  0.51110000  0.33100000  1.0
  H  H24  1  0.65736000  0.92032000  0.82887000  1.0
  H  H25  1  0.09137000  0.82792000  0.17107000  1.0
  H  H26  1  0.07875000  0.84069000  0.67111000  1.0
  H  H27  1  0.16845000  0.40685000  0.32890000  1.0
  H  H28  1  0.57606000  0.68608000  0.72402000  1.0
  H  H29  1  0.96194000  0.85179000  0.27594000  1.0
  H  H30  1  0.10195000  0.71169000  0.77605000  1.0
  H  H31  1  0.93491000  0.32574000  0.22392000  1.0
  C  C32  1  0.62718000  0.94028000  0.66792000  1.0
  C  C33  1  0.27245000  0.95912000  0.33200000  1.0
  C  C34  1  0.20883000  0.02215000  0.83206000  1.0
  C  C35  1  0.18968000  0.37697000  0.16799000  1.0
  C  C36  1  0.68500000  0.16049000  0.66868000  1.0
  C  C37  1  0.49200000  0.01612000  0.33123000  1.0
  C  C38  1  0.26598000  0.24156000  0.83120000  1.0
  C  C39  1  0.41013000  0.43498000  0.16888000  1.0
  C  C40  1  0.73185000  0.29194000  0.72761000  1.0
  C  C41  1  0.56460000  0.00386000  0.27233000  1.0
  C  C42  1  0.25418000  0.31391000  0.77224000  1.0
  C  C43  1  0.54122000  0.48162000  0.22786000  1.0
  C  C44  1  0.72342000  0.20731000  0.78521000  1.0
  C  C45  1  0.42225000  0.93775000  0.21474000  1.0
  C  C46  1  0.18839000  0.17149000  0.71468000  1.0
  C  C47  1  0.45608000  0.47300000  0.28539000  1.0
  C  C48  1  0.66559000  0.98837000  0.78424000  1.0
  C  C49  1  0.20416000  0.88095000  0.21571000  1.0
  C  C50  1  0.13149000  0.95354000  0.71573000  1.0
  C  C51  1  0.23692000  0.41513000  0.28430000  1.0
  C  C52  1  0.61778000  0.85609000  0.72590000  1.0
  C  C53  1  0.13016000  0.89164000  0.27404000  1.0
  C  C54  1  0.14174000  0.87979000  0.77412000  1.0
  C  C55  1  0.10499000  0.36741000  0.22590000  1.0
  C  C56  1  0.58929000  0.79944000  0.60661000  1.0
  C  C57  1  0.19295000  0.98260000  0.39331000  1.0
  C  C58  1  0.23205000  0.94286000  0.89341000  1.0
  C  C59  1  0.04912000  0.33911000  0.10661000  1.0
  C  C60  1  0.68182000  0.25847000  0.60840000  1.0
  C  C61  1  0.65021000  0.07309000  0.39155000  1.0
  C  C62  1  0.32285000  0.39986000  0.89147000  1.0
  C  C63  1  0.50846000  0.43194000  0.10862000  1.0
  O  O64  1  0.65904000  0.89194000  0.55799000  1.0
  O  O65  1  0.33418000  0.10136000  0.44187000  1.0
  O  O66  1  0.35029000  0.08420000  0.94201000  1.0
  O  O67  1  0.14204000  0.40936000  0.05809000  1.0
  O  O68  1  0.48866000  0.59233000  0.60590000  1.0
  O  O69  1  0.98644000  0.88229000  0.39406000  1.0
  O  O70  1  0.13219000  0.73648000  0.89417000  1.0
  O  O71  1  0.84182000  0.23805000  0.10581000  1.0
  O  O72  1  0.48785000  0.18915000  0.57857000  1.0
  O  O73  1  0.61054000  0.90890000  0.42133000  1.0
  O  O74  1  0.15851000  0.36042000  0.92121000  1.0
  O  O75  1  0.43915000  0.23804000  0.07877000  1.0
  O  O76  1  0.85696000  0.40551000  0.59366000  1.0
  O  O77  1  0.81206000  0.26288000  0.40637000  1.0
  O  O78  1  0.51277000  0.56152000  0.90629000  1.0
  O  O79  1  0.65546000  0.60704000  0.09389000  1.0
  O  O80  1  0.66637000  0.54437000  0.46596000  1.0
  O  O81  1  0.07850000  0.19996000  0.53408000  1.0
  O  O82  1  0.44969000  0.82848000  0.03405000  1.0
  O  O83  1  0.79397000  0.41570000  0.96589000  1.0
  O  O84  1  0.07392000  0.79609000  0.54472000  1.0
  O  O85  1  0.25146000  0.52883000  0.45529000  1.0
  O  O86  1  0.77844000  0.00106000  0.95526000  1.0
  O  O87  1  0.04562000  0.82315000  0.04480000  1.0
