# generated using pymatgen
data_SbH3(C2O)3
_symmetry_space_group_name_H-M   'P 1'
_cell_length_a   4.54546000
_cell_length_b   8.22745860
_cell_length_c   8.48698000
_cell_angle_alpha   90.00013140
_cell_angle_beta   90.00060000
_cell_angle_gamma   74.01056432
_symmetry_Int_Tables_number   1
_chemical_formula_structural   SbH3(C2O)3
_chemical_formula_sum   'Sb2 H6 C12 O6'
_cell_volume   305.11342387
_cell_formula_units_Z   2
loop_
 _symmetry_equiv_pos_site_id
 _symmetry_equiv_pos_as_xyz
  1  'x, y, z'
loop_
 _atom_site_type_symbol
 _atom_site_label
 _atom_site_symmetry_multiplicity
 _atom_site_fract_x
 _atom_site_fract_y
 _atom_site_fract_z
 _atom_site_occupancy
  Sb  Sb0  1  0.96678000  0.99983000  0.00004000  1.0
  Sb  Sb1  1  0.96680000  0.99981000  0.49995000  1.0
  H  H2  1  0.90339000  0.57463000  0.00528000  1.0
  H  H3  1  0.47790000  0.42573000  0.99470000  1.0
  H  H4  1  0.90340000  0.57462000  0.49473000  1.0
  H  H5  1  0.47791000  0.42572000  0.50530000  1.0
  H  H6  1  0.14607000  0.46229000  0.75001000  1.0
  H  H7  1  0.60784000  0.53835000  0.25000000  1.0
  C  C8  1  0.38658000  0.81594000  0.75000000  1.0
  C  C9  1  0.20343000  0.18377000  0.25000000  1.0
  C  C10  1  0.51923000  0.75277000  0.89417000  1.0
  C  C11  1  0.27263000  0.24708000  0.10580000  1.0
  C  C12  1  0.51923000  0.75277000  0.60583000  1.0
  C  C13  1  0.27263000  0.24708000  0.39420000  1.0
  C  C14  1  0.79867000  0.62605000  0.89403000  1.0
  C  C15  1  0.42504000  0.37407000  0.10594000  1.0
  C  C16  1  0.79867000  0.62605000  0.60598000  1.0
  C  C17  1  0.42505000  0.37406000  0.39405000  1.0
  C  C18  1  0.93378000  0.56407000  0.75000000  1.0
  C  C19  1  0.49792000  0.43623000  0.25000000  1.0
  O  O20  1  0.10954000  0.93725000  0.75000000  1.0
  O  O21  1  0.04761000  0.06226000  0.24999000  1.0
  O  O22  1  0.37047000  0.81660000  0.02966000  1.0
  O  O23  1  0.18749000  0.18319000  0.97034000  1.0
  O  O24  1  0.37048000  0.81659000  0.47034000  1.0
  O  O25  1  0.18749000  0.18318000  0.52965000  1.0
