# generated using pymatgen
data_ZnH12C10(NO3)2
_symmetry_space_group_name_H-M   'P 1'
_cell_length_a   6.67487000
_cell_length_b   12.76540000
_cell_length_c   14.42020000
_cell_angle_alpha   90.00000000
_cell_angle_beta   90.00000000
_cell_angle_gamma   90.00000000
_symmetry_Int_Tables_number   1
_chemical_formula_structural   ZnH12C10(NO3)2
_chemical_formula_sum   'Zn4 H48 C40 N8 O24'
_cell_volume   1228.70754036
_cell_formula_units_Z   4
loop_
 _symmetry_equiv_pos_site_id
 _symmetry_equiv_pos_as_xyz
  1  'x, y, z'
loop_
 _atom_site_type_symbol
 _atom_site_label
 _atom_site_symmetry_multiplicity
 _atom_site_fract_x
 _atom_site_fract_y
 _atom_site_fract_z
 _atom_site_occupancy
  Zn  Zn0  1  0.34091000  0.19193000  0.45733000  1.0
  Zn  Zn1  1  0.84091000  0.80807000  0.04267000  1.0
  Zn  Zn2  1  0.65909000  0.30807000  0.95733000  1.0
  Zn  Zn3  1  0.15909000  0.69193000  0.54267000  1.0
  H  H4  1  0.16606000  0.42974000  0.77949000  1.0
  H  H5  1  0.66606000  0.57026000  0.72051000  1.0
  H  H6  1  0.83394000  0.07026000  0.27949000  1.0
  H  H7  1  0.33394000  0.92974000  0.22051000  1.0
  H  H8  1  0.28896000  0.23845000  0.75613000  1.0
  H  H9  1  0.78895000  0.76155000  0.74387000  1.0
  H  H10  1  0.71105000  0.26155000  0.25613000  1.0
  H  H11  1  0.21104000  0.73845000  0.24387000  1.0
  H  H12  1  0.07001000  0.02734000  0.63417000  1.0
  H  H13  1  0.57001000  0.97267000  0.86583000  1.0
  H  H14  1  0.92999000  0.47267000  0.13417000  1.0
  H  H15  1  0.42999000  0.52734000  0.36583000  1.0
  H  H16  1  0.94219000  0.01133000  0.46599000  1.0
  H  H17  1  0.44219000  0.98867000  0.03401000  1.0
  H  H18  1  0.05781000  0.48867000  0.96599000  1.0
  H  H19  1  0.55781000  0.51133000  0.53401000  1.0
  H  H20  1  0.10193000  0.39269000  0.54272000  1.0
  H  H21  1  0.60194000  0.60731000  0.95729000  1.0
  H  H22  1  0.89807000  0.10731000  0.04272000  1.0
  H  H23  1  0.39807000  0.89269000  0.45728000  1.0
  H  H24  1  0.89596000  0.30637000  0.54509000  1.0
  H  H25  1  0.39596000  0.69362000  0.95491000  1.0
  H  H26  1  0.10404000  0.19362000  0.04509000  1.0
  H  H27  1  0.60404000  0.80637000  0.45491000  1.0
  H  H28  1  0.93854000  0.48610000  0.66492000  1.0
  H  H29  1  0.43854000  0.51390000  0.83508000  1.0
  H  H30  1  0.06146000  0.01390000  0.16492000  1.0
  H  H31  1  0.56146000  0.98610000  0.33508000  1.0
  H  H32  1  0.77600000  0.37939000  0.68858000  1.0
  H  H33  1  0.27600000  0.62061000  0.81142000  1.0
  H  H34  1  0.22400000  0.12061000  0.18858000  1.0
  H  H35  1  0.72400000  0.87938000  0.31142000  1.0
  H  H36  1  0.67456000  0.16859000  0.65257000  1.0
  H  H37  1  0.17456000  0.83141000  0.84743000  1.0
  H  H38  1  0.32544000  0.33141000  0.15257000  1.0
  H  H39  1  0.82545000  0.66859000  0.34743000  1.0
  H  H40  1  0.47304000  0.08205000  0.64105000  1.0
  H  H41  1  0.97304000  0.91795000  0.85895000  1.0
  H  H42  1  0.52696000  0.41795000  0.14105000  1.0
  H  H43  1  0.02696000  0.58205000  0.35895000  1.0
  H  H44  1  0.81239000  0.03241000  0.74910000  1.0
  H  H45  1  0.31239000  0.96759000  0.75090000  1.0
  H  H46  1  0.18761000  0.46759000  0.24910000  1.0
  H  H47  1  0.68761000  0.53241000  0.25090000  1.0
  H  H48  1  0.67086000  0.93357000  0.69087000  1.0
  H  H49  1  0.17086000  0.06643000  0.80913000  1.0
  H  H50  1  0.32914000  0.56643000  0.19087000  1.0
  H  H51  1  0.82914000  0.43357000  0.30913000  1.0
  C  C52  1  0.15075000  0.26087000  0.62836000  1.0
  C  C53  1  0.65075000  0.73913000  0.87164000  1.0
  C  C54  1  0.84926000  0.23913000  0.12836000  1.0
  C  C55  1  0.34925000  0.76087000  0.37164000  1.0
  C  C56  1  0.01178000  0.34247000  0.58863000  1.0
  C  C57  1  0.51178000  0.65753000  0.91137000  1.0
  C  C58  1  0.98823000  0.15753000  0.08863000  1.0
  C  C59  1  0.48823000  0.84247000  0.41137000  1.0
  C  C60  1  0.93214000  0.40110000  0.67412000  1.0
  C  C61  1  0.43214000  0.59889000  0.82589000  1.0
  C  C62  1  0.06786000  0.09890000  0.17412000  1.0
  C  C63  1  0.56786000  0.90110000  0.32589000  1.0
  C  C64  1  0.06867000  0.36549000  0.75597000  1.0
  C  C65  1  0.56867000  0.63451000  0.74403000  1.0
  C  C66  1  0.93133000  0.13451000  0.25597000  1.0
  C  C67  1  0.43133000  0.86549000  0.24403000  1.0
  C  C68  1  0.94678000  0.32685000  0.83860000  1.0
  C  C69  1  0.44678000  0.67315000  0.66140000  1.0
  C  C70  1  0.05322000  0.17315000  0.33860000  1.0
  C  C71  1  0.55322000  0.82685000  0.16140000  1.0
  C  C72  1  0.69276000  0.07626000  0.53059000  1.0
  C  C73  1  0.19276000  0.92375000  0.96941000  1.0
  C  C74  1  0.30724000  0.42375000  0.03059000  1.0
  C  C75  1  0.80724000  0.57626000  0.46941000  1.0
  C  C76  1  0.63476000  0.08844000  0.63101000  1.0
  C  C77  1  0.13476000  0.91156000  0.86899000  1.0
  C  C78  1  0.36524000  0.41156000  0.13101000  1.0
  C  C79  1  0.86523000  0.58844000  0.36899000  1.0
  C  C80  1  0.75940000  0.00536000  0.68138000  1.0
  C  C81  1  0.25940000  0.99464000  0.81862000  1.0
  C  C82  1  0.24059000  0.49464000  0.18138000  1.0
  C  C83  1  0.74059000  0.50536000  0.31862000  1.0
  C  C84  1  0.93488000  0.98261000  0.61473000  1.0
  C  C85  1  0.43487000  0.01739000  0.88527000  1.0
  C  C86  1  0.06513000  0.51739000  0.11473000  1.0
  C  C87  1  0.56513000  0.48262000  0.38527000  1.0
  C  C88  1  0.99776000  0.86808000  0.60879000  1.0
  C  C89  1  0.49775000  0.13192000  0.89121000  1.0
  C  C90  1  0.00224000  0.63192000  0.10879000  1.0
  C  C91  1  0.50224000  0.36808000  0.39120000  1.0
  N  N92  1  0.18752000  0.28108000  0.71696000  1.0
  N  N93  1  0.68753000  0.71891000  0.78304000  1.0
  N  N94  1  0.81247000  0.21892000  0.21696000  1.0
  N  N95  1  0.31247000  0.78108000  0.28304000  1.0
  N  N96  1  0.86186000  0.02107000  0.52555000  1.0
  N  N97  1  0.36185000  0.97893000  0.97445000  1.0
  N  N98  1  0.13814000  0.47893000  0.02555000  1.0
  N  N99  1  0.63814000  0.52107000  0.47445000  1.0
  O  O100  1  0.22421000  0.18266000  0.58602000  1.0
  O  O101  1  0.72420000  0.81734000  0.91398000  1.0
  O  O102  1  0.77579000  0.31734000  0.08602000  1.0
  O  O103  1  0.27579000  0.68266000  0.41398000  1.0
  O  O104  1  0.95741000  0.23437000  0.86603000  1.0
  O  O105  1  0.45741000  0.76563000  0.63397000  1.0
  O  O106  1  0.04259000  0.26563000  0.36603000  1.0
  O  O107  1  0.54259000  0.73437000  0.13397000  1.0
  O  O108  1  0.82841000  0.39686000  0.87513000  1.0
  O  O109  1  0.32841000  0.60314000  0.62488000  1.0
  O  O110  1  0.17159000  0.10314000  0.37512000  1.0
  O  O111  1  0.67159000  0.89686000  0.12488000  1.0
  O  O112  1  0.60338000  0.11240000  0.46021000  1.0
  O  O113  1  0.10337000  0.88760000  0.03979000  1.0
  O  O114  1  0.39663000  0.38760000  0.96021000  1.0
  O  O115  1  0.89662000  0.61240000  0.53979000  1.0
  O  O116  1  0.06151000  0.83847000  0.52872000  1.0
  O  O117  1  0.56152000  0.16153000  0.97128000  1.0
  O  O118  1  0.93848000  0.66153000  0.02872000  1.0
  O  O119  1  0.43848000  0.33847000  0.47128000  1.0
  O  O120  1  0.99331000  0.81084000  0.67944000  1.0
  O  O121  1  0.49331000  0.18916000  0.82056000  1.0
  O  O122  1  0.00669000  0.68916000  0.17944000  1.0
  O  O123  1  0.50669000  0.31084000  0.32056000  1.0
