# generated using pymatgen
data_Co3H24C30(N7O4)2
_symmetry_space_group_name_H-M   'P 1'
_cell_length_a   10.13990000
_cell_length_b   10.32095556
_cell_length_c   10.50730000
_cell_angle_alpha   68.26844488
_cell_angle_beta   78.08700000
_cell_angle_gamma   60.61848895
_symmetry_Int_Tables_number   1
_chemical_formula_structural   Co3H24C30(N7O4)2
_chemical_formula_sum   'Co3 H24 C30 N14 O8'
_cell_volume   889.66683605
_cell_formula_units_Z   1
loop_
 _symmetry_equiv_pos_site_id
 _symmetry_equiv_pos_as_xyz
  1  'x, y, z'
loop_
 _atom_site_type_symbol
 _atom_site_label
 _atom_site_symmetry_multiplicity
 _atom_site_fract_x
 _atom_site_fract_y
 _atom_site_fract_z
 _atom_site_occupancy
  Co  Co0  1  0.99907000  0.49925000  0.50117000  1.0
  Co  Co1  1  0.87153000  0.28006000  0.77801000  1.0
  Co  Co2  1  0.12761000  0.72084000  0.22151000  1.0
  H  H3  1  0.33117000  0.90171000  0.85997000  1.0
  H  H4  1  0.66902000  0.09864000  0.14042000  1.0
  H  H5  1  0.75963000  0.42147000  0.43966000  1.0
  H  H6  1  0.23976000  0.57705000  0.56110000  1.0
  H  H7  1  0.97734000  0.08839000  0.10355000  1.0
  H  H8  1  0.02267000  0.91228000  0.89537000  1.0
  H  H9  1  0.39325000  0.31727000  0.69802000  1.0
  H  H10  1  0.60709000  0.68300000  0.30224000  1.0
  H  H11  1  0.75848000  0.87659000  0.90042000  1.0
  H  H12  1  0.24208000  0.12337000  0.09926000  1.0
  H  H13  1  0.59607000  0.74607000  0.94071000  1.0
  H  H14  1  0.40437000  0.25406000  0.05915000  1.0
  H  H15  1  0.12963000  0.03350000  0.34009000  1.0
  H  H16  1  0.87046000  0.96637000  0.65940000  1.0
  H  H17  1  0.23839000  0.18795000  0.42742000  1.0
  H  H18  1  0.76099000  0.81133000  0.57382000  1.0
  H  H19  1  0.70489000  0.22049000  0.38743000  1.0
  H  H20  1  0.29495000  0.77897000  0.61199000  1.0
  H  H21  1  0.86545000  0.05469000  0.35276000  1.0
  H  H22  1  0.13438000  0.94489000  0.64630000  1.0
  H  H23  1  0.62640000  0.53088000  0.90750000  1.0
  H  H24  1  0.37329000  0.47007000  0.09247000  1.0
  H  H25  1  0.58998000  0.47884000  0.18815000  1.0
  H  H26  1  0.41009000  0.52115000  0.81200000  1.0
  C  C27  1  0.34650000  0.11884000  0.77044000  1.0
  C  C28  1  0.65372000  0.88147000  0.23016000  1.0
  C  C29  1  0.58541000  0.10578000  0.79672000  1.0
  C  C30  1  0.41513000  0.89434000  0.20317000  1.0
  C  C31  1  0.40375000  0.95770000  0.84054000  1.0
  C  C32  1  0.59653000  0.04256000  0.15983000  1.0
  C  C33  1  0.18898000  0.21473000  0.71936000  1.0
  C  C34  1  0.81116000  0.78527000  0.28155000  1.0
  C  C35  1  0.87547000  0.33831000  0.42562000  1.0
  C  C36  1  0.12398000  0.66044000  0.57508000  1.0
  C  C37  1  0.67423000  0.19068000  0.78098000  1.0
  C  C38  1  0.32674000  0.80902000  0.21870000  1.0
  C  C39  1  0.87770000  0.20165000  0.08497000  1.0
  C  C40  1  0.12221000  0.79894000  0.91430000  1.0
  C  C41  1  0.43781000  0.19185000  0.74968000  1.0
  C  C42  1  0.56253000  0.80841000  0.25057000  1.0
  C  C43  1  0.64352000  0.94372000  0.86311000  1.0
  C  C44  1  0.35697000  0.05637000  0.13673000  1.0
  C  C45  1  0.55210000  0.87088000  0.88543000  1.0
  C  C46  1  0.44831000  0.12927000  0.11457000  1.0
  C  C47  1  0.07249000  0.13468000  0.37616000  1.0
  C  C48  1  0.92738000  0.86476000  0.62396000  1.0
  C  C49  1  0.12309000  0.21364000  0.41751000  1.0
  C  C50  1  0.87640000  0.78556000  0.58341000  1.0
  C  C51  1  0.81526000  0.18131000  0.33324000  1.0
  C  C52  1  0.18466000  0.81819000  0.66627000  1.0
  C  C53  1  0.69511000  0.43235000  0.98988000  1.0
  C  C54  1  0.30463000  0.56839000  0.00996000  1.0
  C  C55  1  0.67541000  0.40707000  0.12840000  1.0
  C  C56  1  0.32453000  0.59314000  0.87150000  1.0
  N  N57  1  0.91604000  0.21413000  0.38247000  1.0
  N  N58  1  0.08379000  0.78502000  0.61755000  1.0
  N  N59  1  0.99913000  0.34033000  0.44780000  1.0
  N  N60  1  0.00004000  0.65836000  0.55363000  1.0
  N  N61  1  0.82077000  0.30394000  0.96402000  1.0
  N  N62  1  0.17892000  0.69704000  0.03543000  1.0
  N  N63  1  0.79115000  0.26008000  0.18721000  1.0
  N  N64  1  0.20888000  0.74003000  0.81232000  1.0
  N  N65  1  0.81470000  0.48885000  0.64838000  1.0
  N  N66  1  0.18489000  0.51198000  0.35035000  1.0
  N  N67  1  0.68589000  0.59315000  0.63158000  1.0
  N  N68  1  0.31362000  0.40786000  0.36750000  1.0
  N  N69  1  0.56409000  0.69731000  0.61201000  1.0
  N  N70  1  0.43554000  0.30418000  0.38727000  1.0
  O  O71  1  0.09415000  0.15942000  0.77092000  1.0
  O  O72  1  0.90549000  0.84163000  0.23151000  1.0
  O  O73  1  0.16199000  0.34634000  0.62727000  1.0
  O  O74  1  0.83861000  0.65255000  0.37182000  1.0
  O  O75  1  0.82151000  0.11389000  0.77938000  1.0
  O  O76  1  0.17945000  0.88600000  0.21903000  1.0
  O  O77  1  0.60895000  0.33405000  0.77022000  1.0
  O  O78  1  0.39261000  0.66539000  0.23063000  1.0
