# generated using pymatgen
data_UH5C6N(O2F)2
_symmetry_space_group_name_H-M   'P 1'
_cell_length_a   7.35318000
_cell_length_b   8.71758000
_cell_length_c   13.04000000
_cell_angle_alpha   89.99970000
_cell_angle_beta   90.00000000
_cell_angle_gamma   89.99970000
_symmetry_Int_Tables_number   1
_chemical_formula_structural   UH5C6N(O2F)2
_chemical_formula_sum   'U4 H20 C24 N4 O16 F8'
_cell_volume   835.88923113
_cell_formula_units_Z   4
loop_
 _symmetry_equiv_pos_site_id
 _symmetry_equiv_pos_as_xyz
  1  'x, y, z'
loop_
 _atom_site_type_symbol
 _atom_site_label
 _atom_site_symmetry_multiplicity
 _atom_site_fract_x
 _atom_site_fract_y
 _atom_site_fract_z
 _atom_site_occupancy
  U  U0  1  0.25000000  0.92814000  0.48884000  1.0
  U  U1  1  0.25000000  0.57186000  0.98885000  1.0
  U  U2  1  0.75000000  0.07186000  0.51115000  1.0
  U  U3  1  0.75000000  0.42814000  0.01117000  1.0
  H  H4  1  0.25000000  0.16370000  0.13486000  1.0
  H  H5  1  0.25001000  0.33630000  0.63486000  1.0
  H  H6  1  0.75000000  0.83630000  0.86514000  1.0
  H  H7  1  0.75000000  0.66370000  0.36514000  1.0
  H  H8  1  0.95486000  0.39994000  0.35964000  1.0
  H  H9  1  0.54514000  0.10006000  0.85964000  1.0
  H  H10  1  0.45485000  0.60007000  0.64036000  1.0
  H  H11  1  0.04514000  0.89994000  0.14036000  1.0
  H  H12  1  0.04513000  0.60006000  0.64036000  1.0
  H  H13  1  0.45487000  0.89994000  0.14036000  1.0
  H  H14  1  0.54514000  0.39994000  0.35964000  1.0
  H  H15  1  0.95487000  0.10006000  0.85964000  1.0
  H  H16  1  0.96745000  0.22950000  0.20489000  1.0
  H  H17  1  0.53255000  0.27050000  0.70489000  1.0
  H  H18  1  0.46745000  0.77051000  0.79511000  1.0
  H  H19  1  0.03254000  0.72949000  0.29512000  1.0
  H  H20  1  0.03254000  0.77050000  0.79511000  1.0
  H  H21  1  0.46746000  0.72950000  0.29511000  1.0
  H  H22  1  0.53254000  0.22950000  0.20488000  1.0
  H  H23  1  0.96746000  0.27050000  0.70489000  1.0
  C  C24  1  0.25000000  0.52985000  0.45722000  1.0
  C  C25  1  0.25000000  0.97015000  0.95723000  1.0
  C  C26  1  0.74999000  0.47015000  0.54278000  1.0
  C  C27  1  0.75000000  0.02985000  0.04278000  1.0
  C  C28  1  0.25000000  0.41689000  0.36966000  1.0
  C  C29  1  0.25001000  0.08311000  0.86966000  1.0
  C  C30  1  0.74999000  0.58311000  0.63034000  1.0
  C  C31  1  0.75000000  0.91689000  0.13034000  1.0
  C  C32  1  0.08553000  0.36637000  0.32744000  1.0
  C  C33  1  0.41448000  0.13362000  0.82745000  1.0
  C  C34  1  0.58552000  0.63363000  0.67255000  1.0
  C  C35  1  0.91448000  0.86637000  0.17255000  1.0
  C  C36  1  0.91447000  0.63363000  0.67255000  1.0
  C  C37  1  0.58553000  0.86637000  0.17255000  1.0
  C  C38  1  0.41447000  0.36637000  0.32744000  1.0
  C  C39  1  0.08553000  0.13363000  0.82745000  1.0
  C  C40  1  0.08956000  0.27212000  0.24226000  1.0
  C  C41  1  0.41044000  0.22788000  0.74226000  1.0
  C  C42  1  0.58955000  0.72789000  0.75774000  1.0
  C  C43  1  0.91044000  0.77211000  0.25774000  1.0
  C  C44  1  0.91043000  0.72788000  0.75774000  1.0
  C  C45  1  0.58956000  0.77211000  0.25774000  1.0
  C  C46  1  0.41044000  0.27212000  0.24225000  1.0
  C  C47  1  0.08957000  0.22788000  0.74226000  1.0
  N  N48  1  0.25000000  0.23071000  0.20103000  1.0
  N  N49  1  0.25001000  0.26928000  0.70104000  1.0
  N  N50  1  0.75000000  0.76929000  0.79896000  1.0
  N  N51  1  0.75000000  0.73071000  0.29896000  1.0
  O  O52  1  0.25000000  0.87712000  0.62324000  1.0
  O  O53  1  0.25000000  0.62288000  0.12324000  1.0
  O  O54  1  0.75000000  0.12288000  0.37676000  1.0
  O  O55  1  0.75000000  0.37712000  0.87675000  1.0
  O  O56  1  0.25000000  0.97891000  0.35449000  1.0
  O  O57  1  0.25000000  0.52111000  0.85447000  1.0
  O  O58  1  0.75000000  0.02109000  0.64553000  1.0
  O  O59  1  0.75000000  0.47891000  0.14551000  1.0
  O  O60  1  0.25000000  0.67078000  0.42768000  1.0
  O  O61  1  0.25000000  0.82921000  0.92768000  1.0
  O  O62  1  0.75000000  0.32921000  0.57232000  1.0
  O  O63  1  0.75000000  0.17078000  0.07232000  1.0
  O  O64  1  0.25000000  0.48505000  0.54813000  1.0
  O  O65  1  0.25000000  0.01494000  0.04813000  1.0
  O  O66  1  0.74999000  0.51494000  0.45188000  1.0
  O  O67  1  0.75001000  0.98506000  0.95187000  1.0
  F  F68  1  0.44354000  0.13577000  0.52109000  1.0
  F  F69  1  0.05646000  0.36423000  0.02109000  1.0
  F  F70  1  0.94354000  0.86423000  0.47891000  1.0
  F  F71  1  0.55646000  0.63577000  0.97891000  1.0
  F  F72  1  0.55646000  0.86423000  0.47891000  1.0
  F  F73  1  0.94354000  0.63577000  0.97891000  1.0
  F  F74  1  0.05646000  0.13577000  0.52109000  1.0
  F  F75  1  0.44354000  0.36423000  0.02109000  1.0
