# generated using pymatgen
data_TbH13(C9O7)2
_symmetry_space_group_name_H-M   'P 1'
_cell_length_a   9.35318000
_cell_length_b   10.45570000
_cell_length_c   11.10370000
_cell_angle_alpha   101.46880000
_cell_angle_beta   109.25320000
_cell_angle_gamma   92.70310000
_symmetry_Int_Tables_number   1
_chemical_formula_structural   TbH13(C9O7)2
_chemical_formula_sum   'Tb2 H26 C36 O28'
_cell_volume   997.18991675
_cell_formula_units_Z   2
loop_
 _symmetry_equiv_pos_site_id
 _symmetry_equiv_pos_as_xyz
  1  'x, y, z'
loop_
 _atom_site_type_symbol
 _atom_site_label
 _atom_site_symmetry_multiplicity
 _atom_site_fract_x
 _atom_site_fract_y
 _atom_site_fract_z
 _atom_site_occupancy
  Tb  Tb0  1  0.23255000  0.96979000  0.49849000  1.0
  Tb  Tb1  1  0.76746000  0.03020000  0.50151000  1.0
  H  H2  1  0.98201000  0.37205000  0.32269000  1.0
  H  H3  1  0.01800000  0.62794000  0.67731000  1.0
  H  H4  1  0.05386000  0.46792000  0.16173000  1.0
  H  H5  1  0.94617000  0.53207000  0.83829000  1.0
  H  H6  1  0.33145000  0.65934000  0.17292000  1.0
  H  H7  1  0.66855000  0.34068000  0.82707000  1.0
  H  H8  1  0.64148000  0.45793000  0.03158000  1.0
  H  H9  1  0.35852000  0.54209000  0.96841000  1.0
  H  H10  1  0.71045000  0.25533000  0.29812000  1.0
  H  H11  1  0.28953000  0.74468000  0.70187000  1.0
  H  H12  1  0.26344000  0.26304000  0.42153000  1.0
  H  H13  1  0.73656000  0.73696000  0.57847000  1.0
  H  H14  1  0.31426000  0.15429000  0.33118000  1.0
  H  H15  1  0.68574000  0.84571000  0.66883000  1.0
  H  H16  1  0.31826000  0.23472000  0.70747000  1.0
  H  H17  1  0.68175000  0.76527000  0.29254000  1.0
  H  H18  1  0.20616000  0.15069000  0.74779000  1.0
  H  H19  1  0.79385000  0.84930000  0.25222000  1.0
  H  H20  1  0.06588000  0.72343000  0.30553000  1.0
  H  H21  1  0.93412000  0.27657000  0.69448000  1.0
  H  H22  1  0.95836000  0.77938000  0.38403000  1.0
  H  H23  1  0.04163000  0.22062000  0.61596000  1.0
  H  H24  1  0.48206000  0.79218000  0.51078000  1.0
  H  H25  1  0.51795000  0.20782000  0.48922000  1.0
  H  H26  1  0.35303000  0.71382000  0.53740000  1.0
  H  H27  1  0.64698000  0.28618000  0.46260000  1.0
  C  C28  1  0.91836000  0.11225000  0.31615000  1.0
  C  C29  1  0.08165000  0.88774000  0.68385000  1.0
  C  C30  1  0.96613000  0.17015000  0.21980000  1.0
  C  C31  1  0.03388000  0.82984000  0.78020000  1.0
  C  C32  1  0.99563000  0.30679000  0.23826000  1.0
  C  C33  1  0.00439000  0.69320000  0.76176000  1.0
  C  C34  1  0.03700000  0.36101000  0.14744000  1.0
  C  C35  1  0.96302000  0.63897000  0.85258000  1.0
  C  C36  1  0.05236000  0.28031000  0.03628000  1.0
  C  C37  1  0.94763000  0.71968000  0.96373000  1.0
  C  C38  1  0.03118000  0.14297000  0.02125000  1.0
  C  C39  1  0.96882000  0.85702000  0.97875000  1.0
  C  C40  1  0.98330000  0.08850000  0.11013000  1.0
  C  C41  1  0.01669000  0.91148000  0.88987000  1.0
  C  C42  1  0.07457000  0.33779000  0.92735000  1.0
  C  C43  1  0.92543000  0.66219000  0.07265000  1.0
  C  C44  1  0.93912000  0.94616000  0.08522000  1.0
  C  C45  1  0.06088000  0.05382000  0.91478000  1.0
  C  C46  1  0.39344000  0.91751000  0.28252000  1.0
  C  C47  1  0.60655000  0.08250000  0.71747000  1.0
  C  C48  1  0.39820000  0.85186000  0.15139000  1.0
  C  C49  1  0.60179000  0.14816000  0.84860000  1.0
  C  C50  1  0.36961000  0.71483000  0.11360000  1.0
  C  C51  1  0.63040000  0.28519000  0.88640000  1.0
  C  C52  1  0.44530000  0.92354000  0.07388000  1.0
  C  C53  1  0.55469000  0.07649000  0.92611000  1.0
  C  C54  1  0.46258000  0.06904000  0.11087000  1.0
  C  C55  1  0.53739000  0.93098000  0.88912000  1.0
  C  C56  1  0.53127000  0.14419000  0.04035000  1.0
  C  C57  1  0.46870000  0.85583000  0.95964000  1.0
  C  C58  1  0.56432000  0.28240000  0.07981000  1.0
  C  C59  1  0.43567000  0.71763000  0.92019000  1.0
  C  C60  1  0.61270000  0.35142000  0.00165000  1.0
  C  C61  1  0.38730000  0.64859000  0.99835000  1.0
  C  C62  1  0.56359000  0.36521000  0.20749000  1.0
  C  C63  1  0.43642000  0.63481000  0.79251000  1.0
  O  O64  1  0.01298000  0.06300000  0.40078000  1.0
  O  O65  1  0.98703000  0.93699000  0.59922000  1.0
  O  O66  1  0.78355000  0.12288000  0.31905000  1.0
  O  O67  1  0.21645000  0.87710000  0.68095000  1.0
  O  O68  1  0.94699000  0.33758000  0.83638000  1.0
  O  O69  1  0.05302000  0.66241000  0.16363000  1.0
  O  O70  1  0.20473000  0.37864000  0.93375000  1.0
  O  O71  1  0.79528000  0.62135000  0.06626000  1.0
  O  O72  1  0.86723000  0.90566000  0.14954000  1.0
  O  O73  1  0.13276000  0.09433000  0.85046000  1.0
  O  O74  1  0.41165000  0.12719000  0.19442000  1.0
  O  O75  1  0.58831000  0.87283000  0.80555000  1.0
  O  O76  1  0.66597000  0.34033000  0.31689000  1.0
  O  O77  1  0.33402000  0.65966000  0.68310000  1.0
  O  O78  1  0.49165000  0.45863000  0.21507000  1.0
  O  O79  1  0.50837000  0.54139000  0.78492000  1.0
  O  O80  1  0.31583000  0.18471000  0.42163000  1.0
  O  O81  1  0.68417000  0.81529000  0.57838000  1.0
  O  O82  1  0.22904000  0.16850000  0.67084000  1.0
  O  O83  1  0.77097000  0.83150000  0.32917000  1.0
  O  O84  1  0.06673000  0.77427000  0.39548000  1.0
  O  O85  1  0.93326000  0.22572000  0.60452000  1.0
  O  O86  1  0.37042000  0.77952000  0.48998000  1.0
  O  O87  1  0.62959000  0.22049000  0.51003000  1.0
  O  O88  1  0.26557000  0.92832000  0.29709000  1.0
  O  O89  1  0.73441000  0.07168000  0.70289000  1.0
  O  O90  1  0.52167000  0.94981000  0.37492000  1.0
  O  O91  1  0.47831000  0.05020000  0.62509000  1.0
