# generated using pymatgen
data_CdH24C34(NO3)2
_symmetry_space_group_name_H-M   'P 1'
_cell_length_a   8.00209000
_cell_length_b   12.17890000
_cell_length_c   15.47470000
_cell_angle_alpha   108.41800000
_cell_angle_beta   101.08000000
_cell_angle_gamma   97.51880000
_symmetry_Int_Tables_number   1
_chemical_formula_structural   CdH24C34(NO3)2
_chemical_formula_sum   'Cd2 H48 C68 N4 O12'
_cell_volume   1374.14799414
_cell_formula_units_Z   2
loop_
 _symmetry_equiv_pos_site_id
 _symmetry_equiv_pos_as_xyz
  1  'x, y, z'
loop_
 _atom_site_type_symbol
 _atom_site_label
 _atom_site_symmetry_multiplicity
 _atom_site_fract_x
 _atom_site_fract_y
 _atom_site_fract_z
 _atom_site_occupancy
  Cd  Cd0  1  0.02003000  0.42304000  0.30595000  1.0
  Cd  Cd1  1  0.97997000  0.57696000  0.69405000  1.0
  H  H2  1  0.30293000  0.48165000  0.44773000  1.0
  H  H3  1  0.69706000  0.51835000  0.55227000  1.0
  H  H4  1  0.21730000  0.59100000  0.48944000  1.0
  H  H5  1  0.78270000  0.40900000  0.51056000  1.0
  H  H6  1  0.15847000  0.19037000  0.73738000  1.0
  H  H7  1  0.84153000  0.80963000  0.26262000  1.0
  H  H8  1  0.74116000  0.22316000  0.51328000  1.0
  H  H9  1  0.25883000  0.77683000  0.48671000  1.0
  H  H10  1  0.36191000  0.16284000  0.17367000  1.0
  H  H11  1  0.63810000  0.83716000  0.82633000  1.0
  H  H12  1  0.71118000  0.33860000  0.77232000  1.0
  H  H13  1  0.28882000  0.66140000  0.22767000  1.0
  H  H14  1  0.87801000  0.30361000  0.08082000  1.0
  H  H15  1  0.12200000  0.69639000  0.91919000  1.0
  H  H16  1  0.53131000  0.37312000  0.63388000  1.0
  H  H17  1  0.46868000  0.62688000  0.36612000  1.0
  H  H18  1  0.13790000  0.19586000  0.07805000  1.0
  H  H19  1  0.86210000  0.80414000  0.92195000  1.0
  H  H20  1  0.64475000  0.26667000  0.28886000  1.0
  H  H21  1  0.35525000  0.73333000  0.71115000  1.0
  H  H22  1  0.60504000  0.20187000  0.95554000  1.0
  H  H23  1  0.39497000  0.79813000  0.04446000  1.0
  H  H24  1  0.57594000  0.46865000  0.17327000  1.0
  H  H25  1  0.42405000  0.53135000  0.82673000  1.0
  H  H26  1  0.40253000  0.02532000  0.87130000  1.0
  H  H27  1  0.59746000  0.97468000  0.12870000  1.0
  H  H28  1  0.85622000  0.11503000  0.95739000  1.0
  H  H29  1  0.14378000  0.88497000  0.04261000  1.0
  H  H30  1  0.17873000  0.12137000  0.40824000  1.0
  H  H31  1  0.82128000  0.87863000  0.59176000  1.0
  H  H32  1  0.49334000  0.90887000  0.69351000  1.0
  H  H33  1  0.50666000  0.09113000  0.30649000  1.0
  H  H34  1  0.16965000  0.47702000  0.88811000  1.0
  H  H35  1  0.83034000  0.52298000  0.11189000  1.0
  H  H36  1  0.96969000  0.33173000  0.71630000  1.0
  H  H37  1  0.03031000  0.66828000  0.28370000  1.0
  H  H38  1  0.32837000  0.50707000  0.61948000  1.0
  H  H39  1  0.67163000  0.49293000  0.38052000  1.0
  H  H40  1  0.90903000  0.21739000  0.81866000  1.0
  H  H41  1  0.09097000  0.78261000  0.18134000  1.0
  H  H42  1  0.29026000  0.03305000  0.65361000  1.0
  H  H43  1  0.70974000  0.96695000  0.34639000  1.0
  H  H44  1  0.05739000  0.43509000  0.01500000  1.0
  H  H45  1  0.94260000  0.56490000  0.98500000  1.0
  H  H46  1  0.71492000  0.05552000  0.57149000  1.0
  H  H47  1  0.28508000  0.94447000  0.42851000  1.0
  H  H48  1  0.11858000  0.94394000  0.75139000  1.0
  H  H49  1  0.88142000  0.05606000  0.24862000  1.0
  C  C50  1  0.97518000  0.27950000  0.41782000  1.0
  C  C51  1  0.02482000  0.72050000  0.58218000  1.0
  C  C52  1  0.36370000  0.27005000  0.68898000  1.0
  C  C53  1  0.63630000  0.72995000  0.31102000  1.0
  C  C54  1  0.20000000  0.25785000  0.70911000  1.0
  C  C55  1  0.80000000  0.74215000  0.29089000  1.0
  C  C56  1  0.31083000  0.45186000  0.10281000  1.0
  C  C57  1  0.68916000  0.54814000  0.89718000  1.0
  C  C58  1  0.83151000  0.16328000  0.50401000  1.0
  C  C59  1  0.16848000  0.83671000  0.49598000  1.0
  C  C60  1  0.48501000  0.19506000  0.70968000  1.0
  C  C61  1  0.51500000  0.80494000  0.29032000  1.0
  C  C62  1  0.29097000  0.11854000  0.98276000  1.0
  C  C63  1  0.70903000  0.88146000  0.01725000  1.0
  C  C64  1  0.47311000  0.19028000  0.14891000  1.0
  C  C65  1  0.52689000  0.80972000  0.85110000  1.0
  C  C66  1  0.97394000  0.02884000  0.84725000  1.0
  C  C67  1  0.02606000  0.97116000  0.15275000  1.0
  C  C68  1  0.66125000  0.24458000  0.75476000  1.0
  C  C69  1  0.33875000  0.75542000  0.24523000  1.0
  C  C70  1  0.45853000  0.17116000  0.05326000  1.0
  C  C71  1  0.54148000  0.82884000  0.94674000  1.0
  C  C72  1  0.76168000  0.26737000  0.09762000  1.0
  C  C73  1  0.23832000  0.73263000  0.90238000  1.0
  C  C74  1  0.40818000  0.35945000  0.65317000  1.0
  C  C75  1  0.59182000  0.64055000  0.34683000  1.0
  C  C76  1  0.13480000  0.14170000  0.00638000  1.0
  C  C77  1  0.86520000  0.85830000  0.99362000  1.0
  C  C78  1  0.55808000  0.49880000  0.04114000  1.0
  C  C79  1  0.44190000  0.50120000  0.95886000  1.0
  C  C80  1  0.63069000  0.24811000  0.21381000  1.0
  C  C81  1  0.36931000  0.75189000  0.78619000  1.0
  C  C82  1  0.23514000  0.43502000  0.18042000  1.0
  C  C83  1  0.76485000  0.56498000  0.81958000  1.0
  C  C84  1  0.71251000  0.05545000  0.75955000  1.0
  C  C85  1  0.28748000  0.94455000  0.24045000  1.0
  C  C86  1  0.60922000  0.21006000  0.02823000  1.0
  C  C87  1  0.39079000  0.78995000  0.97177000  1.0
  C  C88  1  0.48834000  0.47183000  0.11126000  1.0
  C  C89  1  0.51166000  0.52817000  0.88874000  1.0
  C  C90  1  0.28368000  0.04696000  0.89045000  1.0
  C  C91  1  0.71632000  0.95304000  0.10955000  1.0
  C  C92  1  0.96345000  0.18190000  0.45742000  1.0
  C  C93  1  0.03655000  0.81810000  0.54258000  1.0
  C  C94  1  0.97712000  0.09757000  0.93905000  1.0
  C  C95  1  0.02289000  0.90243000  0.06096000  1.0
  C  C96  1  0.07897000  0.10612000  0.44463000  1.0
  C  C97  1  0.92103000  0.89388000  0.55537000  1.0
  C  C98  1  0.53859000  0.00359000  0.71202000  1.0
  C  C99  1  0.46141000  0.99641000  0.28799000  1.0
  C  C100  1  0.25981000  0.47601000  0.95027000  1.0
  C  C101  1  0.74018000  0.52399000  0.04972000  1.0
  C  C102  1  0.09425000  0.33648000  0.69777000  1.0
  C  C103  1  0.90575000  0.66352000  0.30223000  1.0
  C  C104  1  0.29427000  0.43432000  0.64383000  1.0
  C  C105  1  0.70574000  0.56568000  0.35617000  1.0
  C  C106  1  0.06711000  0.00932000  0.47663000  1.0
  C  C107  1  0.93290000  0.99067000  0.52337000  1.0
  C  C108  1  0.77413000  0.17642000  0.78115000  1.0
  C  C109  1  0.22587000  0.82358000  0.21886000  1.0
  C  C110  1  0.42593000  0.07371000  0.68932000  1.0
  C  C111  1  0.57407000  0.92629000  0.31068000  1.0
  C  C112  1  0.19669000  0.45293000  0.02073000  1.0
  C  C113  1  0.80330000  0.54707000  0.97927000  1.0
  C  C114  1  0.81682000  0.07003000  0.53615000  1.0
  C  C115  1  0.18318000  0.92997000  0.46385000  1.0
  C  C116  1  0.12597000  0.00116000  0.82270000  1.0
  C  C117  1  0.87404000  0.99884000  0.17730000  1.0
  N  N118  1  0.77357000  0.28740000  0.18958000  1.0
  N  N119  1  0.22643000  0.71260000  0.81043000  1.0
  N  N120  1  0.14053000  0.42519000  0.66711000  1.0
  N  N121  1  0.85948000  0.57481000  0.33289000  1.0
  O  O122  1  0.26408000  0.54871000  0.43472000  1.0
  O  O123  1  0.73592000  0.45128000  0.56528000  1.0
  O  O124  1  0.81730000  0.98050000  0.77904000  1.0
  O  O125  1  0.18270000  0.01950000  0.22096000  1.0
  O  O126  1  0.09367000  0.47496000  0.18703000  1.0
  O  O127  1  0.90632000  0.52505000  0.81297000  1.0
  O  O128  1  0.30527000  0.38684000  0.23462000  1.0
  O  O129  1  0.69472000  0.61316000  0.76538000  1.0
  O  O130  1  0.09439000  0.28920000  0.37483000  1.0
  O  O131  1  0.90561000  0.71080000  0.62517000  1.0
  O  O132  1  0.86355000  0.34587000  0.42409000  1.0
  O  O133  1  0.13645000  0.65413000  0.57591000  1.0
