# generated using pymatgen
data_Zn4H54C78N18O13
_symmetry_space_group_name_H-M   'P 1'
_cell_length_a   17.80920000
_cell_length_b   19.13880000
_cell_length_c   19.13880000
_cell_angle_alpha   60.00000000
_cell_angle_beta   89.99990000
_cell_angle_gamma   90.00000000
_symmetry_Int_Tables_number   1
_chemical_formula_structural   Zn4H54C78N18O13
_chemical_formula_sum   'Zn8 H108 C156 N36 O26'
_cell_volume   5649.42764788
_cell_formula_units_Z   2
loop_
 _symmetry_equiv_pos_site_id
 _symmetry_equiv_pos_as_xyz
  1  'x, y, z'
loop_
 _atom_site_type_symbol
 _atom_site_label
 _atom_site_symmetry_multiplicity
 _atom_site_fract_x
 _atom_site_fract_y
 _atom_site_fract_z
 _atom_site_occupancy
  Zn  Zn0  1  0.40010000  0.66666667  0.66666667  1.0
  Zn  Zn1  1  0.90010000  0.33333333  0.33333333  1.0
  Zn  Zn2  1  0.03478000  0.29267000  0.44793000  1.0
  Zn  Zn3  1  0.03479000  0.44793000  0.25940000  1.0
  Zn  Zn4  1  0.53478000  0.55207000  0.70733000  1.0
  Zn  Zn5  1  0.03479000  0.25940000  0.29267000  1.0
  Zn  Zn6  1  0.53479000  0.70733000  0.74060000  1.0
  Zn  Zn7  1  0.53478000  0.74060000  0.55207000  1.0
  H  H8  1  0.25856000  0.57954000  0.57120000  1.0
  H  H9  1  0.25856000  0.57120000  0.84926000  1.0
  H  H10  1  0.75856000  0.42880000  0.42046000  1.0
  H  H11  1  0.25856000  0.84926000  0.57954000  1.0
  H  H12  1  0.75856000  0.42046000  0.15074000  1.0
  H  H13  1  0.75856000  0.15074000  0.42880000  1.0
  H  H14  1  0.18269000  0.52951000  0.49406000  1.0
  H  H15  1  0.18269000  0.49406000  0.97643000  1.0
  H  H16  1  0.68269000  0.50594000  0.47049000  1.0
  H  H17  1  0.18269000  0.97643000  0.52951000  1.0
  H  H18  1  0.68269000  0.47049000  0.02357000  1.0
  H  H19  1  0.68269000  0.02357000  0.50594000  1.0
  H  H20  1  0.35933000  0.36108000  0.52890000  1.0
  H  H21  1  0.35933000  0.52890000  0.11002000  1.0
  H  H22  1  0.85933000  0.47110000  0.63892000  1.0
  H  H23  1  0.35933000  0.11002000  0.36108000  1.0
  H  H24  1  0.85933000  0.63892000  0.88998000  1.0
  H  H25  1  0.85933000  0.88998000  0.47110000  1.0
  H  H26  1  0.43400000  0.41210000  0.60583000  1.0
  H  H27  1  0.43400000  0.60583000  0.98207000  1.0
  H  H28  1  0.93400000  0.39417000  0.58790000  1.0
  H  H29  1  0.43400000  0.98207000  0.41210000  1.0
  H  H30  1  0.93400000  0.58790000  0.01793000  1.0
  H  H31  1  0.93400000  0.01793000  0.39417000  1.0
  H  H32  1  0.09137000  0.28466000  0.60242000  1.0
  H  H33  1  0.09137000  0.60242000  0.11292000  1.0
  H  H34  1  0.59137000  0.39758000  0.71534000  1.0
  H  H35  1  0.09137000  0.11292000  0.28466000  1.0
  H  H36  1  0.59137000  0.71534000  0.88708000  1.0
  H  H37  1  0.59137000  0.88708000  0.39758000  1.0
  H  H38  1  0.12134000  0.37435000  0.60292000  1.0
  H  H39  1  0.12134000  0.60291000  0.02273000  1.0
  H  H40  1  0.62134000  0.39709000  0.62564000  1.0
  H  H41  1  0.12135000  0.02272000  0.37436000  1.0
  H  H42  1  0.62134000  0.62565000  0.97727000  1.0
  H  H43  1  0.62135000  0.97728000  0.39708000  1.0
  H  H44  1  0.18515000  0.29343000  0.62951000  1.0
  H  H45  1  0.18515000  0.62951000  0.07706000  1.0
  H  H46  1  0.68515000  0.37049000  0.70657000  1.0
  H  H47  1  0.18515000  0.07706000  0.29343000  1.0
  H  H48  1  0.68515000  0.70657000  0.92294000  1.0
  H  H49  1  0.68515000  0.92294000  0.37049000  1.0
  H  H50  1  0.59554000  0.74285000  0.28682000  1.0
  H  H51  1  0.59554000  0.28682000  0.97033000  1.0
  H  H52  1  0.09554000  0.71318000  0.25715000  1.0
  H  H53  1  0.59554000  0.97033000  0.74285000  1.0
  H  H54  1  0.09554000  0.25715000  0.02967000  1.0
  H  H55  1  0.09554000  0.02967000  0.71318000  1.0
  H  H56  1  0.59321000  0.65949000  0.21850000  1.0
  H  H57  1  0.59320000  0.21850000  0.12201000  1.0
  H  H58  1  0.09320000  0.78150000  0.34051000  1.0
  H  H59  1  0.59321000  0.12201000  0.65949000  1.0
  H  H60  1  0.09321000  0.34051000  0.87799000  1.0
  H  H61  1  0.09321000  0.87799000  0.78150000  1.0
  H  H62  1  0.49082000  0.46408000  0.42931000  1.0
  H  H63  1  0.49082000  0.42931000  0.10661000  1.0
  H  H64  1  0.99082000  0.57069000  0.53592000  1.0
  H  H65  1  0.49082000  0.10661000  0.46408000  1.0
  H  H66  1  0.99082000  0.53592000  0.89339000  1.0
  H  H67  1  0.99082000  0.89339000  0.57069000  1.0
  H  H68  1  0.49285000  0.54885000  0.49685000  1.0
  H  H69  1  0.49285000  0.49684000  0.95430000  1.0
  H  H70  1  0.99285000  0.50316000  0.45114000  1.0
  H  H71  1  0.49285000  0.95429000  0.54886000  1.0
  H  H72  1  0.99285000  0.45114000  0.04571000  1.0
  H  H73  1  0.99285000  0.04571000  0.50315000  1.0
  H  H74  1  0.70717000  0.44415000  0.26081000  1.0
  H  H75  1  0.70717000  0.26081000  0.29504000  1.0
  H  H76  1  0.20717000  0.73919000  0.55585000  1.0
  H  H77  1  0.70717000  0.29504000  0.44415000  1.0
  H  H78  1  0.20717000  0.55585000  0.70496000  1.0
  H  H79  1  0.20717000  0.70496000  0.73919000  1.0
  H  H80  1  0.67979000  0.46362000  0.33910000  1.0
  H  H81  1  0.67979000  0.33911000  0.19727000  1.0
  H  H82  1  0.17979000  0.66089000  0.53638000  1.0
  H  H83  1  0.67979000  0.19728000  0.46362000  1.0
  H  H84  1  0.17979000  0.53637000  0.80273000  1.0
  H  H85  1  0.17979000  0.80272000  0.66090000  1.0
  H  H86  1  0.69674000  0.54514000  0.24024000  1.0
  H  H87  1  0.69674000  0.24024000  0.21462000  1.0
  H  H88  1  0.19674000  0.75976000  0.45486000  1.0
  H  H89  1  0.69674000  0.21462000  0.54514000  1.0
  H  H90  1  0.19674000  0.45486000  0.78538000  1.0
  H  H91  1  0.19674000  0.78538000  0.75976000  1.0
  H  H92  1  0.41411000  0.64120000  0.16871000  1.0
  H  H93  1  0.41411000  0.16871000  0.19009000  1.0
  H  H94  1  0.91411000  0.83129000  0.35880000  1.0
  H  H95  1  0.41411000  0.19009000  0.64120000  1.0
  H  H96  1  0.91411000  0.35880000  0.80991000  1.0
  H  H97  1  0.91411000  0.80991000  0.83129000  1.0
  H  H98  1  0.28519000  0.68682000  0.17755000  1.0
  H  H99  1  0.28519000  0.17755000  0.13563000  1.0
  H  H100  1  0.78519000  0.82245000  0.31318000  1.0
  H  H101  1  0.28519000  0.13563000  0.68682000  1.0
  H  H102  1  0.78519000  0.31318000  0.86437000  1.0
  H  H103  1  0.78519000  0.86437000  0.82245000  1.0
  H  H104  1  0.19394000  0.58996000  0.27632000  1.0
  H  H105  1  0.19394000  0.27631000  0.13372000  1.0
  H  H106  1  0.69394000  0.72369000  0.41003000  1.0
  H  H107  1  0.19394000  0.13372000  0.58997000  1.0
  H  H108  1  0.69394000  0.41003000  0.86628000  1.0
  H  H109  1  0.69394000  0.86627000  0.72369000  1.0
  H  H110  1  0.36373000  0.40297000  0.36391000  1.0
  H  H111  1  0.36373000  0.36390000  0.23312000  1.0
  H  H112  1  0.86373000  0.63610000  0.59702000  1.0
  H  H113  1  0.36373000  0.23312000  0.40298000  1.0
  H  H114  1  0.86373000  0.59702000  0.76688000  1.0
  H  H115  1  0.86373000  0.76688000  0.63610000  1.0
  C  C116  1  0.39245000  0.53042000  0.63857000  1.0
  C  C117  1  0.39245000  0.63857000  0.83101000  1.0
  C  C118  1  0.89245000  0.36143000  0.46958000  1.0
  C  C119  1  0.39245000  0.83101000  0.53042000  1.0
  C  C120  1  0.89245000  0.46958000  0.16899000  1.0
  C  C121  1  0.89245000  0.16899000  0.36143000  1.0
  C  C122  1  0.34959000  0.49807000  0.59347000  1.0
  C  C123  1  0.34959000  0.59348000  0.90846000  1.0
  C  C124  1  0.84959000  0.40653000  0.50193000  1.0
  C  C125  1  0.34959000  0.90846000  0.49807000  1.0
  C  C126  1  0.84959000  0.50193000  0.09154000  1.0
  C  C127  1  0.84959000  0.09154000  0.40653000  1.0
  C  C128  1  0.27930000  0.53159000  0.56162000  1.0
  C  C129  1  0.27930000  0.56162000  0.90679000  1.0
  C  C130  1  0.77929000  0.43838000  0.46841000  1.0
  C  C131  1  0.27930000  0.90679000  0.53159000  1.0
  C  C132  1  0.77930000  0.46841000  0.09321000  1.0
  C  C133  1  0.77930000  0.09321000  0.43838000  1.0
  C  C134  1  0.23769000  0.50411000  0.51890000  1.0
  C  C135  1  0.23769000  0.51891000  0.97699000  1.0
  C  C136  1  0.73769000  0.48110000  0.49589000  1.0
  C  C137  1  0.23769000  0.97698000  0.50411000  1.0
  C  C138  1  0.73769000  0.49590000  0.02301000  1.0
  C  C139  1  0.73769000  0.02301000  0.48110000  1.0
  C  C140  1  0.26710000  0.44216000  0.50870000  1.0
  C  C141  1  0.26710000  0.50870000  0.04915000  1.0
  C  C142  1  0.76710000  0.49129000  0.55785000  1.0
  C  C143  1  0.26710000  0.04914000  0.44215000  1.0
  C  C144  1  0.76710000  0.55784000  0.95086000  1.0
  C  C145  1  0.76710000  0.95085000  0.49130000  1.0
  C  C146  1  0.33756000  0.40868000  0.53874000  1.0
  C  C147  1  0.33756000  0.53875000  0.05258000  1.0
  C  C148  1  0.83756000  0.46125000  0.59133000  1.0
  C  C149  1  0.33756000  0.05258000  0.40868000  1.0
  C  C150  1  0.83756000  0.59132000  0.94742000  1.0
  C  C151  1  0.83756000  0.94741000  0.46126000  1.0
  C  C152  1  0.37887000  0.43706000  0.58135000  1.0
  C  C153  1  0.37887000  0.58136000  0.98159000  1.0
  C  C154  1  0.87887000  0.41864000  0.56295000  1.0
  C  C155  1  0.37887000  0.98159000  0.43706000  1.0
  C  C156  1  0.87887000  0.56294000  0.01841000  1.0
  C  C157  1  0.87887000  0.01841000  0.41865000  1.0
  C  C158  1  0.13789000  0.32672000  0.58979000  1.0
  C  C159  1  0.13790000  0.58979000  0.08349000  1.0
  C  C160  1  0.63790000  0.41021000  0.67328000  1.0
  C  C161  1  0.13789000  0.08349000  0.32672000  1.0
  C  C162  1  0.63789000  0.67328000  0.91651000  1.0
  C  C163  1  0.63790000  0.91651000  0.41021000  1.0
  C  C164  1  0.15985000  0.36235000  0.50412000  1.0
  C  C165  1  0.15985000  0.50412000  0.13353000  1.0
  C  C166  1  0.65985000  0.49588000  0.63765000  1.0
  C  C167  1  0.15985000  0.13353000  0.36235000  1.0
  C  C168  1  0.65985000  0.63765000  0.86647000  1.0
  C  C169  1  0.65985000  0.86648000  0.49587000  1.0
  C  C170  1  0.21889000  0.43458000  0.38807000  1.0
  C  C171  1  0.21889000  0.38808000  0.17734000  1.0
  C  C172  1  0.71889000  0.61192000  0.56542000  1.0
  C  C173  1  0.21889000  0.17735000  0.43458000  1.0
  C  C174  1  0.71889000  0.56542000  0.82265000  1.0
  C  C175  1  0.71889000  0.82265000  0.61193000  1.0
  C  C176  1  0.54439000  0.70334000  0.43306000  1.0
  C  C177  1  0.54439000  0.43306000  0.86360000  1.0
  C  C178  1  0.04439000  0.56694000  0.29666000  1.0
  C  C179  1  0.54439000  0.86360000  0.70334000  1.0
  C  C180  1  0.04439000  0.29666000  0.13640000  1.0
  C  C181  1  0.04439000  0.13640000  0.56694000  1.0
  C  C182  1  0.54371000  0.65087000  0.39518000  1.0
  C  C183  1  0.54371000  0.39518000  0.95395000  1.0
  C  C184  1  0.04371000  0.60483000  0.34913000  1.0
  C  C185  1  0.54371000  0.95395000  0.65087000  1.0
  C  C186  1  0.04371000  0.34913000  0.04605000  1.0
  C  C187  1  0.04371000  0.04604000  0.60482000  1.0
  C  C188  1  0.57321000  0.68162000  0.31735000  1.0
  C  C189  1  0.57321000  0.31735000  0.00103000  1.0
  C  C190  1  0.07321000  0.68265000  0.31838000  1.0
  C  C191  1  0.57321000  0.00103000  0.68162000  1.0
  C  C192  1  0.07321000  0.31838000  0.99897000  1.0
  C  C193  1  0.07321000  0.99897000  0.68265000  1.0
  C  C194  1  0.57204000  0.63538000  0.27979000  1.0
  C  C195  1  0.57204000  0.27979000  0.08483000  1.0
  C  C196  1  0.07204000  0.72021000  0.36462000  1.0
  C  C197  1  0.57204000  0.08482000  0.63539000  1.0
  C  C198  1  0.07204000  0.36462000  0.91517000  1.0
  C  C199  1  0.07204000  0.91517000  0.72021000  1.0
  C  C200  1  0.54150000  0.55769000  0.32052000  1.0
  C  C201  1  0.54150000  0.32052000  0.12179000  1.0
  C  C202  1  0.04150000  0.67948000  0.44231000  1.0
  C  C203  1  0.54150000  0.12179000  0.55769000  1.0
  C  C204  1  0.04150000  0.44231000  0.87821000  1.0
  C  C205  1  0.04150000  0.87821000  0.67948000  1.0
  C  C206  1  0.51335000  0.52527000  0.39893000  1.0
  C  C207  1  0.51335000  0.39893000  0.07580000  1.0
  C  C208  1  0.01336000  0.60107000  0.47473000  1.0
  C  C209  1  0.51335000  0.07580000  0.52527000  1.0
  C  C210  1  0.01335000  0.47473000  0.92420000  1.0
  C  C211  1  0.01335000  0.92420000  0.60107000  1.0
  C  C212  1  0.51469000  0.57223000  0.43595000  1.0
  C  C213  1  0.51469000  0.43596000  0.99182000  1.0
  C  C214  1  0.01469000  0.56404000  0.42778000  1.0
  C  C215  1  0.51469000  0.99182000  0.57222000  1.0
  C  C216  1  0.01469000  0.42778000  0.00818000  1.0
  C  C217  1  0.01469000  0.00818000  0.56404000  1.0
  C  C218  1  0.67383000  0.48369000  0.27473000  1.0
  C  C219  1  0.67383000  0.27473000  0.24157000  1.0
  C  C220  1  0.17383000  0.72527000  0.51630000  1.0
  C  C221  1  0.67383000  0.24157000  0.48370000  1.0
  C  C222  1  0.17383000  0.51631000  0.75842000  1.0
  C  C223  1  0.17383000  0.75843000  0.72527000  1.0
  C  C224  1  0.59358000  0.47970000  0.25667000  1.0
  C  C225  1  0.59358000  0.25667000  0.26363000  1.0
  C  C226  1  0.09358000  0.74333000  0.52030000  1.0
  C  C227  1  0.59358000  0.26363000  0.47970000  1.0
  C  C228  1  0.09358000  0.52030000  0.73637000  1.0
  C  C229  1  0.09358000  0.73637000  0.74333000  1.0
  C  C230  1  0.47112000  0.49193000  0.25574000  1.0
  C  C231  1  0.47112000  0.25574000  0.25233000  1.0
  C  C232  1  0.97112000  0.74426000  0.50807000  1.0
  C  C233  1  0.47112000  0.25234000  0.49193000  1.0
  C  C234  1  0.97112000  0.50807000  0.74767000  1.0
  C  C235  1  0.97112000  0.74767000  0.74427000  1.0
  C  C236  1  0.39586000  0.51864000  0.26457000  1.0
  C  C237  1  0.39586000  0.26457000  0.21679000  1.0
  C  C238  1  0.89586000  0.73543000  0.48136000  1.0
  C  C239  1  0.39586000  0.21679000  0.51864000  1.0
  C  C240  1  0.89586000  0.48136000  0.78321000  1.0
  C  C241  1  0.89586000  0.78321000  0.73543000  1.0
  C  C242  1  0.37423000  0.59904000  0.21309000  1.0
  C  C243  1  0.37423000  0.21308000  0.18787000  1.0
  C  C244  1  0.87423000  0.78692000  0.40095000  1.0
  C  C245  1  0.37423000  0.18787000  0.59905000  1.0
  C  C246  1  0.87423000  0.40095000  0.81213000  1.0
  C  C247  1  0.87423000  0.81213000  0.78692000  1.0
  C  C248  1  0.30211000  0.62451000  0.21804000  1.0
  C  C249  1  0.30211000  0.21804000  0.15745000  1.0
  C  C250  1  0.80211000  0.78196000  0.37549000  1.0
  C  C251  1  0.30211000  0.15745000  0.62451000  1.0
  C  C252  1  0.80211000  0.37549000  0.84255000  1.0
  C  C253  1  0.80211000  0.84255000  0.78196000  1.0
  C  C254  1  0.25105000  0.57043000  0.27447000  1.0
  C  C255  1  0.25105000  0.27447000  0.15510000  1.0
  C  C256  1  0.75105000  0.72553000  0.42957000  1.0
  C  C257  1  0.25105000  0.15511000  0.57043000  1.0
  C  C258  1  0.75105000  0.42957000  0.84490000  1.0
  C  C259  1  0.75105000  0.84490000  0.72553000  1.0
  C  C260  1  0.27292000  0.49053000  0.32744000  1.0
  C  C261  1  0.27292000  0.32744000  0.18203000  1.0
  C  C262  1  0.77292000  0.67256000  0.50947000  1.0
  C  C263  1  0.27292000  0.18203000  0.49053000  1.0
  C  C264  1  0.77292000  0.50947000  0.81797000  1.0
  C  C265  1  0.77292000  0.81797000  0.67256000  1.0
  C  C266  1  0.34538000  0.46458000  0.32257000  1.0
  C  C267  1  0.34538000  0.32256000  0.21285000  1.0
  C  C268  1  0.84538000  0.67743000  0.53541000  1.0
  C  C269  1  0.34538000  0.21285000  0.46458000  1.0
  C  C270  1  0.84538000  0.53542000  0.78715000  1.0
  C  C271  1  0.84539000  0.78715000  0.67743000  1.0
  N  N272  1  0.12468000  0.35557000  0.44689000  1.0
  N  N273  1  0.12468000  0.44689000  0.19754000  1.0
  N  N274  1  0.62468000  0.55311000  0.64443000  1.0
  N  N275  1  0.12468000  0.19754000  0.35557000  1.0
  N  N276  1  0.62468000  0.64443000  0.80246000  1.0
  N  N277  1  0.62468000  0.80246000  0.55311000  1.0
  N  N278  1  0.16057000  0.40095000  0.37431000  1.0
  N  N279  1  0.16057000  0.37431000  0.22474000  1.0
  N  N280  1  0.66058000  0.62569000  0.59905000  1.0
  N  N281  1  0.16058000  0.22474000  0.40095000  1.0
  N  N282  1  0.66057000  0.59905000  0.77526000  1.0
  N  N283  1  0.66057000  0.77526000  0.62569000  1.0
  N  N284  1  0.22082000  0.41137000  0.46923000  1.0
  N  N285  1  0.22083000  0.46923000  0.11940000  1.0
  N  N286  1  0.72083000  0.53077000  0.58863000  1.0
  N  N287  1  0.22083000  0.11940000  0.41137000  1.0
  N  N288  1  0.72082000  0.58863000  0.88060000  1.0
  N  N289  1  0.72083000  0.88060000  0.53077000  1.0
  N  N290  1  0.56485000  0.44258000  0.22029000  1.0
  N  N291  1  0.56485000  0.22028000  0.33713000  1.0
  N  N292  1  0.06485000  0.77972000  0.55741000  1.0
  N  N293  1  0.56485000  0.33712000  0.44259000  1.0
  N  N294  1  0.06485000  0.55742000  0.66287000  1.0
  N  N295  1  0.06485000  0.66288000  0.77971000  1.0
  N  N296  1  0.48744000  0.45051000  0.21937000  1.0
  N  N297  1  0.48744000  0.21937000  0.33012000  1.0
  N  N298  1  0.98744000  0.78063000  0.54949000  1.0
  N  N299  1  0.48744000  0.33012000  0.45051000  1.0
  N  N300  1  0.98744000  0.54949000  0.66988000  1.0
  N  N301  1  0.98744000  0.66988000  0.78063000  1.0
  N  N302  1  0.53635000  0.51252000  0.27970000  1.0
  N  N303  1  0.53635000  0.27970000  0.20778000  1.0
  N  N304  1  0.03635000  0.72030000  0.48748000  1.0
  N  N305  1  0.53635000  0.20778000  0.51252000  1.0
  N  N306  1  0.03635000  0.48748000  0.79222000  1.0
  N  N307  1  0.03635000  0.79222000  0.72030000  1.0
  O  O308  1  0.50845000  0.66666667  0.66666667  1.0
  O  O309  1  0.00845000  0.33333333  0.33333333  1.0
  O  O310  1  0.35671000  0.58136000  0.65083000  1.0
  O  O311  1  0.35670000  0.65084000  0.76781000  1.0
  O  O312  1  0.85670000  0.34916000  0.41865000  1.0
  O  O313  1  0.35670000  0.76781000  0.58135000  1.0
  O  O314  1  0.85671000  0.41864000  0.23219000  1.0
  O  O315  1  0.85670000  0.23219000  0.34916000  1.0
  O  O316  1  0.45899000  0.50562000  0.66032000  1.0
  O  O317  1  0.45899000  0.66033000  0.83406000  1.0
  O  O318  1  0.95899000  0.33967000  0.49439000  1.0
  O  O319  1  0.45899000  0.83406000  0.50562000  1.0
  O  O320  1  0.95899000  0.49438000  0.16594000  1.0
  O  O321  1  0.95899000  0.16594000  0.33968000  1.0
  O  O322  1  0.51204000  0.67376000  0.50281000  1.0
  O  O323  1  0.51204000  0.50281000  0.82343000  1.0
  O  O324  1  0.01204000  0.49719000  0.32624000  1.0
  O  O325  1  0.51204000  0.82343000  0.67376000  1.0
  O  O326  1  0.01204000  0.32624000  0.17657000  1.0
  O  O327  1  0.01204000  0.17658000  0.49718000  1.0
  O  O328  1  0.57672000  0.77050000  0.39745000  1.0
  O  O329  1  0.57672000  0.39745000  0.83205000  1.0
  O  O330  1  0.07672000  0.60255000  0.22950000  1.0
  O  O331  1  0.57672000  0.83205000  0.77050000  1.0
  O  O332  1  0.07672000  0.22950000  0.16795000  1.0
  O  O333  1  0.07672000  0.16795000  0.60255000  1.0
