# generated using pymatgen
data_NaZnH12C18(NO3)3
_symmetry_space_group_name_H-M   'P 1'
_cell_length_a   10.02340000
_cell_length_b   10.02430901
_cell_length_c   13.74450000
_cell_angle_alpha   90.00000000
_cell_angle_beta   111.38890000
_cell_angle_gamma   120.00300000
_symmetry_Int_Tables_number   1
_chemical_formula_structural   NaZnH12C18(NO3)3
_chemical_formula_sum   'Na2 Zn2 H24 C36 N6 O18'
_cell_volume   1084.73550507
_cell_formula_units_Z   2
loop_
 _symmetry_equiv_pos_site_id
 _symmetry_equiv_pos_as_xyz
  1  'x, y, z'
loop_
 _atom_site_type_symbol
 _atom_site_label
 _atom_site_symmetry_multiplicity
 _atom_site_fract_x
 _atom_site_fract_y
 _atom_site_fract_z
 _atom_site_occupancy
  Na  Na0  1  0.92810000  0.46403000  0.39215000  1.0
  Na  Na1  1  0.92811000  0.96407000  0.89215000  1.0
  Zn  Zn2  1  0.10393000  0.05194000  0.15599000  1.0
  Zn  Zn3  1  0.10393000  0.55199000  0.65599000  1.0
  H  H4  1  0.16932000  0.32017000  0.89887000  1.0
  H  H5  1  0.57873000  0.84907000  0.89883000  1.0
  H  H6  1  0.04974000  0.72954000  0.89881000  1.0
  H  H7  1  0.57873000  0.22966000  0.39883000  1.0
  H  H8  1  0.04975000  0.82020000  0.39881000  1.0
  H  H9  1  0.16932000  0.34915000  0.39887000  1.0
  H  H10  1  0.39753000  0.54024000  0.88181000  1.0
  H  H11  1  0.34142000  0.85708000  0.88169000  1.0
  H  H12  1  0.02455000  0.48428000  0.88175000  1.0
  H  H13  1  0.34141000  0.98434000  0.38169000  1.0
  H  H14  1  0.02455000  0.04027000  0.38175000  1.0
  H  H15  1  0.39753000  0.35729000  0.38181000  1.0
  H  H16  1  0.72308000  0.54110000  0.19391000  1.0
  H  H17  1  0.65269000  0.18184000  0.19375000  1.0
  H  H18  1  0.01199000  0.47094000  0.19383000  1.0
  H  H19  1  0.65268000  0.97084000  0.69375000  1.0
  H  H20  1  0.01199000  0.04105000  0.69383000  1.0
  H  H21  1  0.72308000  0.68198000  0.69391000  1.0
  H  H22  1  0.69388000  0.66494000  0.03303000  1.0
  H  H23  1  0.36794000  0.02876000  0.03292000  1.0
  H  H24  1  0.00413000  0.33922000  0.03299000  1.0
  H  H25  1  0.36794000  0.83918000  0.53292000  1.0
  H  H26  1  0.00413000  0.16490000  0.53299000  1.0
  H  H27  1  0.69388000  0.52894000  0.53303000  1.0
  C  C28  1  0.48728000  0.30058000  0.23406000  1.0
  C  C29  1  0.93337000  0.18672000  0.23399000  1.0
  C  C30  1  0.04722000  0.74662000  0.23397000  1.0
  C  C31  1  0.93337000  0.24665000  0.73399000  1.0
  C  C32  1  0.04722000  0.80060000  0.73397000  1.0
  C  C33  1  0.48727000  0.68669000  0.73406000  1.0
  C  C34  1  0.29404000  0.30475000  0.05022000  1.0
  C  C35  1  0.74540000  0.98922000  0.05016000  1.0
  C  C36  1  0.06100000  0.75623000  0.05017000  1.0
  C  C37  1  0.74540000  0.25618000  0.55016000  1.0
  C  C38  1  0.06100000  0.80477000  0.55017000  1.0
  C  C39  1  0.29403000  0.48928000  0.55022000  1.0
  C  C40  1  0.45942000  0.36770000  0.13623000  1.0
  C  C41  1  0.76844000  0.09166000  0.13613000  1.0
  C  C42  1  0.04453000  0.67685000  0.13615000  1.0
  C  C43  1  0.76844000  0.17678000  0.63613000  1.0
  C  C44  1  0.04454000  0.86768000  0.63615000  1.0
  C  C45  1  0.45942000  0.59172000  0.63623000  1.0
  C  C46  1  0.42505000  0.49795000  0.95525000  1.0
  C  C47  1  0.45715000  0.92688000  0.95515000  1.0
  C  C48  1  0.02823000  0.53026000  0.95519000  1.0
  C  C49  1  0.45716000  0.03028000  0.45515000  1.0
  C  C50  1  0.02822000  0.99796000  0.45519000  1.0
  C  C51  1  0.42505000  0.42710000  0.45525000  1.0
  C  C52  1  0.59906000  0.49504000  0.12755000  1.0
  C  C53  1  0.63237000  0.10388000  0.12742000  1.0
  C  C54  1  0.02359000  0.52856000  0.12746000  1.0
  C  C55  1  0.63237000  0.02849000  0.62742000  1.0
  C  C56  1  0.02359000  0.99503000  0.62746000  1.0
  C  C57  1  0.59906000  0.60402000  0.62755000  1.0
  C  C58  1  0.58435000  0.56328000  0.03801000  1.0
  C  C59  1  0.47457000  0.02085000  0.03790000  1.0
  C  C60  1  0.01704000  0.45375000  0.03795000  1.0
  C  C61  1  0.47457000  0.95372000  0.53790000  1.0
  C  C62  1  0.01704000  0.06329000  0.53795000  1.0
  C  C63  1  0.58435000  0.52107000  0.53801000  1.0
  N  N64  1  0.28938000  0.37382000  0.96277000  1.0
  N  N65  1  0.58887000  0.91541000  0.96271000  1.0
  N  N66  1  0.04729000  0.67343000  0.96271000  1.0
  N  N67  1  0.58887000  0.17346000  0.46271000  1.0
  N  N68  1  0.04729000  0.87386000  0.46271000  1.0
  N  N69  1  0.28938000  0.41556000  0.46277000  1.0
  O  O70  1  0.36203000  0.18454000  0.24601000  1.0
  O  O71  1  0.06143000  0.17758000  0.24603000  1.0
  O  O72  1  0.06844000  0.88383000  0.24605000  1.0
  O  O73  1  0.06144000  0.38385000  0.74603000  1.0
  O  O74  1  0.06845000  0.68461000  0.74605000  1.0
  O  O75  1  0.36203000  0.67749000  0.74601000  1.0
  O  O76  1  0.63816000  0.36137000  0.30455000  1.0
  O  O77  1  0.94295000  0.27679000  0.30440000  1.0
  O  O78  1  0.02739000  0.66602000  0.30431000  1.0
  O  O79  1  0.94295000  0.16616000  0.80440000  1.0
  O  O80  1  0.02739000  0.86137000  0.80431000  1.0
  O  O81  1  0.63816000  0.77679000  0.80455000  1.0
  O  O82  1  0.15166000  0.19382000  0.04434000  1.0
  O  O83  1  0.85051000  0.95782000  0.04432000  1.0
  O  O84  1  0.08660000  0.89273000  0.04431000  1.0
  O  O85  1  0.85051000  0.39269000  0.54432000  1.0
  O  O86  1  0.08660000  0.69387000  0.54431000  1.0
  O  O87  1  0.15166000  0.45784000  0.54434000  1.0
