# generated using pymatgen
data_CuH14(C2O)4
_symmetry_space_group_name_H-M   'P 1'
_cell_length_a   5.22073000
_cell_length_b   8.70078000
_cell_length_c   11.10900000
_cell_angle_alpha   93.13270000
_cell_angle_beta   95.73950000
_cell_angle_gamma   101.45100000
_symmetry_Int_Tables_number   1
_chemical_formula_structural   CuH14(C2O)4
_chemical_formula_sum   'Cu2 H28 C16 O8'
_cell_volume   490.65777282
_cell_formula_units_Z   2
loop_
 _symmetry_equiv_pos_site_id
 _symmetry_equiv_pos_as_xyz
  1  'x, y, z'
loop_
 _atom_site_type_symbol
 _atom_site_label
 _atom_site_symmetry_multiplicity
 _atom_site_fract_x
 _atom_site_fract_y
 _atom_site_fract_z
 _atom_site_occupancy
  Cu  Cu0  1  0.29154000  0.52719000  0.44510000  1.0
  Cu  Cu1  1  0.70846000  0.47281000  0.55488000  1.0
  H  H2  1  0.06460000  0.20042000  0.75555000  1.0
  H  H3  1  0.93526000  0.79961000  0.24445000  1.0
  H  H4  1  0.91612000  0.36333000  0.77504000  1.0
  H  H5  1  0.08387000  0.63668000  0.22499000  1.0
  H  H6  1  0.42974000  0.31832000  0.91692000  1.0
  H  H7  1  0.57026000  0.68166000  0.08304000  1.0
  H  H8  1  0.29406000  0.48679000  0.93429000  1.0
  H  H9  1  0.70596000  0.51323000  0.06571000  1.0
  H  H10  1  0.15220000  0.30789000  0.09481000  1.0
  H  H11  1  0.84787000  0.69209000  0.90519000  1.0
  H  H12  1  0.02528000  0.15043000  0.98259000  1.0
  H  H13  1  0.97475000  0.84956000  0.01742000  1.0
  H  H14  1  0.87411000  0.31465000  0.99118000  1.0
  H  H15  1  0.12594000  0.68536000  0.00883000  1.0
  H  H16  1  0.12068000  0.03796000  0.28888000  1.0
  H  H17  1  0.87936000  0.96207000  0.71112000  1.0
  H  H18  1  0.26101000  0.97322000  0.42530000  1.0
  H  H19  1  0.73893000  0.02678000  0.57469000  1.0
  H  H20  1  0.46276000  0.87381000  0.25813000  1.0
  H  H21  1  0.53722000  0.12617000  0.74187000  1.0
  H  H22  1  0.70009000  0.01755000  0.34938000  1.0
  H  H23  1  0.29988000  0.98245000  0.65064000  1.0
  H  H24  1  0.73021000  0.05198000  0.12679000  1.0
  H  H25  1  0.26984000  0.94800000  0.87324000  1.0
  H  H26  1  0.64822000  0.21863000  0.19977000  1.0
  H  H27  1  0.35183000  0.78136000  0.80026000  1.0
  H  H28  1  0.40062000  0.07811000  0.10863000  1.0
  H  H29  1  0.59943000  0.92190000  0.89138000  1.0
  C  C30  1  0.26372000  0.40165000  0.68483000  1.0
  C  C31  1  0.73625000  0.59835000  0.31515000  1.0
  C  C32  1  0.10680000  0.32772000  0.78164000  1.0
  C  C33  1  0.89320000  0.67232000  0.21837000  1.0
  C  C34  1  0.24295000  0.35917000  0.91108000  1.0
  C  C35  1  0.75707000  0.64083000  0.08891000  1.0
  C  C36  1  0.06540000  0.27919000  0.00015000  1.0
  C  C37  1  0.93464000  0.72080000  0.99986000  1.0
  C  C38  1  0.37565000  0.21821000  0.40504000  1.0
  C  C39  1  0.62431000  0.78178000  0.59494000  1.0
  C  C40  1  0.30247000  0.04949000  0.35062000  1.0
  C  C41  1  0.69753000  0.95051000  0.64938000  1.0
  C  C42  1  0.52101000  0.00049000  0.28476000  1.0
  C  C43  1  0.47899000  0.99948000  0.71525000  1.0
  C  C44  1  0.57780000  0.09232000  0.17400000  1.0
  C  C45  1  0.42223000  0.90767000  0.82600000  1.0
  O  O46  1  0.13456000  0.45017000  0.59546000  1.0
  O  O47  1  0.86538000  0.54984000  0.40454000  1.0
  O  O48  1  0.49028000  0.59375000  0.30528000  1.0
  O  O49  1  0.50970000  0.40625000  0.69468000  1.0
  O  O50  1  0.21851000  0.30797000  0.37415000  1.0
  O  O51  1  0.78144000  0.69203000  0.62584000  1.0
  O  O52  1  0.41242000  0.74375000  0.52249000  1.0
  O  O53  1  0.58755000  0.25626000  0.47750000  1.0
