# generated using pymatgen
data_CuH14C17SN3
_symmetry_space_group_name_H-M   'P 1'
_cell_length_a   5.82126000
_cell_length_b   10.56070000
_cell_length_c   12.48704429
_cell_angle_alpha   83.66520371
_cell_angle_beta   79.21880900
_cell_angle_gamma   84.98830000
_symmetry_Int_Tables_number   1
_chemical_formula_structural   CuH14C17SN3
_chemical_formula_sum   'Cu2 H28 C34 S2 N6'
_cell_volume   747.75402814
_cell_formula_units_Z   2
loop_
 _symmetry_equiv_pos_site_id
 _symmetry_equiv_pos_as_xyz
  1  'x, y, z'
loop_
 _atom_site_type_symbol
 _atom_site_label
 _atom_site_symmetry_multiplicity
 _atom_site_fract_x
 _atom_site_fract_y
 _atom_site_fract_z
 _atom_site_occupancy
  Cu  Cu0  1  0.02383000  0.62560000  0.58676000  1.0
  Cu  Cu1  1  0.97619000  0.37439000  0.41324000  1.0
  H  H2  1  0.43768000  0.46074000  0.69653000  1.0
  H  H3  1  0.56236000  0.53924000  0.30348000  1.0
  H  H4  1  0.47176000  0.34080000  0.80458000  1.0
  H  H5  1  0.52829000  0.65918000  0.19543000  1.0
  H  H6  1  0.82308000  0.43965000  0.83876000  1.0
  H  H7  1  0.17694000  0.56036000  0.16125000  1.0
  H  H8  1  0.86799000  0.39977000  0.70203000  1.0
  H  H9  1  0.13206000  0.60022000  0.29798000  1.0
  H  H10  1  0.30114000  0.87448000  0.76459000  1.0
  H  H11  1  0.69884000  0.12552000  0.23540000  1.0
  H  H12  1  0.35151000  0.09849000  0.68619000  1.0
  H  H13  1  0.64844000  0.90151000  0.31381000  1.0
  H  H14  1  0.74729000  0.16882000  0.60444000  1.0
  H  H15  1  0.25264000  0.83120000  0.39557000  1.0
  H  H16  1  0.09586000  0.01480000  0.60381000  1.0
  H  H17  1  0.90409000  0.98523000  0.39618000  1.0
  H  H18  1  0.04886000  0.79256000  0.68681000  1.0
  H  H19  1  0.95112000  0.20746000  0.31317000  1.0
  H  H20  1  0.99508000  0.63246000  0.95396000  1.0
  H  H21  1  0.00493000  0.36754000  0.04604000  1.0
  H  H22  1  0.79468000  0.76208000  0.10352000  1.0
  H  H23  1  0.20533000  0.23792000  0.89647000  1.0
  H  H24  1  0.01339000  0.91823000  0.17362000  1.0
  H  H25  1  0.98662000  0.08177000  0.82638000  1.0
  H  H26  1  0.43417000  0.94110000  0.09589000  1.0
  H  H27  1  0.56585000  0.05889000  0.90411000  1.0
  H  H28  1  0.63121000  0.81634000  0.94397000  1.0
  H  H29  1  0.36881000  0.18364000  0.05603000  1.0
  C  C30  1  0.54334000  0.65924000  0.50225000  1.0
  C  C31  1  0.45668000  0.34077000  0.49774000  1.0
  C  C32  1  0.50251000  0.44072000  0.77494000  1.0
  C  C33  1  0.49752000  0.55927000  0.22507000  1.0
  C  C34  1  0.76108000  0.46109000  0.76010000  1.0
  C  C35  1  0.23895000  0.53891000  0.23990000  1.0
  C  C36  1  0.47574000  0.90446000  0.72966000  1.0
  C  C37  1  0.52422000  0.09554000  0.27034000  1.0
  C  C38  1  0.50376000  0.03060000  0.68583000  1.0
  C  C39  1  0.49619000  0.96940000  0.31417000  1.0
  C  C40  1  0.72625000  0.07073000  0.63999000  1.0
  C  C41  1  0.27370000  0.92928000  0.36001000  1.0
  C  C42  1  0.92186000  0.98427000  0.63977000  1.0
  C  C43  1  0.07809000  0.01575000  0.36023000  1.0
  C  C44  1  0.89442000  0.85873000  0.68463000  1.0
  C  C45  1  0.10556000  0.14129000  0.31536000  1.0
  C  C46  1  0.67090000  0.81599000  0.72874000  1.0
  C  C47  1  0.32908000  0.18402000  0.27125000  1.0
  C  C48  1  0.64677000  0.67967000  0.76736000  1.0
  C  C49  1  0.35323000  0.32032000  0.23264000  1.0
  C  C50  1  0.44482000  0.63484000  0.85240000  1.0
  C  C51  1  0.55519000  0.36515000  0.14760000  1.0
  C  C52  1  0.32507000  0.71718000  0.93766000  1.0
  C  C53  1  0.67494000  0.28281000  0.06234000  1.0
  C  C54  1  0.08837000  0.70263000  0.98367000  1.0
  C  C55  1  0.91164000  0.29736000  0.01633000  1.0
  C  C56  1  0.97739000  0.77502000  0.06773000  1.0
  C  C57  1  0.02262000  0.22497000  0.93227000  1.0
  C  C58  1  0.10007000  0.86188000  0.10774000  1.0
  C  C59  1  0.89994000  0.13811000  0.89227000  1.0
  C  C60  1  0.33611000  0.87550000  0.06353000  1.0
  C  C61  1  0.66390000  0.12448000  0.93648000  1.0
  C  C62  1  0.44723000  0.80462000  0.97833000  1.0
  C  C63  1  0.55279000  0.19537000  0.02167000  1.0
  S  S64  1  0.81686000  0.68089000  0.44796000  1.0
  S  S65  1  0.18315000  0.31912000  0.55203000  1.0
  N  N66  1  0.34418000  0.64372000  0.53911000  1.0
  N  N67  1  0.65582000  0.35629000  0.46089000  1.0
  N  N68  1  0.36870000  0.52305000  0.85345000  1.0
  N  N69  1  0.63134000  0.47694000  0.14655000  1.0
  N  N70  1  0.79911000  0.59497000  0.72004000  1.0
  N  N71  1  0.20090000  0.40503000  0.27995000  1.0
