# generated using pymatgen
data_CoH4(CN2)4
_symmetry_space_group_name_H-M   'P 1'
_cell_length_a   7.33375000
_cell_length_b   7.96084000
_cell_length_c   7.98853000
_cell_angle_alpha   93.46110000
_cell_angle_beta   115.83600000
_cell_angle_gamma   117.04800000
_symmetry_Int_Tables_number   1
_chemical_formula_structural   CoH4(CN2)4
_chemical_formula_sum   'Co2 H8 C8 N16'
_cell_volume   353.88224990
_cell_formula_units_Z   2
loop_
 _symmetry_equiv_pos_site_id
 _symmetry_equiv_pos_as_xyz
  1  'x, y, z'
loop_
 _atom_site_type_symbol
 _atom_site_label
 _atom_site_symmetry_multiplicity
 _atom_site_fract_x
 _atom_site_fract_y
 _atom_site_fract_z
 _atom_site_occupancy
  Co  Co0  1  0.00000000  0.50000000  0.00000000  1.0
  Co  Co1  1  0.00000000  1.00000000  0.50000000  1.0
  H  H2  1  0.90576000  0.73422000  0.74479000  1.0
  H  H3  1  0.09424000  0.26578000  0.25522000  1.0
  H  H4  1  0.42042000  0.58627000  0.96777000  1.0
  H  H5  1  0.41637000  0.94404000  0.58382000  1.0
  H  H6  1  0.57958000  0.41373000  0.03222000  1.0
  H  H7  1  0.58363000  0.05596000  0.41618000  1.0
  H  H8  1  0.60619000  0.77391000  0.78556000  1.0
  H  H9  1  0.39380000  0.22609000  0.21444000  1.0
  C  C10  1  0.06346000  0.74511000  0.75484000  1.0
  C  C11  1  0.93655000  0.25489000  0.24516000  1.0
  C  C12  1  0.35061000  0.66435000  0.87922000  1.0
  C  C13  1  0.34788000  0.86115000  0.66745000  1.0
  C  C14  1  0.64939000  0.33565000  0.12078000  1.0
  C  C15  1  0.65213000  0.13884000  0.33255000  1.0
  C  C16  1  0.45169000  0.76794000  0.77833000  1.0
  C  C17  1  0.54831000  0.23205000  0.22166000  1.0
  N  N18  1  0.15583000  0.65294000  0.86776000  1.0
  N  N19  1  0.15425000  0.85150000  0.65688000  1.0
  N  N20  1  0.84417000  0.34706000  0.13224000  1.0
  N  N21  1  0.84576000  0.14850000  0.34312000  1.0
  N  N22  1  0.89324000  0.68399000  0.02372000  1.0
  N  N23  1  0.89940000  0.03487000  0.69754000  1.0
  N  N24  1  0.10677000  0.31602000  0.97628000  1.0
  N  N25  1  0.10061000  0.96514000  0.30247000  1.0
  N  N26  1  0.00103000  0.82373000  0.16662000  1.0
  N  N27  1  0.99896000  0.17626000  0.83337000  1.0
  N  N28  1  0.29598000  0.65959000  0.26698000  1.0
  N  N29  1  0.32051000  0.27531000  0.65312000  1.0
  N  N30  1  0.70402000  0.34041000  0.73302000  1.0
  N  N31  1  0.67949000  0.72469000  0.34688000  1.0
  N  N32  1  0.48696000  0.69075000  0.30314000  1.0
  N  N33  1  0.51304000  0.30925000  0.69686000  1.0
