# generated using pymatgen
data_GdZnH9C13(NO5)2
_symmetry_space_group_name_H-M   'P 1'
_cell_length_a   9.31408000
_cell_length_b   10.06770000
_cell_length_c   18.65730000
_cell_angle_alpha   96.54280000
_cell_angle_beta   89.99910000
_cell_angle_gamma   89.99810000
_symmetry_Int_Tables_number   1
_chemical_formula_structural   GdZnH9C13(NO5)2
_chemical_formula_sum   'Gd4 Zn4 H36 C52 N8 O40'
_cell_volume   1738.12585415
_cell_formula_units_Z   4
loop_
 _symmetry_equiv_pos_site_id
 _symmetry_equiv_pos_as_xyz
  1  'x, y, z'
loop_
 _atom_site_type_symbol
 _atom_site_label
 _atom_site_symmetry_multiplicity
 _atom_site_fract_x
 _atom_site_fract_y
 _atom_site_fract_z
 _atom_site_occupancy
  Gd  Gd0  1  0.51290000  0.24856000  0.19452000  1.0
  Gd  Gd1  1  0.01290000  0.25141000  0.30549000  1.0
  Gd  Gd2  1  0.48709000  0.75144000  0.80548000  1.0
  Gd  Gd3  1  0.98710000  0.74858000  0.69451000  1.0
  Zn  Zn4  1  0.09134000  0.68792000  0.35043000  1.0
  Zn  Zn5  1  0.59133000  0.81205000  0.14957000  1.0
  Zn  Zn6  1  0.90867000  0.31208000  0.64957000  1.0
  Zn  Zn7  1  0.40867000  0.18797000  0.85044000  1.0
  H  H8  1  0.05245000  0.07866000  0.84268000  1.0
  H  H9  1  0.55244000  0.42134000  0.65732000  1.0
  H  H10  1  0.94756000  0.92132000  0.15733000  1.0
  H  H11  1  0.44757000  0.57866000  0.34267000  1.0
  H  H12  1  0.12974000  0.24899000  0.94333000  1.0
  H  H13  1  0.62977000  0.25103000  0.55668000  1.0
  H  H14  1  0.87025000  0.75102000  0.05667000  1.0
  H  H15  1  0.37025000  0.74899000  0.44332000  1.0
  H  H16  1  0.96322000  0.31292000  0.04574000  1.0
  H  H17  1  0.46325000  0.18708000  0.45427000  1.0
  H  H18  1  0.03675000  0.68710000  0.95425000  1.0
  H  H19  1  0.53677000  0.81293000  0.54573000  1.0
  H  H20  1  0.65200000  0.03207000  0.94717000  1.0
  H  H21  1  0.15201000  0.46793000  0.55282000  1.0
  H  H22  1  0.34799000  0.96791000  0.05283000  1.0
  H  H23  1  0.84800000  0.53205000  0.44717000  1.0
  H  H24  1  0.32325000  0.90965000  0.28016000  1.0
  H  H25  1  0.82328000  0.59031000  0.21985000  1.0
  H  H26  1  0.67674000  0.09035000  0.71987000  1.0
  H  H27  1  0.17672000  0.40968000  0.78016000  1.0
  H  H28  1  0.39668000  0.19650000  0.34071000  1.0
  H  H29  1  0.89667000  0.30347000  0.15929000  1.0
  H  H30  1  0.60333000  0.80350000  0.65928000  1.0
  H  H31  1  0.10333000  0.69652000  0.84071000  1.0
  H  H32  1  0.56896000  0.19147000  0.34317000  1.0
  H  H33  1  0.06896000  0.30849000  0.15684000  1.0
  H  H34  1  0.43104000  0.80852000  0.65683000  1.0
  H  H35  1  0.93104000  0.69149000  0.84316000  1.0
  H  H36  1  0.09304000  0.51898000  0.44165000  1.0
  H  H37  1  0.59303000  0.98100000  0.05835000  1.0
  H  H38  1  0.90698000  0.48101000  0.55834000  1.0
  H  H39  1  0.40696000  0.01901000  0.94166000  1.0
  H  H40  1  0.04073000  0.65285000  0.48742000  1.0
  H  H41  1  0.54073000  0.84713000  0.01259000  1.0
  H  H42  1  0.95927000  0.34714000  0.51259000  1.0
  H  H43  1  0.45926000  0.15288000  0.98742000  1.0
  C  C44  1  0.84655000  0.04732000  0.88868000  1.0
  C  C45  1  0.34656000  0.45268000  0.61132000  1.0
  C  C46  1  0.15345000  0.95267000  0.11134000  1.0
  C  C47  1  0.65346000  0.54733000  0.38867000  1.0
  C  C48  1  0.98210000  0.10673000  0.88824000  1.0
  C  C49  1  0.48208000  0.39326000  0.61176000  1.0
  C  C50  1  0.01791000  0.89324000  0.11176000  1.0
  C  C51  1  0.51792000  0.60675000  0.38824000  1.0
  C  C52  1  0.02458000  0.20178000  0.94462000  1.0
  C  C53  1  0.52460000  0.29822000  0.55537000  1.0
  C  C54  1  0.97540000  0.79820000  0.05538000  1.0
  C  C55  1  0.47541000  0.70179000  0.44462000  1.0
  C  C56  1  0.93228000  0.23624000  0.00254000  1.0
  C  C57  1  0.43230000  0.26375000  0.49747000  1.0
  C  C58  1  0.06770000  0.76375000  0.99747000  1.0
  C  C59  1  0.56771000  0.73626000  0.50253000  1.0
  C  C60  1  0.79738000  0.17438000  0.00468000  1.0
  C  C61  1  0.29739000  0.32560000  0.49533000  1.0
  C  C62  1  0.20263000  0.82562000  0.99532000  1.0
  C  C63  1  0.70262000  0.67441000  0.50467000  1.0
  C  C64  1  0.75551000  0.08122000  0.94722000  1.0
  C  C65  1  0.25553000  0.41879000  0.55276000  1.0
  C  C66  1  0.24448000  0.91878000  0.05278000  1.0
  C  C67  1  0.74449000  0.58121000  0.44723000  1.0
  C  C68  1  0.70014000  0.20253000  0.06757000  1.0
  C  C69  1  0.20015000  0.29742000  0.43243000  1.0
  C  C70  1  0.29985000  0.79746000  0.93243000  1.0
  C  C71  1  0.79985000  0.70256000  0.56757000  1.0
  C  C72  1  0.79631000  0.94784000  0.82766000  1.0
  C  C73  1  0.29633000  0.55218000  0.67234000  1.0
  C  C74  1  0.20368000  0.05215000  0.17234000  1.0
  C  C75  1  0.70368000  0.44782000  0.32766000  1.0
  C  C76  1  0.23949000  0.46344000  0.26194000  1.0
  C  C77  1  0.73946000  0.03653000  0.23806000  1.0
  C  C78  1  0.76051000  0.53656000  0.73805000  1.0
  C  C79  1  0.26054000  0.96346000  0.76194000  1.0
  C  C80  1  0.29989000  0.58916000  0.24281000  1.0
  C  C81  1  0.79986000  0.91079000  0.25718000  1.0
  C  C82  1  0.70012000  0.41084000  0.75718000  1.0
  C  C83  1  0.20015000  0.08920000  0.74282000  1.0
  C  C84  1  0.40072000  0.62291000  0.19257000  1.0
  C  C85  1  0.90069000  0.87706000  0.30743000  1.0
  C  C86  1  0.59929000  0.37709000  0.80742000  1.0
  C  C87  1  0.09930000  0.12294000  0.69257000  1.0
  C  C88  1  0.49038000  0.54547000  0.13642000  1.0
  C  C89  1  0.99035000  0.95451000  0.36358000  1.0
  C  C90  1  0.50963000  0.45456000  0.86358000  1.0
  C  C91  1  0.00964000  0.04548000  0.63642000  1.0
  C  C92  1  0.33127000  0.80525000  0.25833000  1.0
  C  C93  1  0.83128000  0.69472000  0.24167000  1.0
  C  C94  1  0.66873000  0.19476000  0.74168000  1.0
  C  C95  1  0.16871000  0.30527000  0.75833000  1.0
  N  N96  1  0.25738000  0.70577000  0.28335000  1.0
  N  N97  1  0.75738000  0.79419000  0.21666000  1.0
  N  N98  1  0.74261000  0.29422000  0.71666000  1.0
  N  N99  1  0.24262000  0.20580000  0.78334000  1.0
  N  N100  1  0.41776000  0.75940000  0.20319000  1.0
  N  N101  1  0.91776000  0.74059000  0.29682000  1.0
  N  N102  1  0.58223000  0.24063000  0.79682000  1.0
  N  N103  1  0.08223000  0.25940000  0.70318000  1.0
  O  O104  1  0.74163000  0.26948000  0.12576000  1.0
  O  O105  1  0.24164000  0.23050000  0.37424000  1.0
  O  O106  1  0.25836000  0.73054000  0.87424000  1.0
  O  O107  1  0.75835000  0.76948000  0.62576000  1.0
  O  O108  1  0.57130000  0.15383000  0.06463000  1.0
  O  O109  1  0.07131000  0.34615000  0.43538000  1.0
  O  O110  1  0.42868000  0.84618000  0.93538000  1.0
  O  O111  1  0.92869000  0.65385000  0.56462000  1.0
  O  O112  1  0.66925000  0.90335000  0.83274000  1.0
  O  O113  1  0.16928000  0.59670000  0.66726000  1.0
  O  O114  1  0.33073000  0.09664000  0.16727000  1.0
  O  O115  1  0.83073000  0.40331000  0.33273000  1.0
  O  O116  1  0.88145000  0.91506000  0.77521000  1.0
  O  O117  1  0.38150000  0.58495000  0.72477000  1.0
  O  O118  1  0.11852000  0.08493000  0.22478000  1.0
  O  O119  1  0.61850000  0.41504000  0.27523000  1.0
  O  O120  1  0.28737000  0.34969000  0.23671000  1.0
  O  O121  1  0.78734000  0.15028000  0.26328000  1.0
  O  O122  1  0.71265000  0.65033000  0.76329000  1.0
  O  O123  1  0.21266000  0.84971000  0.73672000  1.0
  O  O124  1  0.13353000  0.47389000  0.30694000  1.0
  O  O125  1  0.63351000  0.02606000  0.19305000  1.0
  O  O126  1  0.86648000  0.52610000  0.69305000  1.0
  O  O127  1  0.36651000  0.97394000  0.80695000  1.0
  O  O128  1  0.47632000  0.41898000  0.12569000  1.0
  O  O129  1  0.97626000  0.08102000  0.37431000  1.0
  O  O130  1  0.52373000  0.58106000  0.87431000  1.0
  O  O131  1  0.02368000  0.91898000  0.62570000  1.0
  O  O132  1  0.57847000  0.61200000  0.10256000  1.0
  O  O133  1  0.07846000  0.88800000  0.39743000  1.0
  O  O134  1  0.42155000  0.38803000  0.89744000  1.0
  O  O135  1  0.92154000  0.11203000  0.60256000  1.0
  O  O136  1  0.48630000  0.17035000  0.31220000  1.0
  O  O137  1  0.98628000  0.32960000  0.18781000  1.0
  O  O138  1  0.51371000  0.82964000  0.68780000  1.0
  O  O139  1  0.01372000  0.67038000  0.81219000  1.0
  O  O140  1  0.10438000  0.61794000  0.44672000  1.0
  O  O141  1  0.60437000  0.88203000  0.05328000  1.0
  O  O142  1  0.89562000  0.38206000  0.55328000  1.0
  O  O143  1  0.39561000  0.11796000  0.94672000  1.0
