# generated using pymatgen
data_Zr3H15(C13O12)2
_symmetry_space_group_name_H-M   'P 1'
_cell_length_a   14.67852946
_cell_length_b   14.74737186
_cell_length_c   14.76600000
_cell_angle_alpha   90.50932577
_cell_angle_beta   119.48999863
_cell_angle_gamma   119.74092156
_symmetry_Int_Tables_number   1
_chemical_formula_structural   Zr3H15(C13O12)2
_chemical_formula_sum   'Zr6 H30 C52 O48'
_cell_volume   2276.30178376
_cell_formula_units_Z   2
loop_
 _symmetry_equiv_pos_site_id
 _symmetry_equiv_pos_as_xyz
  1  'x, y, z'
loop_
 _atom_site_type_symbol
 _atom_site_label
 _atom_site_symmetry_multiplicity
 _atom_site_fract_x
 _atom_site_fract_y
 _atom_site_fract_z
 _atom_site_occupancy
  Zr  Zr0  1  0.48883000  0.86318000  0.37628000  1.0
  Zr  Zr1  1  0.49276000  0.10405000  0.61762000  1.0
  Zr  Zr2  1  0.72886000  0.10175000  0.61388000  1.0
  Zr  Zr3  1  0.24971000  0.86532000  0.38010000  1.0
  Zr  Zr4  1  0.48874000  0.10109000  0.37786000  1.0
  Zr  Zr5  1  0.48951000  0.86410000  0.61536000  1.0
  H  H6  1  0.67407000  0.07091000  0.39577000  1.0
  H  H7  1  0.29635000  0.07416000  0.40259000  1.0
  H  H8  1  0.68001000  0.07835000  0.77849000  1.0
  H  H9  1  0.30083000  0.70032000  0.40453000  1.0
  H  H10  1  0.50886000  0.13591000  0.09469000  1.0
  H  H11  1  0.43333000  0.81369000  0.88233000  1.0
  H  H12  1  0.51247000  0.58210000  0.65203000  1.0
  H  H13  1  0.51675000  0.40891000  0.36505000  1.0
  H  H14  1  0.92858000  0.82160000  0.06586000  1.0
  H  H15  1  0.05123000  0.12338000  0.90926000  1.0
  H  H16  1  0.93041000  0.58151000  0.36503000  1.0
  H  H17  1  0.04717000  0.41020000  0.65314000  1.0
  H  H18  1  0.22139000  0.56940000  0.08216000  1.0
  H  H19  1  0.76076000  0.41148000  0.89882000  1.0
  H  H20  1  0.52011000  0.15116000  0.86228000  1.0
  H  H21  1  0.42855000  0.80128000  0.11842000  1.0
  H  H22  1  0.51205000  0.34331000  0.66197000  1.0
  H  H23  1  0.52215000  0.65012000  0.35670000  1.0
  H  H24  1  0.68347000  0.81338000  0.82709000  1.0
  H  H25  1  0.29604000  0.13132000  0.14649000  1.0
  H  H26  1  0.68252000  0.34004000  0.35300000  1.0
  H  H27  1  0.29532000  0.65044000  0.66464000  1.0
  H  H28  1  0.99461000  0.33442000  0.84142000  1.0
  H  H29  1  0.98786000  0.64679000  0.13944000  1.0
  H  H30  1  0.26997000  0.05498000  0.68580000  1.0
  H  H31  1  0.95274000  0.04688000  0.67569000  1.0
  H  H32  1  0.15132000  0.12045000  0.27652000  1.0
  H  H33  1  0.95441000  0.03308000  0.10079000  1.0
  H  H34  1  0.80980000  0.10601000  0.09668000  1.0
  H  H35  1  0.71885000  0.08605000  0.24577000  1.0
  C  C36  1  0.47086000  0.97510000  0.18309000  1.0
  C  C37  1  0.50284000  0.29488000  0.50255000  1.0
  C  C38  1  0.48425000  0.98002000  0.80031000  1.0
  C  C39  1  0.50558000  0.68604000  0.50421000  1.0
  C  C40  1  0.79425000  0.98839000  0.48850000  1.0
  C  C41  1  0.18485000  0.67968000  0.19024000  1.0
  C  C42  1  0.19252000  0.99666000  0.49967000  1.0
  C  C43  1  0.79682000  0.29372000  0.79816000  1.0
  C  C44  1  0.79488000  0.29361000  0.50228000  1.0
  C  C45  1  0.79719000  0.97760000  0.79549000  1.0
  C  C46  1  0.18325000  0.68763000  0.50545000  1.0
  C  C47  1  0.18235000  0.97431000  0.18593000  1.0
  C  C48  1  0.47618000  0.97800000  0.89609000  1.0
  C  C49  1  0.46813000  0.97239000  0.08193000  1.0
  C  C50  1  0.49711000  0.07042000  0.95627000  1.0
  C  C51  1  0.44567000  0.87944000  0.02109000  1.0
  C  C52  1  0.49237000  0.06546000  0.04808000  1.0
  C  C53  1  0.44996000  0.88425000  0.92891000  1.0
  C  C54  1  0.51204000  0.39923000  0.50855000  1.0
  C  C55  1  0.51425000  0.59058000  0.50698000  1.0
  C  C56  1  0.51426000  0.45024000  0.59285000  1.0
  C  C57  1  0.51849000  0.54272000  0.42592000  1.0
  C  C58  1  0.51408000  0.54451000  0.58953000  1.0
  C  C59  1  0.51606000  0.44711000  0.42794000  1.0
  C  C60  1  0.89486000  0.97231000  0.89232000  1.0
  C  C61  1  0.08510000  0.97331000  0.08285000  1.0
  C  C62  1  0.85917000  0.88450000  0.93619000  1.0
  C  C63  1  0.12054000  0.05883000  0.03684000  1.0
  C  C64  1  0.95523000  0.88770000  0.03150000  1.0
  C  C65  1  0.02416000  0.05664000  0.94270000  1.0
  C  C66  1  0.89279000  0.39879000  0.50612000  1.0
  C  C67  1  0.08502000  0.59140000  0.51055000  1.0
  C  C68  1  0.85863000  0.44904000  0.42469000  1.0
  C  C69  1  0.11898000  0.54390000  0.59478000  1.0
  C  C70  1  0.95579000  0.54417000  0.42835000  1.0
  C  C71  1  0.02184000  0.44807000  0.59036000  1.0
  C  C72  1  0.90548000  0.01231000  0.48984000  1.0
  C  C73  1  0.91272000  0.02268000  0.39655000  1.0
  C  C74  1  0.00815000  0.02817000  0.58999000  1.0
  C  C75  1  0.83590000  0.04554000  0.30903000  1.0
  C  C76  1  0.85146000  0.06093000  0.22361000  1.0
  C  C77  1  0.10387000  0.01908000  0.49723000  1.0
  C  C78  1  0.10882000  0.03122000  0.59363000  1.0
  C  C79  1  0.01496000  0.02632000  0.40090000  1.0
  C  C80  1  0.03532000  0.05295000  0.31775000  1.0
  C  C81  1  0.94960000  0.06294000  0.22712000  1.0
  C  C82  1  0.89776000  0.39586000  0.89528000  1.0
  C  C83  1  0.08434000  0.58389000  0.08678000  1.0
  C  C84  1  0.02996000  0.44204000  0.94653000  1.0
  C  C85  1  0.95236000  0.53987000  0.03346000  1.0
  C  C86  1  0.12055000  0.53500000  0.04179000  1.0
  C  C87  1  0.86165000  0.44624000  0.93886000  1.0
  O  O88  1  0.46533000  0.89525000  0.22116000  1.0
  O  O89  1  0.50095000  0.25315000  0.57906000  1.0
  O  O90  1  0.49220000  0.06160000  0.76369000  1.0
  O  O91  1  0.50527000  0.72703000  0.42670000  1.0
  O  O92  1  0.82487000  0.05138000  0.57495000  1.0
  O  O93  1  0.14825000  0.72009000  0.23282000  1.0
  O  O94  1  0.15067000  0.91653000  0.42357000  1.0
  O  O95  1  0.83293000  0.24997000  0.75820000  1.0
  O  O96  1  0.67637000  0.24981000  0.42265000  1.0
  O  O97  1  0.67852000  0.90200000  0.75601000  1.0
  O  O98  1  0.30180000  0.72533000  0.57909000  1.0
  O  O99  1  0.30069000  0.05598000  0.23055000  1.0
  O  O100  1  0.83343000  0.05572000  0.75748000  1.0
  O  O101  1  0.14886000  0.72797000  0.42903000  1.0
  O  O102  1  0.14717000  0.89878000  0.22655000  1.0
  O  O103  1  0.82984000  0.24994000  0.57490000  1.0
  O  O104  1  0.68038000  0.90939000  0.41235000  1.0
  O  O105  1  0.67970000  0.25159000  0.75903000  1.0
  O  O106  1  0.31007000  0.05947000  0.58592000  1.0
  O  O107  1  0.30175000  0.71698000  0.23373000  1.0
  O  O108  1  0.49602000  0.72256000  0.57561000  1.0
  O  O109  1  0.48178000  0.05671000  0.22965000  1.0
  O  O110  1  0.49543000  0.24981000  0.42278000  1.0
  O  O111  1  0.48539000  0.90449000  0.75917000  1.0
  O  O112  1  0.35424000  0.78072000  0.43087000  1.0
  O  O113  1  0.62648000  0.05062000  0.69847000  1.0
  O  O114  1  0.35490000  0.05145000  0.43089000  1.0
  O  O115  1  0.62287000  0.04863000  0.42587000  1.0
  O  O116  1  0.58998000  0.13199000  0.54610000  1.0
  O  O117  1  0.38907000  0.93226000  0.34949000  1.0
  O  O118  1  0.39157000  0.93492000  0.54807000  1.0
  O  O119  1  0.58766000  0.93304000  0.54448000  1.0
  O  O120  1  0.52410000  0.16433000  0.93054000  1.0
  O  O121  1  0.42038000  0.78652000  0.04820000  1.0
  O  O122  1  0.51472000  0.41097000  0.67537000  1.0
  O  O123  1  0.52320000  0.58428000  0.34589000  1.0
  O  O124  1  0.73665000  0.79837000  0.89038000  1.0
  O  O125  1  0.24271000  0.14393000  0.08071000  1.0
  O  O126  1  0.73609000  0.40812000  0.34261000  1.0
  O  O127  1  0.24135000  0.58654000  0.67881000  1.0
  O  O128  1  0.07243000  0.39943000  0.90834000  1.0
  O  O129  1  0.91025000  0.58405000  0.07046000  1.0
  O  O130  1  0.19978000  0.03958000  0.69160000  1.0
  O  O131  1  0.01738000  0.03503000  0.68562000  1.0
  O  O132  1  0.14699000  0.08193000  0.32959000  1.0
  O  O133  1  0.97219000  0.09543000  0.14784000  1.0
  O  O134  1  0.77628000  0.08466000  0.14176000  1.0
  O  O135  1  0.75230000  0.06341000  0.31001000  1.0
