# generated using pymatgen
data_TbH16C13(NO3)3
_symmetry_space_group_name_H-M   'P 1'
_cell_length_a   9.26528000
_cell_length_b   14.58820000
_cell_length_c   14.94640000
_cell_angle_alpha   90.00010000
_cell_angle_beta   90.00040000
_cell_angle_gamma   81.72200000
_symmetry_Int_Tables_number   1
_chemical_formula_structural   TbH16C13(NO3)3
_chemical_formula_sum   'Tb4 H64 C52 N12 O36'
_cell_volume   1999.16329622
_cell_formula_units_Z   4
loop_
 _symmetry_equiv_pos_site_id
 _symmetry_equiv_pos_as_xyz
  1  'x, y, z'
loop_
 _atom_site_type_symbol
 _atom_site_label
 _atom_site_symmetry_multiplicity
 _atom_site_fract_x
 _atom_site_fract_y
 _atom_site_fract_z
 _atom_site_occupancy
  Tb  Tb0  1  0.48831000  0.53207000  0.20558000  1.0
  Tb  Tb1  1  0.51168000  0.96793000  0.70559000  1.0
  Tb  Tb2  1  0.51168000  0.46793000  0.79441000  1.0
  Tb  Tb3  1  0.48832000  0.03207000  0.29441000  1.0
  H  H4  1  0.30486000  0.37577000  0.25293000  1.0
  H  H5  1  0.69513000  0.12423000  0.75294000  1.0
  H  H6  1  0.69514000  0.62423000  0.74707000  1.0
  H  H7  1  0.30486000  0.87577000  0.24706000  1.0
  H  H8  1  0.47812000  0.34118000  0.24634000  1.0
  H  H9  1  0.52188000  0.15882000  0.74635000  1.0
  H  H10  1  0.52188000  0.65882000  0.75366000  1.0
  H  H11  1  0.47812000  0.84118000  0.25366000  1.0
  H  H12  1  0.68367000  0.68662000  0.19362000  1.0
  H  H13  1  0.31633000  0.81338000  0.69362000  1.0
  H  H14  1  0.31632000  0.31338000  0.80638000  1.0
  H  H15  1  0.68367000  0.18662000  0.30639000  1.0
  H  H16  1  0.75626000  0.59995000  0.13105000  1.0
  H  H17  1  0.24373000  0.90005000  0.63105000  1.0
  H  H18  1  0.24374000  0.40005000  0.86895000  1.0
  H  H19  1  0.75626000  0.09995000  0.36895000  1.0
  H  H20  1  0.93406000  0.66843000  0.24949000  1.0
  H  H21  1  0.06595000  0.83156000  0.74949000  1.0
  H  H22  1  0.06594000  0.33156000  0.75051000  1.0
  H  H23  1  0.93406000  0.16843000  0.25050000  1.0
  H  H24  1  0.06878000  0.00937000  0.22707000  1.0
  H  H25  1  0.93122000  0.49063000  0.72707000  1.0
  H  H26  1  0.93122000  0.99062000  0.77293000  1.0
  H  H27  1  0.06877000  0.50937000  0.27293000  1.0
  H  H28  1  0.87531000  0.00750000  0.22016000  1.0
  H  H29  1  0.12468000  0.49250000  0.72016000  1.0
  H  H30  1  0.12468000  0.99250000  0.77984000  1.0
  H  H31  1  0.87531000  0.50749000  0.27985000  1.0
  H  H32  1  0.79024000  0.93589000  0.06646000  1.0
  H  H33  1  0.20975000  0.56411000  0.56646000  1.0
  H  H34  1  0.20976000  0.06411000  0.93354000  1.0
  H  H35  1  0.79025000  0.43589000  0.43354000  1.0
  H  H36  1  0.19200000  0.04776000  0.09894000  1.0
  H  H37  1  0.80800000  0.45224000  0.59894000  1.0
  H  H38  1  0.80800000  0.95224000  0.90106000  1.0
  H  H39  1  0.19199000  0.54775000  0.40106000  1.0
  H  H40  1  0.69777000  0.64384000  0.34585000  1.0
  H  H41  1  0.30225000  0.85617000  0.84585000  1.0
  H  H42  1  0.30222000  0.35617000  0.65414000  1.0
  H  H43  1  0.69777000  0.14384000  0.15415000  1.0
  H  H44  1  0.77898000  0.66943000  0.55713000  1.0
  H  H45  1  0.22101000  0.83058000  0.05712000  1.0
  H  H46  1  0.22102000  0.33058000  0.44286000  1.0
  H  H47  1  0.77899000  0.16943000  0.94287000  1.0
  H  H48  1  0.67738000  0.77808000  0.52628000  1.0
  H  H49  1  0.32262000  0.72193000  0.02628000  1.0
  H  H50  1  0.32262000  0.22192000  0.47372000  1.0
  H  H51  1  0.67738000  0.27808000  0.97372000  1.0
  H  H52  1  0.79802000  0.71502000  0.44727000  1.0
  H  H53  1  0.20199000  0.78499000  0.94726000  1.0
  H  H54  1  0.20198000  0.28499000  0.55272000  1.0
  H  H55  1  0.79802000  0.21502000  0.05273000  1.0
  H  H56  1  0.38691000  0.64520000  0.49427000  1.0
  H  H57  1  0.61310000  0.85481000  0.99429000  1.0
  H  H58  1  0.61309000  0.35481000  0.50572000  1.0
  H  H59  1  0.38691000  0.14519000  0.00573000  1.0
  H  H60  1  0.47612000  0.70095000  0.58154000  1.0
  H  H61  1  0.52388000  0.79906000  0.08155000  1.0
  H  H62  1  0.52388000  0.29906000  0.41846000  1.0
  H  H63  1  0.47612000  0.20095000  0.91846000  1.0
  H  H64  1  0.51506000  0.57854000  0.56647000  1.0
  H  H65  1  0.48495000  0.92146000  0.06648000  1.0
  H  H66  1  0.48495000  0.42146000  0.43352000  1.0
  H  H67  1  0.51506000  0.07854000  0.93353000  1.0
  C  C68  1  0.25649000  0.67159000  0.22976000  1.0
  C  C69  1  0.74351000  0.82841000  0.72977000  1.0
  C  C70  1  0.74350000  0.32841000  0.77023000  1.0
  C  C71  1  0.25650000  0.17159000  0.27023000  1.0
  C  C72  1  0.12596000  0.74339000  0.23086000  1.0
  C  C73  1  0.87404000  0.75661000  0.73087000  1.0
  C  C74  1  0.87404000  0.25661000  0.76913000  1.0
  C  C75  1  0.12596000  0.24339000  0.26913000  1.0
  C  C76  1  0.97839000  0.73216000  0.23821000  1.0
  C  C77  1  0.02161000  0.76784000  0.73821000  1.0
  C  C78  1  0.02160000  0.26783000  0.76180000  1.0
  C  C79  1  0.97840000  0.23216000  0.26179000  1.0
  C  C80  1  0.90046000  0.82076000  0.22888000  1.0
  C  C81  1  0.09954000  0.67924000  0.72888000  1.0
  C  C82  1  0.09953000  0.17924000  0.77112000  1.0
  C  C83  1  0.90046000  0.32076000  0.27112000  1.0
  C  C84  1  0.74008000  0.84976000  0.23308000  1.0
  C  C85  1  0.25992000  0.65023000  0.73308000  1.0
  C  C86  1  0.25992000  0.15023000  0.76692000  1.0
  C  C87  1  0.74007000  0.34976000  0.26692000  1.0
  C  C88  1  0.98229000  0.97800000  0.19388000  1.0
  C  C89  1  0.01770000  0.52200000  0.69388000  1.0
  C  C90  1  0.01770000  0.02200000  0.80611000  1.0
  C  C91  1  0.98229000  0.47800000  0.30612000  1.0
  C  C92  1  0.99031000  0.99036000  0.09353000  1.0
  C  C93  1  0.00969000  0.50964000  0.59353000  1.0
  C  C94  1  0.00969000  0.00964000  0.90647000  1.0
  C  C95  1  0.99031000  0.49035000  0.40647000  1.0
  C  C96  1  0.88286000  0.96355000  0.03726000  1.0
  C  C97  1  0.11713000  0.53646000  0.53727000  1.0
  C  C98  1  0.11713000  0.03646000  0.96274000  1.0
  C  C99  1  0.88287000  0.46354000  0.46274000  1.0
  C  C100  1  0.10780000  0.02706000  0.05539000  1.0
  C  C101  1  0.89221000  0.47293000  0.55539000  1.0
  C  C102  1  0.89220000  0.97294000  0.94461000  1.0
  C  C103  1  0.10780000  0.52706000  0.44461000  1.0
  C  C104  1  0.42352000  0.52941000  0.99545000  1.0
  C  C105  1  0.57648000  0.97059000  0.49545000  1.0
  C  C106  1  0.57648000  0.47060000  0.00454000  1.0
  C  C107  1  0.42352000  0.02940000  0.50454000  1.0
  C  C108  1  0.60650000  0.62705000  0.38697000  1.0
  C  C109  1  0.39351000  0.87296000  0.88698000  1.0
  C  C110  1  0.39349000  0.37296000  0.61302000  1.0
  C  C111  1  0.60651000  0.12705000  0.11303000  1.0
  C  C112  1  0.72134000  0.70873000  0.50202000  1.0
  C  C113  1  0.27866000  0.79128000  0.00202000  1.0
  C  C114  1  0.27865000  0.29128000  0.49797000  1.0
  C  C115  1  0.72134000  0.20873000  0.99798000  1.0
  C  C116  1  0.48865000  0.64535000  0.53173000  1.0
  C  C117  1  0.51135000  0.85465000  0.03174000  1.0
  C  C118  1  0.51135000  0.35465000  0.46826000  1.0
  C  C119  1  0.48866000  0.14535000  0.96827000  1.0
  N  N120  1  0.13882000  0.83366000  0.21865000  1.0
  N  N121  1  0.86119000  0.66634000  0.71866000  1.0
  N  N122  1  0.86119000  0.16633000  0.78134000  1.0
  N  N123  1  0.13881000  0.33366000  0.28134000  1.0
  N  N124  1  0.00286000  0.87949000  0.21817000  1.0
  N  N125  1  0.99715000  0.62050000  0.71817000  1.0
  N  N126  1  0.99714000  0.12050000  0.78183000  1.0
  N  N127  1  0.00285000  0.37950000  0.28183000  1.0
  N  N128  1  0.60418000  0.66060000  0.46961000  1.0
  N  N129  1  0.39582000  0.83940000  0.96961000  1.0
  N  N130  1  0.39581000  0.33940000  0.53038000  1.0
  N  N131  1  0.60419000  0.16061000  0.03039000  1.0
  O  O132  1  0.24019000  0.58745000  0.24610000  1.0
  O  O133  1  0.75981000  0.91255000  0.74610000  1.0
  O  O134  1  0.75980000  0.41255000  0.75389000  1.0
  O  O135  1  0.24019000  0.08745000  0.25389000  1.0
  O  O136  1  0.38040000  0.69408000  0.20996000  1.0
  O  O137  1  0.61960000  0.80592000  0.70997000  1.0
  O  O138  1  0.61960000  0.30592000  0.79004000  1.0
  O  O139  1  0.38040000  0.19408000  0.29004000  1.0
  O  O140  1  0.65962000  0.78588000  0.23565000  1.0
  O  O141  1  0.34038000  0.71411000  0.73564000  1.0
  O  O142  1  0.34038000  0.21411000  0.76436000  1.0
  O  O143  1  0.65962000  0.28588000  0.26436000  1.0
  O  O144  1  0.69168000  0.93557000  0.23448000  1.0
  O  O145  1  0.30833000  0.56443000  0.73447000  1.0
  O  O146  1  0.30833000  0.06443000  0.76553000  1.0
  O  O147  1  0.69167000  0.43557000  0.26552000  1.0
  O  O148  1  0.36327000  0.56102000  0.06727000  1.0
  O  O149  1  0.63674000  0.93897000  0.56727000  1.0
  O  O150  1  0.63675000  0.43898000  0.93273000  1.0
  O  O151  1  0.36326000  0.06102000  0.43273000  1.0
  O  O152  1  0.39989000  0.39378000  0.23305000  1.0
  O  O153  1  0.60011000  0.10622000  0.73306000  1.0
  O  O154  1  0.60011000  0.60622000  0.76695000  1.0
  O  O155  1  0.39989000  0.89378000  0.26694000  1.0
  O  O156  1  0.37225000  0.54093000  0.91706000  1.0
  O  O157  1  0.62774000  0.95907000  0.41707000  1.0
  O  O158  1  0.62775000  0.45907000  0.08292000  1.0
  O  O159  1  0.37225000  0.04093000  0.58292000  1.0
  O  O160  1  0.68233000  0.61956000  0.17571000  1.0
  O  O161  1  0.31766000  0.88045000  0.67571000  1.0
  O  O162  1  0.31766000  0.38045000  0.82429000  1.0
  O  O163  1  0.68233000  0.11955000  0.32430000  1.0
  O  O164  1  0.51296000  0.58086000  0.35595000  1.0
  O  O165  1  0.48707000  0.91915000  0.85596000  1.0
  O  O166  1  0.48705000  0.41914000  0.64405000  1.0
  O  O167  1  0.51296000  0.08086000  0.14405000  1.0
