# generated using pymatgen
data_Cu2H10C12(IN2)3
_symmetry_space_group_name_H-M   'P 1'
_cell_length_a   7.33187000
_cell_length_b   14.31570000
_cell_length_c   17.22170000
_cell_angle_alpha   89.99970000
_cell_angle_beta   96.33760000
_cell_angle_gamma   89.99960000
_symmetry_Int_Tables_number   1
_chemical_formula_structural   Cu2H10C12(IN2)3
_chemical_formula_sum   'Cu8 H40 C48 I12 N24'
_cell_volume   1796.55753402
_cell_formula_units_Z   4
loop_
 _symmetry_equiv_pos_site_id
 _symmetry_equiv_pos_as_xyz
  1  'x, y, z'
loop_
 _atom_site_type_symbol
 _atom_site_label
 _atom_site_symmetry_multiplicity
 _atom_site_fract_x
 _atom_site_fract_y
 _atom_site_fract_z
 _atom_site_occupancy
  Cu  Cu0  1  0.16183000  0.18215000  0.87716000  1.0
  Cu  Cu1  1  0.33819000  0.68215000  0.62284000  1.0
  Cu  Cu2  1  0.83818000  0.81785000  0.12284000  1.0
  Cu  Cu3  1  0.66181000  0.31785000  0.37716000  1.0
  Cu  Cu4  1  0.19700000  0.10757000  0.69439000  1.0
  Cu  Cu5  1  0.30299000  0.60757000  0.80562000  1.0
  Cu  Cu6  1  0.80300000  0.89244000  0.30561000  1.0
  Cu  Cu7  1  0.69701000  0.39244000  0.19439000  1.0
  H  H8  1  0.54162000  0.12501000  0.61202000  1.0
  H  H9  1  0.95837000  0.62501000  0.88798000  1.0
  H  H10  1  0.45837000  0.87499000  0.38798000  1.0
  H  H11  1  0.04163000  0.37499000  0.11202000  1.0
  H  H12  1  0.49156000  0.17703000  0.97402000  1.0
  H  H13  1  0.00846000  0.67704000  0.52598000  1.0
  H  H14  1  0.50845000  0.82296000  0.02598000  1.0
  H  H15  1  0.99155000  0.32296000  0.47402000  1.0
  H  H16  1  0.59783000  0.15256000  0.47286000  1.0
  H  H17  1  0.90218000  0.65256000  0.02713000  1.0
  H  H18  1  0.40218000  0.84744000  0.52714000  1.0
  H  H19  1  0.09783000  0.34744000  0.97287000  1.0
  H  H20  1  0.63944000  0.45337000  0.90071000  1.0
  H  H21  1  0.86056000  0.95337000  0.59929000  1.0
  H  H22  1  0.36056000  0.54663000  0.09929000  1.0
  H  H23  1  0.13944000  0.04663000  0.40071000  1.0
  H  H24  1  0.52590000  0.42570000  0.64005000  1.0
  H  H25  1  0.97410000  0.92570000  0.85995000  1.0
  H  H26  1  0.47410000  0.57430000  0.35995000  1.0
  H  H27  1  0.02590000  0.07430000  0.14005000  1.0
  H  H28  1  0.59625000  0.44002000  0.50304000  1.0
  H  H29  1  0.90375000  0.94002000  0.99696000  1.0
  H  H30  1  0.40376000  0.55998000  0.49695000  1.0
  H  H31  1  0.09624000  0.05997000  0.00305000  1.0
  H  H32  1  0.55605000  0.23056000  0.11138000  1.0
  H  H33  1  0.94396000  0.73056000  0.38862000  1.0
  H  H34  1  0.44395000  0.76944000  0.88863000  1.0
  H  H35  1  0.05605000  0.26945000  0.61137000  1.0
  H  H36  1  0.71028000  0.49355000  0.04216000  1.0
  H  H37  1  0.78971000  0.99355000  0.45783000  1.0
  H  H38  1  0.28971000  0.50645000  0.95784000  1.0
  H  H39  1  0.21029000  0.00645000  0.54217000  1.0
  H  H40  1  0.71030000  0.42651000  0.75390000  1.0
  H  H41  1  0.78970000  0.92651000  0.74609000  1.0
  H  H42  1  0.28970000  0.57349000  0.24610000  1.0
  H  H43  1  0.21030000  0.07349000  0.25390000  1.0
  H  H44  1  0.83922000  0.32869000  0.76461000  1.0
  H  H45  1  0.66079000  0.82869000  0.73538000  1.0
  H  H46  1  0.16078000  0.67131000  0.23539000  1.0
  H  H47  1  0.33922000  0.17131000  0.26461000  1.0
  C  C48  1  0.50145000  0.28204000  0.84575000  1.0
  C  C49  1  0.99856000  0.78204000  0.65425000  1.0
  C  C50  1  0.49855000  0.71796000  0.15425000  1.0
  C  C51  1  0.00145000  0.21796000  0.34575000  1.0
  C  C52  1  0.49160000  0.26179000  0.71855000  1.0
  C  C53  1  0.00839000  0.76179000  0.78145000  1.0
  C  C54  1  0.50838000  0.73822000  0.28145000  1.0
  C  C55  1  0.99161000  0.23821000  0.21855000  1.0
  C  C56  1  0.65859000  0.42461000  0.02390000  1.0
  C  C57  1  0.84140000  0.92461000  0.47610000  1.0
  C  C58  1  0.34140000  0.57539000  0.97610000  1.0
  C  C59  1  0.15860000  0.07539000  0.52390000  1.0
  C  C60  1  0.62065000  0.40173000  0.94542000  1.0
  C  C61  1  0.87935000  0.90173000  0.55458000  1.0
  C  C62  1  0.37935000  0.59827000  0.05458000  1.0
  C  C63  1  0.12065000  0.09827000  0.44542000  1.0
  C  C64  1  0.55432000  0.31186000  0.92561000  1.0
  C  C65  1  0.94569000  0.81186000  0.57439000  1.0
  C  C66  1  0.44568000  0.68814000  0.07439000  1.0
  C  C67  1  0.05431000  0.18814000  0.42561000  1.0
  C  C68  1  0.53435000  0.24879000  0.98647000  1.0
  C  C69  1  0.96565000  0.74880000  0.51353000  1.0
  C  C70  1  0.46565000  0.75120000  0.01353000  1.0
  C  C71  1  0.03434000  0.25121000  0.48647000  1.0
  C  C72  1  0.57193000  0.27813000  0.06311000  1.0
  C  C73  1  0.92807000  0.77814000  0.43689000  1.0
  C  C74  1  0.42807000  0.72186000  0.93689000  1.0
  C  C75  1  0.07193000  0.22187000  0.56311000  1.0
  C  C76  1  0.58265000  0.21080000  0.51251000  1.0
  C  C77  1  0.91736000  0.71080000  0.98749000  1.0
  C  C78  1  0.41737000  0.78920000  0.48749000  1.0
  C  C79  1  0.08264000  0.28920000  0.01251000  1.0
  C  C80  1  0.55038000  0.19581000  0.58939000  1.0
  C  C81  1  0.94961000  0.69582000  0.91060000  1.0
  C  C82  1  0.44961000  0.80418000  0.41060000  1.0
  C  C83  1  0.05039000  0.30418000  0.08940000  1.0
  C  C84  1  0.53049000  0.27317000  0.63793000  1.0
  C  C85  1  0.96950000  0.77317000  0.86206000  1.0
  C  C86  1  0.46949000  0.72683000  0.36206000  1.0
  C  C87  1  0.03050000  0.22683000  0.13794000  1.0
  C  C88  1  0.54571000  0.36276000  0.60629000  1.0
  C  C89  1  0.95429000  0.86277000  0.89370000  1.0
  C  C90  1  0.45429000  0.63724000  0.39370000  1.0
  C  C91  1  0.04570000  0.13723000  0.10630000  1.0
  C  C92  1  0.58082000  0.37156000  0.52915000  1.0
  C  C93  1  0.91918000  0.87157000  0.97085000  1.0
  C  C94  1  0.41918000  0.62843000  0.47085000  1.0
  C  C95  1  0.08081000  0.12843000  0.02915000  1.0
  I  I96  1  0.90699000  0.11852000  0.77509000  1.0
  I  I97  1  0.59301000  0.61853000  0.72491000  1.0
  I  I98  1  0.09301000  0.88148000  0.22491000  1.0
  I  I99  1  0.40699000  0.38148000  0.27509000  1.0
  I  I100  1  0.34362000  0.94845000  0.72806000  1.0
  I  I101  1  0.15639000  0.44845000  0.77194000  1.0
  I  I102  1  0.65639000  0.05156000  0.27195000  1.0
  I  I103  1  0.84361000  0.55156000  0.22805000  1.0
  I  I104  1  0.05268000  0.48784000  0.58386000  1.0
  I  I105  1  0.44732000  0.98784000  0.91614000  1.0
  I  I106  1  0.94732000  0.51215000  0.41614000  1.0
  I  I107  1  0.55268000  0.01215000  0.08386000  1.0
  N  N108  1  0.36923000  0.22049000  0.82351000  1.0
  N  N109  1  0.13078000  0.72049000  0.67649000  1.0
  N  N110  1  0.63076000  0.77952000  0.17649000  1.0
  N  N111  1  0.86923000  0.27951000  0.32351000  1.0
  N  N112  1  0.36511000  0.20670000  0.74439000  1.0
  N  N113  1  0.13489000  0.70670000  0.75560000  1.0
  N  N114  1  0.63488000  0.79331000  0.25561000  1.0
  N  N115  1  0.86511000  0.29330000  0.24440000  1.0
  N  N116  1  0.57818000  0.31054000  0.78104000  1.0
  N  N117  1  0.92183000  0.81055000  0.71896000  1.0
  N  N118  1  0.42182000  0.68946000  0.21896000  1.0
  N  N119  1  0.07818000  0.18945000  0.28104000  1.0
  N  N120  1  0.73485000  0.36586000  0.78501000  1.0
  N  N121  1  0.76516000  0.86587000  0.71498000  1.0
  N  N122  1  0.26515000  0.63414000  0.21499000  1.0
  N  N123  1  0.23485000  0.13414000  0.28502000  1.0
  N  N124  1  0.63198000  0.36524000  0.08250000  1.0
  N  N125  1  0.86802000  0.86524000  0.41749000  1.0
  N  N126  1  0.36802000  0.63476000  0.91750000  1.0
  N  N127  1  0.13198000  0.13476000  0.58251000  1.0
  N  N128  1  0.59928000  0.29744000  0.48200000  1.0
  N  N129  1  0.90071000  0.79744000  0.01800000  1.0
  N  N130  1  0.40072000  0.70256000  0.51800000  1.0
  N  N131  1  0.09928000  0.20256000  0.98200000  1.0
