# generated using pymatgen
data_AgH6C8(NO)3
_symmetry_space_group_name_H-M   'P 1'
_cell_length_a   7.19568000
_cell_length_b   9.43729000
_cell_length_c   12.87570000
_cell_angle_alpha   89.99990000
_cell_angle_beta   89.99890000
_cell_angle_gamma   89.99950000
_symmetry_Int_Tables_number   1
_chemical_formula_structural   AgH6C8(NO)3
_chemical_formula_sum   'Ag4 H24 C32 N12 O12'
_cell_volume   874.35941614
_cell_formula_units_Z   4
loop_
 _symmetry_equiv_pos_site_id
 _symmetry_equiv_pos_as_xyz
  1  'x, y, z'
loop_
 _atom_site_type_symbol
 _atom_site_label
 _atom_site_symmetry_multiplicity
 _atom_site_fract_x
 _atom_site_fract_y
 _atom_site_fract_z
 _atom_site_occupancy
  Ag  Ag0  1  0.99881000  0.94406000  0.66188000  1.0
  Ag  Ag1  1  0.50118000  0.05594000  0.16188000  1.0
  Ag  Ag2  1  0.49882000  0.55594000  0.33813000  1.0
  Ag  Ag3  1  0.00119000  0.44406000  0.83812000  1.0
  H  H4  1  0.15176000  0.68411000  0.61742000  1.0
  H  H5  1  0.34824000  0.31589000  0.11742000  1.0
  H  H6  1  0.65176000  0.81589000  0.38258000  1.0
  H  H7  1  0.84824000  0.18412000  0.88258000  1.0
  H  H8  1  0.32485000  0.15440000  0.65001000  1.0
  H  H9  1  0.17515000  0.84560000  0.15001000  1.0
  H  H10  1  0.82485000  0.34560000  0.34999000  1.0
  H  H11  1  0.67515000  0.65440000  0.84999000  1.0
  H  H12  1  0.32400000  0.46119000  0.58399000  1.0
  H  H13  1  0.17601000  0.53881000  0.08399000  1.0
  H  H14  1  0.82399000  0.03881000  0.41600000  1.0
  H  H15  1  0.67600000  0.96119000  0.91601000  1.0
  H  H16  1  0.67396000  0.15435000  0.64753000  1.0
  H  H17  1  0.82604000  0.84564000  0.14753000  1.0
  H  H18  1  0.17396000  0.34565000  0.35246000  1.0
  H  H19  1  0.32604000  0.65435000  0.85246000  1.0
  H  H20  1  0.67118000  0.46099000  0.58130000  1.0
  H  H21  1  0.82882000  0.53900000  0.08130000  1.0
  H  H22  1  0.17118000  0.03901000  0.41870000  1.0
  H  H23  1  0.32882000  0.96100000  0.91871000  1.0
  H  H24  1  0.84544000  0.68357000  0.61260000  1.0
  H  H25  1  0.65456000  0.31643000  0.11260000  1.0
  H  H26  1  0.34543000  0.81643000  0.38740000  1.0
  H  H27  1  0.15457000  0.18357000  0.88740000  1.0
  C  C28  1  0.59859000  0.81181000  0.62698000  1.0
  C  C29  1  0.90141000  0.18818000  0.12699000  1.0
  C  C30  1  0.09859000  0.68818000  0.37301000  1.0
  C  C31  1  0.40141000  0.31182000  0.87301000  1.0
  C  C32  1  0.39941000  0.81192000  0.62812000  1.0
  C  C33  1  0.10059000  0.18808000  0.12812000  1.0
  C  C34  1  0.89941000  0.68809000  0.37188000  1.0
  C  C35  1  0.60059000  0.31192000  0.87188000  1.0
  C  C36  1  0.30306000  0.68288000  0.61503000  1.0
  C  C37  1  0.19694000  0.31712000  0.11503000  1.0
  C  C38  1  0.80305000  0.81711000  0.38497000  1.0
  C  C39  1  0.69694000  0.18289000  0.88497000  1.0
  C  C40  1  0.40116000  0.05531000  0.64384000  1.0
  C  C41  1  0.09884000  0.94469000  0.14385000  1.0
  C  C42  1  0.90116000  0.44470000  0.35616000  1.0
  C  C43  1  0.59884000  0.55530000  0.85616000  1.0
  C  C44  1  0.39982000  0.55913000  0.59753000  1.0
  C  C45  1  0.10018000  0.44086000  0.09753000  1.0
  C  C46  1  0.89982000  0.94087000  0.40247000  1.0
  C  C47  1  0.60017000  0.05913000  0.90247000  1.0
  C  C48  1  0.59753000  0.05519000  0.64269000  1.0
  C  C49  1  0.90247000  0.94480000  0.14269000  1.0
  C  C50  1  0.09753000  0.44480000  0.35731000  1.0
  C  C51  1  0.40247000  0.55521000  0.85731000  1.0
  C  C52  1  0.59623000  0.55903000  0.59605000  1.0
  C  C53  1  0.90377000  0.44097000  0.09605000  1.0
  C  C54  1  0.09623000  0.94096000  0.40394000  1.0
  C  C55  1  0.40377000  0.05904000  0.90395000  1.0
  C  C56  1  0.69407000  0.68267000  0.61243000  1.0
  C  C57  1  0.80593000  0.31733000  0.11243000  1.0
  C  C58  1  0.19407000  0.81734000  0.38757000  1.0
  C  C59  1  0.30593000  0.18266000  0.88757000  1.0
  N  N60  1  0.99608000  0.29340000  0.61763000  1.0
  N  N61  1  0.50392000  0.70660000  0.11764000  1.0
  N  N62  1  0.49608000  0.20660000  0.38237000  1.0
  N  N63  1  0.00391000  0.79340000  0.88237000  1.0
  N  N64  1  0.30334000  0.93670000  0.63917000  1.0
  N  N65  1  0.19666000  0.06330000  0.13918000  1.0
  N  N66  1  0.80334000  0.56329000  0.36083000  1.0
  N  N67  1  0.69667000  0.43671000  0.86083000  1.0
  N  N68  1  0.69517000  0.93657000  0.63707000  1.0
  N  N69  1  0.80483000  0.06343000  0.13707000  1.0
  N  N70  1  0.19517000  0.56344000  0.36293000  1.0
  N  N71  1  0.30483000  0.43656000  0.86293000  1.0
  O  O72  1  0.00518000  0.21733000  0.70037000  1.0
  O  O73  1  0.49482000  0.78267000  0.20037000  1.0
  O  O74  1  0.50518000  0.28267000  0.29963000  1.0
  O  O75  1  0.99482000  0.71733000  0.79963000  1.0
  O  O76  1  0.98572000  0.23444000  0.53019000  1.0
  O  O77  1  0.51427000  0.76556000  0.03019000  1.0
  O  O78  1  0.48572000  0.26556000  0.46981000  1.0
  O  O79  1  0.01427000  0.73444000  0.96981000  1.0
  O  O80  1  0.99731000  0.42729000  0.62650000  1.0
  O  O81  1  0.50269000  0.57272000  0.12650000  1.0
  O  O82  1  0.49731000  0.07271000  0.37351000  1.0
  O  O83  1  0.00269000  0.92729000  0.87350000  1.0
