# generated using pymatgen
data_Cu3H22C16S2I3N2
_symmetry_space_group_name_H-M   'P 1'
_cell_length_a   8.76924000
_cell_length_b   9.77722000
_cell_length_c   13.82630000
_cell_angle_alpha   95.67920000
_cell_angle_beta   89.99970000
_cell_angle_gamma   90.00000000
_symmetry_Int_Tables_number   1
_chemical_formula_structural   Cu3H22C16S2I3N2
_chemical_formula_sum   'Cu6 H44 C32 S4 I6 N4'
_cell_volume   1179.63150346
_cell_formula_units_Z   2
loop_
 _symmetry_equiv_pos_site_id
 _symmetry_equiv_pos_as_xyz
  1  'x, y, z'
loop_
 _atom_site_type_symbol
 _atom_site_label
 _atom_site_symmetry_multiplicity
 _atom_site_fract_x
 _atom_site_fract_y
 _atom_site_fract_z
 _atom_site_occupancy
  Cu  Cu0  1  0.21778000  0.43417000  0.20372000  1.0
  Cu  Cu1  1  0.21779000  0.06583000  0.29628000  1.0
  Cu  Cu2  1  0.78222000  0.56583000  0.79628000  1.0
  Cu  Cu3  1  0.78221000  0.93417000  0.70372000  1.0
  Cu  Cu4  1  0.21823000  0.75000000  0.25000000  1.0
  Cu  Cu5  1  0.78176000  0.25000000  0.75000000  1.0
  H  H6  1  0.43888000  0.15136000  0.63496000  1.0
  H  H7  1  0.43889000  0.34865000  0.86504000  1.0
  H  H8  1  0.56112000  0.84864000  0.36504000  1.0
  H  H9  1  0.56112000  0.65136000  0.13496000  1.0
  H  H10  1  0.32936000  0.93853000  0.69287000  1.0
  H  H11  1  0.32936000  0.56146000  0.80713000  1.0
  H  H12  1  0.67064000  0.06146000  0.30713000  1.0
  H  H13  1  0.67064000  0.43853000  0.19287000  1.0
  H  H14  1  0.16440000  0.78584000  0.58154000  1.0
  H  H15  1  0.16439000  0.71415000  0.91845000  1.0
  H  H16  1  0.83561000  0.21416000  0.41845000  1.0
  H  H17  1  0.83560000  0.28584000  0.08154000  1.0
  H  H18  1  0.44490000  0.21455000  0.38081000  1.0
  H  H19  1  0.44490000  0.28545000  0.11919000  1.0
  H  H20  1  0.55510000  0.78545000  0.61919000  1.0
  H  H21  1  0.55511000  0.71455000  0.88081000  1.0
  H  H22  1  0.48054000  0.29387000  0.50072000  1.0
  H  H23  1  0.48054000  0.20614000  0.99928000  1.0
  H  H24  1  0.51947000  0.70613000  0.49928000  1.0
  H  H25  1  0.51947000  0.79387000  0.00072000  1.0
  H  H26  1  0.30186000  0.31435000  0.44265000  1.0
  H  H27  1  0.30186000  0.18565000  0.05735000  1.0
  H  H28  1  0.69815000  0.68565000  0.55735000  1.0
  H  H29  1  0.69815000  0.81435000  0.94265000  1.0
  H  H30  1  0.09765000  0.61750000  0.44685000  1.0
  H  H31  1  0.09765000  0.88251000  0.05315000  1.0
  H  H32  1  0.90235000  0.38250000  0.55315000  1.0
  H  H33  1  0.90235000  0.11749000  0.94685000  1.0
  H  H34  1  0.95051000  0.72158000  0.50734000  1.0
  H  H35  1  0.95052000  0.77843000  0.99266000  1.0
  H  H36  1  0.04948000  0.27843000  0.49266000  1.0
  H  H37  1  0.04948000  0.22157000  0.00734000  1.0
  H  H38  1  0.92882000  0.56445000  0.30180000  1.0
  H  H39  1  0.92882000  0.93555000  0.19820000  1.0
  H  H40  1  0.07118000  0.43555000  0.69820000  1.0
  H  H41  1  0.07118000  0.06445000  0.80180000  1.0
  H  H42  1  0.78308000  0.67316000  0.35647000  1.0
  H  H43  1  0.78309000  0.82684000  0.14353000  1.0
  H  H44  1  0.21691000  0.32684000  0.64353000  1.0
  H  H45  1  0.21692000  0.17316000  0.85647000  1.0
  H  H46  1  0.83406000  0.51975000  0.40731000  1.0
  H  H47  1  0.83406000  0.98026000  0.09269000  1.0
  H  H48  1  0.16594000  0.48025000  0.59269000  1.0
  H  H49  1  0.16594000  0.01975000  0.90731000  1.0
  C  C50  1  0.18424000  0.91801000  0.46511000  1.0
  C  C51  1  0.18424000  0.58199000  0.03488000  1.0
  C  C52  1  0.81576000  0.08199000  0.53488000  1.0
  C  C53  1  0.81576000  0.41801000  0.96511000  1.0
  C  C54  1  0.33458000  0.11584000  0.49344000  1.0
  C  C55  1  0.33458000  0.38416000  0.00657000  1.0
  C  C56  1  0.66543000  0.88416000  0.50656000  1.0
  C  C57  1  0.66542000  0.61584000  0.99344000  1.0
  C  C58  1  0.36591000  0.08381000  0.58762000  1.0
  C  C59  1  0.36591000  0.41620000  0.91238000  1.0
  C  C60  1  0.63409000  0.91619000  0.41238000  1.0
  C  C61  1  0.63409000  0.58381000  0.08762000  1.0
  C  C62  1  0.30494000  0.96453000  0.61953000  1.0
  C  C63  1  0.30494000  0.53547000  0.88046000  1.0
  C  C64  1  0.69506000  0.03546000  0.38046000  1.0
  C  C65  1  0.69506000  0.46453000  0.11954000  1.0
  C  C66  1  0.21346000  0.87874000  0.55748000  1.0
  C  C67  1  0.21346000  0.62126000  0.94252000  1.0
  C  C68  1  0.78655000  0.12126000  0.44252000  1.0
  C  C69  1  0.78654000  0.37873000  0.05748000  1.0
  C  C70  1  0.39449000  0.24129000  0.45308000  1.0
  C  C71  1  0.39449000  0.25871000  0.04693000  1.0
  C  C72  1  0.60551000  0.75871000  0.54692000  1.0
  C  C73  1  0.60551000  0.74129000  0.95308000  1.0
  C  C74  1  0.99794000  0.68262000  0.43633000  1.0
  C  C75  1  0.99794000  0.81739000  0.06367000  1.0
  C  C76  1  0.00206000  0.31739000  0.56367000  1.0
  C  C77  1  0.00206000  0.18261000  0.93633000  1.0
  C  C78  1  0.87912000  0.60644000  0.37133000  1.0
  C  C79  1  0.87913000  0.89356000  0.12867000  1.0
  C  C80  1  0.12087000  0.39356000  0.62867000  1.0
  C  C81  1  0.12087000  0.10644000  0.87133000  1.0
  S  S82  1  0.06317000  0.83104000  0.37762000  1.0
  S  S83  1  0.06317000  0.66897000  0.12239000  1.0
  S  S84  1  0.93683000  0.16897000  0.62239000  1.0
  S  S85  1  0.93683000  0.33103000  0.87761000  1.0
  I  I86  1  0.38882000  0.56539000  0.32609000  1.0
  I  I87  1  0.38883000  0.93461000  0.17392000  1.0
  I  I88  1  0.61117000  0.43461000  0.67392000  1.0
  I  I89  1  0.61117000  0.06539000  0.82608000  1.0
  I  I90  1  0.03644000  0.25000000  0.25000000  1.0
  I  I91  1  0.96356000  0.75001000  0.75000000  1.0
  N  N92  1  0.24447000  0.03284000  0.43335000  1.0
  N  N93  1  0.24447000  0.46716000  0.06665000  1.0
  N  N94  1  0.75553000  0.96716000  0.56665000  1.0
  N  N95  1  0.75553000  0.53284000  0.93335000  1.0
