# generated using pymatgen
data_CuH4C2SCl
_symmetry_space_group_name_H-M   'P 1'
_cell_length_a   6.64702000
_cell_length_b   10.40040000
_cell_length_c   11.92650000
_cell_angle_alpha   90.00000000
_cell_angle_beta   97.48580000
_cell_angle_gamma   89.99980000
_symmetry_Int_Tables_number   1
_chemical_formula_structural   CuH4C2SCl
_chemical_formula_sum   'Cu8 H32 C16 S8 Cl8'
_cell_volume   817.47176920
_cell_formula_units_Z   8
loop_
 _symmetry_equiv_pos_site_id
 _symmetry_equiv_pos_as_xyz
  1  'x, y, z'
loop_
 _atom_site_type_symbol
 _atom_site_label
 _atom_site_symmetry_multiplicity
 _atom_site_fract_x
 _atom_site_fract_y
 _atom_site_fract_z
 _atom_site_occupancy
  Cu  Cu0  1  0.03505000  0.44946000  0.39811000  1.0
  Cu  Cu1  1  0.46495000  0.94946000  0.60189000  1.0
  Cu  Cu2  1  0.96495000  0.55054000  0.60189000  1.0
  Cu  Cu3  1  0.53505000  0.05054000  0.39811000  1.0
  Cu  Cu4  1  0.74176000  0.24569000  0.17670000  1.0
  Cu  Cu5  1  0.75824000  0.74569000  0.82330000  1.0
  Cu  Cu6  1  0.25824000  0.75431000  0.82330000  1.0
  Cu  Cu7  1  0.24176000  0.25431000  0.17670000  1.0
  H  H8  1  0.70279000  0.65083000  0.24891000  1.0
  H  H9  1  0.79720000  0.15083000  0.75109000  1.0
  H  H10  1  0.29721000  0.34917000  0.75109000  1.0
  H  H11  1  0.20280000  0.84917000  0.24891000  1.0
  H  H12  1  0.78098000  0.56799000  0.13026000  1.0
  H  H13  1  0.71903000  0.06799000  0.86974000  1.0
  H  H14  1  0.21902000  0.43201000  0.86974000  1.0
  H  H15  1  0.28098000  0.93201000  0.13026000  1.0
  H  H16  1  0.43352000  0.64871000  0.07750000  1.0
  H  H17  1  0.06648000  0.14871000  0.92250000  1.0
  H  H18  1  0.56648000  0.35129000  0.92250000  1.0
  H  H19  1  0.93352000  0.85129000  0.07750000  1.0
  H  H20  1  0.43077000  0.47879000  0.07990000  1.0
  H  H21  1  0.06923000  0.97879000  0.92010000  1.0
  H  H22  1  0.56923000  0.52121000  0.92010000  1.0
  H  H23  1  0.93078000  0.02121000  0.07990000  1.0
  H  H24  1  0.56201000  0.52917000  0.41611000  1.0
  H  H25  1  0.93798000  0.02917000  0.58389000  1.0
  H  H26  1  0.43799000  0.47083000  0.58389000  1.0
  H  H27  1  0.06202000  0.97083000  0.41611000  1.0
  H  H28  1  0.57090000  0.35603000  0.43219000  1.0
  H  H29  1  0.92910000  0.85603000  0.56781000  1.0
  H  H30  1  0.42910000  0.64396000  0.56780000  1.0
  H  H31  1  0.07090000  0.14397000  0.43220000  1.0
  H  H32  1  0.14189000  0.57337000  0.16392000  1.0
  H  H33  1  0.35811000  0.07337000  0.83608000  1.0
  H  H34  1  0.85811000  0.42663000  0.83608000  1.0
  H  H35  1  0.64190000  0.92663000  0.16392000  1.0
  H  H36  1  0.31226000  0.64876000  0.27326000  1.0
  H  H37  1  0.18773000  0.14876000  0.72674000  1.0
  H  H38  1  0.68773000  0.35125000  0.72674000  1.0
  H  H39  1  0.81227000  0.85124000  0.27326000  1.0
  C  C40  1  0.67243000  0.56767000  0.19230000  1.0
  C  C41  1  0.82757000  0.06767000  0.80770000  1.0
  C  C42  1  0.32757000  0.43233000  0.80770000  1.0
  C  C43  1  0.17243000  0.93234000  0.19230000  1.0
  C  C44  1  0.45501000  0.56461000  0.13385000  1.0
  C  C45  1  0.04499000  0.06461000  0.86615000  1.0
  C  C46  1  0.54499000  0.43539000  0.86615000  1.0
  C  C47  1  0.95501000  0.93539000  0.13385000  1.0
  C  C48  1  0.54625000  0.43625000  0.37199000  1.0
  C  C49  1  0.95375000  0.93625000  0.62801000  1.0
  C  C50  1  0.45375000  0.56375000  0.62801000  1.0
  C  C51  1  0.04625000  0.06375000  0.37199000  1.0
  C  C52  1  0.29343000  0.56851000  0.21268000  1.0
  C  C53  1  0.20656000  0.06851000  0.78732000  1.0
  C  C54  1  0.70656000  0.43149000  0.78732000  1.0
  C  C55  1  0.79344000  0.93149000  0.21268000  1.0
  S  S56  1  0.29093000  0.42252000  0.29692000  1.0
  S  S57  1  0.20907000  0.92252000  0.70308000  1.0
  S  S58  1  0.70907000  0.57748000  0.70308000  1.0
  S  S59  1  0.79093000  0.07748000  0.29692000  1.0
  S  S60  1  0.73970000  0.42608000  0.27924000  1.0
  S  S61  1  0.76029000  0.92608000  0.72076000  1.0
  S  S62  1  0.26030000  0.57392000  0.72076000  1.0
  S  S63  1  0.23970000  0.07392000  0.27924000  1.0
  Cl  Cl64  1  0.46527000  0.17579000  0.05475000  1.0
  Cl  Cl65  1  0.03473000  0.67579000  0.94525000  1.0
  Cl  Cl66  1  0.53473000  0.82421000  0.94525000  1.0
  Cl  Cl67  1  0.96526000  0.32421000  0.05475000  1.0
  Cl  Cl68  1  0.98441000  0.32746000  0.55284000  1.0
  Cl  Cl69  1  0.51558000  0.82746000  0.44716000  1.0
  Cl  Cl70  1  0.01558000  0.67253000  0.44716000  1.0
  Cl  Cl71  1  0.48442000  0.17254000  0.55284000  1.0
