# generated using pymatgen
data_CuH9C11N3O4
_symmetry_space_group_name_H-M   'P 1'
_cell_length_a   10.04560000
_cell_length_b   10.60100000
_cell_length_c   13.28931076
_cell_angle_alpha   89.70569405
_cell_angle_beta   67.78960589
_cell_angle_gamma   90.00130000
_symmetry_Int_Tables_number   1
_chemical_formula_structural   CuH9C11N3O4
_chemical_formula_sum   'Cu4 H36 C44 N12 O16'
_cell_volume   1310.19697452
_cell_formula_units_Z   4
loop_
 _symmetry_equiv_pos_site_id
 _symmetry_equiv_pos_as_xyz
  1  'x, y, z'
loop_
 _atom_site_type_symbol
 _atom_site_label
 _atom_site_symmetry_multiplicity
 _atom_site_fract_x
 _atom_site_fract_y
 _atom_site_fract_z
 _atom_site_occupancy
  Cu  Cu0  1  0.15741000  0.76330000  0.60824000  1.0
  Cu  Cu1  1  0.76569000  0.73680000  0.39161000  1.0
  Cu  Cu2  1  0.23430000  0.26319000  0.60839000  1.0
  Cu  Cu3  1  0.84259000  0.23670000  0.39176000  1.0
  H  H4  1  0.38699000  0.60502000  0.02037000  1.0
  H  H5  1  0.77692000  0.02720000  0.53445000  1.0
  H  H6  1  0.79333000  0.77429000  0.80175000  1.0
  H  H7  1  0.78932000  0.16306000  0.85272000  1.0
  H  H8  1  0.99886000  0.80746000  0.47265000  1.0
  H  H9  1  0.68445000  0.96066000  0.29003000  1.0
  H  H10  1  0.34674000  0.01018000  0.08591000  1.0
  H  H11  1  0.64163000  0.33705000  0.14717000  1.0
  H  H12  1  0.47155000  0.69264000  0.52712000  1.0
  H  H13  1  0.77902000  0.94670000  0.68152000  1.0
  H  H14  1  0.92222000  0.33482000  0.73563000  1.0
  H  H15  1  0.53978000  0.44660000  0.68142000  1.0
  H  H16  1  0.22097000  0.05330000  0.31849000  1.0
  H  H17  1  0.52846000  0.30736000  0.47287000  1.0
  H  H18  1  0.65326000  0.98982000  0.91409000  1.0
  H  H19  1  0.65764000  0.16534000  0.26422000  1.0
  H  H20  1  0.59266000  0.10494000  0.02048000  1.0
  H  H21  1  0.02496000  0.46067000  0.29043000  1.0
  H  H22  1  0.40734000  0.89507000  0.97952000  1.0
  H  H23  1  0.31143000  0.47252000  0.46546000  1.0
  H  H24  1  0.22308000  0.97280000  0.46555000  1.0
  H  H25  1  0.68856000  0.52748000  0.53454000  1.0
  H  H26  1  0.43285000  0.48990000  0.91397000  1.0
  H  H27  1  0.20667000  0.22571000  0.19825000  1.0
  H  H28  1  0.59466000  0.72571000  0.19821000  1.0
  H  H29  1  0.07778000  0.66518000  0.26437000  1.0
  H  H30  1  0.40534000  0.27428000  0.80179000  1.0
  H  H31  1  0.61300000  0.39498000  0.97963000  1.0
  H  H32  1  0.97504000  0.53933000  0.70957000  1.0
  H  H33  1  0.31554000  0.03934000  0.70997000  1.0
  H  H34  1  0.00114000  0.19254000  0.52735000  1.0
  H  H35  1  0.46022000  0.55340000  0.31858000  1.0
  H  H36  1  0.21068000  0.83694000  0.14729000  1.0
  H  H37  1  0.56715000  0.51010000  0.08603000  1.0
  H  H38  1  0.34236000  0.83467000  0.73578000  1.0
  H  H39  1  0.35836000  0.66295000  0.85283000  1.0
  C  C40  1  0.30408000  0.21219000  0.21475000  1.0
  C  C41  1  0.45078000  0.72487000  0.81647000  1.0
  C  C42  1  0.06594000  0.42760000  0.35101000  1.0
  C  C43  1  0.22458000  0.43250000  0.44553000  1.0
  C  C44  1  0.45195000  0.98654000  0.36600000  1.0
  C  C45  1  0.80889000  0.32340000  0.74918000  1.0
  C  C46  1  0.51930000  0.28778000  0.78518000  1.0
  C  C47  1  0.59618000  0.38426000  0.71749000  1.0
  C  C48  1  0.58686000  0.20817000  0.83614000  1.0
  C  C49  1  0.55870000  0.90526000  0.69965000  1.0
  C  C50  1  0.19112000  0.67660000  0.25082000  1.0
  C  C51  1  0.32984000  0.93274000  0.44553000  1.0
  C  C52  1  0.18185000  0.48638000  0.36610000  1.0
  C  C53  1  0.26682000  0.77508000  0.18360000  1.0
  C  C54  1  0.44221000  0.82331000  0.74926000  1.0
  C  C55  1  0.41703000  0.07229000  0.64923000  1.0
  C  C56  1  0.25802000  0.59468000  0.30046000  1.0
  C  C57  1  0.52661000  0.45577000  0.03322000  1.0
  C  C58  1  0.53302000  0.22230000  0.51791000  1.0
  C  C59  1  0.05076000  0.27754000  0.48226000  1.0
  C  C60  1  0.54805000  0.01346000  0.63400000  1.0
  C  C61  1  0.55992000  0.04421000  0.96682000  1.0
  C  C62  1  0.58296000  0.92771000  0.35077000  1.0
  C  C63  1  0.68660000  0.88431000  0.71760000  1.0
  C  C64  1  0.73319000  0.22492000  0.81640000  1.0
  C  C65  1  0.42262000  0.29183000  0.16379000  1.0
  C  C66  1  0.74199000  0.40532000  0.69954000  1.0
  C  C67  1  0.47339000  0.54423000  0.96678000  1.0
  C  C68  1  0.44008000  0.95580000  0.03318000  1.0
  C  C69  1  0.40382000  0.61574000  0.28251000  1.0
  C  C70  1  0.67016000  0.06727000  0.55447000  1.0
  C  C71  1  0.77541000  0.56750000  0.55447000  1.0
  C  C72  1  0.46698000  0.77770000  0.48209000  1.0
  C  C73  1  0.81814000  0.51361000  0.63391000  1.0
  C  C74  1  0.54921000  0.27513000  0.18354000  1.0
  C  C75  1  0.57738000  0.70817000  0.83621000  1.0
  C  C76  1  0.44129000  0.09474000  0.30035000  1.0
  C  C77  1  0.94922000  0.72246000  0.51775000  1.0
  C  C78  1  0.69591000  0.78781000  0.78525000  1.0
  C  C79  1  0.31340000  0.11569000  0.28240000  1.0
  C  C80  1  0.41314000  0.79183000  0.16386000  1.0
  C  C81  1  0.93406000  0.57240000  0.64899000  1.0
  C  C82  1  0.48070000  0.71222000  0.21482000  1.0
  C  C83  1  0.55779000  0.17669000  0.25074000  1.0
  N  N84  1  0.16033000  0.32848000  0.50258000  1.0
  N  N85  1  0.24791000  0.51498000  0.68673000  1.0
  N  N86  1  0.33711000  0.82869000  0.50251000  1.0
  N  N87  1  0.59028000  0.82490000  0.40901000  1.0
  N  N88  1  0.93476000  0.98509000  0.31330000  1.0
  N  N89  1  0.99955000  0.67521000  0.59075000  1.0
  N  N90  1  0.40971000  0.17510000  0.59099000  1.0
  N  N91  1  0.83967000  0.67153000  0.49742000  1.0
  N  N92  1  0.06524000  0.01491000  0.68671000  1.0
  N  N93  1  0.66290000  0.17131000  0.49748000  1.0
  N  N94  1  0.75210000  0.48501000  0.31326000  1.0
  N  N95  1  0.00045000  0.32479000  0.40925000  1.0
  O  O96  1  0.01321000  0.00767000  0.61389000  1.0
  O  O97  1  0.89462000  0.08588000  0.27820000  1.0
  O  O98  1  0.49890000  0.88132000  0.09662000  1.0
  O  O99  1  0.19266000  0.62059000  0.72503000  1.0
  O  O100  1  0.82754000  0.58572000  0.27819000  1.0
  O  O101  1  0.91774000  0.87954000  0.27496000  1.0
  O  O102  1  0.10538000  0.91412000  0.72181000  1.0
  O  O103  1  0.08226000  0.12046000  0.72505000  1.0
  O  O104  1  0.40419000  0.38136000  0.09655000  1.0
  O  O105  1  0.59581000  0.61864000  0.90345000  1.0
  O  O106  1  0.62720000  0.49240000  0.38601000  1.0
  O  O107  1  0.37281000  0.50759000  0.61398000  1.0
  O  O108  1  0.17248000  0.41428000  0.72180000  1.0
  O  O109  1  0.98680000  0.99233000  0.38611000  1.0
  O  O110  1  0.50110000  0.11868000  0.90338000  1.0
  O  O111  1  0.80734000  0.37940000  0.27497000  1.0
