# generated using pymatgen
data_MnH14C21N4O5
_symmetry_space_group_name_H-M   'P 1'
_cell_length_a   13.72410000
_cell_length_b   13.72420000
_cell_length_c   16.67800000
_cell_angle_alpha   91.95510000
_cell_angle_beta   91.95410000
_cell_angle_gamma   119.47700000
_symmetry_Int_Tables_number   1
_chemical_formula_structural   MnH14C21N4O5
_chemical_formula_sum   'Mn4 H56 C84 N16 O20'
_cell_volume   2728.43288447
_cell_formula_units_Z   4
loop_
 _symmetry_equiv_pos_site_id
 _symmetry_equiv_pos_as_xyz
  1  'x, y, z'
loop_
 _atom_site_type_symbol
 _atom_site_label
 _atom_site_symmetry_multiplicity
 _atom_site_fract_x
 _atom_site_fract_y
 _atom_site_fract_z
 _atom_site_occupancy
  Mn  Mn0  1  0.98088000  0.31921000  0.03629000  1.0
  Mn  Mn1  1  0.68079000  0.01910000  0.46372000  1.0
  Mn  Mn2  1  0.01911000  0.68080000  0.96371000  1.0
  Mn  Mn3  1  0.31921000  0.98089000  0.53629000  1.0
  H  H4  1  0.04022000  0.83396000  0.14065000  1.0
  H  H5  1  0.16606000  0.95978000  0.35935000  1.0
  H  H6  1  0.95979000  0.16605000  0.85934000  1.0
  H  H7  1  0.83395000  0.04023000  0.64066000  1.0
  H  H8  1  0.75238000  0.23178000  0.12352000  1.0
  H  H9  1  0.76821000  0.24760000  0.37649000  1.0
  H  H10  1  0.24762000  0.76822000  0.87648000  1.0
  H  H11  1  0.23178000  0.75238000  0.62352000  1.0
  H  H12  1  0.62637000  0.06846000  0.20317000  1.0
  H  H13  1  0.93154000  0.37363000  0.29685000  1.0
  H  H14  1  0.37364000  0.93154000  0.79684000  1.0
  H  H15  1  0.06845000  0.62635000  0.70316000  1.0
  H  H16  1  0.68224000  0.92282000  0.23140000  1.0
  H  H17  1  0.07718000  0.31776000  0.26860000  1.0
  H  H18  1  0.31776000  0.07717000  0.76860000  1.0
  H  H19  1  0.92280000  0.68223000  0.73140000  1.0
  H  H20  1  0.87467000  0.70574000  0.22383000  1.0
  H  H21  1  0.29427000  0.12534000  0.27617000  1.0
  H  H22  1  0.12535000  0.29429000  0.77616000  1.0
  H  H23  1  0.70573000  0.87466000  0.72383000  1.0
  H  H24  1  0.17408000  0.00387000  0.07413000  1.0
  H  H25  1  0.99614000  0.82592000  0.42586000  1.0
  H  H26  1  0.82593000  0.99614000  0.92586000  1.0
  H  H27  1  0.00388000  0.17408000  0.57415000  1.0
  H  H28  1  0.28030000  0.17912000  0.00019000  1.0
  H  H29  1  0.82090000  0.71969000  0.49981000  1.0
  H  H30  1  0.71969000  0.82090000  0.99981000  1.0
  H  H31  1  0.17911000  0.28030000  0.50019000  1.0
  H  H32  1  0.20046000  0.30800000  0.98529000  1.0
  H  H33  1  0.69204000  0.79954000  0.51472000  1.0
  H  H34  1  0.79954000  0.69202000  0.01471000  1.0
  H  H35  1  0.30797000  0.20045000  0.48529000  1.0
  H  H36  1  0.66781000  0.30442000  0.88043000  1.0
  H  H37  1  0.69557000  0.33219000  0.61956000  1.0
  H  H38  1  0.33218000  0.69557000  0.11957000  1.0
  H  H39  1  0.30441000  0.66779000  0.38042000  1.0
  H  H40  1  0.51810000  0.22676000  0.76781000  1.0
  H  H41  1  0.77324000  0.48189000  0.73218000  1.0
  H  H42  1  0.48190000  0.77323000  0.23219000  1.0
  H  H43  1  0.22675000  0.51809000  0.26780000  1.0
  H  H44  1  0.60477000  0.97381000  0.70705000  1.0
  H  H45  1  0.02619000  0.39524000  0.79294000  1.0
  H  H46  1  0.39525000  0.02620000  0.29295000  1.0
  H  H47  1  0.97380000  0.60477000  0.20705000  1.0
  H  H48  1  0.75821000  0.05477000  0.81629000  1.0
  H  H49  1  0.94524000  0.24180000  0.68370000  1.0
  H  H50  1  0.24181000  0.94524000  0.18370000  1.0
  H  H51  1  0.05478000  0.75820000  0.31630000  1.0
  H  H52  1  0.07915000  0.48473000  0.92777000  1.0
  H  H53  1  0.51525000  0.92082000  0.57223000  1.0
  H  H54  1  0.92083000  0.51528000  0.07223000  1.0
  H  H55  1  0.48474000  0.07917000  0.42777000  1.0
  H  H56  1  0.15490000  0.51563000  0.00616000  1.0
  H  H57  1  0.48434000  0.84509000  0.49383000  1.0
  H  H58  1  0.84508000  0.48438000  0.99384000  1.0
  H  H59  1  0.51564000  0.15490000  0.50617000  1.0
  C  C60  1  0.77254000  0.16607000  0.13640000  1.0
  C  C61  1  0.83393000  0.22745000  0.36360000  1.0
  C  C62  1  0.22745000  0.83393000  0.86360000  1.0
  C  C63  1  0.16607000  0.77254000  0.63641000  1.0
  C  C64  1  0.70268000  0.07463000  0.18078000  1.0
  C  C65  1  0.92538000  0.29731000  0.31923000  1.0
  C  C66  1  0.29731000  0.92536000  0.81922000  1.0
  C  C67  1  0.07461000  0.70268000  0.68078000  1.0
  C  C68  1  0.73277000  0.99406000  0.19587000  1.0
  C  C69  1  0.00594000  0.26722000  0.30414000  1.0
  C  C70  1  0.26724000  0.00594000  0.80413000  1.0
  C  C71  1  0.99405000  0.73276000  0.69586000  1.0
  C  C72  1  0.83245000  0.00576000  0.16586000  1.0
  C  C73  1  0.99424000  0.16753000  0.33415000  1.0
  C  C74  1  0.16757000  0.99425000  0.83414000  1.0
  C  C75  1  0.00576000  0.83246000  0.66586000  1.0
  C  C76  1  0.89882000  0.10108000  0.12173000  1.0
  C  C77  1  0.89892000  0.10117000  0.37828000  1.0
  C  C78  1  0.10121000  0.89894000  0.87825000  1.0
  C  C79  1  0.10109000  0.89883000  0.62173000  1.0
  C  C80  1  0.87158000  0.92760000  0.17631000  1.0
  C  C81  1  0.07241000  0.12843000  0.32368000  1.0
  C  C82  1  0.12842000  0.07240000  0.82368000  1.0
  C  C83  1  0.92759000  0.87157000  0.67633000  1.0
  C  C84  1  0.97246000  0.94591000  0.14494000  1.0
  C  C85  1  0.05410000  0.02754000  0.35506000  1.0
  C  C86  1  0.02755000  0.05410000  0.85505000  1.0
  C  C87  1  0.94590000  0.97246000  0.64495000  1.0
  C  C88  1  0.88908000  0.78577000  0.20334000  1.0
  C  C89  1  0.21424000  0.11092000  0.29666000  1.0
  C  C90  1  0.11094000  0.21425000  0.79665000  1.0
  C  C91  1  0.78576000  0.88908000  0.70335000  1.0
  C  C92  1  0.04227000  0.04134000  0.10159000  1.0
  C  C93  1  0.95867000  0.95772000  0.39841000  1.0
  C  C94  1  0.95774000  0.95867000  0.89840000  1.0
  C  C95  1  0.04134000  0.04228000  0.60160000  1.0
  C  C96  1  0.14384000  0.06357000  0.06836000  1.0
  C  C97  1  0.93644000  0.85614000  0.43165000  1.0
  C  C98  1  0.85618000  0.93646000  0.93163000  1.0
  C  C99  1  0.06358000  0.14386000  0.56836000  1.0
  C  C100  1  0.20197000  0.15970000  0.02703000  1.0
  C  C101  1  0.84032000  0.79802000  0.47297000  1.0
  C  C102  1  0.79804000  0.84033000  0.97296000  1.0
  C  C103  1  0.15970000  0.20197000  0.52704000  1.0
  C  C104  1  0.15775000  0.23205000  0.01827000  1.0
  C  C105  1  0.76797000  0.84225000  0.48174000  1.0
  C  C106  1  0.84225000  0.76796000  0.98172000  1.0
  C  C107  1  0.23204000  0.15774000  0.51827000  1.0
  C  C108  1  0.00337000  0.11910000  0.08986000  1.0
  C  C109  1  0.88091000  0.99661000  0.41014000  1.0
  C  C110  1  0.99662000  0.88091000  0.91013000  1.0
  C  C111  1  0.11910000  0.00339000  0.58987000  1.0
  C  C112  1  0.81724000  0.23727000  0.91713000  1.0
  C  C113  1  0.76272000  0.18275000  0.58286000  1.0
  C  C114  1  0.18277000  0.76274000  0.08287000  1.0
  C  C115  1  0.23727000  0.81722000  0.41713000  1.0
  C  C116  1  0.72205000  0.18464000  0.85493000  1.0
  C  C117  1  0.81536000  0.27796000  0.64508000  1.0
  C  C118  1  0.27795000  0.81535000  0.14507000  1.0
  C  C119  1  0.18465000  0.72204000  0.35492000  1.0
  C  C120  1  0.65269000  0.23157000  0.84250000  1.0
  C  C121  1  0.76843000  0.34733000  0.65750000  1.0
  C  C122  1  0.34729000  0.76841000  0.15749000  1.0
  C  C123  1  0.23157000  0.65268000  0.34250000  1.0
  C  C124  1  0.56967000  0.18836000  0.78050000  1.0
  C  C125  1  0.81165000  0.43035000  0.71951000  1.0
  C  C126  1  0.43032000  0.81162000  0.21948000  1.0
  C  C127  1  0.18834000  0.56965000  0.28050000  1.0
  C  C128  1  0.55326000  0.09621000  0.73112000  1.0
  C  C129  1  0.90379000  0.44675000  0.76889000  1.0
  C  C130  1  0.44674000  0.90378000  0.26887000  1.0
  C  C131  1  0.09620000  0.55326000  0.23112000  1.0
  C  C132  1  0.61933000  0.04605000  0.74561000  1.0
  C  C133  1  0.95396000  0.38070000  0.75440000  1.0
  C  C134  1  0.38067000  0.95395000  0.25437000  1.0
  C  C135  1  0.04604000  0.61933000  0.24562000  1.0
  C  C136  1  0.70393000  0.09083000  0.80652000  1.0
  C  C137  1  0.90919000  0.29610000  0.69349000  1.0
  C  C138  1  0.29607000  0.90916000  0.19346000  1.0
  C  C139  1  0.09083000  0.70392000  0.30653000  1.0
  C  C140  1  0.46845000  0.05558000  0.66185000  1.0
  C  C141  1  0.94440000  0.53154000  0.83815000  1.0
  C  C142  1  0.53157000  0.94442000  0.33815000  1.0
  C  C143  1  0.05556000  0.46844000  0.16184000  1.0
  N  N144  1  0.86751000  0.17896000  0.10800000  1.0
  N  N145  1  0.82104000  0.13247000  0.39200000  1.0
  N  N146  1  0.13248000  0.82107000  0.89199000  1.0
  N  N147  1  0.17896000  0.86752000  0.60801000  1.0
  N  N148  1  0.06112000  0.21175000  0.04802000  1.0
  N  N149  1  0.78827000  0.93887000  0.45200000  1.0
  N  N150  1  0.93888000  0.78827000  0.95198000  1.0
  N  N151  1  0.21174000  0.06112000  0.54802000  1.0
  N  N152  1  0.82055000  0.82711000  0.21287000  1.0
  N  N153  1  0.17290000  0.17946000  0.28713000  1.0
  N  N154  1  0.17946000  0.17288000  0.78713000  1.0
  N  N155  1  0.82710000  0.82054000  0.71288000  1.0
  N  N156  1  0.98229000  0.85428000  0.16358000  1.0
  N  N157  1  0.14573000  0.01770000  0.33642000  1.0
  N  N158  1  0.01772000  0.14574000  0.83641000  1.0
  N  N159  1  0.85428000  0.98230000  0.66359000  1.0
  O  O160  1  0.82952000  0.31738000  0.96474000  1.0
  O  O161  1  0.68261000  0.17046000  0.53525000  1.0
  O  O162  1  0.17046000  0.68262000  0.03526000  1.0
  O  O163  1  0.31738000  0.82953000  0.46475000  1.0
  O  O164  1  0.88666000  0.19991000  0.92179000  1.0
  O  O165  1  0.80009000  0.11334000  0.57821000  1.0
  O  O166  1  0.11336000  0.80010000  0.07820000  1.0
  O  O167  1  0.19994000  0.88666000  0.42180000  1.0
  O  O168  1  0.42314000  0.11313000  0.64235000  1.0
  O  O169  1  0.88686000  0.57686000  0.85763000  1.0
  O  O170  1  0.57688000  0.88686000  0.35764000  1.0
  O  O171  1  0.11313000  0.42313000  0.14236000  1.0
  O  O172  1  0.44190000  0.96205000  0.62306000  1.0
  O  O173  1  0.03792000  0.55808000  0.87694000  1.0
  O  O174  1  0.55810000  0.03796000  0.37693000  1.0
  O  O175  1  0.96203000  0.44191000  0.12307000  1.0
  O  O176  1  0.10888000  0.45165000  0.96824000  1.0
  O  O177  1  0.54832000  0.89111000  0.53174000  1.0
  O  O178  1  0.89111000  0.54835000  0.03176000  1.0
  O  O179  1  0.45167000  0.10888000  0.46825000  1.0
