# generated using pymatgen
data_Zn2H17C36S2BrN2(O2F)4
_symmetry_space_group_name_H-M   'P 1'
_cell_length_a   12.76830000
_cell_length_b   16.36030000
_cell_length_c   17.71590000
_cell_angle_alpha   95.53280000
_cell_angle_beta   90.24770000
_cell_angle_gamma   92.89960000
_symmetry_Int_Tables_number   1
_chemical_formula_structural   Zn2H17C36S2BrN2(O2F)4
_chemical_formula_sum   'Zn2 H17 C36 S2 Br1 N2 O8 F4'
_cell_volume   3678.61677603
_cell_formula_units_Z   1
loop_
 _symmetry_equiv_pos_site_id
 _symmetry_equiv_pos_as_xyz
  1  'x, y, z'
loop_
 _atom_site_type_symbol
 _atom_site_label
 _atom_site_symmetry_multiplicity
 _atom_site_fract_x
 _atom_site_fract_y
 _atom_site_fract_z
 _atom_site_occupancy
  Zn  Zn0  1  0.49710000  0.41384000  0.49827000  1.0
  Zn  Zn1  1  0.50466000  0.58546000  0.50148000  1.0
  H  H2  1  0.39595000  0.71195000  0.42677000  1.0
  H  H3  1  0.39706000  0.86445000  0.42755000  1.0
  H  H4  1  0.64098000  0.87862000  0.60096000  1.0
  H  H5  1  0.36042000  0.12132000  0.39804000  1.0
  H  H6  1  0.60168000  0.13494000  0.57340000  1.0
  H  H7  1  0.60396000  0.28738000  0.57386000  1.0
  H  H8  1  0.58598000  0.00419000  0.56164000  1.0
  H  H9  1  0.41328000  0.99555000  0.43869000  1.0
  H  H10  1  0.50606000  0.61667000  0.26288000  1.0
  H  H11  1  0.50572000  0.61176000  0.12289000  1.0
  H  H12  1  0.49157000  0.34574000  0.11163000  1.0
  H  H13  1  0.50828000  0.65455000  0.88811000  1.0
  H  H14  1  0.49397000  0.38854000  0.87709000  1.0
  H  H15  1  0.49434000  0.38349000  0.73710000  1.0
  H  H16  1  0.49477000  0.40580000  0.99698000  1.0
  H  H17  1  0.50504000  0.59454000  0.00290000  1.0
  H  H18  1  0.86474000  0.62819000  0.50303000  1.0
  C  C19  1  0.49992000  0.49527000  0.35209000  1.0
  C  C20  1  0.29599000  0.50234000  0.50030000  1.0
  C  C21  1  0.50140000  0.50453000  0.64774000  1.0
  C  C22  1  0.70568000  0.49680000  0.49982000  1.0
  C  C23  1  0.44864000  0.75233000  0.46388000  1.0
  C  C24  1  0.45005000  0.83704000  0.46507000  1.0
  C  C25  1  0.51980000  0.88615000  0.51470000  1.0
  C  C26  1  0.58511000  0.84551000  0.56100000  1.0
  C  C27  1  0.57762000  0.76013000  0.55512000  1.0
  C  C28  1  0.52790000  0.97570000  0.52044000  1.0
  C  C29  1  0.47131000  0.02400000  0.47995000  1.0
  C  C30  1  0.41603000  0.15429000  0.43828000  1.0
  C  C31  1  0.47997000  0.11355000  0.48544000  1.0
  C  C32  1  0.54948000  0.16245000  0.53540000  1.0
  C  C33  1  0.55168000  0.24715000  0.53629000  1.0
  C  C34  1  0.42490000  0.23964000  0.44338000  1.0
  C  C35  1  0.49917000  0.48657000  0.26716000  1.0
  C  C36  1  0.50275000  0.55782000  0.22826000  1.0
  C  C37  1  0.50258000  0.55457000  0.14988000  1.0
  C  C38  1  0.49854000  0.47811000  0.10529000  1.0
  C  C39  1  0.49480000  0.40644000  0.14324000  1.0
  C  C40  1  0.49524000  0.41117000  0.22192000  1.0
  C  C41  1  0.49816000  0.46933000  0.02277000  1.0
  C  C42  1  0.50163000  0.53103000  0.97708000  1.0
  C  C43  1  0.50518000  0.59382000  0.85654000  1.0
  C  C44  1  0.50131000  0.52220000  0.89457000  1.0
  C  C45  1  0.49733000  0.44569000  0.85005000  1.0
  C  C46  1  0.49754000  0.44237000  0.77168000  1.0
  C  C47  1  0.50149000  0.51357000  0.73269000  1.0
  C  C48  1  0.50515000  0.58900000  0.77784000  1.0
  C  C49  1  0.10819000  0.43214000  0.49934000  1.0
  C  C50  1  0.89096000  0.56589000  0.50151000  1.0
  C  C51  1  0.18020000  0.49871000  0.50041000  1.0
  C  C52  1  0.82144000  0.49822000  0.50002000  1.0
  C  C53  1  0.99583000  0.54194000  0.50112000  1.0
  C  C54  1  0.00346000  0.45622000  0.49955000  1.0
  S  S55  1  0.11845000  0.59154000  0.50201000  1.0
  S  S56  1  0.88230000  0.40522000  0.49835000  1.0
  Br  Br57  1  0.13750000  0.32032000  0.49775000  1.0
  N  N58  1  0.51243000  0.71366000  0.50865000  1.0
  N  N59  1  0.48937000  0.28592000  0.49060000  1.0
  O  O60  1  0.50169000  0.42996000  0.38528000  1.0
  O  O61  1  0.49899000  0.56836000  0.38467000  1.0
  O  O62  1  0.34114000  0.57362000  0.49852000  1.0
  O  O63  1  0.34053000  0.43478000  0.50207000  1.0
  O  O64  1  0.50003000  0.56975000  0.61421000  1.0
  O  O65  1  0.50250000  0.43139000  0.61554000  1.0
  O  O66  1  0.65860000  0.42623000  0.50146000  1.0
  O  O67  1  0.66325000  0.56533000  0.49801000  1.0
  F  F68  1  0.64029000  0.72074000  0.59866000  1.0
  F  F69  1  0.36505000  0.27910000  0.39814000  1.0
  F  F70  1  0.49139000  0.33838000  0.25306000  1.0
  F  F71  1  0.50922000  0.66175000  0.74659000  1.0
