# generated using pymatgen
data_Zn4H28C49N4O21
_symmetry_space_group_name_H-M   'P 1'
_cell_length_a   19.52350000
_cell_length_b   19.54860000
_cell_length_c   19.58220000
_cell_angle_alpha   90.18980000
_cell_angle_beta   95.24740000
_cell_angle_gamma   95.56160000
_symmetry_Int_Tables_number   1
_chemical_formula_structural   Zn4H28C49N4O21
_chemical_formula_sum   'Zn4 H28 C49 N4 O21'
_cell_volume   7406.77051915
_cell_formula_units_Z   1
loop_
 _symmetry_equiv_pos_site_id
 _symmetry_equiv_pos_as_xyz
  1  'x, y, z'
loop_
 _atom_site_type_symbol
 _atom_site_label
 _atom_site_symmetry_multiplicity
 _atom_site_fract_x
 _atom_site_fract_y
 _atom_site_fract_z
 _atom_site_occupancy
  Zn  Zn0  1  0.44273000  0.44006000  0.55714000  1.0
  Zn  Zn1  1  0.44024000  0.55197000  0.43624000  1.0
  Zn  Zn2  1  0.55139000  0.44243000  0.44709000  1.0
  Zn  Zn3  1  0.56262000  0.56626000  0.55752000  1.0
  H  H4  1  0.37575000  0.48991000  0.22841000  1.0
  H  H5  1  0.41788000  0.47544000  0.99446000  1.0
  H  H6  1  0.58646000  0.48540000  0.10643000  1.0
  H  H7  1  0.61907000  0.52673000  0.77174000  1.0
  H  H8  1  0.57369000  0.52274000  0.00839000  1.0
  H  H9  1  0.40653000  0.50868000  0.89323000  1.0
  H  H10  1  0.36520000  0.48656000  0.10065000  1.0
  H  H11  1  0.56787000  0.23462000  0.43759000  1.0
  H  H12  1  0.56158000  0.77659000  0.58576000  1.0
  H  H13  1  0.45903000  0.76211000  0.38181000  1.0
  H  H14  1  0.50970000  0.00278000  0.42710000  1.0
  H  H15  1  0.44162000  0.10347000  0.61227000  1.0
  H  H16  1  0.56287000  0.90395000  0.58340000  1.0
  H  H17  1  0.43694000  0.23009000  0.60266000  1.0
  H  H18  1  0.49875000  0.99929000  0.58275000  1.0
  H  H19  1  0.57258000  0.10823000  0.44615000  1.0
  H  H20  1  0.46233000  0.88985000  0.37770000  1.0
  H  H21  1  0.22637000  0.57992000  0.43879000  1.0
  H  H22  1  0.23149000  0.38181000  0.53283000  1.0
  H  H23  1  0.98859000  0.41480000  0.48172000  1.0
  H  H24  1  0.90352000  0.62685000  0.50275000  1.0
  H  H25  1  0.09827000  0.56856000  0.43682000  1.0
  H  H26  1  0.77689000  0.62224000  0.51123000  1.0
  H  H27  1  0.00849000  0.57155000  0.50515000  1.0
  H  H28  1  0.88891000  0.40473000  0.50966000  1.0
  H  H29  1  0.65696000  0.49392000  0.20368000  1.0
  H  H30  1  0.62870000  0.52416000  0.28140000  1.0
  H  H31  1  0.62436000  0.43534000  0.26532000  1.0
  C  C32  1  0.50786000  0.68549000  0.48732000  1.0
  C  C33  1  0.49842000  0.31519000  0.51261000  1.0
  C  C34  1  0.31451000  0.48898000  0.49053000  1.0
  C  C35  1  0.68475000  0.51087000  0.51033000  1.0
  C  C36  1  0.48772000  0.48899000  0.31500000  1.0
  C  C37  1  0.50495000  0.51314000  0.68346000  1.0
  C  C38  1  0.50793000  0.51768000  0.76014000  1.0
  C  C39  1  0.44941000  0.51297000  0.79725000  1.0
  C  C40  1  0.45406000  0.51009000  0.86802000  1.0
  C  C41  1  0.51848000  0.51110000  0.90737000  1.0
  C  C42  1  0.57707000  0.51777000  0.86931000  1.0
  C  C43  1  0.57210000  0.52179000  0.79802000  1.0
  C  C44  1  0.53981000  0.48685000  0.13293000  1.0
  C  C45  1  0.54678000  0.48607000  0.20444000  1.0
  C  C46  1  0.42150000  0.48844000  0.20068000  1.0
  C  C47  1  0.41578000  0.48686000  0.12951000  1.0
  C  C48  1  0.47553000  0.48771000  0.09423000  1.0
  C  C49  1  0.52283000  0.50898000  0.98176000  1.0
  C  C50  1  0.46959000  0.49013000  0.01964000  1.0
  C  C51  1  0.48600000  0.48777000  0.23866000  1.0
  C  C52  1  0.50116000  0.23974000  0.51876000  1.0
  C  C53  1  0.53939000  0.20510000  0.47473000  1.0
  C  C54  1  0.54145000  0.13454000  0.47943000  1.0
  C  C55  1  0.50563000  0.09652000  0.52843000  1.0
  C  C56  1  0.46913000  0.13216000  0.57370000  1.0
  C  C57  1  0.46621000  0.20272000  0.56853000  1.0
  C  C58  1  0.53909000  0.87297000  0.53952000  1.0
  C  C59  1  0.53890000  0.80201000  0.54098000  1.0
  C  C60  1  0.48165000  0.79373000  0.42560000  1.0
  C  C61  1  0.48357000  0.86491000  0.42363000  1.0
  C  C62  1  0.51098000  0.90587000  0.48096000  1.0
  C  C63  1  0.50572000  0.02204000  0.53254000  1.0
  C  C64  1  0.50999000  0.98028000  0.47822000  1.0
  C  C65  1  0.50945000  0.76162000  0.48437000  1.0
  C  C66  1  0.76178000  0.51222000  0.51381000  1.0
  C  C67  1  0.79571000  0.45209000  0.51358000  1.0
  C  C68  1  0.86593000  0.45332000  0.50793000  1.0
  C  C69  1  0.90631000  0.51655000  0.50284000  1.0
  C  C70  1  0.87310000  0.57719000  0.50543000  1.0
  C  C71  1  0.80223000  0.57500000  0.51059000  1.0
  C  C72  1  0.12771000  0.52836000  0.45956000  1.0
  C  C73  1  0.19916000  0.53462000  0.45977000  1.0
  C  C74  1  0.20275000  0.42315000  0.51198000  1.0
  C  C75  1  0.13120000  0.41750000  0.51123000  1.0
  C  C76  1  0.09109000  0.47032000  0.48653000  1.0
  C  C77  1  0.98058000  0.52041000  0.49743000  1.0
  C  C78  1  0.01616000  0.46593000  0.48709000  1.0
  C  C79  1  0.23742000  0.48234000  0.48717000  1.0
  C  C80  1  0.61806000  0.48494000  0.24056000  1.0
  N  N81  1  0.37966000  0.51695000  0.76189000  1.0
  N  N82  1  0.75801000  0.38432000  0.52480000  1.0
  N  N83  1  0.09932000  0.35404000  0.54076000  1.0
  N  N84  1  0.64812000  0.51985000  0.90290000  1.0
  O  O85  1  0.49931000  0.50104000  0.50049000  1.0
  O  O86  1  0.54340000  0.66079000  0.53792000  1.0
  O  O87  1  0.46355000  0.34445000  0.55453000  1.0
  O  O88  1  0.34328000  0.53899000  0.45842000  1.0
  O  O89  1  0.65135000  0.46712000  0.46855000  1.0
  O  O90  1  0.44104000  0.51965000  0.34095000  1.0
  O  O91  1  0.55117000  0.55093000  0.65585000  1.0
  O  O92  1  0.53525000  0.45913000  0.34855000  1.0
  O  O93  1  0.45861000  0.46969000  0.65446000  1.0
  O  O94  1  0.34476000  0.44380000  0.52544000  1.0
  O  O95  1  0.66053000  0.55548000  0.54650000  1.0
  O  O96  1  0.47103000  0.65057000  0.43946000  1.0
  O  O97  1  0.53083000  0.34514000  0.46535000  1.0
  O  O98  1  0.33169000  0.47871000  0.78237000  1.0
  O  O99  1  0.37432000  0.56003000  0.71606000  1.0
  O  O100  1  0.77340000  0.33474000  0.49187000  1.0
  O  O101  1  0.71532000  0.38177000  0.56799000  1.0
  O  O102  1  0.04366000  0.35655000  0.56643000  1.0
  O  O103  1  0.13069000  0.30202000  0.53884000  1.0
  O  O104  1  0.65808000  0.48530000  0.95534000  1.0
  O  O105  1  0.69376000  0.55551000  0.87555000  1.0
