# generated using pymatgen
data_AgH12C13SN6(OF)3
_symmetry_space_group_name_H-M   'P 1'
_cell_length_a   7.17890000
_cell_length_b   11.54860000
_cell_length_c   11.90830000
_cell_angle_alpha   106.72900000
_cell_angle_beta   94.04070000
_cell_angle_gamma   96.07570000
_symmetry_Int_Tables_number   1
_chemical_formula_structural   AgH12C13SN6(OF)3
_chemical_formula_sum   'Ag2 H24 C26 S2 N12 O6 F6'
_cell_volume   934.88160137
_cell_formula_units_Z   2
loop_
 _symmetry_equiv_pos_site_id
 _symmetry_equiv_pos_as_xyz
  1  'x, y, z'
loop_
 _atom_site_type_symbol
 _atom_site_label
 _atom_site_symmetry_multiplicity
 _atom_site_fract_x
 _atom_site_fract_y
 _atom_site_fract_z
 _atom_site_occupancy
  Ag  Ag0  1  0.25589000  0.92384000  0.15916000  1.0
  Ag  Ag1  1  0.74411000  0.07615000  0.84084000  1.0
  H  H2  1  0.49352000  0.90524000  0.38171000  1.0
  H  H3  1  0.50649000  0.09476000  0.61828000  1.0
  H  H4  1  0.21256000  0.48076000  0.24648000  1.0
  H  H5  1  0.78744000  0.51924000  0.75352000  1.0
  H  H6  1  0.13522000  0.62771000  0.13399000  1.0
  H  H7  1  0.86478000  0.37229000  0.86601000  1.0
  H  H8  1  0.56888000  0.59532000  0.55662000  1.0
  H  H9  1  0.43112000  0.40468000  0.44338000  1.0
  H  H10  1  0.73355000  0.71086000  0.66208000  1.0
  H  H11  1  0.26645000  0.28914000  0.33792000  1.0
  H  H12  1  0.79940000  0.62984000  0.52393000  1.0
  H  H13  1  0.20060000  0.37016000  0.47607000  1.0
  H  H14  1  0.37577000  0.92456000  0.68182000  1.0
  H  H15  1  0.62423000  0.07543000  0.31818000  1.0
  H  H16  1  0.45441000  0.13999000  0.03018000  1.0
  H  H17  1  0.54559000  0.86001000  0.96982000  1.0
  H  H18  1  0.10327000  0.14033000  0.03085000  1.0
  H  H19  1  0.89673000  0.85967000  0.96915000  1.0
  H  H20  1  0.97387000  0.84770000  0.45593000  1.0
  H  H21  1  0.02614000  0.15230000  0.54407000  1.0
  H  H22  1  0.13548000  0.78518000  0.53391000  1.0
  H  H23  1  0.86452000  0.21483000  0.46609000  1.0
  H  H24  1  0.19667000  0.93341000  0.52016000  1.0
  H  H25  1  0.80333000  0.06659000  0.47984000  1.0
  C  C26  1  0.43174000  0.80975000  0.35053000  1.0
  C  C27  1  0.56826000  0.19025000  0.64947000  1.0
  C  C28  1  0.47930000  0.72740000  0.41119000  1.0
  C  C29  1  0.52070000  0.27260000  0.58881000  1.0
  C  C30  1  0.27652000  0.57600000  0.27695000  1.0
  C  C31  1  0.72348000  0.42399000  0.72305000  1.0
  C  C32  1  0.23104000  0.65712000  0.21512000  1.0
  C  C33  1  0.76896000  0.34288000  0.78488000  1.0
  C  C34  1  0.62130000  0.76399000  0.51547000  1.0
  C  C35  1  0.37870000  0.23601000  0.48453000  1.0
  C  C36  1  0.68207000  0.67024000  0.56867000  1.0
  C  C37  1  0.31793000  0.32976000  0.43133000  1.0
  C  C38  1  0.31355000  0.97613000  0.75826000  1.0
  C  C39  1  0.68645000  0.02387000  0.24174000  1.0
  C  C40  1  0.35727000  0.09252000  0.95211000  1.0
  C  C41  1  0.64273000  0.90748000  0.04789000  1.0
  C  C42  1  0.16322000  0.09402000  0.95106000  1.0
  C  C43  1  0.83677000  0.90598000  0.04894000  1.0
  C  C44  1  0.11919000  0.98166000  0.75447000  1.0
  C  C45  1  0.88081000  0.01834000  0.24553000  1.0
  C  C46  1  0.99481000  0.92343000  0.64393000  1.0
  C  C47  1  0.00519000  0.07657000  0.35607000  1.0
  C  C48  1  0.08006000  0.86994000  0.53227000  1.0
  C  C49  1  0.91994000  0.13006000  0.46773000  1.0
  C  C50  1  0.26931000  0.62441000  0.75448000  1.0
  C  C51  1  0.73069000  0.37559000  0.24553000  1.0
  S  S52  1  0.12175000  0.69332000  0.87280000  1.0
  S  S53  1  0.87825000  0.30668000  0.12720000  1.0
  N  N54  1  0.43282000  0.03343000  0.85525000  1.0
  N  N55  1  0.56719000  0.96657000  0.14475000  1.0
  N  N56  1  0.30928000  0.77480000  0.25331000  1.0
  N  N57  1  0.69072000  0.22520000  0.74669000  1.0
  N  N58  1  0.04510000  0.04181000  0.85296000  1.0
  N  N59  1  0.95490000  0.95819000  0.14704000  1.0
  N  N60  1  0.81479000  0.92153000  0.64959000  1.0
  N  N61  1  0.18521000  0.07847000  0.35040000  1.0
  N  N62  1  0.69083000  0.87883000  0.55330000  1.0
  N  N63  1  0.30918000  0.12117000  0.44669000  1.0
  N  N64  1  0.39954000  0.61018000  0.37402000  1.0
  N  N65  1  0.60046000  0.38982000  0.62598000  1.0
  O  O66  1  0.10692000  0.60668000  0.94009000  1.0
  O  O67  1  0.89307000  0.39332000  0.05991000  1.0
  O  O68  1  0.94730000  0.70396000  0.80791000  1.0
  O  O69  1  0.05270000  0.29604000  0.19209000  1.0
  O  O70  1  0.23456000  0.81163000  0.93342000  1.0
  O  O71  1  0.76545000  0.18837000  0.06658000  1.0
  F  F72  1  0.27808000  0.68784000  0.67358000  1.0
  F  F73  1  0.72193000  0.31215000  0.32641000  1.0
  F  F74  1  0.44792000  0.62540000  0.80022000  1.0
  F  F75  1  0.55208000  0.37460000  0.19979000  1.0
  F  F76  1  0.19706000  0.50722000  0.69533000  1.0
  F  F77  1  0.80294000  0.49278000  0.30468000  1.0
