# generated using pymatgen
data_ZnH10C19NClO4
_symmetry_space_group_name_H-M   'P 1'
_cell_length_a   10.94500000
_cell_length_b   16.53540000
_cell_length_c   17.92410000
_cell_angle_alpha   89.92010000
_cell_angle_beta   89.19240000
_cell_angle_gamma   89.48950000
_symmetry_Int_Tables_number   1
_chemical_formula_structural   ZnH10C19NClO4
_chemical_formula_sum   'Zn2 H20 C38 N2 Cl2 O8'
_cell_volume   3243.44917734
_cell_formula_units_Z   2
loop_
 _symmetry_equiv_pos_site_id
 _symmetry_equiv_pos_as_xyz
  1  'x, y, z'
loop_
 _atom_site_type_symbol
 _atom_site_label
 _atom_site_symmetry_multiplicity
 _atom_site_fract_x
 _atom_site_fract_y
 _atom_site_fract_z
 _atom_site_occupancy
  Zn  Zn0  1  0.50187000  0.58447000  0.49982000  1.0
  Zn  Zn1  1  0.49815000  0.41554000  0.50018000  1.0
  H  H2  1  0.06905000  0.64108000  0.50636000  1.0
  H  H3  1  0.64387000  0.13431000  0.41591000  1.0
  H  H4  1  0.64386000  0.86486000  0.41585000  1.0
  H  H5  1  0.35615000  0.13515000  0.58415000  1.0
  H  H6  1  0.36331000  0.71351000  0.58027000  1.0
  H  H7  1  0.63671000  0.28650000  0.41974000  1.0
  H  H8  1  0.63839000  0.71273000  0.41986000  1.0
  H  H9  1  0.36161000  0.28728000  0.58014000  1.0
  H  H10  1  0.50508000  0.62937000  0.26184000  1.0
  H  H11  1  0.49485000  0.37062000  0.73813000  1.0
  H  H12  1  0.50659000  0.62953000  0.73765000  1.0
  H  H13  1  0.93097000  0.35894000  0.49365000  1.0
  H  H14  1  0.49330000  0.37046000  0.26236000  1.0
  H  H15  1  0.92390000  0.57352000  0.39094000  1.0
  H  H16  1  0.07611000  0.42649000  0.60907000  1.0
  H  H17  1  0.50482000  0.63019000  0.12196000  1.0
  H  H18  1  0.49496000  0.36978000  0.87802000  1.0
  H  H19  1  0.50690000  0.63035000  0.87753000  1.0
  H  H20  1  0.49285000  0.36962000  0.12248000  1.0
  H  H21  1  0.35614000  0.86570000  0.58410000  1.0
  C  C22  1  0.49847000  0.49988000  0.64643000  1.0
  C  C23  1  0.57658000  0.24990000  0.45485000  1.0
  C  C24  1  0.57786000  0.74967000  0.45491000  1.0
  C  C25  1  0.42215000  0.25034000  0.54509000  1.0
  C  C26  1  0.49999000  0.87762000  0.49999000  1.0
  C  C27  1  0.50002000  0.12239000  0.50001000  1.0
  C  C28  1  0.49987000  0.96313000  0.50002000  1.0
  C  C29  1  0.50015000  0.03688000  0.49999000  1.0
  C  C30  1  0.26064000  0.50265000  0.50187000  1.0
  C  C31  1  0.73937000  0.49736000  0.49814000  1.0
  C  C32  1  0.03763000  0.57869000  0.50311000  1.0
  C  C33  1  0.50152000  0.50013000  0.35356000  1.0
  C  C34  1  0.96238000  0.42133000  0.49689000  1.0
  C  C35  1  0.95876000  0.54157000  0.43975000  1.0
  C  C36  1  0.04126000  0.45844000  0.56026000  1.0
  C  C37  1  0.95562000  0.53468000  0.56239000  1.0
  C  C38  1  0.04440000  0.46534000  0.43762000  1.0
  C  C39  1  0.87557000  0.49674000  0.49863000  1.0
  C  C40  1  0.12444000  0.50328000  0.50138000  1.0
  C  C41  1  0.50274000  0.57341000  0.15293000  1.0
  C  C42  1  0.49703000  0.42656000  0.84705000  1.0
  C  C43  1  0.50376000  0.57359000  0.84676000  1.0
  C  C44  1  0.49972000  0.49991000  0.03408000  1.0
  C  C45  1  0.49599000  0.42638000  0.15324000  1.0
  C  C46  1  0.50308000  0.57307000  0.23038000  1.0
  C  C47  1  0.49679000  0.42691000  0.76960000  1.0
  C  C48  1  0.50341000  0.57326000  0.76929000  1.0
  C  C49  1  0.49644000  0.42673000  0.23071000  1.0
  C  C50  1  0.50041000  0.49991000  0.27005000  1.0
  C  C51  1  0.49949000  0.50008000  0.72994000  1.0
  C  C52  1  0.49952000  0.49987000  0.11296000  1.0
  C  C53  1  0.50020000  0.50009000  0.88703000  1.0
  C  C54  1  0.50000000  0.50005000  0.96591000  1.0
  C  C55  1  0.41985000  0.83400000  0.54696000  1.0
  C  C56  1  0.58016000  0.16601000  0.45305000  1.0
  C  C57  1  0.58048000  0.83353000  0.45300000  1.0
  C  C58  1  0.41953000  0.16648000  0.54700000  1.0
  C  C59  1  0.42344000  0.75011000  0.54515000  1.0
  N  N60  1  0.50093000  0.70884000  0.50008000  1.0
  N  N61  1  0.49908000  0.29118000  0.49993000  1.0
  Cl  Cl62  1  0.89682000  0.57870000  0.64385000  1.0
  Cl  Cl63  1  0.10319000  0.42131000  0.35615000  1.0
  O  O64  1  0.49896000  0.56841000  0.61369000  1.0
  O  O65  1  0.50105000  0.43159000  0.38632000  1.0
  O  O66  1  0.50301000  0.56886000  0.38571000  1.0
  O  O67  1  0.49701000  0.43114000  0.61428000  1.0
  O  O68  1  0.31393000  0.57073000  0.50057000  1.0
  O  O69  1  0.68609000  0.42928000  0.49944000  1.0
  O  O70  1  0.68883000  0.56700000  0.49703000  1.0
  O  O71  1  0.31118000  0.43301000  0.50297000  1.0
