# generated using pymatgen
data_Zr6H20C52S15O47
_symmetry_space_group_name_H-M   'P 1'
_cell_length_a   16.45180000
_cell_length_b   16.46190000
_cell_length_c   16.48586280
_cell_angle_alpha   60.39720394
_cell_angle_beta   89.16908862
_cell_angle_gamma   60.14740000
_symmetry_Int_Tables_number   1
_chemical_formula_structural   Zr6H20C52S15O47
_chemical_formula_sum   'Zr6 H20 C52 S15 O47'
_cell_volume   3204.50960998
_cell_formula_units_Z   1
loop_
 _symmetry_equiv_pos_site_id
 _symmetry_equiv_pos_as_xyz
  1  'x, y, z'
loop_
 _atom_site_type_symbol
 _atom_site_label
 _atom_site_symmetry_multiplicity
 _atom_site_fract_x
 _atom_site_fract_y
 _atom_site_fract_z
 _atom_site_occupancy
  Zr  Zr0  1  0.89859000  0.48879000  0.40372000  1.0
  Zr  Zr1  1  0.10168000  0.50639000  0.60858000  1.0
  Zr  Zr2  1  0.89091000  0.70952000  0.39950000  1.0
  Zr  Zr3  1  0.10998000  0.28595000  0.61301000  1.0
  Zr  Zr4  1  0.89116000  0.49705000  0.61313000  1.0
  Zr  Zr5  1  0.10773000  0.50030000  0.39597000  1.0
  H  H6  1  0.74873000  0.65808000  0.42401000  1.0
  H  H7  1  0.08213000  0.33669000  0.75549000  1.0
  H  H8  1  0.07987000  0.67264000  0.41761000  1.0
  H  H9  1  0.09027000  0.32634000  0.42352000  1.0
  H  H10  1  0.62608000  0.45374000  0.65627000  1.0
  H  H11  1  0.11953000  0.52149000  0.09955000  1.0
  H  H12  1  0.11719000  0.98093000  0.88193000  1.0
  H  H13  1  0.40191000  0.98887000  0.64530000  1.0
  H  H14  1  0.65166000  0.97513000  0.11481000  1.0
  H  H15  1  0.67238000  0.69260000  0.13877000  1.0
  H  H16  1  0.53132000  0.82306000  0.98607000  1.0
  H  H17  1  0.39014000  0.02005000  0.85863000  1.0
  H  H18  1  0.36863000  0.30258000  0.83516000  1.0
  H  H19  1  0.52391000  0.17112000  0.97490000  1.0
  H  H20  1  0.86421000  0.23143000  0.39813000  1.0
  H  H21  1  0.28966000  0.69064000  0.22102000  1.0
  H  H22  1  0.88264000  0.42927000  0.82859000  1.0
  H  H23  1  0.87771000  0.93796000  0.25139000  1.0
  H  H24  1  0.53558000  0.05031000  0.21898000  1.0
  H  H25  1  0.28141000  0.68818000  0.59635000  1.0
  C  C26  1  0.73701000  0.47868000  0.51832000  1.0
  C  C27  1  0.98511000  0.51205000  0.77384000  1.0
  C  C28  1  0.27245000  0.49766000  0.50087000  1.0
  C  C29  1  0.00396000  0.50006000  0.23305000  1.0
  C  C30  1  0.74478000  0.74916000  0.23266000  1.0
  C  C31  1  0.00152000  0.22168000  0.51330000  1.0
  C  C32  1  0.27368000  0.24612000  0.76362000  1.0
  C  C33  1  0.99269000  0.77328000  0.50856000  1.0
  C  C34  1  0.72796000  0.76947000  0.50798000  1.0
  C  C35  1  0.98899000  0.77919000  0.22504000  1.0
  C  C36  1  0.27798000  0.22948000  0.50840000  1.0
  C  C37  1  0.99784000  0.22505000  0.77365000  1.0
  C  C38  1  0.41851000  0.49424000  0.43613000  1.0
  C  C39  1  0.60164000  0.46358000  0.58915000  1.0
  C  C40  1  0.36692000  0.48719000  0.50446000  1.0
  C  C41  1  0.65005000  0.47416000  0.51904000  1.0
  C  C42  1  0.51804000  0.46901000  0.55931000  1.0
  C  C43  1  0.50480000  0.48431000  0.46706000  1.0
  C  C44  1  0.92120000  0.50962000  0.91989000  1.0
  C  C45  1  0.05884000  0.51710000  0.08234000  1.0
  C  C46  1  0.98260000  0.51616000  0.86090000  1.0
  C  C47  1  0.99839000  0.50773000  0.14065000  1.0
  C  C48  1  0.03033000  0.51832000  0.00112000  1.0
  C  C49  1  0.94871000  0.51016000  0.00017000  1.0
  C  C50  1  0.91868000  0.98671000  0.07954000  1.0
  C  C51  1  0.05519000  0.02082000  0.90489000  1.0
  C  C52  1  0.98336000  0.86907000  0.13199000  1.0
  C  C53  1  0.99198000  0.13723000  0.85740000  1.0
  C  C54  1  0.02753000  0.96549000  0.98533000  1.0
  C  C55  1  0.94402000  0.04158000  0.99656000  1.0
  C  C56  1  0.58522000  0.97864000  0.43487000  1.0
  C  C57  1  0.42108000  0.02573000  0.57924000  1.0
  C  C58  1  0.64013000  0.86199000  0.50629000  1.0
  C  C59  1  0.36758000  0.14101000  0.50814000  1.0
  C  C60  1  0.50069000  0.96676000  0.55247000  1.0
  C  C61  1  0.50529000  0.03891000  0.46112000  1.0
  C  C62  1  0.62370000  0.94336000  0.08661000  1.0
  C  C63  1  0.63486000  0.78392000  0.09906000  1.0
  C  C64  1  0.55696000  0.85621000  0.01485000  1.0
  C  C65  1  0.50682000  0.97537000  0.96524000  1.0
  C  C66  1  0.42002000  0.05183000  0.88495000  1.0
  C  C67  1  0.40852000  0.21120000  0.87270000  1.0
  C  C68  1  0.49355000  0.13871000  0.94994000  1.0
  C  C69  1  0.54283000  0.01953000  0.00030000  1.0
  C  C70  1  0.66682000  0.82806000  0.13670000  1.0
  C  C71  1  0.37000000  0.16732000  0.84134000  1.0
  C  C72  1  0.06427000  0.84488000  0.57594000  1.0
  C  C73  1  0.92773000  0.14835000  0.45518000  1.0
  C  C74  1  0.99383000  0.85947000  0.51391000  1.0
  C  C75  1  0.99856000  0.13274000  0.51614000  1.0
  C  C76  1  0.95147000  0.04291000  0.47780000  1.0
  C  C77  1  0.04013000  0.94993000  0.55526000  1.0
  S  S78  1  0.42446000  0.46695000  0.60646000  1.0
  S  S79  1  0.59613000  0.48992000  0.41777000  1.0
  S  S80  1  0.07245000  0.52465000  0.90341000  1.0
  S  S81  1  0.90723000  0.50057000  0.09873000  1.0
  S  S82  1  0.07362000  0.82683000  0.07754000  1.0
  S  S83  1  0.89924000  0.18044000  0.90863000  1.0
  S  S84  1  0.59406000  0.82686000  0.60448000  1.0
  S  S85  1  0.41271000  0.17915000  0.40904000  1.0
  S  S86  1  0.89922000  0.00027000  0.43160000  1.0
  S  S87  1  0.09374000  0.99204000  0.60075000  1.0
  S  S88  1  0.38907000  0.51301000  0.32231000  1.0
  S  S89  1  0.81793000  0.50375000  0.90405000  1.0
  S  S90  1  0.81329000  0.07022000  0.10302000  1.0
  S  S91  1  0.60414000  0.05478000  0.32306000  1.0
  S  S92  1  0.17409000  0.71874000  0.66996000  1.0
  O  O93  1  0.77260000  0.47973000  0.44862000  1.0
  O  O94  1  0.05059000  0.51813000  0.73474000  1.0
  O  O95  1  0.23720000  0.49952000  0.56978000  1.0
  O  O96  1  0.93919000  0.49099000  0.27331000  1.0
  O  O97  1  0.77411000  0.78816000  0.26669000  1.0
  O  O98  1  0.07112000  0.19054000  0.57862000  1.0
  O  O99  1  0.24008000  0.20625000  0.73503000  1.0
  O  O100  1  0.92474000  0.80703000  0.44006000  1.0
  O  O101  1  0.76126000  0.66767000  0.57817000  1.0
  O  O102  1  0.05639000  0.67731000  0.25728000  1.0
  O  O103  1  0.24158000  0.33233000  0.43848000  1.0
  O  O104  1  0.92985000  0.32804000  0.74158000  1.0
  O  O105  1  0.92572000  0.81061000  0.26875000  1.0
  O  O106  1  0.24234000  0.19606000  0.57811000  1.0
  O  O107  1  0.07020000  0.19260000  0.74065000  1.0
  O  O108  1  0.76342000  0.79938000  0.43748000  1.0
  O  O109  1  0.77606000  0.64468000  0.27672000  1.0
  O  O110  1  0.06205000  0.67057000  0.57323000  1.0
  O  O111  1  0.22911000  0.35103000  0.73155000  1.0
  O  O112  1  0.93452000  0.32363000  0.44411000  1.0
  O  O113  1  0.07249000  0.50148000  0.26682000  1.0
  O  O114  1  0.76842000  0.48397000  0.58497000  1.0
  O  O115  1  0.92185000  0.49993000  0.74396000  1.0
  O  O116  1  0.23372000  0.50529000  0.42878000  1.0
  O  O117  1  0.06521000  0.37493000  0.44731000  1.0
  O  O118  1  0.05684000  0.62346000  0.44176000  1.0
  O  O119  1  0.05731000  0.38348000  0.68450000  1.0
  O  O120  1  0.82001000  0.61191000  0.44917000  1.0
  O  O121  1  0.95124000  0.58959000  0.54945000  1.0
  O  O122  1  0.95835000  0.40597000  0.55319000  1.0
  O  O123  1  0.13160000  0.41557000  0.54657000  1.0
  O  O124  1  0.95783000  0.58326000  0.37432000  1.0
  O  O125  1  0.28074000  0.63008000  0.26361000  1.0
  O  O126  1  0.37898000  0.42636000  0.33564000  1.0
  O  O127  1  0.45615000  0.53520000  0.27338000  1.0
  O  O128  1  0.86080000  0.40408000  0.88877000  1.0
  O  O129  1  0.74200000  0.60903000  0.81668000  1.0
  O  O130  1  0.79867000  0.46445000  0.99661000  1.0
  O  O131  1  0.85447000  0.01981000  0.21433000  1.0
  O  O132  1  0.73999000  0.05084000  0.08923000  1.0
  O  O133  1  0.79081000  0.18280000  0.04757000  1.0
  O  O134  1  0.60178000  0.99941000  0.26573000  1.0
  O  O135  1  0.70015000  0.03226000  0.34045000  1.0
  O  O136  1  0.51686000  0.16899000  0.27006000  1.0
  O  O137  1  0.23583000  0.66491000  0.61268000  1.0
  O  O138  1  0.15569000  0.63950000  0.74108000  1.0
  O  O139  1  0.22561000  0.75466000  0.69905000  1.0
