# generated using pymatgen
data_CdH11C10NO5
_symmetry_space_group_name_H-M   'P 1'
_cell_length_a   8.58930000
_cell_length_b   9.81582000
_cell_length_c   13.64680000
_cell_angle_alpha   90.00000000
_cell_angle_beta   105.20400000
_cell_angle_gamma   89.99960000
_symmetry_Int_Tables_number   1
_chemical_formula_structural   CdH11C10NO5
_chemical_formula_sum   'Cd4 H44 C40 N4 O20'
_cell_volume   1110.30343163
_cell_formula_units_Z   4
loop_
 _symmetry_equiv_pos_site_id
 _symmetry_equiv_pos_as_xyz
  1  'x, y, z'
loop_
 _atom_site_type_symbol
 _atom_site_label
 _atom_site_symmetry_multiplicity
 _atom_site_fract_x
 _atom_site_fract_y
 _atom_site_fract_z
 _atom_site_occupancy
  Cd  Cd0  1  0.23394000  0.40462000  0.89506000  1.0
  Cd  Cd1  1  0.26605000  0.90462000  0.10495000  1.0
  Cd  Cd2  1  0.76606000  0.59537000  0.10494000  1.0
  Cd  Cd3  1  0.73395000  0.09537000  0.89505000  1.0
  H  H4  1  0.91552000  0.59963000  0.89559000  1.0
  H  H5  1  0.58449000  0.09961000  0.10441000  1.0
  H  H6  1  0.08448000  0.40037000  0.10441000  1.0
  H  H7  1  0.41551000  0.90038000  0.89559000  1.0
  H  H8  1  0.90629000  0.73524000  0.80956000  1.0
  H  H9  1  0.59372000  0.23523000  0.19045000  1.0
  H  H10  1  0.09370000  0.26476000  0.19044000  1.0
  H  H11  1  0.40628000  0.76477000  0.80955000  1.0
  H  H12  1  0.89357000  0.40702000  0.67012000  1.0
  H  H13  1  0.60642000  0.90699000  0.32988000  1.0
  H  H14  1  0.10644000  0.59298000  0.32988000  1.0
  H  H15  1  0.39358000  0.09301000  0.67012000  1.0
  H  H16  1  0.76478000  0.51421000  0.71766000  1.0
  H  H17  1  0.73522000  0.01418000  0.28235000  1.0
  H  H18  1  0.23522000  0.48579000  0.28234000  1.0
  H  H19  1  0.26478000  0.98582000  0.71765000  1.0
  H  H20  1  0.01543000  0.81826000  0.71296000  1.0
  H  H21  1  0.48457000  0.31825000  0.28704000  1.0
  H  H22  1  0.98457000  0.18174000  0.28705000  1.0
  H  H23  1  0.51543000  0.68175000  0.71296000  1.0
  H  H24  1  0.23667000  0.73861000  0.47036000  1.0
  H  H25  1  0.26333000  0.23863000  0.52964000  1.0
  H  H26  1  0.76332000  0.26140000  0.52964000  1.0
  H  H27  1  0.73668000  0.76137000  0.47036000  1.0
  H  H28  1  0.25674000  0.49162000  0.51660000  1.0
  H  H29  1  0.24326000  0.99163000  0.48340000  1.0
  H  H30  1  0.74326000  0.50839000  0.48340000  1.0
  H  H31  1  0.75674000  0.00837000  0.51660000  1.0
  H  H32  1  0.15881000  0.40826000  0.66035000  1.0
  H  H33  1  0.34119000  0.90826000  0.33966000  1.0
  H  H34  1  0.84120000  0.59174000  0.33965000  1.0
  H  H35  1  0.65881000  0.09174000  0.66034000  1.0
  H  H36  1  0.11068000  0.89874000  0.56977000  1.0
  H  H37  1  0.38932000  0.39874000  0.43022000  1.0
  H  H38  1  0.88931000  0.10127000  0.43023000  1.0
  H  H39  1  0.61068000  0.60125000  0.56978000  1.0
  H  H40  1  0.52149000  0.54818000  0.88329000  1.0
  H  H41  1  0.97849000  0.04817000  0.11671000  1.0
  H  H42  1  0.47851000  0.45182000  0.11671000  1.0
  H  H43  1  0.02152000  0.95183000  0.88329000  1.0
  H  H44  1  0.53350000  0.39136000  0.86041000  1.0
  H  H45  1  0.96648000  0.89135000  0.13958000  1.0
  H  H46  1  0.46650000  0.60864000  0.13959000  1.0
  H  H47  1  0.03352000  0.10865000  0.86043000  1.0
  C  C48  1  0.07782000  0.60619000  0.69601000  1.0
  C  C49  1  0.42218000  0.10618000  0.30400000  1.0
  C  C50  1  0.92218000  0.39382000  0.30399000  1.0
  C  C51  1  0.57782000  0.89381000  0.69601000  1.0
  C  C52  1  0.86405000  0.34579000  0.81315000  1.0
  C  C53  1  0.63594000  0.84577000  0.18684000  1.0
  C  C54  1  0.13595000  0.65420000  0.18684000  1.0
  C  C55  1  0.36407000  0.15423000  0.81316000  1.0
  C  C56  1  0.98302000  0.65116000  0.84802000  1.0
  C  C57  1  0.51699000  0.15114000  0.15199000  1.0
  C  C58  1  0.01697000  0.34884000  0.15198000  1.0
  C  C59  1  0.48301000  0.84885000  0.84801000  1.0
  C  C60  1  0.13611000  0.70494000  0.92252000  1.0
  C  C61  1  0.36390000  0.20493000  0.07748000  1.0
  C  C62  1  0.86388000  0.29506000  0.07748000  1.0
  C  C63  1  0.63610000  0.79507000  0.92252000  1.0
  C  C64  1  0.87953000  0.45786000  0.73892000  1.0
  C  C65  1  0.62046000  0.95784000  0.26108000  1.0
  C  C66  1  0.12046000  0.54214000  0.26107000  1.0
  C  C67  1  0.37954000  0.04216000  0.73892000  1.0
  C  C68  1  0.06838000  0.74486000  0.67128000  1.0
  C  C69  1  0.43162000  0.24486000  0.32872000  1.0
  C  C70  1  0.93162000  0.25514000  0.32872000  1.0
  C  C71  1  0.56838000  0.75514000  0.67128000  1.0
  C  C72  1  0.19082000  0.70134000  0.53275000  1.0
  C  C73  1  0.30918000  0.20135000  0.46725000  1.0
  C  C74  1  0.80918000  0.29867000  0.46725000  1.0
  C  C75  1  0.69082000  0.79865000  0.53275000  1.0
  C  C76  1  0.20301000  0.56335000  0.55906000  1.0
  C  C77  1  0.29699000  0.06336000  0.44094000  1.0
  C  C78  1  0.79699000  0.43666000  0.44094000  1.0
  C  C79  1  0.70301000  0.93664000  0.55906000  1.0
  C  C80  1  0.14719000  0.51589000  0.63964000  1.0
  C  C81  1  0.35282000  0.01589000  0.36037000  1.0
  C  C82  1  0.85281000  0.48411000  0.36036000  1.0
  C  C83  1  0.64719000  0.98410000  0.63963000  1.0
  C  C84  1  0.12311000  0.79083000  0.58923000  1.0
  C  C85  1  0.37690000  0.29083000  0.41077000  1.0
  C  C86  1  0.87689000  0.20918000  0.41077000  1.0
  C  C87  1  0.62310000  0.70917000  0.58923000  1.0
  N  N88  1  0.01719000  0.55071000  0.77667000  1.0
  N  N89  1  0.48281000  0.05069000  0.22334000  1.0
  N  N90  1  0.98280000  0.44929000  0.22333000  1.0
  N  N91  1  0.51719000  0.94930000  0.77666000  1.0
  O  O92  1  0.24785000  0.62289000  0.96191000  1.0
  O  O93  1  0.25214000  0.12289000  0.03811000  1.0
  O  O94  1  0.75214000  0.37711000  0.03809000  1.0
  O  O95  1  0.74786000  0.87711000  0.96189000  1.0
  O  O96  1  0.46084000  0.46982000  0.84361000  1.0
  O  O97  1  0.03913000  0.96980000  0.15638000  1.0
  O  O98  1  0.53916000  0.53018000  0.15639000  1.0
  O  O99  1  0.96087000  0.03020000  0.84362000  1.0
  O  O100  1  0.97868000  0.32205000  0.89115000  1.0
  O  O101  1  0.52132000  0.82206000  0.10884000  1.0
  O  O102  1  0.02133000  0.67794000  0.10884000  1.0
  O  O103  1  0.47869000  0.17794000  0.89116000  1.0
  O  O104  1  0.73216000  0.27933000  0.78859000  1.0
  O  O105  1  0.76783000  0.77932000  0.21140000  1.0
  O  O106  1  0.26784000  0.72066000  0.21141000  1.0
  O  O107  1  0.23217000  0.22068000  0.78860000  1.0
  O  O108  1  0.13945000  0.83197000  0.94435000  1.0
  O  O109  1  0.36057000  0.33196000  0.05565000  1.0
  O  O110  1  0.86055000  0.16803000  0.05565000  1.0
  O  O111  1  0.63943000  0.66803000  0.94435000  1.0
