# generated using pymatgen
data_ZnH10C16N3O4
_symmetry_space_group_name_H-M   'P 1'
_cell_length_a   7.71475000
_cell_length_b   10.47720000
_cell_length_c   13.25650000
_cell_angle_alpha   106.62900000
_cell_angle_beta   105.32700000
_cell_angle_gamma   92.66510000
_symmetry_Int_Tables_number   1
_chemical_formula_structural   ZnH10C16N3O4
_chemical_formula_sum   'Zn2 H20 C32 N6 O8'
_cell_volume   981.49270346
_cell_formula_units_Z   2
loop_
 _symmetry_equiv_pos_site_id
 _symmetry_equiv_pos_as_xyz
  1  'x, y, z'
loop_
 _atom_site_type_symbol
 _atom_site_label
 _atom_site_symmetry_multiplicity
 _atom_site_fract_x
 _atom_site_fract_y
 _atom_site_fract_z
 _atom_site_occupancy
  Zn  Zn0  1  0.72359000  0.04939000  0.29216000  1.0
  Zn  Zn1  1  0.38595000  0.87700000  0.18240000  1.0
  H  H2  1  0.38969000  0.83295000  0.86309000  1.0
  H  H3  1  0.38575000  0.83029000  0.67453000  1.0
  H  H4  1  0.82629000  0.15615000  0.81297000  1.0
  H  H5  1  0.83159000  0.15459000  0.00189000  1.0
  H  H6  1  0.71539000  0.06409000  0.61704000  1.0
  H  H7  1  0.36874000  0.85870000  0.52056000  1.0
  H  H8  1  0.72400000  0.53655000  0.18158000  1.0
  H  H9  1  0.08187000  0.73139000  0.29185000  1.0
  H  H10  1  0.85381000  0.36666000  0.19766000  1.0
  H  H11  1  0.02457000  0.17485000  0.18981000  1.0
  H  H12  1  0.52819000  0.43898000  0.30709000  1.0
  H  H13  1  0.35574000  0.63541000  0.30788000  1.0
  H  H14  1  0.31509000  0.61688000  0.01116000  1.0
  H  H15  1  0.05131000  0.46609000  0.86273000  1.0
  H  H16  1  0.70385000  0.74801000  0.98159000  1.0
  H  H17  1  0.98263000  0.89166000  0.11958000  1.0
  H  H18  1  0.40594000  0.17513000  0.48913000  1.0
  H  H19  1  0.12822000  0.04785000  0.34060000  1.0
  H  H20  1  0.79291000  0.28526000  0.48838000  1.0
  H  H21  1  0.05609000  0.41686000  0.64784000  1.0
  C  C22  1  0.60904000  0.98841000  0.05532000  1.0
  C  C23  1  0.61022000  0.99376000  0.94368000  1.0
  C  C24  1  0.48446000  0.90313000  0.85055000  1.0
  C  C25  1  0.48262000  0.90264000  0.74571000  1.0
  C  C26  1  0.60531000  0.99415000  0.73020000  1.0
  C  C27  1  0.73049000  0.08497000  0.82407000  1.0
  C  C28  1  0.73372000  0.08474000  0.92964000  1.0
  C  C29  1  0.60643000  0.99690000  0.62118000  1.0
  C  C30  1  0.48464000  0.92597000  0.52496000  1.0
  C  C31  1  0.49622000  0.93770000  0.41821000  1.0
  C  C32  1  0.72529000  0.75235000  0.22419000  1.0
  C  C33  1  0.81610000  0.63058000  0.21911000  1.0
  C  C34  1  0.99725000  0.63356000  0.25674000  1.0
  C  C35  1  0.09281000  0.51624000  0.25331000  1.0
  C  C36  1  0.00142000  0.38465000  0.21999000  1.0
  C  C37  1  0.09742000  0.27574000  0.21667000  1.0
  C  C38  1  0.28783000  0.29472000  0.24913000  1.0
  C  C39  1  0.38863000  0.17631000  0.24894000  1.0
  C  C40  1  0.38036000  0.42499000  0.28270000  1.0
  C  C41  1  0.28410000  0.53432000  0.28406000  1.0
  C  C42  1  0.17704000  0.64178000  0.00026000  1.0
  C  C43  1  0.03057000  0.55861000  0.91885000  1.0
  C  C44  1  0.85640000  0.59611000  0.91137000  1.0
  C  C45  1  0.83718000  0.71691000  0.98474000  1.0
  C  C46  1  0.99143000  0.79609000  0.06209000  1.0
  C  C47  1  0.69579000  0.51138000  0.82750000  1.0
  C  C48  1  0.41300000  0.37670000  0.67242000  1.0
  C  C49  1  0.25268000  0.30547000  0.58059000  1.0
  C  C50  1  0.27245000  0.20157000  0.49219000  1.0
  C  C51  1  0.11827000  0.13170000  0.40891000  1.0
  C  C52  1  0.93146000  0.26473000  0.49270000  1.0
  C  C53  1  0.07789000  0.33755000  0.58049000  1.0
  N  N54  1  0.15751000  0.75818000  0.07049000  1.0
  N  N55  1  0.53111000  0.53169000  0.84254000  1.0
  N  N56  1  0.38679000  0.46252000  0.76353000  1.0
  N  N57  1  0.57788000  0.34568000  0.66334000  1.0
  N  N58  1  0.72206000  0.41395000  0.74261000  1.0
  N  N59  1  0.95138000  0.16343000  0.40884000  1.0
  O  O60  1  0.47880000  0.91107000  0.05735000  1.0
  O  O61  1  0.73734000  0.05800000  0.13883000  1.0
  O  O62  1  0.36413000  0.87401000  0.33365000  1.0
  O  O63  1  0.63216000  0.01061000  0.41743000  1.0
  O  O64  1  0.55210000  0.73095000  0.18695000  1.0
  O  O65  1  0.82114000  0.86781000  0.26342000  1.0
  O  O66  1  0.29437000  0.06033000  0.20659000  1.0
  O  O67  1  0.56007000  0.19917000  0.29183000  1.0
