# generated using pymatgen
data_ZnH8C13S5N2
_symmetry_space_group_name_H-M   'P 1'
_cell_length_a   9.13228000
_cell_length_b   11.59300000
_cell_length_c   14.53070000
_cell_angle_alpha   90.00030000
_cell_angle_beta   90.00010000
_cell_angle_gamma   78.35000000
_symmetry_Int_Tables_number   1
_chemical_formula_structural   ZnH8C13S5N2
_chemical_formula_sum   'Zn4 H32 C52 S20 N8'
_cell_volume   1506.68139667
_cell_formula_units_Z   4
loop_
 _symmetry_equiv_pos_site_id
 _symmetry_equiv_pos_as_xyz
  1  'x, y, z'
loop_
 _atom_site_type_symbol
 _atom_site_label
 _atom_site_symmetry_multiplicity
 _atom_site_fract_x
 _atom_site_fract_y
 _atom_site_fract_z
 _atom_site_occupancy
  Zn  Zn0  1  0.33182000  0.63285000  0.20932000  1.0
  Zn  Zn1  1  0.16818000  0.86715000  0.70932000  1.0
  Zn  Zn2  1  0.66818000  0.36715000  0.79068000  1.0
  Zn  Zn3  1  0.83182000  0.13285000  0.29068000  1.0
  H  H4  1  0.17971000  0.05640000  0.10000000  1.0
  H  H5  1  0.32029000  0.44360000  0.60000000  1.0
  H  H6  1  0.82030000  0.94359000  0.90000000  1.0
  H  H7  1  0.67970000  0.55640000  0.40000000  1.0
  H  H8  1  0.09395000  0.75886000  0.34040000  1.0
  H  H9  1  0.40605000  0.74114000  0.84040000  1.0
  H  H10  1  0.90605000  0.24114000  0.65960000  1.0
  H  H11  1  0.59396000  0.25885000  0.15960000  1.0
  H  H12  1  0.92759000  0.81390000  0.97934000  1.0
  H  H13  1  0.57241000  0.68610000  0.47934000  1.0
  H  H14  1  0.07241000  0.18609000  0.02066000  1.0
  H  H15  1  0.42759000  0.31391000  0.52066000  1.0
  H  H16  1  0.14256000  0.34001000  0.41404000  1.0
  H  H17  1  0.35744000  0.15999000  0.91404000  1.0
  H  H18  1  0.85744000  0.65999000  0.58596000  1.0
  H  H19  1  0.64256000  0.84000000  0.08596000  1.0
  H  H20  1  0.06563000  0.66103000  0.08138000  1.0
  H  H21  1  0.43437000  0.83897000  0.58138000  1.0
  H  H22  1  0.93438000  0.33897000  0.91862000  1.0
  H  H23  1  0.56561000  0.16103000  0.41862000  1.0
  H  H24  1  0.28016000  0.40851000  0.28556000  1.0
  H  H25  1  0.21984000  0.09149000  0.78557000  1.0
  H  H26  1  0.71983000  0.59149000  0.71443000  1.0
  H  H27  1  0.78017000  0.90850000  0.21444000  1.0
  H  H28  1  0.31530000  0.88921000  0.19175000  1.0
  H  H29  1  0.18471000  0.61078000  0.69176000  1.0
  H  H30  1  0.68471000  0.11078000  0.80824000  1.0
  H  H31  1  0.81528000  0.38922000  0.30824000  1.0
  H  H32  1  0.95701000  0.70840000  0.47360000  1.0
  H  H33  1  0.54300000  0.79159000  0.97360000  1.0
  H  H34  1  0.04299000  0.29160000  0.52640000  1.0
  H  H35  1  0.45702000  0.20840000  0.02640000  1.0
  C  C36  1  0.03974000  0.95203000  0.02975000  1.0
  C  C37  1  0.46027000  0.54797000  0.52975000  1.0
  C  C38  1  0.96029000  0.04796000  0.97025000  1.0
  C  C39  1  0.53972000  0.45204000  0.47025000  1.0
  C  C40  1  0.66130000  0.59381000  0.19413000  1.0
  C  C41  1  0.83870000  0.90621000  0.69413000  1.0
  C  C42  1  0.33870000  0.40620000  0.80587000  1.0
  C  C43  1  0.16130000  0.09380000  0.30586000  1.0
  C  C44  1  0.03954000  0.51789000  0.45968000  1.0
  C  C45  1  0.46046000  0.98211000  0.95968000  1.0
  C  C46  1  0.96046000  0.48211000  0.54032000  1.0
  C  C47  1  0.53955000  0.01788000  0.04032000  1.0
  C  C48  1  0.62485000  0.50381000  0.14215000  1.0
  C  C49  1  0.87514000  0.99620000  0.64215000  1.0
  C  C50  1  0.37515000  0.49620000  0.85785000  1.0
  C  C51  1  0.12486000  0.00381000  0.35785000  1.0
  C  C52  1  0.15073000  0.97056000  0.09183000  1.0
  C  C53  1  0.34928000  0.52944000  0.59183000  1.0
  C  C54  1  0.84929000  0.02944000  0.90817000  1.0
  C  C55  1  0.65071000  0.47057000  0.40817000  1.0
  C  C56  1  0.10613000  0.66691000  0.36088000  1.0
  C  C57  1  0.39387000  0.83309000  0.86087000  1.0
  C  C58  1  0.89387000  0.33309000  0.63913000  1.0
  C  C59  1  0.60613000  0.16690000  0.13913000  1.0
  C  C60  1  0.00865000  0.83823000  0.02677000  1.0
  C  C61  1  0.49135000  0.66178000  0.52677000  1.0
  C  C62  1  0.99136000  0.16177000  0.97323000  1.0
  C  C63  1  0.50864000  0.33823000  0.47323000  1.0
  C  C64  1  0.13029000  0.43430000  0.40298000  1.0
  C  C65  1  0.36971000  0.06570000  0.90298000  1.0
  C  C66  1  0.86970000  0.56571000  0.59703000  1.0
  C  C67  1  0.63030000  0.93429000  0.09703000  1.0
  C  C68  1  0.91955000  0.47431000  0.12933000  1.0
  C  C69  1  0.58044000  0.02571000  0.62934000  1.0
  C  C70  1  0.08045000  0.52570000  0.87066000  1.0
  C  C71  1  0.41955000  0.97430000  0.37066000  1.0
  C  C72  1  0.08613000  0.75060000  0.08374000  1.0
  C  C73  1  0.41387000  0.74939000  0.58374000  1.0
  C  C74  1  0.91389000  0.24938000  0.91625000  1.0
  C  C75  1  0.58611000  0.25062000  0.41625000  1.0
  C  C76  1  0.20782000  0.47120000  0.33013000  1.0
  C  C77  1  0.29219000  0.02880000  0.83013000  1.0
  C  C78  1  0.79218000  0.52880000  0.66987000  1.0
  C  C79  1  0.70782000  0.97119000  0.16987000  1.0
  C  C80  1  0.22509000  0.87822000  0.14551000  1.0
  C  C81  1  0.27492000  0.62179000  0.64551000  1.0
  C  C82  1  0.77493000  0.12178000  0.85449000  1.0
  C  C83  1  0.72507000  0.37822000  0.35449000  1.0
  C  C84  1  0.02709000  0.63702000  0.43560000  1.0
  C  C85  1  0.47292000  0.86298000  0.93560000  1.0
  C  C86  1  0.97291000  0.36297000  0.56440000  1.0
  C  C87  1  0.52709000  0.13702000  0.06440000  1.0
  S  S88  1  0.85225000  0.59452000  0.19977000  1.0
  S  S89  1  0.64774000  0.90549000  0.69977000  1.0
  S  S90  1  0.14774000  0.40549000  0.80023000  1.0
  S  S91  1  0.35225000  0.09452000  0.30023000  1.0
  S  S92  1  0.44747000  0.47582000  0.12368000  1.0
  S  S93  1  0.05252000  0.02419000  0.62368000  1.0
  S  S94  1  0.55253000  0.52418000  0.87632000  1.0
  S  S95  1  0.94747000  0.97582000  0.37632000  1.0
  S  S96  1  0.77569000  0.41056000  0.09016000  1.0
  S  S97  1  0.72431000  0.08945000  0.59016000  1.0
  S  S98  1  0.22431000  0.58944000  0.90984000  1.0
  S  S99  1  0.27568000  0.91056000  0.40984000  1.0
  S  S100  1  0.54035000  0.70168000  0.25499000  1.0
  S  S101  1  0.95965000  0.79832000  0.75499000  1.0
  S  S102  1  0.45965000  0.29831000  0.74501000  1.0
  S  S103  1  0.04035000  0.20168000  0.24501000  1.0
  S  S104  1  0.09743000  0.42931000  0.10041000  1.0
  S  S105  1  0.40256000  0.07070000  0.60041000  1.0
  S  S106  1  0.90257000  0.57069000  0.89959000  1.0
  S  S107  1  0.59743000  0.92931000  0.39959000  1.0
  N  N108  1  0.19369000  0.76953000  0.14206000  1.0
  N  N109  1  0.30631000  0.73047000  0.64206000  1.0
  N  N110  1  0.80633000  0.23047000  0.85795000  1.0
  N  N111  1  0.69367000  0.26953000  0.35794000  1.0
  N  N112  1  0.19791000  0.58588000  0.30987000  1.0
  N  N113  1  0.30208000  0.91412000  0.80986000  1.0
  N  N114  1  0.80209000  0.41412000  0.69013000  1.0
  N  N115  1  0.69792000  0.08587000  0.19014000  1.0
