# generated using pymatgen
data_AlH9C18O5F
_symmetry_space_group_name_H-M   'P 1'
_cell_length_a   6.68712000
_cell_length_b   21.72280000
_cell_length_c   25.29980000
_cell_angle_alpha   95.86590000
_cell_angle_beta   89.99190000
_cell_angle_gamma   89.99020000
_symmetry_Int_Tables_number   1
_chemical_formula_structural   AlH9C18O5F
_chemical_formula_sum   'Al4 H36 C72 O20 F4'
_cell_volume   3655.88038064
_cell_formula_units_Z   4
loop_
 _symmetry_equiv_pos_site_id
 _symmetry_equiv_pos_as_xyz
  1  'x, y, z'
loop_
 _atom_site_type_symbol
 _atom_site_label
 _atom_site_symmetry_multiplicity
 _atom_site_fract_x
 _atom_site_fract_y
 _atom_site_fract_z
 _atom_site_occupancy
  Al  Al0  1  0.19455000  0.74943000  0.74954000  1.0
  Al  Al1  1  0.80546000  0.25058000  0.25046000  1.0
  Al  Al2  1  0.69455000  0.75062000  0.75046000  1.0
  Al  Al3  1  0.30546000  0.24939000  0.24954000  1.0
  H  H4  1  0.15558000  0.61832000  0.41793000  1.0
  H  H5  1  0.84444000  0.38168000  0.58207000  1.0
  H  H6  1  0.65722000  0.88173000  0.08195000  1.0
  H  H7  1  0.34275000  0.11828000  0.91805000  1.0
  H  H8  1  0.04495000  0.63128000  0.58953000  1.0
  H  H9  1  0.95506000  0.36872000  0.41047000  1.0
  H  H10  1  0.54560000  0.86882000  0.91039000  1.0
  H  H11  1  0.45440000  0.13119000  0.08961000  1.0
  H  H12  1  0.81627000  0.54517000  0.72255000  1.0
  H  H13  1  0.18374000  0.45483000  0.27745000  1.0
  H  H14  1  0.31487000  0.95480000  0.77754000  1.0
  H  H15  1  0.68510000  0.04519000  0.22246000  1.0
  H  H16  1  0.19773000  0.55631000  0.33280000  1.0
  H  H17  1  0.80227000  0.44369000  0.66720000  1.0
  H  H18  1  0.69945000  0.94372000  0.16708000  1.0
  H  H19  1  0.30050000  0.05628000  0.83292000  1.0
  H  H20  1  0.07938000  0.62681000  0.51279000  1.0
  H  H21  1  0.92063000  0.37319000  0.48720000  1.0
  H  H22  1  0.58056000  0.87324000  0.98712000  1.0
  H  H23  1  0.41942000  0.12676000  0.01288000  1.0
  H  H24  1  0.65634000  0.92916000  0.55031000  1.0
  H  H25  1  0.34365000  0.07083000  0.44970000  1.0
  H  H26  1  0.15632000  0.57085000  0.94968000  1.0
  H  H27  1  0.84368000  0.42915000  0.05033000  1.0
  H  H28  1  0.63607000  0.85889000  0.62257000  1.0
  H  H29  1  0.36394000  0.14111000  0.37743000  1.0
  H  H30  1  0.13617000  0.64113000  0.87742000  1.0
  H  H31  1  0.86382000  0.35887000  0.12258000  1.0
  H  H32  1  0.27011000  0.87872000  0.64882000  1.0
  H  H33  1  0.72991000  0.12128000  0.35118000  1.0
  H  H34  1  0.77026000  0.62125000  0.85118000  1.0
  H  H35  1  0.22975000  0.37874000  0.14882000  1.0
  H  H36  1  0.44758000  0.71289000  0.68623000  1.0
  H  H37  1  0.55244000  0.28711000  0.31377000  1.0
  H  H38  1  0.94739000  0.78710000  0.81380000  1.0
  H  H39  1  0.05262000  0.21290000  0.18620000  1.0
  C  C40  1  0.44472000  0.67986000  0.81875000  1.0
  C  C41  1  0.55527000  0.32014000  0.18126000  1.0
  C  C42  1  0.94463000  0.82017000  0.68125000  1.0
  C  C43  1  0.05540000  0.17983000  0.31875000  1.0
  C  C44  1  0.44283000  0.84584000  0.80793000  1.0
  C  C45  1  0.55718000  0.15416000  0.19207000  1.0
  C  C46  1  0.94308000  0.65420000  0.69206000  1.0
  C  C47  1  0.05694000  0.34580000  0.30794000  1.0
  C  C48  1  0.06560000  0.40638000  0.34160000  1.0
  C  C49  1  0.93440000  0.59362000  0.65840000  1.0
  C  C50  1  0.56593000  0.09358000  0.15840000  1.0
  C  C51  1  0.43408000  0.90642000  0.84160000  1.0
  C  C52  1  0.14753000  0.51487000  0.34993000  1.0
  C  C53  1  0.85247000  0.48513000  0.65007000  1.0
  C  C54  1  0.64879000  0.98513000  0.14998000  1.0
  C  C55  1  0.35116000  0.01487000  0.85002000  1.0
  C  C56  1  0.13827000  0.45888000  0.31905000  1.0
  C  C57  1  0.86173000  0.54112000  0.68095000  1.0
  C  C58  1  0.63929000  0.04110000  0.18088000  1.0
  C  C59  1  0.36069000  0.95890000  0.81911000  1.0
  C  C60  1  0.01071000  0.41023000  0.39462000  1.0
  C  C61  1  0.98929000  0.58977000  0.60538000  1.0
  C  C62  1  0.51065000  0.08971000  0.10541000  1.0
  C  C63  1  0.48936000  0.91029000  0.89458000  1.0
  C  C64  1  0.03094000  0.46620000  0.42805000  1.0
  C  C65  1  0.96907000  0.53380000  0.57194000  1.0
  C  C66  1  0.53113000  0.03378000  0.07195000  1.0
  C  C67  1  0.46886000  0.96623000  0.92804000  1.0
  C  C68  1  0.09619000  0.51982000  0.40448000  1.0
  C  C69  1  0.90381000  0.48018000  0.59551000  1.0
  C  C70  1  0.59706000  0.98019000  0.09546000  1.0
  C  C71  1  0.40290000  0.01981000  0.90454000  1.0
  C  C72  1  0.98998000  0.47096000  0.48455000  1.0
  C  C73  1  0.01004000  0.52903000  0.51544000  1.0
  C  C74  1  0.48986000  0.02903000  0.01546000  1.0
  C  C75  1  0.51013000  0.97097000  0.98453000  1.0
  C  C76  1  0.06822000  0.58179000  0.48977000  1.0
  C  C77  1  0.93180000  0.41821000  0.51023000  1.0
  C  C78  1  0.56903000  0.91823000  0.01017000  1.0
  C  C79  1  0.43095000  0.08177000  0.98983000  1.0
  C  C80  1  0.11027000  0.57741000  0.43662000  1.0
  C  C81  1  0.88974000  0.42259000  0.56337000  1.0
  C  C82  1  0.61129000  0.92261000  0.06330000  1.0
  C  C83  1  0.38867000  0.07739000  0.93670000  1.0
  C  C84  1  0.78950000  0.91810000  0.57219000  1.0
  C  C85  1  0.21051000  0.08190000  0.42782000  1.0
  C  C86  1  0.28952000  0.58190000  0.92781000  1.0
  C  C87  1  0.71047000  0.41809000  0.07219000  1.0
  C  C88  1  0.77809000  0.87915000  0.61234000  1.0
  C  C89  1  0.22191000  0.12084000  0.38766000  1.0
  C  C90  1  0.27818000  0.62085000  0.88766000  1.0
  C  C91  1  0.72181000  0.37915000  0.11235000  1.0
  C  C92  1  0.95093000  0.86440000  0.63982000  1.0
  C  C93  1  0.04908000  0.13559000  0.36019000  1.0
  C  C94  1  0.45104000  0.63561000  0.86018000  1.0
  C  C95  1  0.54897000  0.36439000  0.13982000  1.0
  C  C96  1  0.13561000  0.89009000  0.62759000  1.0
  C  C97  1  0.86439000  0.10991000  0.37241000  1.0
  C  C98  1  0.63570000  0.60990000  0.87241000  1.0
  C  C99  1  0.36429000  0.39010000  0.12759000  1.0
  C  C100  1  0.14317000  0.92953000  0.58820000  1.0
  C  C101  1  0.85683000  0.07047000  0.41180000  1.0
  C  C102  1  0.64322000  0.57047000  0.91180000  1.0
  C  C103  1  0.35678000  0.42953000  0.08821000  1.0
  C  C104  1  0.97387000  0.94434000  0.55885000  1.0
  C  C105  1  0.02613000  0.05566000  0.44115000  1.0
  C  C106  1  0.47388000  0.55565000  0.94115000  1.0
  C  C107  1  0.52611000  0.44434000  0.05885000  1.0
  C  C108  1  0.99103000  0.98334000  0.51787000  1.0
  C  C109  1  0.00896000  0.01665000  0.48213000  1.0
  C  C110  1  0.49102000  0.51665000  0.98213000  1.0
  C  C111  1  0.50896000  0.48336000  0.01787000  1.0
  O  O112  1  0.61357000  0.82215000  0.79671000  1.0
  O  O113  1  0.38645000  0.17785000  0.20329000  1.0
  O  O114  1  0.11384000  0.67777000  0.70338000  1.0
  O  O115  1  0.88617000  0.32223000  0.29662000  1.0
  O  O116  1  0.27358000  0.69670000  0.80330000  1.0
  O  O117  1  0.72644000  0.30330000  0.19670000  1.0
  O  O118  1  0.77345000  0.80344000  0.69678000  1.0
  O  O119  1  0.22655000  0.19656000  0.30322000  1.0
  O  O120  1  0.27503000  0.82264000  0.79296000  1.0
  O  O121  1  0.72498000  0.17736000  0.20705000  1.0
  O  O122  1  0.77528000  0.67752000  0.70695000  1.0
  O  O123  1  0.22472000  0.32248000  0.29305000  1.0
  O  O124  1  0.11360000  0.80196000  0.69687000  1.0
  O  O125  1  0.88641000  0.19804000  0.30313000  1.0
  O  O126  1  0.61373000  0.69796000  0.80306000  1.0
  O  O127  1  0.38627000  0.30204000  0.19695000  1.0
  O  O128  1  0.44527000  0.74261000  0.71758000  1.0
  O  O129  1  0.55473000  0.25739000  0.28243000  1.0
  O  O130  1  0.94522000  0.75742000  0.78243000  1.0
  O  O131  1  0.05478000  0.24258000  0.21757000  1.0
  F  F132  1  0.32201000  0.95511000  0.57668000  1.0
  F  F133  1  0.67798000  0.04489000  0.42332000  1.0
  F  F134  1  0.82206000  0.54488000  0.92333000  1.0
  F  F135  1  0.17794000  0.45512000  0.07667000  1.0
