# generated using pymatgen
data_Zr3H31C36NO16
_symmetry_space_group_name_H-M   'P 1'
_cell_length_a   14.81505732
_cell_length_b   14.87030000
_cell_length_c   14.87504345
_cell_angle_alpha   119.74571047
_cell_angle_beta   119.82293444
_cell_angle_gamma   90.21823756
_symmetry_Int_Tables_number   1
_chemical_formula_structural   Zr3H31C36NO16
_chemical_formula_sum   'Zr6 H62 C72 N2 O32'
_cell_volume   2327.87513650
_cell_formula_units_Z   2
loop_
 _symmetry_equiv_pos_site_id
 _symmetry_equiv_pos_as_xyz
  1  'x, y, z'
loop_
 _atom_site_type_symbol
 _atom_site_label
 _atom_site_symmetry_multiplicity
 _atom_site_fract_x
 _atom_site_fract_y
 _atom_site_fract_z
 _atom_site_occupancy
  Zr  Zr0  1  0.38505000  0.11989000  0.49670000  1.0
  Zr  Zr1  1  0.62300000  0.88308000  0.50648000  1.0
  Zr  Zr2  1  0.38668000  0.87876000  0.26441000  1.0
  Zr  Zr3  1  0.62222000  0.12282000  0.73921000  1.0
  Zr  Zr4  1  0.38213000  0.88664000  0.50253000  1.0
  Zr  Zr5  1  0.62296000  0.11821000  0.49908000  1.0
  H  H6  1  0.22279000  0.90672000  0.31278000  1.0
  H  H7  1  0.59484000  0.91324000  0.69404000  1.0
  H  H8  1  0.59782000  0.90199000  0.31478000  1.0
  H  H9  1  0.59915000  0.28183000  0.68328000  1.0
  H  H10  1  0.11574000  0.81039000  0.53604000  1.0
  H  H11  1  0.02479000  0.74725000  0.37042000  1.0
  H  H12  1  0.86277000  0.74567000  0.38388000  1.0
  H  H13  1  0.95223000  0.81329000  0.55041000  1.0
  H  H14  1  0.68688000  0.40157000  0.44647000  1.0
  H  H15  1  0.75860000  0.48759000  0.61360000  1.0
  H  H16  1  0.74979000  0.65351000  0.61027000  1.0
  H  H17  1  0.67130000  0.56879000  0.44201000  1.0
  H  H18  1  0.63978000  0.26870000  0.11878000  1.0
  H  H19  1  0.73450000  0.19403000  0.12939000  1.0
  H  H20  1  0.73324000  0.19646000  0.29947000  1.0
  H  H21  1  0.63236000  0.26324000  0.28125000  1.0
  H  H22  1  0.99860000  0.32809000  0.09302000  1.0
  H  H23  1  0.91876000  0.41030000  0.12874000  1.0
  H  H24  1  0.09181000  0.57699000  0.30136000  1.0
  H  H25  1  0.16985000  0.49516000  0.25972000  1.0
  H  H26  1  0.06136000  0.96819000  0.24130000  1.0
  H  H27  1  0.89207000  0.95762000  0.23384000  1.0
  H  H28  1  0.74218000  0.01175000  0.94043000  1.0
  H  H29  1  0.73215000  0.98294000  0.08443000  1.0
  H  H30  1  0.24418000  0.36255000  0.73305000  1.0
  H  H31  1  0.30476000  0.44812000  0.71246000  1.0
  H  H32  1  0.31328000  0.61447000  0.89155000  1.0
  H  H33  1  0.24896000  0.52728000  0.90760000  1.0
  H  H34  1  0.89426000  0.22490000  0.52805000  1.0
  H  H35  1  0.78965000  0.10394000  0.38400000  1.0
  H  H36  1  0.89965000  0.16714000  0.39448000  1.0
  H  H37  1  0.07039000  0.16577000  0.41250000  1.0
  H  H38  1  0.18401000  0.21311000  0.56481000  1.0
  H  H39  1  0.06644000  0.25414000  0.54485000  1.0
  H  H40  1  0.24814000  0.54453000  0.45975000  1.0
  H  H41  1  0.33596000  0.67581000  0.53482000  1.0
  H  H42  1  0.34793000  0.62536000  0.62517000  1.0
  H  H43  1  0.28375000  0.45576000  0.53364000  1.0
  H  H44  1  0.36954000  0.38591000  0.58639000  1.0
  H  H45  1  0.27470000  0.32371000  0.42385000  1.0
  H  H46  1  0.26693000  0.81787000  0.91093000  1.0
  H  H47  1  0.38767000  0.78631000  0.97670000  1.0
  H  H48  1  0.31807000  0.74824000  0.81898000  1.0
  H  H49  1  0.30496000  0.78754000  0.67276000  1.0
  H  H50  1  0.27384000  0.90758000  0.69534000  1.0
  H  H51  1  0.23094000  0.83564000  0.74150000  1.0
  H  H52  1  0.10958000  0.63412000  0.91066000  1.0
  H  H53  1  0.08543000  0.73120000  0.01891000  1.0
  H  H54  1  0.97291000  0.63499000  0.86011000  1.0
  H  H55  1  0.94208000  0.47975000  0.73063000  1.0
  H  H56  1  0.81372000  0.40098000  0.67798000  1.0
  H  H57  1  0.91914000  0.34482000  0.69270000  1.0
  H  H58  1  0.68288000  0.49509000  0.25775000  1.0
  H  H59  1  0.65677000  0.62010000  0.33004000  1.0
  H  H60  1  0.76123000  0.61790000  0.30474000  1.0
  H  H61  1  0.77493000  0.50990000  0.16133000  1.0
  H  H62  1  0.72211000  0.41399000  0.99963000  1.0
  H  H63  1  0.70600000  0.36918000  0.08146000  1.0
  H  H64  1  0.92701000  0.96156000  0.72458000  1.0
  H  H65  1  0.05169000  0.94279000  0.78521000  1.0
  H  H66  1  0.24586000  0.97098000  0.04461000  1.0
  H  H67  1  0.20408000  0.02991000  0.96429000  1.0
  C  C68  1  0.20103000  0.00839000  0.50152000  1.0
  C  C69  1  0.49683000  0.70326000  0.50929000  1.0
  C  C70  1  0.80547000  0.99813000  0.49881000  1.0
  C  C71  1  0.50338000  0.30115000  0.49365000  1.0
  C  C72  1  0.19900000  0.99637000  0.19171000  1.0
  C  C73  1  0.50158000  0.30762000  0.79911000  1.0
  C  C74  1  0.81036000  0.00688000  0.80854000  1.0
  C  C75  1  0.50429000  0.69044000  0.20738000  1.0
  C  C76  1  0.20085000  0.69765000  0.20098000  1.0
  C  C77  1  0.50115000  0.00104000  0.19660000  1.0
  C  C78  1  0.81272000  0.29775000  0.80125000  1.0
  C  C79  1  0.49196000  0.01510000  0.80458000  1.0
  C  C80  1  0.09727000  0.00820000  0.49413000  1.0
  C  C81  1  0.89874000  0.99788000  0.48571000  1.0
  C  C82  1  0.04356000  0.92193000  0.48273000  1.0
  C  C83  1  0.94235000  0.07748000  0.47804000  1.0
  C  C84  1  0.95063000  0.91966000  0.48432000  1.0
  C  C85  1  0.04492000  0.08816000  0.49257000  1.0
  C  C86  1  0.04286000  0.81157000  0.46311000  1.0
  C  C87  1  0.94012000  0.81141000  0.47030000  1.0
  C  C88  1  0.50077000  0.40703000  0.50641000  1.0
  C  C89  1  0.49529000  0.60614000  0.51595000  1.0
  C  C90  1  0.58140000  0.46568000  0.51450000  1.0
  C  C91  1  0.41675000  0.55363000  0.51897000  1.0
  C  C92  1  0.57762000  0.56054000  0.51756000  1.0
  C  C93  1  0.41841000  0.45478000  0.51240000  1.0
  C  C94  1  0.68863000  0.47127000  0.52471000  1.0
  C  C95  1  0.68224000  0.57682000  0.52440000  1.0
  C  C96  1  0.48403000  0.01549000  0.90107000  1.0
  C  C97  1  0.49417000  0.00198000  0.09341000  1.0
  C  C98  1  0.56318000  0.09337000  0.03011000  1.0
  C  C99  1  0.41410000  0.91945000  0.96193000  1.0
  C  C100  1  0.56476000  0.08950000  0.12259000  1.0
  C  C101  1  0.40246000  0.93286000  0.86900000  1.0
  C  C102  1  0.65908000  0.20025000  0.12579000  1.0
  C  C103  1  0.65757000  0.19833000  0.23020000  1.0
  C  C104  1  0.91267000  0.39837000  0.89880000  1.0
  C  C105  1  0.09875000  0.59949000  0.09724000  1.0
  C  C106  1  0.97240000  0.43580000  0.02561000  1.0
  C  C107  1  0.03482000  0.56762000  0.96984000  1.0
  C  C108  1  0.06479000  0.53049000  0.12048000  1.0
  C  C109  1  0.94968000  0.46402000  0.87117000  1.0
  C  C110  1  0.98521000  0.40695000  0.11493000  1.0
  C  C111  1  0.09225000  0.51236000  0.22166000  1.0
  C  C112  1  0.09534000  0.99070000  0.08871000  1.0
  C  C113  1  0.99935000  0.99084000  0.09033000  1.0
  C  C114  1  0.09398000  0.98677000  0.99256000  1.0
  C  C115  1  0.99124000  0.97617000  0.17357000  1.0
  C  C116  1  0.89653000  0.97137000  0.17049000  1.0
  C  C117  1  0.90820000  0.00183000  0.90610000  1.0
  C  C118  1  0.99739000  0.98863000  0.89713000  1.0
  C  C119  1  0.90620000  0.00071000  0.00101000  1.0
  C  C120  1  0.81185000  0.00011000  0.00411000  1.0
  C  C121  1  0.80662000  0.98501000  0.08610000  1.0
  C  C122  1  0.50848000  0.40890000  0.90494000  1.0
  C  C123  1  0.50751000  0.59072000  0.10952000  1.0
  C  C124  1  0.42202000  0.45189000  0.88364000  1.0
  C  C125  1  0.59339000  0.54383000  0.13412000  1.0
  C  C126  1  0.42394000  0.54180000  0.98188000  1.0
  C  C127  1  0.59894000  0.46207000  0.03412000  1.0
  C  C128  1  0.30882000  0.43852000  0.78281000  1.0
  C  C129  1  0.31246000  0.54190000  0.89384000  1.0
  C  C130  1  0.87835000  0.14731000  0.44484000  1.0
  C  C131  1  0.09420000  0.18589000  0.50497000  1.0
  C  C132  1  0.33249000  0.60291000  0.53500000  1.0
  C  C133  1  0.33203000  0.40316000  0.51449000  1.0
  C  C134  1  0.34264000  0.81247000  0.91463000  1.0
  C  C135  1  0.29759000  0.86154000  0.73755000  1.0
  C  C136  1  0.05171000  0.64562000  0.93810000  1.0
  C  C137  1  0.90340000  0.42195000  0.73646000  1.0
  C  C138  1  0.67780000  0.57160000  0.26404000  1.0
  C  C139  1  0.70578000  0.43740000  0.07096000  1.0
  N  N140  1  0.00154000  0.98323000  0.80377000  1.0
  N  N141  1  0.18084000  0.97694000  0.97921000  1.0
  O  O142  1  0.24600000  0.08262000  0.50240000  1.0
  O  O143  1  0.57661000  0.73997000  0.51131000  1.0
  O  O144  1  0.77163000  0.92245000  0.50403000  1.0
  O  O145  1  0.42340000  0.24893000  0.47954000  1.0
  O  O146  1  0.24315000  0.92324000  0.15788000  1.0
  O  O147  1  0.57203000  0.26068000  0.83030000  1.0
  O  O148  1  0.76919000  0.08138000  0.84418000  1.0
  O  O149  1  0.42927000  0.73000000  0.16613000  1.0
  O  O150  1  0.23547000  0.73766000  0.31531000  1.0
  O  O151  1  0.58047000  0.07649000  0.31095000  1.0
  O  O152  1  0.77087000  0.25431000  0.68449000  1.0
  O  O153  1  0.42054000  0.93751000  0.68812000  1.0
  O  O154  1  0.42640000  0.92616000  0.16496000  1.0
  O  O155  1  0.77212000  0.26252000  0.84115000  1.0
  O  O156  1  0.57341000  0.08879000  0.84462000  1.0
  O  O157  1  0.24894000  0.73468000  0.16863000  1.0
  O  O158  1  0.23753000  0.07364000  0.30588000  1.0
  O  O159  1  0.57731000  0.73385000  0.32503000  1.0
  O  O160  1  0.77262000  0.93339000  0.69207000  1.0
  O  O161  1  0.42533000  0.27197000  0.68463000  1.0
  O  O162  1  0.58413000  0.26772000  0.49771000  1.0
  O  O163  1  0.23821000  0.93151000  0.50395000  1.0
  O  O164  1  0.41934000  0.74407000  0.50056000  1.0
  O  O165  1  0.76639000  0.07612000  0.50707000  1.0
  O  O166  1  0.57149000  0.20224000  0.63139000  1.0
  O  O167  1  0.57172000  0.93087000  0.36844000  1.0
  O  O168  1  0.57023000  0.93914000  0.64017000  1.0
  O  O169  1  0.30273000  0.93394000  0.36573000  1.0
  O  O170  1  0.45497000  0.85409000  0.40670000  1.0
  O  O171  1  0.45376000  0.05367000  0.59864000  1.0
  O  O172  1  0.65038000  0.04993000  0.59946000  1.0
  O  O173  1  0.45529000  0.04745000  0.39973000  1.0
