# generated using pymatgen
data_MnH6(C2O3)2
_symmetry_space_group_name_H-M   'P 1'
_cell_length_a   7.14615000
_cell_length_b   7.56318000
_cell_length_c   7.56325000
_cell_angle_alpha   111.99100000
_cell_angle_beta   103.60800000
_cell_angle_gamma   103.61100000
_symmetry_Int_Tables_number   1
_chemical_formula_structural   MnH6(C2O3)2
_chemical_formula_sum   'Mn2 H12 C8 O12'
_cell_volume   343.85242672
_cell_formula_units_Z   2
loop_
 _symmetry_equiv_pos_site_id
 _symmetry_equiv_pos_as_xyz
  1  'x, y, z'
loop_
 _atom_site_type_symbol
 _atom_site_label
 _atom_site_symmetry_multiplicity
 _atom_site_fract_x
 _atom_site_fract_y
 _atom_site_fract_z
 _atom_site_occupancy
  Mn  Mn0  1  0.75802000  0.85667000  0.15086000  1.0
  Mn  Mn1  1  0.25803000  0.15086000  0.85666000  1.0
  H  H2  1  0.95790000  0.54474000  0.28519000  1.0
  H  H3  1  0.45790000  0.28519000  0.54476000  1.0
  H  H4  1  0.04578000  0.54694000  0.60498000  1.0
  H  H5  1  0.54578000  0.60498000  0.54694000  1.0
  H  H6  1  0.38349000  0.58007000  0.82271000  1.0
  H  H7  1  0.88350000  0.82270000  0.58008000  1.0
  H  H8  1  0.39817000  0.81444000  0.94258000  1.0
  H  H9  1  0.89818000  0.94256000  0.81444000  1.0
  H  H10  1  0.96700000  0.56705000  0.97836000  1.0
  H  H11  1  0.46700000  0.97835000  0.56704000  1.0
  H  H12  1  0.95824000  0.71746000  0.87780000  1.0
  H  H13  1  0.45826000  0.87781000  0.71747000  1.0
  C  C14  1  0.95973000  0.25045000  0.09231000  1.0
  C  C15  1  0.45971000  0.09230000  0.25044000  1.0
  C  C16  1  0.97358000  0.40657000  0.29012000  1.0
  C  C17  1  0.47356000  0.29014000  0.40657000  1.0
  C  C18  1  0.02586000  0.40858000  0.47343000  1.0
  C  C19  1  0.52586000  0.47345000  0.40857000  1.0
  C  C20  1  0.09109000  0.25667000  0.52434000  1.0
  C  C21  1  0.59108000  0.52437000  0.25670000  1.0
  O  O22  1  0.06479000  0.31919000  0.00237000  1.0
  O  O23  1  0.56478000  0.00237000  0.31921000  1.0
  O  O24  1  0.84564000  0.06235000  0.01773000  1.0
  O  O25  1  0.34563000  0.01774000  0.06235000  1.0
  O  O26  1  0.02692000  0.06854000  0.40261000  1.0
  O  O27  1  0.52693000  0.40265000  0.06856000  1.0
  O  O28  1  0.22814000  0.33296000  0.70481000  1.0
  O  O29  1  0.72814000  0.70482000  0.33298000  1.0
  O  O30  1  0.47410000  0.72670000  0.87950000  1.0
  O  O31  1  0.97411000  0.87950000  0.72670000  1.0
  O  O32  1  0.90255000  0.66388000  0.96234000  1.0
  O  O33  1  0.40256000  0.96235000  0.66389000  1.0
