# generated using pymatgen
data_CdH22C24Br2(N2O3)2
_symmetry_space_group_name_H-M   'P 1'
_cell_length_a   11.38240000
_cell_length_b   11.53150000
_cell_length_c   12.00810000
_cell_angle_alpha   89.49060000
_cell_angle_beta   65.88650000
_cell_angle_gamma   68.31780000
_symmetry_Int_Tables_number   1
_chemical_formula_structural   CdH22C24Br2(N2O3)2
_chemical_formula_sum   'Cd2 H44 C48 Br4 N8 O12'
_cell_volume   1317.93335685
_cell_formula_units_Z   2
loop_
 _symmetry_equiv_pos_site_id
 _symmetry_equiv_pos_as_xyz
  1  'x, y, z'
loop_
 _atom_site_type_symbol
 _atom_site_label
 _atom_site_symmetry_multiplicity
 _atom_site_fract_x
 _atom_site_fract_y
 _atom_site_fract_z
 _atom_site_occupancy
  Cd  Cd0  1  0.65935000  0.08918000  0.62017000  1.0
  Cd  Cd1  1  0.34062000  0.91082000  0.37987000  1.0
  H  H2  1  0.80453000  0.98850000  0.82143000  1.0
  H  H3  1  0.19548000  0.01150000  0.17857000  1.0
  H  H4  1  0.09614000  0.15314000  0.64320000  1.0
  H  H5  1  0.90385000  0.84687000  0.35679000  1.0
  H  H6  1  0.90551000  0.20437000  0.53919000  1.0
  H  H7  1  0.09448000  0.79563000  0.46081000  1.0
  H  H8  1  0.10111000  0.89877000  0.79658000  1.0
  H  H9  1  0.89890000  0.10122000  0.20341000  1.0
  H  H10  1  0.13076000  0.03775000  0.80312000  1.0
  H  H11  1  0.86923000  0.96227000  0.19687000  1.0
  H  H12  1  0.87135000  0.99823000  0.98810000  1.0
  H  H13  1  0.12865000  0.00178000  0.01190000  1.0
  H  H14  1  0.90509000  0.13502000  0.99670000  1.0
  H  H15  1  0.09491000  0.86498000  0.00329000  1.0
  H  H16  1  0.74888000  0.79764000  0.72263000  1.0
  H  H17  1  0.25111000  0.20236000  0.27738000  1.0
  H  H18  1  0.62999000  0.90000000  0.43333000  1.0
  H  H19  1  0.37001000  0.09999000  0.56667000  1.0
  H  H20  1  0.70176000  0.64116000  0.43333000  1.0
  H  H21  1  0.29823000  0.35885000  0.56667000  1.0
  H  H22  1  0.72402000  0.51403000  0.62783000  1.0
  H  H23  1  0.27599000  0.48597000  0.37217000  1.0
  H  H24  1  0.80489000  0.56970000  0.70116000  1.0
  H  H25  1  0.19513000  0.43031000  0.29884000  1.0
  H  H26  1  0.97653000  0.38019000  0.54040000  1.0
  H  H27  1  0.02347000  0.61981000  0.45959000  1.0
  H  H28  1  0.93573000  0.45834000  0.42526000  1.0
  H  H29  1  0.06427000  0.54167000  0.57474000  1.0
  H  H30  1  0.57781000  0.60307000  0.26769000  1.0
  H  H31  1  0.42220000  0.39693000  0.73230000  1.0
  H  H32  1  0.52498000  0.52062000  0.11024000  1.0
  H  H33  1  0.47503000  0.47939000  0.88975000  1.0
  H  H34  1  0.60558000  0.16175000  0.24136000  1.0
  H  H35  1  0.39442000  0.83826000  0.75863000  1.0
  H  H36  1  0.00544000  0.26434000  0.21758000  1.0
  H  H37  1  0.99456000  0.73566000  0.78242000  1.0
  H  H38  1  0.83529000  0.38438000  0.13560000  1.0
  H  H39  1  0.16470000  0.61562000  0.86439000  1.0
  H  H40  1  0.17702000  0.30876000  0.77240000  1.0
  H  H41  1  0.82297000  0.69125000  0.22760000  1.0
  H  H42  1  0.67812000  0.40151000  0.46995000  1.0
  H  H43  1  0.32188000  0.59851000  0.53009000  1.0
  H  H44  1  0.37403000  0.11559000  0.01117000  1.0
  H  H45  1  0.62596000  0.88442000  0.98880000  1.0
  C  C46  1  0.85784000  0.03992000  0.75790000  1.0
  C  C47  1  0.14217000  0.96007000  0.24209000  1.0
  C  C48  1  0.00795000  0.12763000  0.66319000  1.0
  C  C49  1  0.99206000  0.87237000  0.33681000  1.0
  C  C50  1  0.91428000  0.15208000  0.61278000  1.0
  C  C51  1  0.08571000  0.84792000  0.38722000  1.0
  C  C52  1  0.04822000  0.00178000  0.82712000  1.0
  C  C53  1  0.95178000  0.99823000  0.17287000  1.0
  C  C54  1  0.95586000  0.03188000  0.96590000  1.0
  C  C55  1  0.04414000  0.96812000  0.03409000  1.0
  C  C56  1  0.73001000  0.79184000  0.64151000  1.0
  C  C57  1  0.26998000  0.20815000  0.35849000  1.0
  C  C58  1  0.66824000  0.84018000  0.49161000  1.0
  C  C59  1  0.33176000  0.15980000  0.50838000  1.0
  C  C60  1  0.70538000  0.71228000  0.48885000  1.0
  C  C61  1  0.29462000  0.28773000  0.51115000  1.0
  C  C62  1  0.79963000  0.55702000  0.61302000  1.0
  C  C63  1  0.20038000  0.44298000  0.38698000  1.0
  C  C64  1  0.94458000  0.47322000  0.51159000  1.0
  C  C65  1  0.05542000  0.52678000  0.48841000  1.0
  C  C66  1  0.63168000  0.30325000  0.33318000  1.0
  C  C67  1  0.36833000  0.69669000  0.66687000  1.0
  C  C68  1  0.62598000  0.42819000  0.33906000  1.0
  C  C69  1  0.37402000  0.57178000  0.66095000  1.0
  C  C70  1  0.58451000  0.50645000  0.25998000  1.0
  C  C71  1  0.41550000  0.49354000  0.74003000  1.0
  C  C72  1  0.55508000  0.46001000  0.17251000  1.0
  C  C73  1  0.44492000  0.53999000  0.82748000  1.0
  C  C74  1  0.56623000  0.33485000  0.16391000  1.0
  C  C75  1  0.43377000  0.66516000  0.83609000  1.0
  C  C76  1  0.60169000  0.25756000  0.24435000  1.0
  C  C77  1  0.39832000  0.74244000  0.75568000  1.0
  C  C78  1  0.66363000  0.22400000  0.42348000  1.0
  C  C79  1  0.33640000  0.77592000  0.57655000  1.0
  C  C80  1  0.23474000  0.23029000  0.91461000  1.0
  C  C81  1  0.76525000  0.76973000  0.08539000  1.0
  C  C82  1  0.18646000  0.21545000  0.04056000  1.0
  C  C83  1  0.81354000  0.78457000  0.95945000  1.0
  C  C84  1  0.04216000  0.27286000  0.11980000  1.0
  C  C85  1  0.95783000  0.72715000  0.88021000  1.0
  C  C86  1  0.94704000  0.34028000  0.07418000  1.0
  C  C87  1  0.05295000  0.65973000  0.92583000  1.0
  C  C88  1  0.99554000  0.35148000  0.94881000  1.0
  C  C89  1  0.00444000  0.64855000  0.05119000  1.0
  C  C90  1  0.13778000  0.29878000  0.86957000  1.0
  C  C91  1  0.86221000  0.70124000  0.13043000  1.0
  C  C92  1  0.38754000  0.17480000  0.83091000  1.0
  C  C93  1  0.61244000  0.82523000  0.16910000  1.0
  Br  Br94  1  0.53260000  0.26882000  0.03988000  1.0
  Br  Br95  1  0.46742000  0.73117000  0.96010000  1.0
  Br  Br96  1  0.86236000  0.44005000  0.88718000  1.0
  Br  Br97  1  0.13763000  0.55997000  0.11282000  1.0
  N  N98  1  0.82143000  0.09700000  0.67281000  1.0
  N  N99  1  0.17858000  0.90300000  0.32718000  1.0
  N  N100  1  0.97117000  0.05658000  0.75427000  1.0
  N  N101  1  0.02882000  0.94342000  0.24572000  1.0
  N  N102  1  0.68437000  0.88847000  0.58689000  1.0
  N  N103  1  0.31563000  0.11154000  0.41313000  1.0
  N  N104  1  0.74416000  0.68340000  0.58416000  1.0
  N  N105  1  0.25584000  0.31660000  0.41585000  1.0
  O  O106  1  0.69068000  0.27131000  0.50307000  1.0
  O  O107  1  0.30930000  0.72864000  0.49698000  1.0
  O  O108  1  0.66111000  0.11480000  0.42403000  1.0
  O  O109  1  0.33894000  0.88512000  0.57592000  1.0
  O  O110  1  0.66060000  0.47321000  0.41907000  1.0
  O  O111  1  0.33940000  0.52679000  0.58092000  1.0
  O  O112  1  0.42693000  0.19767000  0.71983000  1.0
  O  O113  1  0.57306000  0.80240000  0.28020000  1.0
  O  O114  1  0.47347000  0.10763000  0.87245000  1.0
  O  O115  1  0.52651000  0.89234000  0.12753000  1.0
  O  O116  1  0.27669000  0.14695000  0.08596000  1.0
  O  O117  1  0.72333000  0.85308000  0.91403000  1.0
