# generated using pymatgen
data_CdH44C52N6(O3F4)2
_symmetry_space_group_name_H-M   'P 1'
_cell_length_a   12.90310000
_cell_length_b   13.16660000
_cell_length_c   16.32710000
_cell_angle_alpha   111.41900000
_cell_angle_beta   108.13800000
_cell_angle_gamma   94.08890000
_symmetry_Int_Tables_number   1
_chemical_formula_structural   CdH44C52N6(O3F4)2
_chemical_formula_sum   'Cd2 H88 C104 N12 O12 F16'
_cell_volume   2399.67610411
_cell_formula_units_Z   2
loop_
 _symmetry_equiv_pos_site_id
 _symmetry_equiv_pos_as_xyz
  1  'x, y, z'
loop_
 _atom_site_type_symbol
 _atom_site_label
 _atom_site_symmetry_multiplicity
 _atom_site_fract_x
 _atom_site_fract_y
 _atom_site_fract_z
 _atom_site_occupancy
  Cd  Cd0  1  0.61648000  0.37648000  0.74600000  1.0
  Cd  Cd1  1  0.38352000  0.62352000  0.25400000  1.0
  H  H2  1  0.52763000  0.20294000  0.52581000  1.0
  H  H3  1  0.47237000  0.79706000  0.47419000  1.0
  H  H4  1  0.84762000  0.33748000  0.72448000  1.0
  H  H5  1  0.15238000  0.66252000  0.27552000  1.0
  H  H6  1  0.59923000  0.09639000  0.40019000  1.0
  H  H7  1  0.40076000  0.90361000  0.59981000  1.0
  H  H8  1  0.93223000  0.24023000  0.60879000  1.0
  H  H9  1  0.06777000  0.75977000  0.39121000  1.0
  H  H10  1  0.84810000  0.15341000  0.39241000  1.0
  H  H11  1  0.15190000  0.84659000  0.60760000  1.0
  H  H12  1  0.75029000  0.03117000  0.36021000  1.0
  H  H13  1  0.24971000  0.96883000  0.63979000  1.0
  H  H14  1  0.68190000  0.14795000  0.75492000  1.0
  H  H15  1  0.31810000  0.85205000  0.24508000  1.0
  H  H16  1  0.78532000  0.47179000  0.96091000  1.0
  H  H17  1  0.21468000  0.52821000  0.03909000  1.0
  H  H18  1  0.78526000  0.07196000  0.86704000  1.0
  H  H19  1  0.21474000  0.92804000  0.13295000  1.0
  H  H20  1  0.89221000  0.40870000  0.08270000  1.0
  H  H21  1  0.10779000  0.59130000  0.91730000  1.0
  H  H22  1  0.84492000  0.18012000  0.09405000  1.0
  H  H23  1  0.15507000  0.81988000  0.90595000  1.0
  H  H24  1  0.97127000  0.26670000  0.11839000  1.0
  H  H25  1  0.02873000  0.73330000  0.88161000  1.0
  H  H26  1  0.71283000  0.64067000  0.87877000  1.0
  H  H27  1  0.28717000  0.35933000  0.12123000  1.0
  H  H28  1  0.44891000  0.42255000  0.85853000  1.0
  H  H29  1  0.55109000  0.57745000  0.14148000  1.0
  H  H30  1  0.66030000  0.80476000  0.97946000  1.0
  H  H31  1  0.33969000  0.19524000  0.02054000  1.0
  H  H32  1  0.38772000  0.57790000  0.96203000  1.0
  H  H33  1  0.61228000  0.42209000  0.03797000  1.0
  H  H34  1  0.39796000  0.77565000  0.03500000  1.0
  H  H35  1  0.60204000  0.22435000  0.96500000  1.0
  H  H36  1  0.53606000  0.82433000  0.11688000  1.0
  H  H37  1  0.46394000  0.17567000  0.88312000  1.0
  H  H38  1  0.55050000  0.56323000  0.67497000  1.0
  H  H39  1  0.44950000  0.43677000  0.32503000  1.0
  H  H40  1  0.36967000  0.24482000  0.58419000  1.0
  H  H41  1  0.63033000  0.75517000  0.41581000  1.0
  H  H42  1  0.39594000  0.60966000  0.56676000  1.0
  H  H43  1  0.60406000  0.39034000  0.43324000  1.0
  H  H44  1  0.20857000  0.27677000  0.47119000  1.0
  H  H45  1  0.79144000  0.72323000  0.52881000  1.0
  H  H46  1  0.16782000  0.40363000  0.37161000  1.0
  H  H47  1  0.83218000  0.59637000  0.62839000  1.0
  H  H48  1  0.22373000  0.54743000  0.43677000  1.0
  H  H49  1  0.77627000  0.45257000  0.56323000  1.0
  H  H50  1  0.00747000  0.42289000  0.83511000  1.0
  H  H51  1  0.99253000  0.57711000  0.16489000  1.0
  H  H52  1  0.03259000  0.28669000  0.90775000  1.0
  H  H53  1  0.96741000  0.71331000  0.09225000  1.0
  H  H54  1  0.16098000  0.15629000  0.87609000  1.0
  H  H55  1  0.83902000  0.84371000  0.12390000  1.0
  H  H56  1  0.26728000  0.16798000  0.77442000  1.0
  H  H57  1  0.73272000  0.83202000  0.22558000  1.0
  H  H58  1  0.24161000  0.30405000  0.70208000  1.0
  H  H59  1  0.75838000  0.69595000  0.29792000  1.0
  H  H60  1  0.08630000  0.41065000  0.64090000  1.0
  H  H61  1  0.91369000  0.58934000  0.35909000  1.0
  H  H62  1  0.03441000  0.49189000  0.72619000  1.0
  H  H63  1  0.96559000  0.50811000  0.27380000  1.0
  H  H64  1  0.19487000  0.60950000  0.72715000  1.0
  H  H65  1  0.80513000  0.39050000  0.27284000  1.0
  H  H66  1  0.28175000  0.51525000  0.74589000  1.0
  H  H67  1  0.71825000  0.48475000  0.25411000  1.0
  H  H68  1  0.23337000  0.59388000  0.83506000  1.0
  H  H69  1  0.76663000  0.40611000  0.16494000  1.0
  H  H70  1  0.84473000  0.79588000  0.77049000  1.0
  H  H71  1  0.15527000  0.20412000  0.22951000  1.0
  H  H72  1  0.99774000  0.91955000  0.76834000  1.0
  H  H73  1  0.00226000  0.08045000  0.23166000  1.0
  H  H74  1  0.95352000  0.05097000  0.69070000  1.0
  H  H75  1  0.04648000  0.94903000  0.30930000  1.0
  H  H76  1  0.75431000  0.05359000  0.61197000  1.0
  H  H77  1  0.24569000  0.94641000  0.38803000  1.0
  H  H78  1  0.60319000  0.93573000  0.61888000  1.0
  H  H79  1  0.39681000  0.06427000  0.38112000  1.0
  H  H80  1  0.65369000  0.71987000  0.71953000  1.0
  H  H81  1  0.34631000  0.28013000  0.28047000  1.0
  H  H82  1  0.55482000  0.74648000  0.63095000  1.0
  H  H83  1  0.44518000  0.25352000  0.36905000  1.0
  H  H84  1  0.50254000  0.79755000  0.77351000  1.0
  H  H85  1  0.49746000  0.20245000  0.22649000  1.0
  H  H86  1  0.53602000  0.91996000  0.75641000  1.0
  H  H87  1  0.46398000  0.08004000  0.24358000  1.0
  H  H88  1  0.63348000  0.89104000  0.84487000  1.0
  H  H89  1  0.36652000  0.10896000  0.15513000  1.0
  C  C90  1  0.61681000  0.21073000  0.54035000  1.0
  C  C91  1  0.38319000  0.78927000  0.45965000  1.0
  C  C92  1  0.79526000  0.28545000  0.65135000  1.0
  C  C93  1  0.20474000  0.71455000  0.34865000  1.0
  C  C94  1  0.65676000  0.15238000  0.47065000  1.0
  C  C95  1  0.34324000  0.84762000  0.52935000  1.0
  C  C96  1  0.84189000  0.23053000  0.58581000  1.0
  C  C97  1  0.15811000  0.76947000  0.41419000  1.0
  C  C98  1  0.77190000  0.16163000  0.49309000  1.0
  C  C99  1  0.22810000  0.83837000  0.50692000  1.0
  C  C100  1  0.81791000  0.09701000  0.41959000  1.0
  C  C101  1  0.18209000  0.90299000  0.58041000  1.0
  C  C102  1  0.91171000  0.04690000  0.45946000  1.0
  C  C103  1  0.08829000  0.95310000  0.54054000  1.0
  C  C104  1  0.89073000  0.94522000  0.46591000  1.0
  C  C105  1  0.10927000  0.05478000  0.53409000  1.0
  C  C106  1  0.97670000  0.89930000  0.50467000  1.0
  C  C107  1  0.02330000  0.10070000  0.49534000  1.0
  C  C108  1  0.72867000  0.20326000  0.82857000  1.0
  C  C109  1  0.27133000  0.79674000  0.17143000  1.0
  C  C110  1  0.78541000  0.38361000  0.94349000  1.0
  C  C111  1  0.21459000  0.61639000  0.05650000  1.0
  C  C112  1  0.78632000  0.16112000  0.89217000  1.0
  C  C113  1  0.21368000  0.83888000  0.10783000  1.0
  C  C114  1  0.84458000  0.34800000  0.01112000  1.0
  C  C115  1  0.15542000  0.65200000  0.98888000  1.0
  C  C116  1  0.84466000  0.23433000  0.98640000  1.0
  C  C117  1  0.15534000  0.76567000  0.01359000  1.0
  C  C118  1  0.90429000  0.19696000  0.06239000  1.0
  C  C119  1  0.09571000  0.80304000  0.93761000  1.0
  C  C120  1  0.95218000  0.09575000  0.02932000  1.0
  C  C121  1  0.04782000  0.90425000  0.97068000  1.0
  C  C122  1  0.05571000  0.10383000  0.01945000  1.0
  C  C123  1  0.94429000  0.89617000  0.98055000  1.0
  C  C124  1  0.10216000  0.01089000  0.99138000  1.0
  C  C125  1  0.89784000  0.98911000  0.00862000  1.0
  C  C126  1  0.64098000  0.63021000  0.89840000  1.0
  C  C127  1  0.35903000  0.36979000  0.10161000  1.0
  C  C128  1  0.49436000  0.50851000  0.88767000  1.0
  C  C129  1  0.50565000  0.49149000  0.11233000  1.0
  C  C130  1  0.61128000  0.72155000  0.95514000  1.0
  C  C131  1  0.38872000  0.27845000  0.04487000  1.0
  C  C132  1  0.46053000  0.59579000  0.94530000  1.0
  C  C133  1  0.53947000  0.40421000  0.05470000  1.0
  C  C134  1  0.51879000  0.70547000  0.97983000  1.0
  C  C135  1  0.48121000  0.29453000  0.02017000  1.0
  C  C136  1  0.48435000  0.80201000  0.04249000  1.0
  C  C137  1  0.51565000  0.19799000  0.95751000  1.0
  C  C138  1  0.49373000  0.90388000  0.02154000  1.0
  C  C139  1  0.50627000  0.09613000  0.97846000  1.0
  C  C140  1  0.41351000  0.90994000  0.94403000  1.0
  C  C141  1  0.58649000  0.09006000  0.05597000  1.0
  C  C142  1  0.41845000  0.00332000  0.92322000  1.0
  C  C143  1  0.58155000  0.99668000  0.07678000  1.0
  C  C144  1  0.47283000  0.50259000  0.62918000  1.0
  C  C145  1  0.52717000  0.49741000  0.37082000  1.0
  C  C146  1  0.37183000  0.32472000  0.57839000  1.0
  C  C147  1  0.62817000  0.67528000  0.42161000  1.0
  C  C148  1  0.38674000  0.52759000  0.56847000  1.0
  C  C149  1  0.61326000  0.47241000  0.43153000  1.0
  C  C150  1  0.28222000  0.34333000  0.51565000  1.0
  C  C151  1  0.71778000  0.65667000  0.48435000  1.0
  C  C152  1  0.28871000  0.44706000  0.51001000  1.0
  C  C153  1  0.71129000  0.55294000  0.48999000  1.0
  C  C154  1  0.19420000  0.47087000  0.44246000  1.0
  C  C155  1  0.80580000  0.52914000  0.55754000  1.0
  C  C156  1  0.09467000  0.48422000  0.47209000  1.0
  C  C157  1  0.90534000  0.51578000  0.52791000  1.0
  C  C158  1  0.09509000  0.58157000  0.54525000  1.0
  C  C159  1  0.90491000  0.41843000  0.45476000  1.0
  C  C160  1  0.00338000  0.59760000  0.57253000  1.0
  C  C161  1  0.99662000  0.40241000  0.42747000  1.0
  C  C162  1  0.12184000  0.37268000  0.76246000  1.0
  C  C163  1  0.87816000  0.62732000  0.23753000  1.0
  C  C164  1  0.06444000  0.36677000  0.82141000  1.0
  C  C165  1  0.93556000  0.63323000  0.17859000  1.0
  C  C166  1  0.07835000  0.28970000  0.86234000  1.0
  C  C167  1  0.92165000  0.71030000  0.13765000  1.0
  C  C168  1  0.15039000  0.21709000  0.84491000  1.0
  C  C169  1  0.84961000  0.78291000  0.15508000  1.0
  C  C170  1  0.20945000  0.22302000  0.78750000  1.0
  C  C171  1  0.79055000  0.77697000  0.21250000  1.0
  C  C172  1  0.19523000  0.30031000  0.74692000  1.0
  C  C173  1  0.80476000  0.69969000  0.25307000  1.0
  C  C174  1  0.10634000  0.45522000  0.71748000  1.0
  C  C175  1  0.89366000  0.54478000  0.28251000  1.0
  C  C176  1  0.20978000  0.54856000  0.75846000  1.0
  C  C177  1  0.79022000  0.45144000  0.24154000  1.0
  C  C178  1  0.71340000  0.85854000  0.69680000  1.0
  C  C179  1  0.28660000  0.14145000  0.30320000  1.0
  C  C180  1  0.82528000  0.85498000  0.73812000  1.0
  C  C181  1  0.17472000  0.14502000  0.26188000  1.0
  C  C182  1  0.91123000  0.92379000  0.73601000  1.0
  C  C183  1  0.08877000  0.07621000  0.26399000  1.0
  C  C184  1  0.88647000  0.99644000  0.69149000  1.0
  C  C185  1  0.11353000  0.00356000  0.30851000  1.0
  C  C186  1  0.77509000  0.99870000  0.64826000  1.0
  C  C187  1  0.22491000  0.00130000  0.35174000  1.0
  C  C188  1  0.68954000  0.93100000  0.65145000  1.0
  C  C189  1  0.31046000  0.06900000  0.34855000  1.0
  C  C190  1  0.62091000  0.78693000  0.70156000  1.0
  C  C191  1  0.37909000  0.21307000  0.29844000  1.0
  C  C192  1  0.57028000  0.85272000  0.77304000  1.0
  C  C193  1  0.42972000  0.14728000  0.22696000  1.0
  N  N194  1  0.68453000  0.27619000  0.62951000  1.0
  N  N195  1  0.31547000  0.72381000  0.37049000  1.0
  N  N196  1  0.72714000  0.31227000  0.85338000  1.0
  N  N197  1  0.27286000  0.68773000  0.14662000  1.0
  N  N198  1  0.58338000  0.52492000  0.86409000  1.0
  N  N199  1  0.41662000  0.47508000  0.13591000  1.0
  N  N200  1  0.46597000  0.40290000  0.63449000  1.0
  N  N201  1  0.53403000  0.59710000  0.36551000  1.0
  N  N202  1  0.82694000  0.55374000  0.78234000  1.0
  N  N203  1  0.17306000  0.44626000  0.21766000  1.0
  N  N204  1  0.46190000  0.15264000  0.70956000  1.0
  N  N205  1  0.53810000  0.84736000  0.29044000  1.0
  O  O206  1  0.72494000  0.53595000  0.72805000  1.0
  O  O207  1  0.27506000  0.46405000  0.27196000  1.0
  O  O208  1  0.90211000  0.61039000  0.77333000  1.0
  O  O209  1  0.09788000  0.38962000  0.22667000  1.0
  O  O210  1  0.84979000  0.51322000  0.84362000  1.0
  O  O211  1  0.15021000  0.48678000  0.15639000  1.0
  O  O212  1  0.46940000  0.25603000  0.76064000  1.0
  O  O213  1  0.53060000  0.74397000  0.23936000  1.0
  O  O214  1  0.49478000  0.12779000  0.64084000  1.0
  O  O215  1  0.50522000  0.87221000  0.35916000  1.0
  O  O216  1  0.42271000  0.07865000  0.72993000  1.0
  O  O217  1  0.57729000  0.92135000  0.27007000  1.0
  F  F218  1  0.78373000  0.89023000  0.43457000  1.0
  F  F219  1  0.21627000  0.10977000  0.56543000  1.0
  F  F220  1  0.95078000  0.79873000  0.50715000  1.0
  F  F221  1  0.04922000  0.20126000  0.49285000  1.0
  F  F222  1  0.11388000  0.20520000  0.03879000  1.0
  F  F223  1  0.88611000  0.79481000  0.96121000  1.0
  F  F224  1  0.20378000  0.02507000  0.98347000  1.0
  F  F225  1  0.79622000  0.97493000  0.01653000  1.0
  F  F226  1  0.32677000  0.82137000  0.88645000  1.0
  F  F227  1  0.67323000  0.17863000  0.11355000  1.0
  F  F228  1  0.33496000  0.00298000  0.84800000  1.0
  F  F229  1  0.66504000  0.99702000  0.15200000  1.0
  F  F230  1  0.18881000  0.66396000  0.59200000  1.0
  F  F231  1  0.81120000  0.33604000  0.40800000  1.0
  F  F232  1  0.01153000  0.69430000  0.64531000  1.0
  F  F233  1  0.98848000  0.30570000  0.35469000  1.0
