# generated using pymatgen
data_HgH22C32I2(N2O)2
_symmetry_space_group_name_H-M   'P 1'
_cell_length_a   12.78570000
_cell_length_b   12.78570000
_cell_length_c   23.84320000
_cell_angle_alpha   85.02730000
_cell_angle_beta   85.02740000
_cell_angle_gamma   73.26050000
_symmetry_Int_Tables_number   1
_chemical_formula_structural   HgH22C32I2(N2O)2
_chemical_formula_sum   'Hg4 H88 C128 I8 N16 O8'
_cell_volume   3710.73872477
_cell_formula_units_Z   4
loop_
 _symmetry_equiv_pos_site_id
 _symmetry_equiv_pos_as_xyz
  1  'x, y, z'
loop_
 _atom_site_type_symbol
 _atom_site_label
 _atom_site_symmetry_multiplicity
 _atom_site_fract_x
 _atom_site_fract_y
 _atom_site_fract_z
 _atom_site_occupancy
  Hg  Hg0  1  0.74117000  0.31805000  0.49049000  1.0
  Hg  Hg1  1  0.68194000  0.25883000  0.00951000  1.0
  Hg  Hg2  1  0.25883000  0.68194000  0.50951000  1.0
  Hg  Hg3  1  0.31806000  0.74117000  0.99049000  1.0
  H  H4  1  0.60463000  0.45782000  0.38133000  1.0
  H  H5  1  0.54218000  0.39537000  0.11866000  1.0
  H  H6  1  0.39537000  0.54218000  0.61866000  1.0
  H  H7  1  0.45782000  0.60463000  0.88134000  1.0
  H  H8  1  0.51343000  0.43435000  0.29561000  1.0
  H  H9  1  0.56564000  0.48657000  0.20439000  1.0
  H  H10  1  0.48657000  0.56564000  0.70439000  1.0
  H  H11  1  0.43436000  0.51343000  0.79561000  1.0
  H  H12  1  0.57074000  0.09299000  0.35277000  1.0
  H  H13  1  0.90701000  0.42926000  0.14723000  1.0
  H  H14  1  0.42926000  0.90701000  0.64723000  1.0
  H  H15  1  0.09299000  0.57074000  0.85277000  1.0
  H  H16  1  0.65687000  0.13168000  0.43485000  1.0
  H  H17  1  0.86832000  0.34313000  0.06515000  1.0
  H  H18  1  0.34314000  0.86832000  0.56514000  1.0
  H  H19  1  0.13168000  0.65686000  0.93486000  1.0
  H  H20  1  0.52923000  0.07961000  0.27612000  1.0
  H  H21  1  0.92038000  0.47078000  0.22388000  1.0
  H  H22  1  0.47078000  0.92039000  0.72387000  1.0
  H  H23  1  0.07962000  0.52922000  0.77613000  1.0
  H  H24  1  0.61422000  0.11597000  0.15881000  1.0
  H  H25  1  0.88403000  0.38578000  0.34119000  1.0
  H  H26  1  0.38577000  0.88403000  0.84119000  1.0
  H  H27  1  0.11597000  0.61422000  0.65881000  1.0
  H  H28  1  0.56365000  0.08203000  0.06494000  1.0
  H  H29  1  0.91797000  0.43635000  0.43506000  1.0
  H  H30  1  0.43634000  0.91797000  0.93506000  1.0
  H  H31  1  0.08202000  0.56365000  0.56494000  1.0
  H  H32  1  0.42225000  0.07382000  0.00326000  1.0
  H  H33  1  0.92619000  0.57775000  0.49673000  1.0
  H  H34  1  0.57774000  0.92619000  0.99673000  1.0
  H  H35  1  0.07381000  0.42226000  0.50327000  1.0
  H  H36  1  0.23067000  0.07623000  0.99038000  1.0
  H  H37  1  0.92377000  0.76932000  0.50962000  1.0
  H  H38  1  0.76931000  0.92377000  0.00962000  1.0
  H  H39  1  0.07623000  0.23068000  0.49038000  1.0
  H  H40  1  0.09447000  0.09655000  0.07252000  1.0
  H  H41  1  0.90345000  0.90553000  0.42748000  1.0
  H  H42  1  0.90553000  0.90344000  0.92749000  1.0
  H  H43  1  0.09656000  0.09447000  0.57252000  1.0
  H  H44  1  0.14726000  0.11617000  0.16761000  1.0
  H  H45  1  0.88383000  0.85274000  0.33239000  1.0
  H  H46  1  0.85274000  0.88383000  0.83239000  1.0
  H  H47  1  0.11617000  0.14726000  0.66761000  1.0
  H  H48  1  0.35846000  0.92357000  0.23043000  1.0
  H  H49  1  0.07643000  0.64155000  0.26957000  1.0
  H  H50  1  0.64155000  0.07643000  0.76957000  1.0
  H  H51  1  0.92358000  0.35845000  0.73043000  1.0
  H  H52  1  0.30788000  0.77044000  0.28555000  1.0
  H  H53  1  0.22955000  0.69212000  0.21444000  1.0
  H  H54  1  0.69213000  0.22956000  0.71445000  1.0
  H  H55  1  0.77045000  0.30787000  0.78555000  1.0
  H  H56  1  0.16216000  0.80716000  0.36416000  1.0
  H  H57  1  0.19284000  0.83784000  0.13583000  1.0
  H  H58  1  0.83785000  0.19284000  0.63584000  1.0
  H  H59  1  0.80716000  0.16215000  0.86416000  1.0
  H  H60  1  0.06959000  0.99761000  0.38824000  1.0
  H  H61  1  0.00239000  0.93041000  0.11176000  1.0
  H  H62  1  0.93041000  0.00239000  0.61176000  1.0
  H  H63  1  0.99761000  0.06959000  0.88824000  1.0
  H  H64  1  0.04131000  0.19595000  0.36956000  1.0
  H  H65  1  0.80404000  0.95869000  0.13044000  1.0
  H  H66  1  0.95869000  0.80404000  0.63043000  1.0
  H  H67  1  0.19596000  0.04131000  0.86956000  1.0
  H  H68  1  0.08237000  0.35122000  0.30991000  1.0
  H  H69  1  0.64878000  0.91764000  0.19009000  1.0
  H  H70  1  0.91763000  0.64878000  0.69009000  1.0
  H  H71  1  0.35122000  0.08236000  0.80991000  1.0
  H  H72  1  0.30479000  0.33559000  0.21404000  1.0
  H  H73  1  0.66441000  0.69522000  0.28596000  1.0
  H  H74  1  0.69521000  0.66442000  0.78596000  1.0
  H  H75  1  0.33559000  0.30479000  0.71404000  1.0
  H  H76  1  0.36041000  0.42051000  0.15864000  1.0
  H  H77  1  0.57948000  0.63959000  0.34136000  1.0
  H  H78  1  0.63959000  0.57949000  0.84137000  1.0
  H  H79  1  0.42052000  0.36041000  0.65863000  1.0
  H  H80  1  0.40764000  0.54942000  0.08327000  1.0
  H  H81  1  0.45058000  0.59235000  0.41673000  1.0
  H  H82  1  0.59235000  0.45057000  0.91673000  1.0
  H  H83  1  0.54943000  0.40765000  0.58327000  1.0
  H  H84  1  0.08401000  0.68648000  0.04775000  1.0
  H  H85  1  0.31351000  0.91598000  0.45226000  1.0
  H  H86  1  0.91599000  0.31351000  0.95225000  1.0
  H  H87  1  0.68649000  0.08401000  0.54775000  1.0
  H  H88  1  0.02106000  0.56017000  0.12161000  1.0
  H  H89  1  0.43983000  0.97894000  0.37840000  1.0
  H  H90  1  0.97894000  0.43983000  0.87839000  1.0
  H  H91  1  0.56018000  0.02106000  0.62161000  1.0
  C  C92  1  0.59339000  0.37913000  0.37336000  1.0
  C  C93  1  0.62086000  0.40662000  0.12664000  1.0
  C  C94  1  0.40662000  0.62086000  0.62664000  1.0
  C  C95  1  0.37914000  0.59338000  0.87336000  1.0
  C  C96  1  0.54350000  0.36586000  0.32595000  1.0
  C  C97  1  0.63413000  0.45651000  0.17405000  1.0
  C  C98  1  0.45651000  0.63414000  0.67405000  1.0
  C  C99  1  0.36587000  0.54349000  0.82595000  1.0
  C  C100  1  0.53407000  0.26224000  0.31712000  1.0
  C  C101  1  0.73776000  0.46593000  0.18288000  1.0
  C  C102  1  0.46593000  0.73776000  0.68288000  1.0
  C  C103  1  0.26224000  0.53407000  0.81712000  1.0
  C  C104  1  0.57400000  0.17612000  0.35715000  1.0
  C  C105  1  0.82387000  0.42600000  0.14285000  1.0
  C  C106  1  0.42600000  0.82387000  0.64285000  1.0
  C  C107  1  0.17613000  0.57400000  0.85715000  1.0
  C  C108  1  0.62227000  0.19714000  0.40345000  1.0
  C  C109  1  0.80285000  0.37773000  0.09656000  1.0
  C  C110  1  0.37773000  0.80285000  0.59655000  1.0
  C  C111  1  0.19715000  0.62226000  0.90345000  1.0
  C  C112  1  0.48318000  0.24987000  0.26455000  1.0
  C  C113  1  0.75012000  0.51683000  0.23545000  1.0
  C  C114  1  0.51682000  0.75013000  0.73545000  1.0
  C  C115  1  0.24987000  0.48317000  0.76455000  1.0
  C  C116  1  0.45373000  0.12721000  0.19937000  1.0
  C  C117  1  0.87279000  0.54628000  0.30063000  1.0
  C  C118  1  0.54627000  0.87279000  0.80063000  1.0
  C  C119  1  0.12721000  0.45373000  0.69937000  1.0
  C  C120  1  0.53201000  0.11172000  0.15273000  1.0
  C  C121  1  0.88828000  0.46799000  0.34727000  1.0
  C  C122  1  0.46799000  0.88828000  0.84727000  1.0
  C  C123  1  0.11172000  0.53201000  0.65273000  1.0
  C  C124  1  0.50376000  0.09303000  0.10097000  1.0
  C  C125  1  0.90698000  0.49624000  0.39903000  1.0
  C  C126  1  0.49624000  0.90698000  0.89903000  1.0
  C  C127  1  0.09302000  0.50376000  0.60097000  1.0
  C  C128  1  0.39548000  0.09162000  0.09322000  1.0
  C  C129  1  0.90839000  0.60452000  0.40678000  1.0
  C  C130  1  0.60451000  0.90839000  0.90678000  1.0
  C  C131  1  0.09161000  0.39549000  0.59322000  1.0
  C  C132  1  0.36238000  0.08094000  0.03924000  1.0
  C  C133  1  0.91907000  0.63761000  0.46076000  1.0
  C  C134  1  0.63760000  0.91907000  0.96076000  1.0
  C  C135  1  0.08093000  0.36239000  0.53924000  1.0
  C  C136  1  0.25590000  0.08364000  0.03201000  1.0
  C  C137  1  0.91637000  0.74410000  0.46799000  1.0
  C  C138  1  0.74409000  0.91636000  0.96799000  1.0
  C  C139  1  0.08364000  0.25590000  0.53201000  1.0
  C  C140  1  0.17835000  0.09539000  0.07878000  1.0
  C  C141  1  0.90461000  0.82165000  0.42122000  1.0
  C  C142  1  0.82165000  0.90460000  0.92123000  1.0
  C  C143  1  0.09540000  0.17835000  0.57877000  1.0
  C  C144  1  0.20772000  0.10614000  0.13185000  1.0
  C  C145  1  0.89387000  0.79228000  0.36815000  1.0
  C  C146  1  0.79228000  0.89386000  0.86815000  1.0
  C  C147  1  0.10614000  0.20772000  0.63185000  1.0
  C  C148  1  0.31636000  0.10580000  0.14057000  1.0
  C  C149  1  0.89420000  0.68364000  0.35943000  1.0
  C  C150  1  0.68364000  0.89420000  0.85943000  1.0
  C  C151  1  0.10580000  0.31636000  0.64057000  1.0
  C  C152  1  0.34767000  0.12271000  0.19461000  1.0
  C  C153  1  0.87729000  0.65233000  0.30539000  1.0
  C  C154  1  0.65233000  0.87730000  0.80539000  1.0
  C  C155  1  0.12271000  0.34767000  0.69461000  1.0
  C  C156  1  0.26531000  0.14021000  0.24377000  1.0
  C  C157  1  0.85979000  0.73469000  0.25622000  1.0
  C  C158  1  0.73469000  0.85979000  0.75622000  1.0
  C  C159  1  0.14021000  0.26531000  0.74378000  1.0
  C  C160  1  0.24203000  0.05006000  0.27697000  1.0
  C  C161  1  0.94993000  0.75797000  0.22302000  1.0
  C  C162  1  0.75797000  0.94994000  0.72302000  1.0
  C  C163  1  0.05007000  0.24203000  0.77698000  1.0
  C  C164  1  0.29533000  0.93978000  0.26493000  1.0
  C  C165  1  0.06021000  0.70468000  0.23506000  1.0
  C  C166  1  0.70468000  0.06021000  0.73506000  1.0
  C  C167  1  0.93979000  0.29532000  0.76494000  1.0
  C  C168  1  0.26649000  0.85455000  0.29557000  1.0
  C  C169  1  0.14544000  0.73351000  0.20443000  1.0
  C  C170  1  0.73352000  0.14545000  0.70443000  1.0
  C  C171  1  0.85456000  0.26649000  0.79557000  1.0
  C  C172  1  0.18433000  0.87508000  0.34015000  1.0
  C  C173  1  0.12492000  0.81567000  0.15985000  1.0
  C  C174  1  0.81567000  0.12492000  0.65985000  1.0
  C  C175  1  0.87508000  0.18433000  0.84015000  1.0
  C  C176  1  0.13242000  0.98115000  0.35357000  1.0
  C  C177  1  0.01885000  0.86758000  0.14642000  1.0
  C  C178  1  0.86759000  0.01885000  0.64642000  1.0
  C  C179  1  0.98115000  0.13242000  0.85358000  1.0
  C  C180  1  0.15872000  0.07098000  0.32244000  1.0
  C  C181  1  0.92902000  0.84129000  0.17756000  1.0
  C  C182  1  0.84128000  0.92902000  0.67755000  1.0
  C  C183  1  0.07098000  0.15871000  0.82245000  1.0
  C  C184  1  0.10310000  0.18089000  0.33429000  1.0
  C  C185  1  0.81911000  0.89691000  0.16570000  1.0
  C  C186  1  0.89690000  0.81911000  0.66570000  1.0
  C  C187  1  0.18089000  0.10309000  0.83430000  1.0
  C  C188  1  0.12525000  0.26674000  0.30142000  1.0
  C  C189  1  0.73325000  0.87476000  0.19858000  1.0
  C  C190  1  0.87475000  0.73326000  0.69858000  1.0
  C  C191  1  0.26675000  0.12525000  0.80142000  1.0
  C  C192  1  0.20490000  0.24596000  0.25565000  1.0
  C  C193  1  0.75403000  0.79510000  0.24435000  1.0
  C  C194  1  0.79509000  0.75404000  0.74435000  1.0
  C  C195  1  0.24597000  0.20490000  0.75565000  1.0
  C  C196  1  0.14689000  0.40401000  0.18901000  1.0
  C  C197  1  0.59598000  0.85311000  0.31100000  1.0
  C  C198  1  0.85311000  0.59599000  0.81099000  1.0
  C  C199  1  0.40402000  0.14688000  0.68901000  1.0
  C  C200  1  0.18528000  0.47988000  0.14601000  1.0
  C  C201  1  0.52012000  0.81472000  0.35399000  1.0
  C  C202  1  0.81472000  0.52012000  0.85399000  1.0
  C  C203  1  0.47988000  0.18528000  0.64602000  1.0
  C  C204  1  0.29535000  0.47704000  0.13539000  1.0
  C  C205  1  0.52295000  0.70465000  0.36461000  1.0
  C  C206  1  0.70465000  0.52296000  0.86461000  1.0
  C  C207  1  0.47705000  0.29535000  0.63539000  1.0
  C  C208  1  0.32279000  0.54879000  0.09343000  1.0
  C  C209  1  0.45121000  0.67720000  0.40657000  1.0
  C  C210  1  0.67720000  0.45121000  0.90657000  1.0
  C  C211  1  0.54880000  0.32280000  0.59343000  1.0
  C  C212  1  0.14200000  0.62452000  0.07292000  1.0
  C  C213  1  0.37548000  0.85800000  0.42708000  1.0
  C  C214  1  0.85800000  0.37547000  0.92708000  1.0
  C  C215  1  0.62453000  0.14200000  0.57293000  1.0
  C  C216  1  0.10745000  0.55525000  0.11386000  1.0
  C  C217  1  0.44475000  0.89255000  0.38615000  1.0
  C  C218  1  0.89255000  0.44475000  0.88614000  1.0
  C  C219  1  0.55526000  0.10745000  0.61386000  1.0
  I  I220  1  0.89237000  0.12513000  0.47380000  1.0
  I  I221  1  0.87487000  0.10763000  0.02620000  1.0
  I  I222  1  0.10763000  0.87487000  0.52620000  1.0
  I  I223  1  0.12513000  0.89237000  0.97380000  1.0
  I  I224  1  0.67066000  0.53189000  0.50842000  1.0
  I  I225  1  0.46810000  0.32935000  0.99159000  1.0
  I  I226  1  0.32934000  0.46810000  0.49158000  1.0
  I  I227  1  0.53189000  0.67066000  0.00842000  1.0
  N  N228  1  0.63211000  0.29633000  0.41137000  1.0
  N  N229  1  0.70367000  0.36789000  0.08863000  1.0
  N  N230  1  0.36789000  0.70366000  0.58863000  1.0
  N  N231  1  0.29634000  0.63211000  0.91137000  1.0
  N  N232  1  0.48839000  0.14767000  0.25193000  1.0
  N  N233  1  0.85232000  0.51161000  0.24807000  1.0
  N  N234  1  0.51161000  0.85232000  0.74807000  1.0
  N  N235  1  0.14768000  0.48839000  0.75193000  1.0
  N  N236  1  0.22423000  0.33434000  0.21990000  1.0
  N  N237  1  0.66566000  0.77577000  0.28010000  1.0
  N  N238  1  0.77576000  0.66566000  0.78010000  1.0
  N  N239  1  0.33434000  0.22424000  0.71990000  1.0
  N  N240  1  0.24788000  0.62081000  0.06286000  1.0
  N  N241  1  0.37919000  0.75211000  0.43714000  1.0
  N  N242  1  0.75212000  0.37918000  0.93714000  1.0
  N  N243  1  0.62082000  0.24788000  0.56286000  1.0
  O  O244  1  0.43891000  0.33325000  0.23415000  1.0
  O  O245  1  0.66675000  0.56110000  0.26585000  1.0
  O  O246  1  0.56109000  0.66675000  0.76585000  1.0
  O  O247  1  0.33326000  0.43890000  0.73415000  1.0
  O  O248  1  0.04871000  0.40417000  0.19372000  1.0
  O  O249  1  0.59582000  0.95128000  0.30628000  1.0
  O  O250  1  0.95128000  0.59583000  0.80628000  1.0
  O  O251  1  0.40418000  0.04873000  0.69372000  1.0
