# generated using pymatgen
data_H8RhC8NO4
_symmetry_space_group_name_H-M   'P 1'
_cell_length_a   8.07389000
_cell_length_b   11.95069818
_cell_length_c   14.45722173
_cell_angle_alpha   65.94376600
_cell_angle_beta   89.89265354
_cell_angle_gamma   70.43890824
_symmetry_Int_Tables_number   1
_chemical_formula_structural   H8RhC8NO4
_chemical_formula_sum   'H32 Rh4 C32 N4 O16'
_cell_volume   1185.50393245
_cell_formula_units_Z   4
loop_
 _symmetry_equiv_pos_site_id
 _symmetry_equiv_pos_as_xyz
  1  'x, y, z'
loop_
 _atom_site_type_symbol
 _atom_site_label
 _atom_site_symmetry_multiplicity
 _atom_site_fract_x
 _atom_site_fract_y
 _atom_site_fract_z
 _atom_site_occupancy
  H  H0  1  0.07216000  0.48496000  0.79665000  1.0
  H  H1  1  0.55615000  0.51513000  0.70334000  1.0
  H  H2  1  0.92783000  0.51504000  0.20335000  1.0
  H  H3  1  0.44385000  0.48487000  0.29666000  1.0
  H  H4  1  0.93925000  0.56529000  0.86581000  1.0
  H  H5  1  0.50351000  0.43441000  0.63448000  1.0
  H  H6  1  0.06074000  0.43471000  0.13419000  1.0
  H  H7  1  0.49650000  0.56560000  0.36551000  1.0
  H  H8  1  0.03690000  0.39056000  0.92353000  1.0
  H  H9  1  0.42816000  0.60910000  0.57658000  1.0
  H  H10  1  0.96310000  0.60944000  0.07647000  1.0
  H  H11  1  0.57185000  0.39090000  0.42343000  1.0
  H  H12  1  0.95258000  0.18156000  0.94762000  1.0
  H  H13  1  0.13496000  0.81946000  0.55158000  1.0
  H  H14  1  0.04743000  0.81844000  0.05238000  1.0
  H  H15  1  0.86503000  0.18056000  0.44841000  1.0
  H  H16  1  0.87218000  0.30649000  0.81717000  1.0
  H  H17  1  0.17879000  0.69445000  0.68199000  1.0
  H  H18  1  0.12783000  0.69350000  0.18284000  1.0
  H  H19  1  0.82122000  0.30555000  0.31801000  1.0
  H  H20  1  0.76444000  0.19273000  0.87702000  1.0
  H  H21  1  0.95820000  0.80744000  0.62269000  1.0
  H  H22  1  0.23558000  0.80726000  0.12299000  1.0
  H  H23  1  0.04181000  0.19256000  0.37731000  1.0
  H  H24  1  0.34257000  0.24180000  0.43645000  1.0
  H  H25  1  0.58569000  0.75782000  0.06379000  1.0
  H  H26  1  0.65742000  0.75819000  0.56355000  1.0
  H  H27  1  0.41429000  0.24218000  0.93622000  1.0
  H  H28  1  0.32180000  0.09483000  0.60978000  1.0
  H  H29  1  0.41801000  0.90463000  0.89024000  1.0
  H  H30  1  0.67818000  0.90517000  0.39022000  1.0
  H  H31  1  0.58199000  0.09537000  0.10977000  1.0
  Rh  Rh32  1  0.50969000  0.40548000  0.07852000  1.0
  Rh  Rh33  1  0.91617000  0.59481000  0.42112000  1.0
  Rh  Rh34  1  0.49031000  0.59452000  0.92148000  1.0
  Rh  Rh35  1  0.08383000  0.40520000  0.57888000  1.0
  C  C36  1  0.71376000  0.34182000  0.92987000  1.0
  C  C37  1  0.05604000  0.65857000  0.56976000  1.0
  C  C38  1  0.28624000  0.65817000  0.07013000  1.0
  C  C39  1  0.94396000  0.34144000  0.43023000  1.0
  C  C40  1  0.21885000  0.48722000  0.91866000  1.0
  C  C41  1  0.70587000  0.51255000  0.58143000  1.0
  C  C42  1  0.78115000  0.51277000  0.08134000  1.0
  C  C43  1  0.29412000  0.48747000  0.41856000  1.0
  C  C44  1  0.48209000  0.82883000  0.69949000  1.0
  C  C45  1  0.31092000  0.17050000  0.80087000  1.0
  C  C46  1  0.51790000  0.17117000  0.30051000  1.0
  C  C47  1  0.68908000  0.82950000  0.19913000  1.0
  C  C48  1  0.48991000  0.91598000  0.59907000  1.0
  C  C49  1  0.40659000  0.08341000  0.90136000  1.0
  C  C50  1  0.51008000  0.08402000  0.40093000  1.0
  C  C51  1  0.59343000  0.91658000  0.09864000  1.0
  C  C52  1  0.05734000  0.48069000  0.87341000  1.0
  C  C53  1  0.53762000  0.51907000  0.62674000  1.0
  C  C54  1  0.94266000  0.51931000  0.12659000  1.0
  C  C55  1  0.46238000  0.48093000  0.37326000  1.0
  C  C56  1  0.83445000  0.25112000  0.88971000  1.0
  C  C57  1  0.08620000  0.74956000  0.60970000  1.0
  C  C58  1  0.16556000  0.74887000  0.11030000  1.0
  C  C59  1  0.91380000  0.25045000  0.39030000  1.0
  C  C60  1  0.58913000  0.86384000  0.53590000  1.0
  C  C61  1  0.45224000  0.13639000  0.96404000  1.0
  C  C62  1  0.41087000  0.13615000  0.46410000  1.0
  C  C63  1  0.54776000  0.86361000  0.03596000  1.0
  C  C64  1  0.59960000  0.94689000  0.43756000  1.0
  C  C65  1  0.54547000  0.05356000  0.06241000  1.0
  C  C66  1  0.40039000  0.05311000  0.56244000  1.0
  C  C67  1  0.45453000  0.94644000  0.93759000  1.0
  N  N68  1  0.47891000  0.75384000  0.78198000  1.0
  N  N69  1  0.23162000  0.24518000  0.71900000  1.0
  N  N70  1  0.52107000  0.24617000  0.21802000  1.0
  N  N71  1  0.76839000  0.75481000  0.28101000  1.0
  O  O72  1  0.67703000  0.28809000  0.02003000  1.0
  O  O73  1  0.96673000  0.71207000  0.47965000  1.0
  O  O74  1  0.32298000  0.71190000  0.97998000  1.0
  O  O75  1  0.03327000  0.28794000  0.52034000  1.0
  O  O76  1  0.29186000  0.40024000  0.01019000  1.0
  O  O77  1  0.69319000  0.59942000  0.48990000  1.0
  O  O78  1  0.70815000  0.59975000  0.98980000  1.0
  O  O79  1  0.30681000  0.40058000  0.51010000  1.0
  O  O80  1  0.34479000  0.53446000  0.12883000  1.0
  O  O81  1  0.88030000  0.46510000  0.37134000  1.0
  O  O82  1  0.65521000  0.46553000  0.87118000  1.0
  O  O83  1  0.11970000  0.53491000  0.62865000  1.0
  O  O84  1  0.72689000  0.42128000  0.13715000  1.0
  O  O85  1  0.14957000  0.57888000  0.36263000  1.0
  O  O86  1  0.27311000  0.57872000  0.86285000  1.0
  O  O87  1  0.85044000  0.42113000  0.63737000  1.0
