# generated using pymatgen
data_SrH10C6(N2O3)4
_symmetry_space_group_name_H-M   'P 1'
_cell_length_a   6.32617000
_cell_length_b   8.96560000
_cell_length_c   14.77450000
_cell_angle_alpha   74.87730000
_cell_angle_beta   77.65470000
_cell_angle_gamma   69.35680000
_symmetry_Int_Tables_number   1
_chemical_formula_structural   SrH10C6(N2O3)4
_chemical_formula_sum   'Sr2 H20 C12 N16 O24'
_cell_volume   750.10368659
_cell_formula_units_Z   2
loop_
 _symmetry_equiv_pos_site_id
 _symmetry_equiv_pos_as_xyz
  1  'x, y, z'
loop_
 _atom_site_type_symbol
 _atom_site_label
 _atom_site_symmetry_multiplicity
 _atom_site_fract_x
 _atom_site_fract_y
 _atom_site_fract_z
 _atom_site_occupancy
  Sr  Sr0  1  0.16424000  0.24999000  0.75000000  1.0
  Sr  Sr1  1  0.83576000  0.75001000  0.25000000  1.0
  H  H2  1  0.39518000  0.33777000  0.90990000  1.0
  H  H3  1  0.64253000  0.16227000  0.59003000  1.0
  H  H4  1  0.60482000  0.66223000  0.09010000  1.0
  H  H5  1  0.35746000  0.83773000  0.40997000  1.0
  H  H6  1  0.46207000  0.41062000  0.80355000  1.0
  H  H7  1  0.67574000  0.08940000  0.69640000  1.0
  H  H8  1  0.53794000  0.58938000  0.19645000  1.0
  H  H9  1  0.32426000  0.91060000  0.30360000  1.0
  H  H10  1  0.89974000  0.01461000  0.89825000  1.0
  H  H11  1  0.81227000  0.48537000  0.60179000  1.0
  H  H12  1  0.10026000  0.98539000  0.10175000  1.0
  H  H13  1  0.18773000  0.51462000  0.39821000  1.0
  H  H14  1  0.71818000  0.16874000  0.84840000  1.0
  H  H15  1  0.73500000  0.33123000  0.65160000  1.0
  H  H16  1  0.28182000  0.83126000  0.15160000  1.0
  H  H17  1  0.26500000  0.66877000  0.34840000  1.0
  H  H18  1  0.75130000  0.66595000  0.74100000  1.0
  H  H19  1  0.15788000  0.83411000  0.75902000  1.0
  H  H20  1  0.24869000  0.33405000  0.25900000  1.0
  H  H21  1  0.84211000  0.16590000  0.24098000  1.0
  C  C22  1  0.81366000  0.46463000  0.94987000  1.0
  C  C23  1  0.22792000  0.03535000  0.55014000  1.0
  C  C24  1  0.18634000  0.53537000  0.05013000  1.0
  C  C25  1  0.77208000  0.96465000  0.44986000  1.0
  C  C26  1  0.75129000  0.62153000  0.81666000  1.0
  C  C27  1  0.18912000  0.87852000  0.68336000  1.0
  C  C28  1  0.24872000  0.37846000  0.18334000  1.0
  C  C29  1  0.81088000  0.12149000  0.31664000  1.0
  C  C30  1  0.64158000  0.70437000  0.89152000  1.0
  C  C31  1  0.23731000  0.79559000  0.60852000  1.0
  C  C32  1  0.35843000  0.29563000  0.10848000  1.0
  C  C33  1  0.76268000  0.20441000  0.39148000  1.0
  N  N34  1  0.86252000  0.46710000  0.85533000  1.0
  N  N35  1  0.18462000  0.03296000  0.64467000  1.0
  N  N36  1  0.13748000  0.53290000  0.14466000  1.0
  N  N37  1  0.81538000  0.96704000  0.35533000  1.0
  N  N38  1  0.68074000  0.60380000  0.97639000  1.0
  N  N39  1  0.26084000  0.89612000  0.52364000  1.0
  N  N40  1  0.31926000  0.39620000  0.02361000  1.0
  N  N41  1  0.73917000  0.10389000  0.47636000  1.0
  N  N42  1  0.89495000  0.31981000  0.01824000  1.0
  N  N43  1  0.23292000  0.18011000  0.48174000  1.0
  N  N44  1  0.10505000  0.68019000  0.98176000  1.0
  N  N45  1  0.76708000  0.81989000  0.51826000  1.0
  N  N46  1  0.49591000  0.86711000  0.88577000  1.0
  N  N47  1  0.24873000  0.63280000  0.61435000  1.0
  N  N48  1  0.50409000  0.13289000  0.11423000  1.0
  N  N49  1  0.75127000  0.36720000  0.38565000  1.0
  O  O50  1  0.02908000  0.19614000  0.98937000  1.0
  O  O51  1  0.21434000  0.30385000  0.51058000  1.0
  O  O52  1  0.97092000  0.80385000  0.01063000  1.0
  O  O53  1  0.78566000  0.69615000  0.48941000  1.0
  O  O54  1  0.82674000  0.32479000  0.10346000  1.0
  O  O55  1  0.25528000  0.17501000  0.39650000  1.0
  O  O56  1  0.17325000  0.67521000  0.89654000  1.0
  O  O57  1  0.74472000  0.82499000  0.60350000  1.0
  O  O58  1  0.47170000  0.95341000  0.80383000  1.0
  O  O59  1  0.22830000  0.54678000  0.69634000  1.0
  O  O60  1  0.52830000  0.04659000  0.19617000  1.0
  O  O61  1  0.77169000  0.45323000  0.30366000  1.0
  O  O62  1  0.39640000  0.91644000  0.95915000  1.0
  O  O63  1  0.27257000  0.58318000  0.54102000  1.0
  O  O64  1  0.60360000  0.08355000  0.04085000  1.0
  O  O65  1  0.72744000  0.41682000  0.45899000  1.0
  O  O66  1  0.44274000  0.31066000  0.84535000  1.0
  O  O67  1  0.59816000  0.18932000  0.65460000  1.0
  O  O68  1  0.55726000  0.68934000  0.15465000  1.0
  O  O69  1  0.40184000  0.81068000  0.34540000  1.0
  O  O70  1  0.87633000  0.09308000  0.83827000  1.0
  O  O71  1  0.80739000  0.40688000  0.66177000  1.0
  O  O72  1  0.12367000  0.90692000  0.16173000  1.0
  O  O73  1  0.19261000  0.59312000  0.33823000  1.0
