# generated using pymatgen
data_MnH16(C17N5)2
_symmetry_space_group_name_H-M   'P 1'
_cell_length_a   11.44590000
_cell_length_b   12.67930000
_cell_length_c   14.00610000
_cell_angle_alpha   90.88030000
_cell_angle_beta   89.99450000
_cell_angle_gamma   89.99970000
_symmetry_Int_Tables_number   1
_chemical_formula_structural   MnH16(C17N5)2
_chemical_formula_sum   'Mn2 H32 C68 N20'
_cell_volume   2032.40935196
_cell_formula_units_Z   2
loop_
 _symmetry_equiv_pos_site_id
 _symmetry_equiv_pos_as_xyz
  1  'x, y, z'
loop_
 _atom_site_type_symbol
 _atom_site_label
 _atom_site_symmetry_multiplicity
 _atom_site_fract_x
 _atom_site_fract_y
 _atom_site_fract_z
 _atom_site_occupancy
  Mn  Mn0  1  0.48590000  0.50003000  0.25014000  1.0
  Mn  Mn1  1  0.51396000  0.49998000  0.75011000  1.0
  H  H2  1  0.32063000  0.20798000  0.34741000  1.0
  H  H3  1  0.67624000  0.79191000  0.34433000  1.0
  H  H4  1  0.32045000  0.79208000  0.15271000  1.0
  H  H5  1  0.67649000  0.20797000  0.15579000  1.0
  H  H6  1  0.67971000  0.79204000  0.65272000  1.0
  H  H7  1  0.32359000  0.20785000  0.65582000  1.0
  H  H8  1  0.67955000  0.20808000  0.84742000  1.0
  H  H9  1  0.32391000  0.79202000  0.84431000  1.0
  H  H10  1  0.17055000  0.07014000  0.34595000  1.0
  H  H11  1  0.82656000  0.92974000  0.34463000  1.0
  H  H12  1  0.17037000  0.92997000  0.15399000  1.0
  H  H13  1  0.82687000  0.07020000  0.15526000  1.0
  H  H14  1  0.82967000  0.93009000  0.65389000  1.0
  H  H15  1  0.17316000  0.07021000  0.65526000  1.0
  H  H16  1  0.82955000  0.07012000  0.84599000  1.0
  H  H17  1  0.17351000  0.92970000  0.84463000  1.0
  H  H18  1  0.30148000  0.34102000  0.21301000  1.0
  H  H19  1  0.69915000  0.65674000  0.21124000  1.0
  H  H20  1  0.30136000  0.65902000  0.28718000  1.0
  H  H21  1  0.69915000  0.34331000  0.28902000  1.0
  H  H22  1  0.69846000  0.65907000  0.78679000  1.0
  H  H23  1  0.30073000  0.34320000  0.78898000  1.0
  H  H24  1  0.69837000  0.34088000  0.71321000  1.0
  H  H25  1  0.30086000  0.65669000  0.71132000  1.0
  H  H26  1  0.08643000  0.33312000  0.21211000  1.0
  H  H27  1  0.91575000  0.66527000  0.21114000  1.0
  H  H28  1  0.08630000  0.66684000  0.28788000  1.0
  H  H29  1  0.91577000  0.33472000  0.28883000  1.0
  H  H30  1  0.91366000  0.66692000  0.78741000  1.0
  H  H31  1  0.08412000  0.33460000  0.78872000  1.0
  H  H32  1  0.91353000  0.33300000  0.71224000  1.0
  H  H33  1  0.08430000  0.66529000  0.71111000  1.0
  C  C34  1  0.45407000  0.35217000  0.41838000  1.0
  C  C35  1  0.53663000  0.65163000  0.41506000  1.0
  C  C36  1  0.45415000  0.64792000  0.08187000  1.0
  C  C37  1  0.53679000  0.34834000  0.08523000  1.0
  C  C38  1  0.54600000  0.64790000  0.58190000  1.0
  C  C39  1  0.46330000  0.34823000  0.58520000  1.0
  C  C40  1  0.54606000  0.35217000  0.91837000  1.0
  C  C41  1  0.46347000  0.65166000  0.91507000  1.0
  C  C42  1  0.42088000  0.30196000  0.50203000  1.0
  C  C43  1  0.57917000  0.69794000  0.49819000  1.0
  C  C44  1  0.42097000  0.69802000  0.99819000  1.0
  C  C45  1  0.57925000  0.30206000  0.00206000  1.0
  C  C46  1  0.33471000  0.21771000  0.50169000  1.0
  C  C47  1  0.66529000  0.78225000  0.49843000  1.0
  C  C48  1  0.33477000  0.78227000  0.99845000  1.0
  C  C49  1  0.66535000  0.21775000  0.00171000  1.0
  C  C50  1  0.28891000  0.17737000  0.41498000  1.0
  C  C51  1  0.70907000  0.82288000  0.41228000  1.0
  C  C52  1  0.28884000  0.82265000  0.08510000  1.0
  C  C53  1  0.70923000  0.17707000  0.08780000  1.0
  C  C54  1  0.71121000  0.82268000  0.58508000  1.0
  C  C55  1  0.29080000  0.17706000  0.58780000  1.0
  C  C56  1  0.71116000  0.17738000  0.91500000  1.0
  C  C57  1  0.29098000  0.82288000  0.91228000  1.0
  C  C58  1  0.20400000  0.09939000  0.41429000  1.0
  C  C59  1  0.79405000  0.90080000  0.41256000  1.0
  C  C60  1  0.20394000  0.90067000  0.08566000  1.0
  C  C61  1  0.79423000  0.09916000  0.08737000  1.0
  C  C62  1  0.79604000  0.90076000  0.58563000  1.0
  C  C63  1  0.20574000  0.09921000  0.58735000  1.0
  C  C64  1  0.79602000  0.09934000  0.91431000  1.0
  C  C65  1  0.20595000  0.90076000  0.91259000  1.0
  C  C66  1  0.16171000  0.05925000  0.50049000  1.0
  C  C67  1  0.83813000  0.94088000  0.49934000  1.0
  C  C68  1  0.16182000  0.94077000  0.99938000  1.0
  C  C69  1  0.83823000  0.05916000  0.00051000  1.0
  C  C70  1  0.06712000  0.97480000  0.49971000  1.0
  C  C71  1  0.93272000  0.02533000  0.49996000  1.0
  C  C72  1  0.06728000  0.02525000  0.00006000  1.0
  C  C73  1  0.93287000  0.97477000  0.99974000  1.0
  C  C74  1  0.07787000  0.90654000  0.41444000  1.0
  C  C75  1  0.92207000  0.09265000  0.41593000  1.0
  C  C76  1  0.07796000  0.09363000  0.08524000  1.0
  C  C77  1  0.92219000  0.90719000  0.08363000  1.0
  C  C78  1  0.92204000  0.09375000  0.58511000  1.0
  C  C79  1  0.07781000  0.90729000  0.58361000  1.0
  C  C80  1  0.92219000  0.90652000  0.91447000  1.0
  C  C81  1  0.07800000  0.09261000  0.91604000  1.0
  C  C82  1  0.24979000  0.41084000  0.22997000  1.0
  C  C83  1  0.75127000  0.58788000  0.22922000  1.0
  C  C84  1  0.24974000  0.58918000  0.27015000  1.0
  C  C85  1  0.75127000  0.41216000  0.27100000  1.0
  C  C86  1  0.75016000  0.58921000  0.76989000  1.0
  C  C87  1  0.24861000  0.41206000  0.77094000  1.0
  C  C88  1  0.75010000  0.41074000  0.73005000  1.0
  C  C89  1  0.24867000  0.58782000  0.72925000  1.0
  C  C90  1  0.12893000  0.40783000  0.22972000  1.0
  C  C91  1  0.87252000  0.59159000  0.22915000  1.0
  C  C92  1  0.12888000  0.59215000  0.27032000  1.0
  C  C93  1  0.87251000  0.40839000  0.27089000  1.0
  C  C94  1  0.87103000  0.59220000  0.76999000  1.0
  C  C95  1  0.12735000  0.40831000  0.77078000  1.0
  C  C96  1  0.87097000  0.40773000  0.72975000  1.0
  C  C97  1  0.12743000  0.59157000  0.72914000  1.0
  C  C98  1  0.06471000  0.49998000  0.25001000  1.0
  C  C99  1  0.93626000  0.49999000  0.25001000  1.0
  C  C100  1  0.93518000  0.49995000  0.74986000  1.0
  C  C101  1  0.06363000  0.49994000  0.74991000  1.0
  N  N102  1  0.48197000  0.39824000  0.34962000  1.0
  N  N103  1  0.49976000  0.60579000  0.34748000  1.0
  N  N104  1  0.48204000  0.60188000  0.15063000  1.0
  N  N105  1  0.49990000  0.39421000  0.15278000  1.0
  N  N106  1  0.51796000  0.60184000  0.65061000  1.0
  N  N107  1  0.50008000  0.39417000  0.65275000  1.0
  N  N108  1  0.51800000  0.39818000  0.84963000  1.0
  N  N109  1  0.50023000  0.60577000  0.84747000  1.0
  N  N110  1  0.09035000  0.85378000  0.34640000  1.0
  N  N111  1  0.90944000  0.14493000  0.34906000  1.0
  N  N112  1  0.09031000  0.14644000  0.15326000  1.0
  N  N113  1  0.90949000  0.85490000  0.15049000  1.0
  N  N114  1  0.90972000  0.14661000  0.65310000  1.0
  N  N115  1  0.09040000  0.85498000  0.65047000  1.0
  N  N116  1  0.90975000  0.85371000  0.84647000  1.0
  N  N117  1  0.09059000  0.14488000  0.84916000  1.0
  N  N118  1  0.31126000  0.50002000  0.25009000  1.0
  N  N119  1  0.69137000  0.50004000  0.25018000  1.0
  N  N120  1  0.68868000  0.49997000  0.75003000  1.0
  N  N121  1  0.30853000  0.49995000  0.75016000  1.0
