# generated using pymatgen
data_CdH22C26(NO2)3
_symmetry_space_group_name_H-M   'P 1'
_cell_length_a   9.08318000
_cell_length_b   11.18850000
_cell_length_c   15.26400000
_cell_angle_alpha   102.26600000
_cell_angle_beta   92.19140000
_cell_angle_gamma   108.69300000
_symmetry_Int_Tables_number   1
_chemical_formula_structural   CdH22C26(NO2)3
_chemical_formula_sum   'Cd2 H44 C52 N6 O12'
_cell_volume   1426.35957703
_cell_formula_units_Z   2
loop_
 _symmetry_equiv_pos_site_id
 _symmetry_equiv_pos_as_xyz
  1  'x, y, z'
loop_
 _atom_site_type_symbol
 _atom_site_label
 _atom_site_symmetry_multiplicity
 _atom_site_fract_x
 _atom_site_fract_y
 _atom_site_fract_z
 _atom_site_occupancy
  Cd  Cd0  1  0.54752000  0.16150000  0.58076000  1.0
  Cd  Cd1  1  0.45248000  0.83850000  0.41924000  1.0
  H  H2  1  0.96477000  0.14927000  0.45312000  1.0
  H  H3  1  0.03523000  0.85073000  0.54688000  1.0
  H  H4  1  0.17438000  0.01129000  0.44308000  1.0
  H  H5  1  0.82562000  0.98871000  0.55692000  1.0
  H  H6  1  0.37916000  0.57905000  0.58170000  1.0
  H  H7  1  0.62084000  0.42095000  0.41830000  1.0
  H  H8  1  0.60524000  0.74644000  0.67782000  1.0
  H  H9  1  0.39476000  0.25356000  0.32218000  1.0
  H  H10  1  0.80113000  0.67933000  0.76066000  1.0
  H  H11  1  0.19887000  0.32067000  0.23934000  1.0
  H  H12  1  0.75933000  0.44111000  0.73598000  1.0
  H  H13  1  0.24067000  0.55889000  0.26402000  1.0
  H  H14  1  0.07558000  0.24557000  0.68943000  1.0
  H  H15  1  0.92442000  0.75443000  0.31057000  1.0
  H  H16  1  0.30901000  0.35197000  0.80302000  1.0
  H  H17  1  0.69099000  0.64803000  0.19698000  1.0
  H  H18  1  0.00716000  0.36175000  0.01447000  1.0
  H  H19  1  0.99284000  0.63825000  0.98553000  1.0
  H  H20  1  0.77243000  0.25506000  0.89722000  1.0
  H  H21  1  0.22756000  0.74494000  0.10278000  1.0
  H  H22  1  0.45679000  0.52972000  0.91037000  1.0
  H  H23  1  0.54321000  0.47028000  0.08963000  1.0
  H  H24  1  0.47459000  0.37908000  0.92271000  1.0
  H  H25  1  0.52541000  0.62092000  0.07729000  1.0
  H  H26  1  0.25200000  0.67131000  0.69566000  1.0
  H  H27  1  0.74800000  0.32869000  0.30434000  1.0
  H  H28  1  0.12810000  0.69388000  0.83904000  1.0
  H  H29  1  0.87190000  0.30612000  0.16096000  1.0
  H  H30  1  0.13229000  0.07401000  0.81770000  1.0
  H  H31  1  0.86771000  0.92599000  0.18230000  1.0
  H  H32  1  0.25974000  0.05126000  0.67855000  1.0
  H  H33  1  0.74026000  0.94874000  0.32145000  1.0
  H  H34  1  0.94613000  0.02842000  0.91196000  1.0
  H  H35  1  0.05387000  0.97158000  0.08804000  1.0
  H  H36  1  0.14200000  0.09027000  0.96686000  1.0
  H  H37  1  0.85799000  0.90973000  0.03314000  1.0
  H  H38  1  0.98623000  0.37959000  0.42532000  1.0
  H  H39  1  0.01377000  0.62041000  0.57468000  1.0
  H  H40  1  0.15963000  0.51616000  0.46478000  1.0
  H  H41  1  0.84037000  0.48384000  0.53522000  1.0
  H  H42  1  0.97380000  0.34327000  0.58318000  1.0
  H  H43  1  0.02620000  0.65674000  0.41682000  1.0
  H  H44  1  0.15580000  0.47084000  0.61794000  1.0
  H  H45  1  0.84420000  0.52916000  0.38206000  1.0
  C  C46  1  0.08616000  0.17837000  0.48035000  1.0
  C  C47  1  0.91384000  0.82163000  0.51965000  1.0
  C  C48  1  0.18986000  0.11108000  0.47689000  1.0
  C  C49  1  0.81014000  0.88891000  0.52311000  1.0
  C  C50  1  0.31274000  0.30827000  0.55776000  1.0
  C  C51  1  0.68726000  0.69173000  0.44224000  1.0
  C  C52  1  0.44259000  0.41797000  0.61190000  1.0
  C  C53  1  0.55741000  0.58203000  0.38810000  1.0
  C  C54  1  0.46014000  0.54888000  0.61901000  1.0
  C  C55  1  0.53986000  0.45112000  0.38099000  1.0
  C  C56  1  0.58979000  0.64430000  0.67273000  1.0
  C  C57  1  0.41021000  0.35570000  0.32727000  1.0
  C  C58  1  0.69878000  0.60777000  0.71773000  1.0
  C  C59  1  0.30122000  0.39223000  0.28227000  1.0
  C  C60  1  0.67580000  0.47533000  0.70430000  1.0
  C  C61  1  0.32420000  0.52467000  0.29570000  1.0
  C  C62  1  0.77251000  0.19549000  0.71585000  1.0
  C  C63  1  0.22749000  0.80451000  0.28416000  1.0
  C  C64  1  0.91018000  0.24559000  0.78610000  1.0
  C  C65  1  0.08982000  0.75441000  0.21390000  1.0
  C  C66  1  0.06156000  0.27230000  0.76068000  1.0
  C  C67  1  0.93844000  0.72770000  0.23932000  1.0
  C  C68  1  0.19255000  0.33226000  0.82465000  1.0
  C  C69  1  0.80744000  0.66773000  0.17535000  1.0
  C  C70  1  0.17109000  0.36564000  0.91600000  1.0
  C  C71  1  0.82891000  0.63436000  0.08400000  1.0
  C  C72  1  0.01990000  0.33626000  0.94288000  1.0
  C  C73  1  0.98010000  0.66374000  0.05712000  1.0
  C  C74  1  0.89090000  0.27690000  0.87812000  1.0
  C  C75  1  0.10910000  0.72310000  0.12188000  1.0
  C  C76  1  0.44590000  0.46478000  0.95683000  1.0
  C  C77  1  0.55411000  0.53522000  0.04317000  1.0
  C  C78  1  0.33146000  0.84292000  0.59031000  1.0
  C  C79  1  0.66854000  0.15708000  0.40969000  1.0
  C  C80  1  0.26399000  0.85969000  0.67764000  1.0
  C  C81  1  0.73601000  0.14031000  0.32236000  1.0
  C  C82  1  0.22547000  0.75908000  0.72331000  1.0
  C  C83  1  0.77453000  0.24092000  0.27669000  1.0
  C  C84  1  0.15641000  0.77091000  0.80267000  1.0
  C  C85  1  0.84359000  0.22910000  0.19733000  1.0
  C  C86  1  0.12273000  0.88480000  0.83731000  1.0
  C  C87  1  0.87727000  0.11520000  0.16269000  1.0
  C  C88  1  0.15939000  0.98592000  0.79247000  1.0
  C  C89  1  0.84061000  0.01408000  0.20753000  1.0
  C  C90  1  0.23101000  0.97293000  0.71367000  1.0
  C  C91  1  0.76900000  0.02707000  0.28633000  1.0
  C  C92  1  0.03068000  0.00848000  0.95555000  1.0
  C  C93  1  0.96932000  0.99151000  0.04445000  1.0
  C  C94  1  0.04954000  0.45743000  0.48451000  1.0
  C  C95  1  0.95046000  0.54257000  0.51549000  1.0
  C  C96  1  0.08352000  0.39660000  0.55981000  1.0
  C  C97  1  0.91648000  0.60340000  0.44019000  1.0
  N  N98  1  0.32855000  0.19240000  0.52556000  1.0
  N  N99  1  0.67145000  0.80760000  0.47444000  1.0
  N  N100  1  0.16385000  0.30230000  0.53149000  1.0
  N  N101  1  0.83615000  0.69770000  0.46851000  1.0
  N  N102  1  0.55236000  0.38302000  0.65266000  1.0
  N  N103  1  0.44764000  0.61698000  0.34734000  1.0
  O  O104  1  0.63561000  0.17524000  0.73910000  1.0
  O  O105  1  0.36439000  0.82476000  0.26090000  1.0
  O  O106  1  0.80011000  0.18256000  0.63269000  1.0
  O  O107  1  0.19989000  0.81744000  0.36731000  1.0
  O  O108  1  0.29175000  0.42727000  0.98345000  1.0
  O  O109  1  0.70825000  0.57273000  0.01655000  1.0
  O  O110  1  0.39149000  0.94381000  0.55860000  1.0
  O  O111  1  0.60851000  0.05619000  0.44140000  1.0
  O  O112  1  0.05377000  0.88909000  0.91531000  1.0
  O  O113  1  0.94622000  0.11091000  0.08469000  1.0
  O  O114  1  0.32322000  0.73078000  0.54721000  1.0
  O  O115  1  0.67679000  0.26922000  0.45279000  1.0
