# generated using pymatgen
data_Sc2H17C21N3O16
_symmetry_space_group_name_H-M   'P 1'
_cell_length_a   7.82934000
_cell_length_b   12.55270000
_cell_length_c   26.88260000
_cell_angle_alpha   90.00030000
_cell_angle_beta   90.00030000
_cell_angle_gamma   85.98050000
_symmetry_Int_Tables_number   1
_chemical_formula_structural   Sc2H17C21N3O16
_chemical_formula_sum   'Sc8 H68 C84 N12 O64'
_cell_volume   2635.50595482
_cell_formula_units_Z   4
loop_
 _symmetry_equiv_pos_site_id
 _symmetry_equiv_pos_as_xyz
  1  'x, y, z'
loop_
 _atom_site_type_symbol
 _atom_site_label
 _atom_site_symmetry_multiplicity
 _atom_site_fract_x
 _atom_site_fract_y
 _atom_site_fract_z
 _atom_site_occupancy
  Sc  Sc0  1  0.97301000  0.41416000  0.84407000  1.0
  Sc  Sc1  1  0.52698000  0.58584000  0.34407000  1.0
  Sc  Sc2  1  0.02699000  0.58584000  0.15594000  1.0
  Sc  Sc3  1  0.47301000  0.41416000  0.65594000  1.0
  Sc  Sc4  1  0.18381000  0.75016000  0.98475000  1.0
  Sc  Sc5  1  0.31620000  0.24983000  0.48476000  1.0
  Sc  Sc6  1  0.81618000  0.24984000  0.01524000  1.0
  Sc  Sc7  1  0.68382000  0.75016000  0.51524000  1.0
  H  H8  1  0.04836000  0.57622000  0.03401000  1.0
  H  H9  1  0.45165000  0.42377000  0.53401000  1.0
  H  H10  1  0.95165000  0.42377000  0.96599000  1.0
  H  H11  1  0.54835000  0.57623000  0.46599000  1.0
  H  H12  1  0.90791000  0.60723000  0.99059000  1.0
  H  H13  1  0.59210000  0.39277000  0.49059000  1.0
  H  H14  1  0.09210000  0.39277000  0.00941000  1.0
  H  H15  1  0.40790000  0.60723000  0.50941000  1.0
  H  H16  1  0.48046000  0.63931000  0.02540000  1.0
  H  H17  1  0.01954000  0.36068000  0.52540000  1.0
  H  H18  1  0.51955000  0.36069000  0.97460000  1.0
  H  H19  1  0.98046000  0.63931000  0.47460000  1.0
  H  H20  1  0.40023000  0.71665000  0.07017000  1.0
  H  H21  1  0.09977000  0.28335000  0.57017000  1.0
  H  H22  1  0.59977000  0.28336000  0.92983000  1.0
  H  H23  1  0.90022000  0.71664000  0.42983000  1.0
  H  H24  1  0.30315000  0.47359000  0.83441000  1.0
  H  H25  1  0.19686000  0.52640000  0.33441000  1.0
  H  H26  1  0.69686000  0.52641000  0.16559000  1.0
  H  H27  1  0.80314000  0.47359000  0.66560000  1.0
  H  H28  1  0.22680000  0.53994000  0.88246000  1.0
  H  H29  1  0.27321000  0.46006000  0.38246000  1.0
  H  H30  1  0.77321000  0.46006000  0.11754000  1.0
  H  H31  1  0.72679000  0.53993000  0.61754000  1.0
  H  H32  1  0.34163000  0.74744000  0.82616000  1.0
  H  H33  1  0.15838000  0.25256000  0.32616000  1.0
  H  H34  1  0.65838000  0.25257000  0.17385000  1.0
  H  H35  1  0.84163000  0.74744000  0.67384000  1.0
  H  H36  1  0.77577000  0.57778000  0.75581000  1.0
  H  H37  1  0.72425000  0.42223000  0.25581000  1.0
  H  H38  1  0.22424000  0.42223000  0.24419000  1.0
  H  H39  1  0.27577000  0.57779000  0.74419000  1.0
  H  H40  1  0.31197000  0.01782000  0.78636000  1.0
  H  H41  1  0.18803000  0.98218000  0.28635000  1.0
  H  H42  1  0.68803000  0.98218000  0.21365000  1.0
  H  H43  1  0.81198000  0.01783000  0.71365000  1.0
  H  H44  1  0.51743000  0.70645000  0.74870000  1.0
  H  H45  1  0.98259000  0.29357000  0.24870000  1.0
  H  H46  1  0.48258000  0.29357000  0.25131000  1.0
  H  H47  1  0.01743000  0.70646000  0.75130000  1.0
  H  H48  1  0.19511000  0.15544000  0.84690000  1.0
  H  H49  1  0.30486000  0.84456000  0.34690000  1.0
  H  H50  1  0.80490000  0.84457000  0.15310000  1.0
  H  H51  1  0.69513000  0.15544000  0.65310000  1.0
  H  H52  1  0.42114000  0.13055000  0.93224000  1.0
  H  H53  1  0.07885000  0.86945000  0.43224000  1.0
  H  H54  1  0.57882000  0.86945000  0.06776000  1.0
  H  H55  1  0.92118000  0.13054000  0.56776000  1.0
  H  H56  1  0.29477000  0.05770000  0.69429000  1.0
  H  H57  1  0.20523000  0.94231000  0.19429000  1.0
  H  H58  1  0.70522000  0.94229000  0.30571000  1.0
  H  H59  1  0.79477000  0.05770000  0.80571000  1.0
  H  H60  1  0.37368000  0.93675000  0.92463000  1.0
  H  H61  1  0.12632000  0.06325000  0.42463000  1.0
  H  H62  1  0.62630000  0.06326000  0.07537000  1.0
  H  H63  1  0.87371000  0.93673000  0.57536000  1.0
  H  H64  1  0.31087000  0.22940000  0.00895000  1.0
  H  H65  1  0.18913000  0.77060000  0.50895000  1.0
  H  H66  1  0.68910000  0.77061000  0.99105000  1.0
  H  H67  1  0.81089000  0.22939000  0.49105000  1.0
  H  H68  1  0.18636000  0.33549000  0.92028000  1.0
  H  H69  1  0.31363000  0.66450000  0.42028000  1.0
  H  H70  1  0.81363000  0.66451000  0.07972000  1.0
  H  H71  1  0.68635000  0.33550000  0.57972000  1.0
  H  H72  1  0.03775000  0.25481000  0.91640000  1.0
  H  H73  1  0.46223000  0.74518000  0.41640000  1.0
  H  H74  1  0.96224000  0.74518000  0.08360000  1.0
  H  H75  1  0.53776000  0.25481000  0.58360000  1.0
  C  C76  1  0.12658000  0.15577000  0.08308000  1.0
  C  C77  1  0.37342000  0.84422000  0.58308000  1.0
  C  C78  1  0.87340000  0.84423000  0.91692000  1.0
  C  C79  1  0.62659000  0.15577000  0.41692000  1.0
  C  C80  1  0.20428000  0.09078000  0.04020000  1.0
  C  C81  1  0.29573000  0.90921000  0.54021000  1.0
  C  C82  1  0.79571000  0.90922000  0.95979000  1.0
  C  C83  1  0.70428000  0.09078000  0.45979000  1.0
  C  C84  1  0.76286000  0.55503000  0.92078000  1.0
  C  C85  1  0.73715000  0.44497000  0.42078000  1.0
  C  C86  1  0.23715000  0.44497000  0.07922000  1.0
  C  C87  1  0.26285000  0.55503000  0.57922000  1.0
  C  C88  1  0.09565000  0.28276000  0.74346000  1.0
  C  C89  1  0.40434000  0.71724000  0.24346000  1.0
  C  C90  1  0.90435000  0.71724000  0.25655000  1.0
  C  C91  1  0.59564000  0.28276000  0.75654000  1.0
  C  C92  1  0.46080000  0.69693000  0.82738000  1.0
  C  C93  1  0.03920000  0.30307000  0.32738000  1.0
  C  C94  1  0.53921000  0.30308000  0.17262000  1.0
  C  C95  1  0.96081000  0.69693000  0.67262000  1.0
  C  C96  1  0.70259000  0.60398000  0.78846000  1.0
  C  C97  1  0.79742000  0.39603000  0.28846000  1.0
  C  C98  1  0.29742000  0.39603000  0.21154000  1.0
  C  C99  1  0.20260000  0.60399000  0.71154000  1.0
  C  C100  1  0.25104000  0.09291000  0.77271000  1.0
  C  C101  1  0.24895000  0.90710000  0.27271000  1.0
  C  C102  1  0.74896000  0.90709000  0.22729000  1.0
  C  C103  1  0.75105000  0.09291000  0.72729000  1.0
  C  C104  1  0.67300000  0.59059000  0.87374000  1.0
  C  C105  1  0.82700000  0.40941000  0.37374000  1.0
  C  C106  1  0.32700000  0.40941000  0.12626000  1.0
  C  C107  1  0.17300000  0.59059000  0.62626000  1.0
  C  C108  1  0.16229000  0.21271000  0.70670000  1.0
  C  C109  1  0.33770000  0.78729000  0.20670000  1.0
  C  C110  1  0.83771000  0.78729000  0.29330000  1.0
  C  C111  1  0.66228000  0.21271000  0.79330000  1.0
  C  C112  1  0.18402000  0.98214000  0.03257000  1.0
  C  C113  1  0.31598000  0.01785000  0.53257000  1.0
  C  C114  1  0.81596000  0.01786000  0.96743000  1.0
  C  C115  1  0.68403000  0.98213000  0.46742000  1.0
  C  C116  1  0.16738000  0.25014000  0.65352000  1.0
  C  C117  1  0.33262000  0.74986000  0.15351000  1.0
  C  C118  1  0.83261000  0.74986000  0.34649000  1.0
  C  C119  1  0.66738000  0.25014000  0.84649000  1.0
  C  C120  1  0.55672000  0.67397000  0.78484000  1.0
  C  C121  1  0.94330000  0.32604000  0.28484000  1.0
  C  C122  1  0.44330000  0.32605000  0.21516000  1.0
  C  C123  1  0.05672000  0.67397000  0.71516000  1.0
  C  C124  1  0.99854000  0.38594000  0.73072000  1.0
  C  C125  1  0.50146000  0.61407000  0.23072000  1.0
  C  C126  1  0.00146000  0.61407000  0.26928000  1.0
  C  C127  1  0.49854000  0.38593000  0.76928000  1.0
  C  C128  1  0.51882000  0.65345000  0.87278000  1.0
  C  C129  1  0.98119000  0.34655000  0.37279000  1.0
  C  C130  1  0.48119000  0.34656000  0.12722000  1.0
  C  C131  1  0.01881000  0.65345000  0.62722000  1.0
  C  C132  1  0.18625000  0.16923000  0.80705000  1.0
  C  C133  1  0.31374000  0.83077000  0.30705000  1.0
  C  C134  1  0.81376000  0.83077000  0.19295000  1.0
  C  C135  1  0.68625000  0.16923000  0.69295000  1.0
  C  C136  1  0.35386000  0.09087000  0.96158000  1.0
  C  C137  1  0.14614000  0.90913000  0.46158000  1.0
  C  C138  1  0.64612000  0.90914000  0.03842000  1.0
  C  C139  1  0.85388000  0.09086000  0.53841000  1.0
  C  C140  1  0.24065000  0.11437000  0.72188000  1.0
  C  C141  1  0.25934000  0.88564000  0.22188000  1.0
  C  C142  1  0.75934000  0.88563000  0.27813000  1.0
  C  C143  1  0.74065000  0.11437000  0.77812000  1.0
  C  C144  1  0.32718000  0.98283000  0.95673000  1.0
  C  C145  1  0.17281000  0.01717000  0.45674000  1.0
  C  C146  1  0.67279000  0.01717000  0.04326000  1.0
  C  C147  1  0.82721000  0.98282000  0.54326000  1.0
  C  C148  1  0.29223000  0.14498000  0.00365000  1.0
  C  C149  1  0.20777000  0.85502000  0.50365000  1.0
  C  C150  1  0.70775000  0.85502000  0.99635000  1.0
  C  C151  1  0.79225000  0.14497000  0.49635000  1.0
  C  C152  1  0.08817000  0.91477000  0.06770000  1.0
  C  C153  1  0.41182000  0.08523000  0.56771000  1.0
  C  C154  1  0.91180000  0.08523000  0.93229000  1.0
  C  C155  1  0.58819000  0.91476000  0.43229000  1.0
  C  C156  1  0.40909000  0.67529000  0.91744000  1.0
  C  C157  1  0.09092000  0.32472000  0.41744000  1.0
  C  C158  1  0.59092000  0.32472000  0.08256000  1.0
  C  C159  1  0.90908000  0.67528000  0.58256000  1.0
  N  N160  1  0.24515000  0.92969000  0.99161000  1.0
  N  N161  1  0.25485000  0.07030000  0.49162000  1.0
  N  N162  1  0.75483000  0.07031000  0.00839000  1.0
  N  N163  1  0.74516000  0.92968000  0.50838000  1.0
  N  N164  1  0.75948000  0.56280000  0.83187000  1.0
  N  N165  1  0.74053000  0.43720000  0.33187000  1.0
  N  N166  1  0.24053000  0.43721000  0.16814000  1.0
  N  N167  1  0.25948000  0.56280000  0.66813000  1.0
  N  N168  1  0.10896000  0.26290000  0.79258000  1.0
  N  N169  1  0.39103000  0.73710000  0.29258000  1.0
  N  N170  1  0.89105000  0.73710000  0.20743000  1.0
  N  N171  1  0.60896000  0.26290000  0.70742000  1.0
  O  O172  1  0.20120000  0.16406000  0.12294000  1.0
  O  O173  1  0.29881000  0.83593000  0.62295000  1.0
  O  O174  1  0.79879000  0.83593000  0.87705000  1.0
  O  O175  1  0.70120000  0.16407000  0.37706000  1.0
  O  O176  1  0.98118000  0.20764000  0.07052000  1.0
  O  O177  1  0.51883000  0.79236000  0.57052000  1.0
  O  O178  1  0.01881000  0.79236000  0.92948000  1.0
  O  O179  1  0.48119000  0.20763000  0.42948000  1.0
  O  O180  1  0.96085000  0.40601000  0.68630000  1.0
  O  O181  1  0.53915000  0.59401000  0.18630000  1.0
  O  O182  1  0.03915000  0.59400000  0.31370000  1.0
  O  O183  1  0.46085000  0.40600000  0.81370000  1.0
  O  O184  1  0.28129000  0.31720000  0.64589000  1.0
  O  O185  1  0.21872000  0.68280000  0.14589000  1.0
  O  O186  1  0.71871000  0.68281000  0.35411000  1.0
  O  O187  1  0.78128000  0.31720000  0.85411000  1.0
  O  O188  1  0.71401000  0.59214000  0.96219000  1.0
  O  O189  1  0.78600000  0.40787000  0.46219000  1.0
  O  O190  1  0.28600000  0.40787000  0.03781000  1.0
  O  O191  1  0.21401000  0.59213000  0.53781000  1.0
  O  O192  1  0.11180000  0.30388000  0.89645000  1.0
  O  O193  1  0.38819000  0.69611000  0.39645000  1.0
  O  O194  1  0.88820000  0.69611000  0.10355000  1.0
  O  O195  1  0.61181000  0.30388000  0.60355000  1.0
  O  O196  1  0.01882000  0.62542000  0.00542000  1.0
  O  O197  1  0.48119000  0.37457000  0.50542000  1.0
  O  O198  1  0.98119000  0.37458000  0.99458000  1.0
  O  O199  1  0.51880000  0.62542000  0.49458000  1.0
  O  O200  1  0.37810000  0.68034000  0.03704000  1.0
  O  O201  1  0.12190000  0.31966000  0.53704000  1.0
  O  O202  1  0.62190000  0.31966000  0.96296000  1.0
  O  O203  1  0.87810000  0.68033000  0.46296000  1.0
  O  O204  1  0.07564000  0.81631000  0.05142000  1.0
  O  O205  1  0.42438000  0.18368000  0.55143000  1.0
  O  O206  1  0.92436000  0.18369000  0.94858000  1.0
  O  O207  1  0.57562000  0.81631000  0.44858000  1.0
  O  O208  1  0.89685000  0.49014000  0.91471000  1.0
  O  O209  1  0.60316000  0.50986000  0.41471000  1.0
  O  O210  1  0.10315000  0.50986000  0.08529000  1.0
  O  O211  1  0.39685000  0.49013000  0.58529000  1.0
  O  O212  1  0.02587000  0.95009000  0.10698000  1.0
  O  O213  1  0.47411000  0.04991000  0.60699000  1.0
  O  O214  1  0.97407000  0.04992000  0.89301000  1.0
  O  O215  1  0.52590000  0.95007000  0.39301000  1.0
  O  O216  1  0.40944000  0.76611000  0.93810000  1.0
  O  O217  1  0.09057000  0.23389000  0.43810000  1.0
  O  O218  1  0.59055000  0.23390000  0.06190000  1.0
  O  O219  1  0.90944000  0.76610000  0.56189000  1.0
  O  O220  1  0.30486000  0.60734000  0.93164000  1.0
  O  O221  1  0.19515000  0.39265000  0.43164000  1.0
  O  O222  1  0.69514000  0.39266000  0.06836000  1.0
  O  O223  1  0.80486000  0.60733000  0.56836000  1.0
  O  O224  1  0.95723000  0.44689000  0.76783000  1.0
  O  O225  1  0.54278000  0.55312000  0.26782000  1.0
  O  O226  1  0.04277000  0.55311000  0.23218000  1.0
  O  O227  1  0.45723000  0.44689000  0.73218000  1.0
  O  O228  1  0.07407000  0.21556000  0.62037000  1.0
  O  O229  1  0.42594000  0.78444000  0.12037000  1.0
  O  O230  1  0.92594000  0.78443000  0.37963000  1.0
  O  O231  1  0.57405000  0.21556000  0.87963000  1.0
  O  O232  1  0.19333000  0.50387000  0.85104000  1.0
  O  O233  1  0.30667000  0.49612000  0.35104000  1.0
  O  O234  1  0.80667000  0.49613000  0.14896000  1.0
  O  O235  1  0.69333000  0.50387000  0.64896000  1.0
