# generated using pymatgen
data_GdH9C9NO11
_symmetry_space_group_name_H-M   'P 1'
_cell_length_a   7.44920000
_cell_length_b   9.24777000
_cell_length_c   11.35000857
_cell_angle_alpha   101.90715850
_cell_angle_beta   107.63210349
_cell_angle_gamma   99.03470000
_symmetry_Int_Tables_number   1
_chemical_formula_structural   GdH9C9NO11
_chemical_formula_sum   'Gd2 H18 C18 N2 O22'
_cell_volume   708.62728319
_cell_formula_units_Z   2
loop_
 _symmetry_equiv_pos_site_id
 _symmetry_equiv_pos_as_xyz
  1  'x, y, z'
loop_
 _atom_site_type_symbol
 _atom_site_label
 _atom_site_symmetry_multiplicity
 _atom_site_fract_x
 _atom_site_fract_y
 _atom_site_fract_z
 _atom_site_occupancy
  Gd  Gd0  1  0.66774000  0.55221000  0.27819000  1.0
  Gd  Gd1  1  0.33226000  0.44779000  0.72180000  1.0
  H  H2  1  0.49138000  0.00633000  0.21803000  1.0
  H  H3  1  0.50861000  0.99367000  0.78197000  1.0
  H  H4  1  0.20227000  0.14835000  0.88699000  1.0
  H  H5  1  0.79772000  0.85165000  0.11301000  1.0
  H  H6  1  0.02639000  0.68451000  0.89854000  1.0
  H  H7  1  0.97362000  0.31549000  0.10147000  1.0
  H  H8  1  0.28739000  0.55646000  0.27229000  1.0
  H  H9  1  0.71261000  0.44354000  0.72771000  1.0
  H  H10  1  0.35084000  0.50844000  0.40471000  1.0
  H  H11  1  0.64917000  0.49156000  0.59529000  1.0
  H  H12  1  0.94347000  0.60883000  0.12753000  1.0
  H  H13  1  0.05653000  0.39117000  0.87247000  1.0
  H  H14  1  0.72548000  0.61367000  0.04346000  1.0
  H  H15  1  0.27452000  0.38634000  0.95653000  1.0
  H  H16  1  0.87266000  0.85174000  0.50334000  1.0
  H  H17  1  0.12734000  0.14826000  0.49666000  1.0
  H  H18  1  0.85643000  0.88940000  0.37048000  1.0
  H  H19  1  0.14358000  0.11060000  0.62953000  1.0
  C  C20  1  0.26395000  0.83153000  0.06595000  1.0
  C  C21  1  0.73606000  0.16847000  0.93406000  1.0
  C  C22  1  0.37883000  0.97984000  0.12405000  1.0
  C  C23  1  0.62116000  0.02016000  0.87595000  1.0
  C  C24  1  0.35189000  0.09599000  0.06354000  1.0
  C  C25  1  0.64811000  0.90401000  0.93647000  1.0
  C  C26  1  0.21872000  0.06176000  0.93882000  1.0
  C  C27  1  0.78128000  0.93824000  0.06118000  1.0
  C  C28  1  0.10622000  0.91374000  0.88300000  1.0
  C  C29  1  0.89378000  0.08626000  0.11701000  1.0
  C  C30  1  0.11944000  0.79835000  0.94563000  1.0
  C  C31  1  0.88057000  0.20165000  0.05438000  1.0
  C  C32  1  0.30830000  0.70928000  0.13234000  1.0
  C  C33  1  0.69170000  0.29072000  0.86766000  1.0
  C  C34  1  0.47046000  0.25416000  0.13253000  1.0
  C  C35  1  0.52953000  0.74584000  0.86747000  1.0
  C  C36  1  0.93661000  0.50268000  0.54275000  1.0
  C  C37  1  0.06337000  0.49732000  0.45722000  1.0
  N  N38  1  0.96710000  0.87633000  0.75287000  1.0
  N  N39  1  0.03290000  0.12367000  0.24713000  1.0
  O  O40  1  0.48744000  0.71076000  0.17708000  1.0
  O  O41  1  0.51256000  0.28924000  0.82292000  1.0
  O  O42  1  0.17127000  0.61597000  0.14048000  1.0
  O  O43  1  0.82873000  0.38403000  0.85952000  1.0
  O  O44  1  0.61146000  0.27719000  0.23656000  1.0
  O  O45  1  0.38854000  0.72281000  0.76344000  1.0
  O  O46  1  0.42828000  0.36594000  0.08769000  1.0
  O  O47  1  0.57172000  0.63406000  0.91231000  1.0
  O  O48  1  0.00436000  0.94928000  0.67732000  1.0
  O  O49  1  0.99564000  0.05072000  0.32269000  1.0
  O  O50  1  0.81962000  0.77512000  0.72140000  1.0
  O  O51  1  0.18038000  0.22487000  0.27860000  1.0
  O  O52  1  0.76852000  0.52448000  0.49353000  1.0
  O  O53  1  0.23148000  0.47552000  0.50646000  1.0
  O  O54  1  0.00774000  0.48562000  0.65327000  1.0
  O  O55  1  0.99226000  0.51437000  0.34672000  1.0
  O  O56  1  0.39960000  0.54199000  0.33998000  1.0
  O  O57  1  0.60040000  0.45801000  0.66001000  1.0
  O  O58  1  0.80758000  0.60162000  0.12706000  1.0
  O  O59  1  0.19242000  0.39839000  0.87294000  1.0
  O  O60  1  0.83299000  0.80733000  0.41002000  1.0
  O  O61  1  0.16701000  0.19267000  0.58998000  1.0
