# generated using pymatgen
data_ZnH20C28(NO2)2
_symmetry_space_group_name_H-M   'P 1'
_cell_length_a   7.48718000
_cell_length_b   13.95900000
_cell_length_c   14.45280000
_cell_angle_alpha   107.64000000
_cell_angle_beta   92.56080000
_cell_angle_gamma   93.68940000
_symmetry_Int_Tables_number   1
_chemical_formula_structural   ZnH20C28(NO2)2
_chemical_formula_sum   'Zn2 H40 C56 N4 O8'
_cell_volume   1433.22987965
_cell_formula_units_Z   2
loop_
 _symmetry_equiv_pos_site_id
 _symmetry_equiv_pos_as_xyz
  1  'x, y, z'
loop_
 _atom_site_type_symbol
 _atom_site_label
 _atom_site_symmetry_multiplicity
 _atom_site_fract_x
 _atom_site_fract_y
 _atom_site_fract_z
 _atom_site_occupancy
  Zn  Zn0  1  0.46966000  0.26871000  0.27522000  1.0
  Zn  Zn1  1  0.53035000  0.73130000  0.72480000  1.0
  H  H2  1  0.81576000  0.30621000  0.39194000  1.0
  H  H3  1  0.18426000  0.69378000  0.60805000  1.0
  H  H4  1  0.49932000  0.04816000  0.23590000  1.0
  H  H5  1  0.50069000  0.95184000  0.76408000  1.0
  H  H6  1  0.73545000  0.21450000  0.12856000  1.0
  H  H7  1  0.26452000  0.78550000  0.87144000  1.0
  H  H8  1  0.57274000  0.48657000  0.29688000  1.0
  H  H9  1  0.42728000  0.51343000  0.70314000  1.0
  H  H10  1  0.03633000  0.20833000  0.44831000  1.0
  H  H11  1  0.96370000  0.79165000  0.55167000  1.0
  H  H12  1  0.70401000  0.93801000  0.28857000  1.0
  H  H13  1  0.29602000  0.06199000  0.71140000  1.0
  H  H14  1  0.96767000  0.29823000  0.05606000  1.0
  H  H15  1  0.03228000  0.70176000  0.94392000  1.0
  H  H16  1  0.78698000  0.58385000  0.22378000  1.0
  H  H17  1  0.21303000  0.41615000  0.77623000  1.0
  H  H18  1  0.94926000  0.11247000  0.16494000  1.0
  H  H19  1  0.05072000  0.88756000  0.83511000  1.0
  H  H20  1  0.30840000  0.99835000  0.94164000  1.0
  H  H21  1  0.69158000  0.00167000  0.05840000  1.0
  H  H22  1  0.08937000  0.38387000  0.59122000  1.0
  H  H23  1  0.91064000  0.61611000  0.40881000  1.0
  H  H24  1  0.16077000  0.50312000  0.35389000  1.0
  H  H25  1  0.83925000  0.49687000  0.64614000  1.0
  H  H26  1  0.04034000  0.93850000  0.36548000  1.0
  H  H27  1  0.95967000  0.06148000  0.63449000  1.0
  H  H28  1  0.08209000  0.57092000  0.13207000  1.0
  H  H29  1  0.91789000  0.42907000  0.86792000  1.0
  H  H30  1  0.87401000  0.86810000  0.46701000  1.0
  H  H31  1  0.12598000  0.13189000  0.53296000  1.0
  H  H32  1  0.91133000  0.63119000  0.02489000  1.0
  H  H33  1  0.08866000  0.36880000  0.97511000  1.0
  H  H34  1  0.62871000  0.67707000  0.06944000  1.0
  H  H35  1  0.37128000  0.32293000  0.93055000  1.0
  H  H36  1  0.69468000  0.36311000  0.92793000  1.0
  H  H37  1  0.30531000  0.63688000  0.07206000  1.0
  H  H38  1  0.57384000  0.82276000  0.42976000  1.0
  H  H39  1  0.42617000  0.17724000  0.57020000  1.0
  H  H40  1  0.74082000  0.13574000  0.57414000  1.0
  H  H41  1  0.25920000  0.86427000  0.42583000  1.0
  C  C42  1  0.29433000  0.13039000  0.11997000  1.0
  C  C43  1  0.70566000  0.86965000  0.88007000  1.0
  C  C44  1  0.28414000  0.36701000  0.43641000  1.0
  C  C45  1  0.71588000  0.63299000  0.56361000  1.0
  C  C46  1  0.79561000  0.22417000  0.37086000  1.0
  C  C47  1  0.20440000  0.77583000  0.62914000  1.0
  C  C48  1  0.61885000  0.07986000  0.28392000  1.0
  C  C49  1  0.38116000  0.92014000  0.71607000  1.0
  C  C50  1  0.75587000  0.29635000  0.14940000  1.0
  C  C51  1  0.24412000  0.70365000  0.85060000  1.0
  C  C52  1  0.66157000  0.44897000  0.24182000  1.0
  C  C53  1  0.33844000  0.55103000  0.75819000  1.0
  C  C54  1  0.14179000  0.06298000  0.05833000  1.0
  C  C55  1  0.85822000  0.93704000  0.94171000  1.0
  C  C56  1  0.14027000  0.43774000  0.47023000  1.0
  C  C57  1  0.85974000  0.56225000  0.52979000  1.0
  C  C58  1  0.91742000  0.16844000  0.40333000  1.0
  C  C59  1  0.08260000  0.83155000  0.59665000  1.0
  C  C60  1  0.73472000  0.01948000  0.31299000  1.0
  C  C61  1  0.26529000  0.98052000  0.68699000  1.0
  C  C62  1  0.88269000  0.34456000  0.10785000  1.0
  C  C63  1  0.11729000  0.65543000  0.89214000  1.0
  C  C64  1  0.78257000  0.50176000  0.20170000  1.0
  C  C65  1  0.21742000  0.49823000  0.79830000  1.0
  C  C66  1  0.96905000  0.06299000  0.09232000  1.0
  C  C67  1  0.03095000  0.93703000  0.90771000  1.0
  C  C68  1  0.17234000  0.99925000  0.96570000  1.0
  C  C69  1  0.82765000  0.00076000  0.03434000  1.0
  C  C70  1  0.04883000  0.43545000  0.55213000  1.0
  C  C71  1  0.95118000  0.56453000  0.44789000  1.0
  C  C72  1  0.08997000  0.50285000  0.41808000  1.0
  C  C73  1  0.91004000  0.49714000  0.58194000  1.0
  C  C74  1  0.88405000  0.06361000  0.37775000  1.0
  C  C75  1  0.11596000  0.93638000  0.62223000  1.0
  C  C76  1  0.89409000  0.44961000  0.13112000  1.0
  C  C77  1  0.10589000  0.55038000  0.86887000  1.0
  C  C78  1  0.98624000  0.99844000  0.42310000  1.0
  C  C79  1  0.01377000  0.00155000  0.57687000  1.0
  C  C80  1  0.00247000  0.50787000  0.07848000  1.0
  C  C81  1  0.99752000  0.49212000  0.92152000  1.0
  C  C82  1  0.87245000  0.95044000  0.49159000  1.0
  C  C83  1  0.12758000  0.04956000  0.50839000  1.0
  C  C84  1  0.88573000  0.54906000  0.00556000  1.0
  C  C85  1  0.11426000  0.45094000  0.99443000  1.0
  C  C86  1  0.68118000  0.97588000  0.50149000  1.0
  C  C87  1  0.31883000  0.02412000  0.49847000  1.0
  C  C88  1  0.68692000  0.52359000  0.99805000  1.0
  C  C89  1  0.31307000  0.47641000  0.00194000  1.0
  C  C90  1  0.57297000  0.59888000  0.03899000  1.0
  C  C91  1  0.42702000  0.40112000  0.96100000  1.0
  C  C92  1  0.61029000  0.42418000  0.95891000  1.0
  C  C93  1  0.38970000  0.57582000  0.04108000  1.0
  C  C94  1  0.54197000  0.90098000  0.45932000  1.0
  C  C95  1  0.45803000  0.09902000  0.54064000  1.0
  C  C96  1  0.63573000  0.07515000  0.54260000  1.0
  C  C97  1  0.36428000  0.92485000  0.45736000  1.0
  N  N98  1  0.64631000  0.18126000  0.31443000  1.0
  N  N99  1  0.35369000  0.81874000  0.68557000  1.0
  N  N100  1  0.64558000  0.34738000  0.21420000  1.0
  N  N101  1  0.35442000  0.65262000  0.78581000  1.0
  O  O102  1  0.25383000  0.18812000  0.20444000  1.0
  O  O103  1  0.74613000  0.81193000  0.79559000  1.0
  O  O104  1  0.37548000  0.38440000  0.36789000  1.0
  O  O105  1  0.62455000  0.61561000  0.63215000  1.0
  O  O106  1  0.44905000  0.12907000  0.09023000  1.0
  O  O107  1  0.55090000  0.87096000  0.90982000  1.0
  O  O108  1  0.30427000  0.29679000  0.47193000  1.0
  O  O109  1  0.69573000  0.70319000  0.52807000  1.0
