# generated using pymatgen
data_CdH6C9(SN3)2
_symmetry_space_group_name_H-M   'P 1'
_cell_length_a   8.18839000
_cell_length_b   10.84760000
_cell_length_c   15.26270000
_cell_angle_alpha   90.00000000
_cell_angle_beta   89.99990000
_cell_angle_gamma   106.88300000
_symmetry_Int_Tables_number   1
_chemical_formula_structural   CdH6C9(SN3)2
_chemical_formula_sum   'Cd4 H24 C36 S8 N24'
_cell_volume   1297.26891327
_cell_formula_units_Z   4
loop_
 _symmetry_equiv_pos_site_id
 _symmetry_equiv_pos_as_xyz
  1  'x, y, z'
loop_
 _atom_site_type_symbol
 _atom_site_label
 _atom_site_symmetry_multiplicity
 _atom_site_fract_x
 _atom_site_fract_y
 _atom_site_fract_z
 _atom_site_occupancy
  Cd  Cd0  1  0.42220000  0.16124000  0.13590000  1.0
  Cd  Cd1  1  0.57780000  0.33877000  0.63590000  1.0
  Cd  Cd2  1  0.57780000  0.83876000  0.86410000  1.0
  Cd  Cd3  1  0.42220000  0.66124000  0.36410000  1.0
  H  H4  1  0.81837000  0.43880000  0.46488000  1.0
  H  H5  1  0.18163000  0.06120000  0.96488000  1.0
  H  H6  1  0.18163000  0.56120000  0.53512000  1.0
  H  H7  1  0.81836000  0.93880000  0.03512000  1.0
  H  H8  1  0.97895000  0.36177000  0.34817000  1.0
  H  H9  1  0.02105000  0.13823000  0.84817000  1.0
  H  H10  1  0.02105000  0.63823000  0.65183000  1.0
  H  H11  1  0.97895000  0.86177000  0.15183000  1.0
  H  H12  1  0.85033000  0.99464000  0.48351000  1.0
  H  H13  1  0.14967000  0.50536000  0.98351000  1.0
  H  H14  1  0.14968000  0.00536000  0.51649000  1.0
  H  H15  1  0.85033000  0.49464000  0.01649000  1.0
  H  H16  1  0.69242000  0.08677000  0.59215000  1.0
  H  H17  1  0.30759000  0.41323000  0.09215000  1.0
  H  H18  1  0.30758000  0.91323000  0.40785000  1.0
  H  H19  1  0.69241000  0.58677000  0.90785000  1.0
  H  H20  1  0.19693000  0.29607000  0.28914000  1.0
  H  H21  1  0.80307000  0.20393000  0.78914000  1.0
  H  H22  1  0.80307000  0.70393000  0.71086000  1.0
  H  H23  1  0.19693000  0.79607000  0.21085000  1.0
  H  H24  1  0.90765000  0.91520000  0.35559000  1.0
  H  H25  1  0.09235000  0.58480000  0.85559000  1.0
  H  H26  1  0.09236000  0.08480000  0.64441000  1.0
  H  H27  1  0.90765000  0.41520000  0.14441000  1.0
  C  C28  1  0.82991000  0.34115000  0.46660000  1.0
  C  C29  1  0.17009000  0.15885000  0.96660000  1.0
  C  C30  1  0.17009000  0.65885000  0.53340000  1.0
  C  C31  1  0.82991000  0.84115000  0.03340000  1.0
  C  C32  1  0.91864000  0.29791000  0.40144000  1.0
  C  C33  1  0.08136000  0.20209000  0.90144000  1.0
  C  C34  1  0.08136000  0.70209000  0.59856000  1.0
  C  C35  1  0.91864000  0.79791000  0.09856000  1.0
  C  C36  1  0.92823000  0.17186000  0.40725000  1.0
  C  C37  1  0.07178000  0.32814000  0.90725000  1.0
  C  C38  1  0.07178000  0.82814000  0.59275000  1.0
  C  C39  1  0.92823000  0.67187000  0.09275000  1.0
  C  C40  1  0.84672000  0.09361000  0.47625000  1.0
  C  C41  1  0.15328000  0.40639000  0.97625000  1.0
  C  C42  1  0.15328000  0.90639000  0.52375000  1.0
  C  C43  1  0.84672000  0.59361000  0.02375000  1.0
  C  C44  1  0.75927000  0.14475000  0.53755000  1.0
  C  C45  1  0.24073000  0.35524000  0.03755000  1.0
  C  C46  1  0.24073000  0.85524000  0.46245000  1.0
  C  C47  1  0.75926000  0.64475000  0.96245000  1.0
  C  C48  1  0.15022000  0.19152000  0.29126000  1.0
  C  C49  1  0.84978000  0.30848000  0.79127000  1.0
  C  C50  1  0.84978000  0.80848000  0.70874000  1.0
  C  C51  1  0.15022000  0.69152000  0.20873000  1.0
  C  C52  1  0.00263000  0.99540000  0.32553000  1.0
  C  C53  1  0.99737000  0.50460000  0.82553000  1.0
  C  C54  1  0.99737000  0.00460000  0.67447000  1.0
  C  C55  1  0.00263000  0.49540000  0.17447000  1.0
  C  C56  1  0.67228000  0.13352000  0.96135000  1.0
  C  C57  1  0.32772000  0.36648000  0.46134000  1.0
  C  C58  1  0.32772000  0.86648000  0.03865000  1.0
  C  C59  1  0.67227000  0.63352000  0.53865000  1.0
  C  C60  1  0.57928000  0.95845000  0.26123000  1.0
  C  C61  1  0.42071000  0.54154000  0.76123000  1.0
  C  C62  1  0.42072000  0.04155000  0.73877000  1.0
  C  C63  1  0.57929000  0.45846000  0.23877000  1.0
  S  S64  1  0.66485000  0.26708000  0.00734000  1.0
  S  S65  1  0.33515000  0.23293000  0.50734000  1.0
  S  S66  1  0.33515000  0.73292000  0.99266000  1.0
  S  S67  1  0.66485000  0.76708000  0.49266000  1.0
  S  S68  1  0.68168000  0.08516000  0.20472000  1.0
  S  S69  1  0.31832000  0.41484000  0.70471000  1.0
  S  S70  1  0.31832000  0.91484000  0.79528000  1.0
  S  S71  1  0.68168000  0.58516000  0.29528000  1.0
  N  N72  1  0.75222000  0.26679000  0.53376000  1.0
  N  N73  1  0.24778000  0.23321000  0.03375000  1.0
  N  N74  1  0.24778000  0.73321000  0.46625000  1.0
  N  N75  1  0.75222000  0.76679000  0.96625000  1.0
  N  N76  1  0.02099000  0.12283000  0.34457000  1.0
  N  N77  1  0.97900000  0.37717000  0.84457000  1.0
  N  N78  1  0.97900000  0.87717000  0.65543000  1.0
  N  N79  1  0.02099000  0.62283000  0.15543000  1.0
  N  N80  1  0.20659000  0.11053000  0.24419000  1.0
  N  N81  1  0.79341000  0.38947000  0.74419000  1.0
  N  N82  1  0.79341000  0.88947000  0.75581000  1.0
  N  N83  1  0.20658000  0.61053000  0.25581000  1.0
  N  N84  1  0.11305000  0.98603000  0.26529000  1.0
  N  N85  1  0.88695000  0.51397000  0.76529000  1.0
  N  N86  1  0.88696000  0.01397000  0.73471000  1.0
  N  N87  1  0.11305000  0.48603000  0.23471000  1.0
  N  N88  1  0.68185000  0.03875000  0.92613000  1.0
  N  N89  1  0.31815000  0.46126000  0.42613000  1.0
  N  N90  1  0.31815000  0.96125000  0.07387000  1.0
  N  N91  1  0.68185000  0.53875000  0.57386000  1.0
  N  N92  1  0.50788000  0.86661000  0.30297000  1.0
  N  N93  1  0.49211000  0.63339000  0.80297000  1.0
  N  N94  1  0.49211000  0.13339000  0.69703000  1.0
  N  N95  1  0.50789000  0.36661000  0.19703000  1.0
