# generated using pymatgen
data_AgH14C12S2NO2
_symmetry_space_group_name_H-M   'P 1'
_cell_length_a   8.91656000
_cell_length_b   12.21980000
_cell_length_c   12.97140000
_cell_angle_alpha   92.43330000
_cell_angle_beta   109.26200000
_cell_angle_gamma   92.65060000
_symmetry_Int_Tables_number   1
_chemical_formula_structural   AgH14C12S2NO2
_chemical_formula_sum   'Ag4 H56 C48 S8 N4 O8'
_cell_volume   1330.30042717
_cell_formula_units_Z   4
loop_
 _symmetry_equiv_pos_site_id
 _symmetry_equiv_pos_as_xyz
  1  'x, y, z'
loop_
 _atom_site_type_symbol
 _atom_site_label
 _atom_site_symmetry_multiplicity
 _atom_site_fract_x
 _atom_site_fract_y
 _atom_site_fract_z
 _atom_site_occupancy
  Ag  Ag0  1  0.62382000  0.36388000  0.23174000  1.0
  Ag  Ag1  1  0.37619000  0.63612000  0.76827000  1.0
  Ag  Ag2  1  0.81554000  0.03055000  0.52959000  1.0
  Ag  Ag3  1  0.18446000  0.96945000  0.47041000  1.0
  H  H4  1  0.86377000  0.23262000  0.10742000  1.0
  H  H5  1  0.13624000  0.76738000  0.89258000  1.0
  H  H6  1  0.91106000  0.27981000  0.99114000  1.0
  H  H7  1  0.08894000  0.72020000  0.00886000  1.0
  H  H8  1  0.61048000  0.27187000  0.88935000  1.0
  H  H9  1  0.38952000  0.72813000  0.11065000  1.0
  H  H10  1  0.70159000  0.14344000  0.91446000  1.0
  H  H11  1  0.29841000  0.85656000  0.08554000  1.0
  H  H12  1  0.43580000  0.13553000  0.79408000  1.0
  H  H13  1  0.56419000  0.86447000  0.20592000  1.0
  H  H14  1  0.17423000  0.03729000  0.70792000  1.0
  H  H15  1  0.82577000  0.96271000  0.29208000  1.0
  H  H16  1  0.01293000  0.97428000  0.82158000  1.0
  H  H17  1  0.98707000  0.02572000  0.17842000  1.0
  H  H18  1  0.12290000  0.01000000  0.02509000  1.0
  H  H19  1  0.87710000  0.99000000  0.97491000  1.0
  H  H20  1  0.53243000  0.10581000  0.17886000  1.0
  H  H21  1  0.46756000  0.89419000  0.82114000  1.0
  H  H22  1  0.34409000  0.05497000  0.18541000  1.0
  H  H23  1  0.65591000  0.94503000  0.81459000  1.0
  H  H24  1  0.23666000  0.29045000  0.31796000  1.0
  H  H25  1  0.76334000  0.70955000  0.68204000  1.0
  H  H26  1  0.26633000  0.14794000  0.30916000  1.0
  H  H27  1  0.73367000  0.85206000  0.69084000  1.0
  H  H28  1  0.43506000  0.22865000  0.48791000  1.0
  H  H29  1  0.56494000  0.77135000  0.51209000  1.0
  H  H30  1  0.56166000  0.19056000  0.41249000  1.0
  H  H31  1  0.43834000  0.80943000  0.58751000  1.0
  H  H32  1  0.75287000  0.32003000  0.52684000  1.0
  H  H33  1  0.24713000  0.67997000  0.47316000  1.0
  H  H34  1  0.63289000  0.38942000  0.59189000  1.0
  H  H35  1  0.36711000  0.61057000  0.40811000  1.0
  H  H36  1  0.64947000  0.55404000  0.48356000  1.0
  H  H37  1  0.35053000  0.44596000  0.51644000  1.0
  H  H38  1  0.83468000  0.52340000  0.58082000  1.0
  H  H39  1  0.16532000  0.47660000  0.41918000  1.0
  H  H40  1  0.93645000  0.55334000  0.33599000  1.0
  H  H41  1  0.06355000  0.44667000  0.66401000  1.0
  H  H42  1  0.92795000  0.63340000  0.45196000  1.0
  H  H43  1  0.07204000  0.36660000  0.54804000  1.0
  H  H44  1  0.76618000  0.71422000  0.28391000  1.0
  H  H45  1  0.23382000  0.28578000  0.71609000  1.0
  H  H46  1  0.63933000  0.66224000  0.35207000  1.0
  H  H47  1  0.36066000  0.33776000  0.64793000  1.0
  H  H48  1  0.62228000  0.54857000  0.00972000  1.0
  H  H49  1  0.37772000  0.45143000  0.99028000  1.0
  H  H50  1  0.68231000  0.68290000  0.07387000  1.0
  H  H51  1  0.31768000  0.31710000  0.92613000  1.0
  H  H52  1  0.95550000  0.73415000  0.17523000  1.0
  H  H53  1  0.04450000  0.26585000  0.82476000  1.0
  H  H54  1  0.23827000  0.68890000  0.24255000  1.0
  H  H55  1  0.76172000  0.31111000  0.75745000  1.0
  H  H56  1  0.30762000  0.49418000  0.22213000  1.0
  H  H57  1  0.69237000  0.50582000  0.77787000  1.0
  H  H58  1  0.09712000  0.35013000  0.13382000  1.0
  H  H59  1  0.90289000  0.64987000  0.86618000  1.0
  C  C60  1  0.81988000  0.27550000  0.03120000  1.0
  C  C61  1  0.18012000  0.72450000  0.96880000  1.0
  C  C62  1  0.67084000  0.21698000  0.95334000  1.0
  C  C63  1  0.32915000  0.78302000  0.04666000  1.0
  C  C64  1  0.42704000  0.13020000  0.95911000  1.0
  C  C65  1  0.57296000  0.86980000  0.04089000  1.0
  C  C66  1  0.36718000  0.10987000  0.84528000  1.0
  C  C67  1  0.63282000  0.89013000  0.15472000  1.0
  C  C68  1  0.21823000  0.05409000  0.79645000  1.0
  C  C69  1  0.78177000  0.94591000  0.20355000  1.0
  C  C70  1  0.12844000  0.01848000  0.86004000  1.0
  C  C71  1  0.87155000  0.98152000  0.13996000  1.0
  C  C72  1  0.18981000  0.03865000  0.97347000  1.0
  C  C73  1  0.81019000  0.96135000  0.02653000  1.0
  C  C74  1  0.33874000  0.09330000  0.02476000  1.0
  C  C75  1  0.66125000  0.90670000  0.97524000  1.0
  C  C76  1  0.40348000  0.11278000  0.14658000  1.0
  C  C77  1  0.59652000  0.88722000  0.85342000  1.0
  C  C78  1  0.32344000  0.23059000  0.31430000  1.0
  C  C79  1  0.67656000  0.76941000  0.68570000  1.0
  C  C80  1  0.46952000  0.24684000  0.41563000  1.0
  C  C81  1  0.53048000  0.75316000  0.58438000  1.0
  C  C82  1  0.66691000  0.38433000  0.51743000  1.0
  C  C83  1  0.33309000  0.61567000  0.48257000  1.0
  C  C84  1  0.74134000  0.49363000  0.50357000  1.0
  C  C85  1  0.25866000  0.50637000  0.49643000  1.0
  C  C86  1  0.85833000  0.57753000  0.38171000  1.0
  C  C87  1  0.14167000  0.42247000  0.61829000  1.0
  C  C88  1  0.72080000  0.63812000  0.30861000  1.0
  C  C89  1  0.27920000  0.36188000  0.69139000  1.0
  C  C90  1  0.69477000  0.59502000  0.08548000  1.0
  C  C91  1  0.30523000  0.40498000  0.91452000  1.0
  C  C92  1  0.86470000  0.56830000  0.11943000  1.0
  C  C93  1  0.13530000  0.43170000  0.88057000  1.0
  C  C94  1  0.98669000  0.64944000  0.16750000  1.0
  C  C95  1  0.01331000  0.35057000  0.83250000  1.0
  C  C96  1  0.14602000  0.62394000  0.20503000  1.0
  C  C97  1  0.85398000  0.37606000  0.79497000  1.0
  C  C98  1  0.18387000  0.51572000  0.19364000  1.0
  C  C99  1  0.81614000  0.48428000  0.80636000  1.0
  C  C100  1  0.06456000  0.43354000  0.14415000  1.0
  C  C101  1  0.93544000  0.56646000  0.85585000  1.0
  C  C102  1  0.90540000  0.45946000  0.10660000  1.0
  C  C103  1  0.09460000  0.54054000  0.89340000  1.0
  C  C104  1  0.89633000  0.20324000  0.36377000  1.0
  C  C105  1  0.10368000  0.79676000  0.63623000  1.0
  C  C106  1  0.54671000  0.06207000  0.63464000  1.0
  C  C107  1  0.45328000  0.93793000  0.36536000  1.0
  S  S108  1  0.35790000  0.25054000  0.18528000  1.0
  S  S109  1  0.64211000  0.74946000  0.81472000  1.0
  S  S110  1  0.59507000  0.56016000  0.18482000  1.0
  S  S111  1  0.40493000  0.43984000  0.81519000  1.0
  S  S112  1  0.01457000  0.14957000  0.47327000  1.0
  S  S113  1  0.98544000  0.85043000  0.52673000  1.0
  S  S114  1  0.73888000  0.09145000  0.69169000  1.0
  S  S115  1  0.26112000  0.90855000  0.30831000  1.0
  N  N116  1  0.81277000  0.24531000  0.28707000  1.0
  N  N117  1  0.18724000  0.75469000  0.71293000  1.0
  N  N118  1  0.40773000  0.04154000  0.59688000  1.0
  N  N119  1  0.59228000  0.95846000  0.40313000  1.0
  O  O120  1  0.78165000  0.38475000  0.05540000  1.0
  O  O121  1  0.21835000  0.61524000  0.94460000  1.0
  O  O122  1  0.56916000  0.18596000  0.01431000  1.0
  O  O123  1  0.43084000  0.81404000  0.98569000  1.0
  O  O124  1  0.52953000  0.35824000  0.42315000  1.0
  O  O125  1  0.47047000  0.64176000  0.57685000  1.0
  O  O126  1  0.80872000  0.47830000  0.41848000  1.0
  O  O127  1  0.19128000  0.52170000  0.58153000  1.0
