# generated using pymatgen
data_MnH6(C3O)4
_symmetry_space_group_name_H-M   'P 1'
_cell_length_a   4.86358000
_cell_length_b   13.32340000
_cell_length_c   15.00080000
_cell_angle_alpha   90.00020000
_cell_angle_beta   90.00040000
_cell_angle_gamma   92.43330000
_symmetry_Int_Tables_number   1
_chemical_formula_structural   MnH6(C3O)4
_chemical_formula_sum   'Mn4 H24 C48 O16'
_cell_volume   971.16669756
_cell_formula_units_Z   4
loop_
 _symmetry_equiv_pos_site_id
 _symmetry_equiv_pos_as_xyz
  1  'x, y, z'
loop_
 _atom_site_type_symbol
 _atom_site_label
 _atom_site_symmetry_multiplicity
 _atom_site_fract_x
 _atom_site_fract_y
 _atom_site_fract_z
 _atom_site_occupancy
  Mn  Mn0  1  0.75035000  0.50324000  0.56313000  1.0
  Mn  Mn1  1  0.74965000  0.99675000  0.06313000  1.0
  Mn  Mn2  1  0.24965000  0.49675000  0.43687000  1.0
  Mn  Mn3  1  0.25035000  0.00324000  0.93687000  1.0
  H  H4  1  0.57647000  0.23610000  0.59326000  1.0
  H  H5  1  0.92354000  0.26390000  0.09326000  1.0
  H  H6  1  0.42353000  0.76390000  0.40674000  1.0
  H  H7  1  0.07646000  0.73610000  0.90674000  1.0
  H  H8  1  0.81480000  0.12796000  0.70238000  1.0
  H  H9  1  0.68519000  0.37204000  0.20238000  1.0
  H  H10  1  0.18519000  0.87204000  0.29762000  1.0
  H  H11  1  0.31481000  0.62796000  0.79762000  1.0
  H  H12  1  0.56875000  0.25424000  0.98951000  1.0
  H  H13  1  0.93125000  0.24575000  0.48950000  1.0
  H  H14  1  0.43126000  0.74576000  0.01050000  1.0
  H  H15  1  0.06874000  0.75424000  0.51049000  1.0
  H  H16  1  0.31086000  0.39785000  0.04212000  1.0
  H  H17  1  0.18913000  0.10215000  0.54212000  1.0
  H  H18  1  0.68913000  0.60215000  0.95788000  1.0
  H  H19  1  0.81087000  0.89785000  0.45787000  1.0
  H  H20  1  0.06073000  0.50284000  0.93230000  1.0
  H  H21  1  0.43927000  0.99716000  0.43230000  1.0
  H  H22  1  0.93926000  0.49716000  0.06770000  1.0
  H  H23  1  0.56073000  0.00284000  0.56770000  1.0
  H  H24  1  0.07385000  0.46363000  0.77283000  1.0
  H  H25  1  0.42615000  0.03637000  0.27283000  1.0
  H  H26  1  0.92615000  0.53637000  0.22717000  1.0
  H  H27  1  0.57385000  0.96363000  0.72717000  1.0
  C  C28  1  0.23603000  0.38087000  0.62407000  1.0
  C  C29  1  0.26397000  0.11913000  0.12407000  1.0
  C  C30  1  0.76397000  0.61913000  0.37593000  1.0
  C  C31  1  0.73603000  0.88087000  0.87593000  1.0
  C  C32  1  0.37371000  0.32001000  0.69328000  1.0
  C  C33  1  0.12630000  0.17999000  0.19327000  1.0
  C  C34  1  0.62630000  0.67999000  0.30673000  1.0
  C  C35  1  0.87371000  0.82001000  0.80672000  1.0
  C  C36  1  0.54687000  0.24659000  0.66457000  1.0
  C  C37  1  0.95313000  0.25342000  0.16457000  1.0
  C  C38  1  0.45313000  0.75342000  0.33543000  1.0
  C  C39  1  0.04686000  0.74659000  0.83543000  1.0
  C  C40  1  0.68181000  0.18620000  0.72584000  1.0
  C  C41  1  0.81819000  0.31380000  0.22584000  1.0
  C  C42  1  0.31819000  0.81380000  0.27416000  1.0
  C  C43  1  0.18181000  0.68620000  0.77416000  1.0
  C  C44  1  0.64594000  0.19869000  0.81676000  1.0
  C  C45  1  0.85406000  0.30131000  0.31676000  1.0
  C  C46  1  0.35406000  0.80131000  0.18324000  1.0
  C  C47  1  0.14595000  0.69869000  0.68324000  1.0
  C  C48  1  0.48118000  0.27720000  0.84960000  1.0
  C  C49  1  0.01882000  0.22281000  0.34960000  1.0
  C  C50  1  0.51883000  0.72281000  0.15040000  1.0
  C  C51  1  0.98118000  0.77719000  0.65040000  1.0
  C  C52  1  0.34023000  0.33833000  0.78666000  1.0
  C  C53  1  0.15977000  0.16168000  0.28666000  1.0
  C  C54  1  0.65978000  0.66168000  0.21334000  1.0
  C  C55  1  0.84023000  0.83833000  0.71334000  1.0
  C  C56  1  0.46299000  0.30043000  0.94183000  1.0
  C  C57  1  0.03701000  0.19957000  0.44183000  1.0
  C  C58  1  0.53702000  0.69957000  0.05817000  1.0
  C  C59  1  0.96299000  0.80043000  0.55817000  1.0
  C  C60  1  0.31635000  0.38026000  0.97113000  1.0
  C  C61  1  0.18365000  0.11974000  0.47113000  1.0
  C  C62  1  0.68366000  0.61974000  0.02887000  1.0
  C  C63  1  0.81635000  0.88026000  0.52887000  1.0
  C  C64  1  0.17588000  0.43941000  0.90941000  1.0
  C  C65  1  0.32412000  0.06059000  0.40941000  1.0
  C  C66  1  0.82412000  0.56059000  0.09059000  1.0
  C  C67  1  0.67588000  0.93941000  0.59059000  1.0
  C  C68  1  0.18536000  0.41835000  0.81965000  1.0
  C  C69  1  0.31464000  0.08165000  0.31965000  1.0
  C  C70  1  0.81464000  0.58165000  0.18035000  1.0
  C  C71  1  0.68536000  0.91835000  0.68035000  1.0
  C  C72  1  0.77567000  0.12545000  0.87736000  1.0
  C  C73  1  0.72432000  0.37455000  0.37736000  1.0
  C  C74  1  0.22432000  0.87455000  0.12264000  1.0
  C  C75  1  0.27568000  0.62545000  0.62264000  1.0
  O  O76  1  0.37883000  0.40418000  0.55367000  1.0
  O  O77  1  0.12117000  0.09582000  0.05367000  1.0
  O  O78  1  0.62117000  0.59582000  0.44632000  1.0
  O  O79  1  0.87882000  0.90418000  0.94633000  1.0
  O  O80  1  0.99083000  0.40626000  0.63649000  1.0
  O  O81  1  0.50918000  0.09374000  0.13649000  1.0
  O  O82  1  0.00917000  0.59374000  0.36351000  1.0
  O  O83  1  0.49083000  0.90626000  0.86351000  1.0
  O  O84  1  0.01202000  0.09530000  0.85759000  1.0
  O  O85  1  0.48797000  0.40470000  0.35759000  1.0
  O  O86  1  0.98797000  0.90470000  0.14241000  1.0
  O  O87  1  0.51203000  0.59530000  0.64241000  1.0
  O  O88  1  0.63331000  0.09354000  0.94523000  1.0
  O  O89  1  0.86669000  0.40646000  0.44523000  1.0
  O  O90  1  0.36669000  0.90646000  0.05477000  1.0
  O  O91  1  0.13332000  0.59354000  0.55477000  1.0
