# generated using pymatgen
data_ZnH12C23BrN3O4
_symmetry_space_group_name_H-M   'P 1'
_cell_length_a   11.54190000
_cell_length_b   15.84570000
_cell_length_c   17.93990000
_cell_angle_alpha   90.00000000
_cell_angle_beta   92.93580000
_cell_angle_gamma   90.00000000
_symmetry_Int_Tables_number   1
_chemical_formula_structural   ZnH12C23BrN3O4
_chemical_formula_sum   'Zn2 H24 C46 Br2 N6 O8'
_cell_volume   3276.71289658
_cell_formula_units_Z   2
loop_
 _symmetry_equiv_pos_site_id
 _symmetry_equiv_pos_as_xyz
  1  'x, y, z'
loop_
 _atom_site_type_symbol
 _atom_site_label
 _atom_site_symmetry_multiplicity
 _atom_site_fract_x
 _atom_site_fract_y
 _atom_site_fract_z
 _atom_site_occupancy
  Zn  Zn0  1  0.99278000  0.00000000  0.92323000  1.0
  Zn  Zn1  1  0.00722000  0.00000000  0.07677000  1.0
  H  H2  1  0.74261000  0.79879000  0.88010000  1.0
  H  H3  1  0.76583000  0.79811000  0.11931000  1.0
  H  H4  1  0.64449000  0.66737000  0.12038000  1.0
  H  H5  1  0.62155000  0.66787000  0.88023000  1.0
  H  H6  1  0.25739000  0.79879000  0.11991000  1.0
  H  H7  1  0.23417000  0.79811000  0.88069000  1.0
  H  H8  1  0.35551000  0.66737000  0.87962000  1.0
  H  H9  1  0.37845000  0.66787000  0.11977000  1.0
  H  H10  1  0.25739000  0.20121000  0.11991000  1.0
  H  H11  1  0.23417000  0.20189000  0.88069000  1.0
  H  H12  1  0.35551000  0.33263000  0.87962000  1.0
  H  H13  1  0.37845000  0.33213000  0.11977000  1.0
  H  H14  1  0.74261000  0.20121000  0.88010000  1.0
  H  H15  1  0.76583000  0.20189000  0.11931000  1.0
  H  H16  1  0.64449000  0.33263000  0.12038000  1.0
  H  H17  1  0.62155000  0.33213000  0.88023000  1.0
  H  H18  1  0.17094000  0.00000000  0.81290000  1.0
  H  H19  1  0.81287000  0.00000000  0.79696000  1.0
  H  H20  1  0.18320000  0.00000000  0.67241000  1.0
  H  H21  1  0.80861000  0.00000000  0.65577000  1.0
  H  H22  1  0.82905000  0.00000000  0.18710000  1.0
  H  H23  1  0.18713000  0.00000000  0.20304000  1.0
  H  H24  1  0.81680000  0.00000000  0.32759000  1.0
  H  H25  1  0.19139000  0.00000000  0.34423000  1.0
  C  C26  1  0.76187000  0.80587000  0.99966000  1.0
  C  C27  1  0.84215000  0.88025000  0.99916000  1.0
  C  C28  1  0.56111000  0.57763000  0.00042000  1.0
  C  C29  1  0.62617000  0.65874000  0.00033000  1.0
  C  C30  1  0.71977000  0.76967000  0.93237000  1.0
  C  C31  1  0.73283000  0.76932000  0.06731000  1.0
  C  C32  1  0.66540000  0.69649000  0.06763000  1.0
  C  C33  1  0.65243000  0.69681000  0.93273000  1.0
  C  C34  1  0.23814000  0.80587000  0.00034000  1.0
  C  C35  1  0.15785000  0.88024000  0.00084000  1.0
  C  C36  1  0.43889000  0.57763000  0.99958000  1.0
  C  C37  1  0.37383000  0.65874000  0.99967000  1.0
  C  C38  1  0.28023000  0.76967000  0.06763000  1.0
  C  C39  1  0.26717000  0.76932000  0.93269000  1.0
  C  C40  1  0.33460000  0.69649000  0.93237000  1.0
  C  C41  1  0.34757000  0.69680000  0.06727000  1.0
  C  C42  1  0.23814000  0.19413000  0.00034000  1.0
  C  C43  1  0.15786000  0.11976000  0.00084000  1.0
  C  C44  1  0.43889000  0.42237000  0.99958000  1.0
  C  C45  1  0.37383000  0.34126000  0.99967000  1.0
  C  C46  1  0.28023000  0.23033000  0.06763000  1.0
  C  C47  1  0.26717000  0.23068000  0.93269000  1.0
  C  C48  1  0.33460000  0.30351000  0.93237000  1.0
  C  C49  1  0.34757000  0.30320000  0.06727000  1.0
  C  C50  1  0.76187000  0.19413000  0.99966000  1.0
  C  C51  1  0.84215000  0.11976000  0.99916000  1.0
  C  C52  1  0.56110000  0.42237000  0.00042000  1.0
  C  C53  1  0.62617000  0.34126000  0.00033000  1.0
  C  C54  1  0.71977000  0.23033000  0.93237000  1.0
  C  C55  1  0.73283000  0.23068000  0.06731000  1.0
  C  C56  1  0.66540000  0.30351000  0.06763000  1.0
  C  C57  1  0.65243000  0.30319000  0.93273000  1.0
  C  C58  1  0.09369000  0.00000000  0.77534000  1.0
  C  C59  1  0.89215000  0.00000000  0.76645000  1.0
  C  C60  1  0.09984000  0.00000000  0.69820000  1.0
  C  C61  1  0.99613000  0.00000000  0.65387000  1.0
  C  C62  1  0.89023000  0.00000000  0.68894000  1.0
  C  C63  1  0.99824000  0.00000000  0.57183000  1.0
  C  C64  1  0.90631000  0.00000000  0.22466000  1.0
  C  C65  1  0.10785000  0.00000000  0.23355000  1.0
  C  C66  1  0.90016000  0.00000000  0.30180000  1.0
  C  C67  1  0.00387000  0.00000000  0.34613000  1.0
  C  C68  1  0.10977000  0.00000000  0.31106000  1.0
  C  C69  1  0.00176000  0.00000000  0.42817000  1.0
  C  C70  1  0.61969000  0.50000000  0.00090000  1.0
  C  C71  1  0.38031000  0.50000000  0.99910000  1.0
  Br  Br72  1  0.78531000  0.50000000  0.00183000  1.0
  Br  Br73  1  0.21469000  0.50000000  0.99818000  1.0
  N  N74  1  0.99187000  0.00000000  0.80852000  1.0
  N  N75  1  0.10295000  0.00000000  0.54113000  1.0
  N  N76  1  0.89529000  0.00000000  0.53218000  1.0
  N  N77  1  0.00813000  0.00000000  0.19148000  1.0
  N  N78  1  0.89705000  0.00000000  0.45887000  1.0
  N  N79  1  0.10472000  0.00000000  0.46782000  1.0
  O  O80  1  0.86885000  0.90832000  0.93566000  1.0
  O  O81  1  0.88007000  0.90862000  0.06228000  1.0
  O  O82  1  0.13116000  0.90832000  0.06434000  1.0
  O  O83  1  0.11993000  0.90862000  0.93772000  1.0
  O  O84  1  0.13115000  0.09168000  0.06434000  1.0
  O  O85  1  0.11993000  0.09138000  0.93772000  1.0
  O  O86  1  0.86885000  0.09168000  0.93566000  1.0
  O  O87  1  0.88007000  0.09138000  0.06228000  1.0
