# generated using pymatgen
data_HgH32C34(BrN2)2
_symmetry_space_group_name_H-M   'P 1'
_cell_length_a   10.43500000
_cell_length_b   10.44710000
_cell_length_c   16.28178592
_cell_angle_alpha   106.15017792
_cell_angle_beta   105.73548471
_cell_angle_gamma   98.16540000
_symmetry_Int_Tables_number   1
_chemical_formula_structural   HgH32C34(BrN2)2
_chemical_formula_sum   'Hg2 H64 C68 Br4 N8'
_cell_volume   1594.98382363
_cell_formula_units_Z   2
loop_
 _symmetry_equiv_pos_site_id
 _symmetry_equiv_pos_as_xyz
  1  'x, y, z'
loop_
 _atom_site_type_symbol
 _atom_site_label
 _atom_site_symmetry_multiplicity
 _atom_site_fract_x
 _atom_site_fract_y
 _atom_site_fract_z
 _atom_site_occupancy
  Hg  Hg0  1  0.27470000  0.02489000  0.25001000  1.0
  Hg  Hg1  1  0.72530000  0.97512000  0.74999000  1.0
  H  H2  1  0.33213000  0.14528000  0.51713000  1.0
  H  H3  1  0.12829000  0.81513000  0.98310000  1.0
  H  H4  1  0.66787000  0.85472000  0.48287000  1.0
  H  H5  1  0.87171000  0.18487000  0.01690000  1.0
  H  H6  1  0.32111000  0.01297000  0.41894000  1.0
  H  H7  1  0.09376000  0.90232000  0.08119000  1.0
  H  H8  1  0.67888000  0.98703000  0.58106000  1.0
  H  H9  1  0.90624000  0.09767000  0.91881000  1.0
  H  H10  1  0.29318000  0.91515000  0.53651000  1.0
  H  H11  1  0.87849000  0.75710000  0.96359000  1.0
  H  H12  1  0.70682000  0.08485000  0.46349000  1.0
  H  H13  1  0.12152000  0.24291000  0.03642000  1.0
  H  H14  1  0.45227000  0.02296000  0.61407000  1.0
  H  H15  1  0.90904000  0.83841000  0.88597000  1.0
  H  H16  1  0.54773000  0.97704000  0.38593000  1.0
  H  H17  1  0.09096000  0.16159000  0.11404000  1.0
  H  H18  1  0.58579000  0.19458000  0.56682000  1.0
  H  H19  1  0.12796000  0.01882000  0.93317000  1.0
  H  H20  1  0.41420000  0.80542000  0.43318000  1.0
  H  H21  1  0.87203000  0.98118000  0.06683000  1.0
  H  H22  1  0.86170000  0.38322000  0.43853000  1.0
  H  H23  1  0.44490000  0.42306000  0.06192000  1.0
  H  H24  1  0.13829000  0.61678000  0.56147000  1.0
  H  H25  1  0.55510000  0.57692000  0.93807000  1.0
  H  H26  1  0.84570000  0.29007000  0.67785000  1.0
  H  H27  1  0.11330000  0.16842000  0.82212000  1.0
  H  H28  1  0.15430000  0.70993000  0.32215000  1.0
  H  H29  1  0.88669000  0.83156000  0.17787000  1.0
  H  H30  1  0.69208000  0.41042000  0.61994000  1.0
  H  H31  1  0.29111000  0.07274000  0.88011000  1.0
  H  H32  1  0.30792000  0.58958000  0.38006000  1.0
  H  H33  1  0.70890000  0.92725000  0.11989000  1.0
  H  H34  1  0.76371000  0.53029000  0.57744000  1.0
  H  H35  1  0.45367000  0.18655000  0.92268000  1.0
  H  H36  1  0.23628000  0.46971000  0.42256000  1.0
  H  H37  1  0.54634000  0.81344000  0.07732000  1.0
  H  H38  1  0.31061000  0.31344000  0.21708000  1.0
  H  H39  1  0.59635000  0.09325000  0.28292000  1.0
  H  H40  1  0.68938000  0.68657000  0.78292000  1.0
  H  H41  1  0.40364000  0.90675000  0.71708000  1.0
  H  H42  1  0.03499000  0.24513000  0.42476000  1.0
  H  H43  1  0.32030000  0.60988000  0.07550000  1.0
  H  H44  1  0.96501000  0.75489000  0.57524000  1.0
  H  H45  1  0.67970000  0.39011000  0.92449000  1.0
  H  H46  1  0.73104000  0.62825000  0.46797000  1.0
  H  H47  1  0.66094000  0.26309000  0.03215000  1.0
  H  H48  1  0.26896000  0.37175000  0.53203000  1.0
  H  H49  1  0.33906000  0.73691000  0.96785000  1.0
  H  H50  1  0.41717000  0.53795000  0.21050000  1.0
  H  H51  1  0.82761000  0.20708000  0.28983000  1.0
  H  H52  1  0.58282000  0.46205000  0.78950000  1.0
  H  H53  1  0.17239000  0.79292000  0.71017000  1.0
  H  H54  1  0.62277000  0.69181000  0.33285000  1.0
  H  H55  1  0.85945000  0.29030000  0.16745000  1.0
  H  H56  1  0.37723000  0.30819000  0.66715000  1.0
  H  H57  1  0.14054000  0.70970000  0.83255000  1.0
  H  H58  1  0.02097000  0.15448000  0.66513000  1.0
  H  H59  1  0.98994000  0.35593000  0.83481000  1.0
  H  H60  1  0.97904000  0.84553000  0.33487000  1.0
  H  H61  1  0.01005000  0.64406000  0.16519000  1.0
  H  H62  1  0.11384000  0.12965000  0.53704000  1.0
  H  H63  1  0.09267000  0.57646000  0.96298000  1.0
  H  H64  1  0.88617000  0.87036000  0.46296000  1.0
  H  H65  1  0.90734000  0.42354000  0.03702000  1.0
  C  C66  1  0.38469000  0.06818000  0.48987000  1.0
  C  C67  1  0.07835000  0.89491000  0.01026000  1.0
  C  C68  1  0.61531000  0.93182000  0.51013000  1.0
  C  C69  1  0.92166000  0.10509000  0.98974000  1.0
  C  C70  1  0.52080000  0.24240000  0.44692000  1.0
  C  C71  1  0.29569000  0.07378000  0.05304000  1.0
  C  C72  1  0.47919000  0.75760000  0.55308000  1.0
  C  C73  1  0.70432000  0.92622000  0.94696000  1.0
  C  C74  1  0.39584000  0.96707000  0.54192000  1.0
  C  C75  1  0.92516000  0.85416000  0.95813000  1.0
  C  C76  1  0.60416000  0.03293000  0.45808000  1.0
  C  C77  1  0.07484000  0.14585000  0.04188000  1.0
  C  C78  1  0.52717000  0.13972000  0.49477000  1.0
  C  C79  1  0.14509000  0.03227000  0.00526000  1.0
  C  C80  1  0.47283000  0.86028000  0.50523000  1.0
  C  C81  1  0.85491000  0.96773000  0.99474000  1.0
  C  C82  1  0.46266000  0.34433000  0.34635000  1.0
  C  C83  1  0.49819000  0.11627000  0.15371000  1.0
  C  C84  1  0.53733000  0.65568000  0.65365000  1.0
  C  C85  1  0.50181000  0.88374000  0.84629000  1.0
  C  C86  1  0.84310000  0.34648000  0.55972000  1.0
  C  C87  1  0.28738000  0.28361000  0.94050000  1.0
  C  C88  1  0.15691000  0.65353000  0.44028000  1.0
  C  C89  1  0.71261000  0.71637000  0.05949000  1.0
  C  C90  1  0.57949000  0.43416000  0.41692000  1.0
  C  C91  1  0.51761000  0.16260000  0.08317000  1.0
  C  C92  1  0.42050000  0.56585000  0.58308000  1.0
  C  C93  1  0.48239000  0.83740000  0.91683000  1.0
  C  C94  1  0.89775000  0.33459000  0.48896000  1.0
  C  C95  1  0.34596000  0.40876000  0.01139000  1.0
  C  C96  1  0.10225000  0.66542000  0.51104000  1.0
  C  C97  1  0.65405000  0.59124000  0.98861000  1.0
  C  C98  1  0.89013000  0.28339000  0.62373000  1.0
  C  C99  1  0.16044000  0.26675000  0.87634000  1.0
  C  C100  1  0.10986000  0.71661000  0.37626000  1.0
  C  C101  1  0.83957000  0.73324000  0.12366000  1.0
  C  C102  1  0.72900000  0.41998000  0.56438000  1.0
  C  C103  1  0.35627000  0.16496000  0.93574000  1.0
  C  C104  1  0.27100000  0.58002000  0.43562000  1.0
  C  C105  1  0.64374000  0.83503000  0.06426000  1.0
  C  C106  1  0.40167000  0.38087000  0.27117000  1.0
  C  C107  1  0.60987000  0.13047000  0.22893000  1.0
  C  C108  1  0.59832000  0.61913000  0.72883000  1.0
  C  C109  1  0.39012000  0.86954000  0.77107000  1.0
  C  C110  1  0.99532000  0.25752000  0.48132000  1.0
  C  C111  1  0.27637000  0.51382000  0.01893000  1.0
  C  C112  1  0.00467000  0.74248000  0.51867000  1.0
  C  C113  1  0.72362000  0.48617000  0.98106000  1.0
  C  C114  1  0.63973000  0.56041000  0.41426000  1.0
  C  C115  1  0.64662000  0.22563000  0.08590000  1.0
  C  C116  1  0.36027000  0.43959000  0.58574000  1.0
  C  C117  1  0.35339000  0.77438000  0.91411000  1.0
  C  C118  1  0.46192000  0.50637000  0.26809000  1.0
  C  C119  1  0.73853000  0.19405000  0.23211000  1.0
  C  C120  1  0.53807000  0.49363000  0.73191000  1.0
  C  C121  1  0.26147000  0.80595000  0.76789000  1.0
  C  C122  1  0.57908000  0.59457000  0.33827000  1.0
  C  C123  1  0.75668000  0.24106000  0.16193000  1.0
  C  C124  1  0.42092000  0.40544000  0.66173000  1.0
  C  C125  1  0.24331000  0.75895000  0.83807000  1.0
  C  C126  1  0.98814000  0.20645000  0.61629000  1.0
  C  C127  1  0.09071000  0.37197000  0.88375000  1.0
  C  C128  1  0.01186000  0.79356000  0.38371000  1.0
  C  C129  1  0.90928000  0.62801000  0.11624000  1.0
  C  C130  1  0.03994000  0.19248000  0.54457000  1.0
  C  C131  1  0.14820000  0.49525000  0.95554000  1.0
  C  C132  1  0.96006000  0.80753000  0.45542000  1.0
  C  C133  1  0.85180000  0.50473000  0.04445000  1.0
  Br  Br134  1  0.05367000  0.09718000  0.26374000  1.0
  Br  Br135  1  0.33340000  0.79026000  0.23610000  1.0
  Br  Br136  1  0.94633000  0.90281000  0.73627000  1.0
  Br  Br137  1  0.66661000  0.20974000  0.76390000  1.0
  N  N138  1  0.42978000  0.22615000  0.36700000  1.0
  N  N139  1  0.35927000  0.06262000  0.13297000  1.0
  N  N140  1  0.57021000  0.77386000  0.63300000  1.0
  N  N141  1  0.64073000  0.93739000  0.86703000  1.0
  N  N142  1  0.61280000  0.36740000  0.47986000  1.0
  N  N143  1  0.38793000  0.13299000  0.02018000  1.0
  N  N144  1  0.38720000  0.63260000  0.52014000  1.0
  N  N145  1  0.61207000  0.86701000  0.97982000  1.0
