# generated using pymatgen
data_CuH8C12(N2Cl)2
_symmetry_space_group_name_H-M   'P 1'
_cell_length_a   3.70684000
_cell_length_b   12.69070000
_cell_length_c   13.34700000
_cell_angle_alpha   90.00000000
_cell_angle_beta   89.99870000
_cell_angle_gamma   94.46620000
_symmetry_Int_Tables_number   1
_chemical_formula_structural   CuH8C12(N2Cl)2
_chemical_formula_sum   'Cu2 H16 C24 N8 Cl4'
_cell_volume   625.96826123
_cell_formula_units_Z   2
loop_
 _symmetry_equiv_pos_site_id
 _symmetry_equiv_pos_as_xyz
  1  'x, y, z'
loop_
 _atom_site_type_symbol
 _atom_site_label
 _atom_site_symmetry_multiplicity
 _atom_site_fract_x
 _atom_site_fract_y
 _atom_site_fract_z
 _atom_site_occupancy
  Cu  Cu0  1  0.50000000  0.50000000  0.50000000  1.0
  Cu  Cu1  1  0.50000000  0.00000000  0.00000000  1.0
  H  H2  1  0.72628000  0.59112000  0.31050000  1.0
  H  H3  1  0.27375000  0.90887000  0.81049000  1.0
  H  H4  1  0.27374000  0.40888000  0.68951000  1.0
  H  H5  1  0.72624000  0.09112000  0.18951000  1.0
  H  H6  1  0.54437000  0.34581000  0.08486000  1.0
  H  H7  1  0.45564000  0.15418000  0.58485000  1.0
  H  H8  1  0.45562000  0.65420000  0.91515000  1.0
  H  H9  1  0.54434000  0.84581000  0.41515000  1.0
  H  H10  1  0.27600000  0.22923000  0.22000000  1.0
  H  H11  1  0.72399000  0.27077000  0.72000000  1.0
  H  H12  1  0.72400000  0.77078000  0.78000000  1.0
  H  H13  1  0.27599000  0.72923000  0.28000000  1.0
  H  H14  1  0.26637000  0.29781000  0.39766000  1.0
  H  H15  1  0.73363000  0.20218000  0.89766000  1.0
  H  H16  1  0.73363000  0.70219000  0.60234000  1.0
  H  H17  1  0.26637000  0.79781000  0.10234000  1.0
  C  C18  1  0.63023000  0.51167000  0.28695000  1.0
  C  C19  1  0.36978000  0.98832000  0.78694000  1.0
  C  C20  1  0.36978000  0.48833000  0.71305000  1.0
  C  C21  1  0.63022000  0.01167000  0.21306000  1.0
  C  C22  1  0.65855000  0.47795000  0.18736000  1.0
  C  C23  1  0.34148000  0.02205000  0.68735000  1.0
  C  C24  1  0.34145000  0.52205000  0.81264000  1.0
  C  C25  1  0.65851000  0.97795000  0.31264000  1.0
  C  C26  1  0.52939000  0.37444000  0.16166000  1.0
  C  C27  1  0.47062000  0.12556000  0.66165000  1.0
  C  C28  1  0.47061000  0.62557000  0.83834000  1.0
  C  C29  1  0.52937000  0.87444000  0.33835000  1.0
  C  C30  1  0.38249000  0.30947000  0.23774000  1.0
  C  C31  1  0.61753000  0.19053000  0.73774000  1.0
  C  C32  1  0.61751000  0.69054000  0.76226000  1.0
  C  C33  1  0.38248000  0.80947000  0.26226000  1.0
  C  C34  1  0.37321000  0.34693000  0.33578000  1.0
  C  C35  1  0.62679000  0.15307000  0.83577000  1.0
  C  C36  1  0.62679000  0.65308000  0.66422000  1.0
  C  C37  1  0.37322000  0.84693000  0.16423000  1.0
  C  C38  1  0.82680000  0.55069000  0.11717000  1.0
  C  C39  1  0.17324000  0.94931000  0.61716000  1.0
  C  C40  1  0.17323000  0.44932000  0.88283000  1.0
  C  C41  1  0.82673000  0.05069000  0.38283000  1.0
  N  N42  1  0.49396000  0.44693000  0.35882000  1.0
  N  N43  1  0.50607000  0.05308000  0.85882000  1.0
  N  N44  1  0.50605000  0.55308000  0.64118000  1.0
  N  N45  1  0.49394000  0.94692000  0.14118000  1.0
  N  N46  1  0.97714000  0.61216000  0.06356000  1.0
  N  N47  1  0.02289000  0.88783000  0.56355000  1.0
  N  N48  1  0.02288000  0.38784000  0.93645000  1.0
  N  N49  1  0.97707000  0.11216000  0.43645000  1.0
  Cl  Cl50  1  0.15189000  0.63567000  0.45575000  1.0
  Cl  Cl51  1  0.84812000  0.86433000  0.95574000  1.0
  Cl  Cl52  1  0.84813000  0.36434000  0.54426000  1.0
  Cl  Cl53  1  0.15188000  0.13566000  0.04426000  1.0
