# generated using pymatgen
data_ZnH6C8O5
_symmetry_space_group_name_H-M   'P 1'
_cell_length_a   6.60582000
_cell_length_b   10.14800000
_cell_length_c   20.00080000
_cell_angle_alpha   78.59820000
_cell_angle_beta   88.62830000
_cell_angle_gamma   78.74460000
_symmetry_Int_Tables_number   1
_chemical_formula_structural   ZnH6C8O5
_chemical_formula_sum   'Zn4 H24 C32 O20'
_cell_volume   1288.88281176
_cell_formula_units_Z   4
loop_
 _symmetry_equiv_pos_site_id
 _symmetry_equiv_pos_as_xyz
  1  'x, y, z'
loop_
 _atom_site_type_symbol
 _atom_site_label
 _atom_site_symmetry_multiplicity
 _atom_site_fract_x
 _atom_site_fract_y
 _atom_site_fract_z
 _atom_site_occupancy
  Zn  Zn0  1  0.64379000  0.68166000  0.71507000  1.0
  Zn  Zn1  1  0.35621000  0.31833000  0.28493000  1.0
  Zn  Zn2  1  0.95229000  0.76617000  0.78188000  1.0
  Zn  Zn3  1  0.04771000  0.23383000  0.21812000  1.0
  H  H4  1  0.32888000  0.50031000  0.89048000  1.0
  H  H5  1  0.67111000  0.49971000  0.10952000  1.0
  H  H6  1  0.81397000  0.60176000  0.99905000  1.0
  H  H7  1  0.18603000  0.39825000  0.00095000  1.0
  H  H8  1  0.73912000  0.85057000  0.50976000  1.0
  H  H9  1  0.26088000  0.14942000  0.49023000  1.0
  H  H10  1  0.20081000  0.00528000  0.60286000  1.0
  H  H11  1  0.79918000  0.99471000  0.39713000  1.0
  H  H12  1  0.16730000  0.03233000  0.71140000  1.0
  H  H13  1  0.83271000  0.96766000  0.28860000  1.0
  H  H14  1  0.92921000  0.25726000  0.71000000  1.0
  H  H15  1  0.07079000  0.74273000  0.29002000  1.0
  H  H16  1  0.41506000  0.40302000  0.79595000  1.0
  H  H17  1  0.58494000  0.59698000  0.20406000  1.0
  H  H18  1  0.65003000  0.17754000  0.79885000  1.0
  H  H19  1  0.34998000  0.82246000  0.20115000  1.0
  H  H20  1  0.29420000  0.74757000  0.66377000  1.0
  H  H21  1  0.70579000  0.25242000  0.33623000  1.0
  H  H22  1  0.29763000  0.60589000  0.70865000  1.0
  H  H23  1  0.70237000  0.39411000  0.29136000  1.0
  H  H24  1  0.15403000  0.76834000  0.88560000  1.0
  H  H25  1  0.84597000  0.23169000  0.11439000  1.0
  H  H26  1  0.32239000  0.73729000  0.83018000  1.0
  H  H27  1  0.67762000  0.26272000  0.16981000  1.0
  C  C28  1  0.66479000  0.62115000  0.87184000  1.0
  C  C29  1  0.33520000  0.37886000  0.12815000  1.0
  C  C30  1  0.58044000  0.55796000  0.93808000  1.0
  C  C31  1  0.41955000  0.44205000  0.06192000  1.0
  C  C32  1  0.40303000  0.50058000  0.93854000  1.0
  C  C33  1  0.59697000  0.49944000  0.06146000  1.0
  C  C34  1  0.67692000  0.55668000  0.99995000  1.0
  C  C35  1  0.32307000  0.44333000  0.00005000  1.0
  C  C36  1  0.92426000  0.83514000  0.63019000  1.0
  C  C37  1  0.07573000  0.16485000  0.36981000  1.0
  C  C38  1  0.96578000  0.91926000  0.56290000  1.0
  C  C39  1  0.03421000  0.08073000  0.43709000  1.0
  C  C40  1  0.85286000  0.91640000  0.50485000  1.0
  C  C41  1  0.14713000  0.08359000  0.49514000  1.0
  C  C42  1  0.11321000  0.00334000  0.55769000  1.0
  C  C43  1  0.88678000  0.99665000  0.44230000  1.0
  C  C44  1  0.56550000  0.95873000  0.75333000  1.0
  C  C45  1  0.43451000  0.04127000  0.24667000  1.0
  C  C46  1  0.42308000  0.09226000  0.75463000  1.0
  C  C47  1  0.57693000  0.90773000  0.24537000  1.0
  C  C48  1  0.21990000  0.11423000  0.72978000  1.0
  C  C49  1  0.78010000  0.88577000  0.27023000  1.0
  C  C50  1  0.08709000  0.23888000  0.72937000  1.0
  C  C51  1  0.91291000  0.76111000  0.27064000  1.0
  C  C52  1  0.15714000  0.34370000  0.75291000  1.0
  C  C53  1  0.84286000  0.65628000  0.24709000  1.0
  C  C54  1  0.36047000  0.32136000  0.77795000  1.0
  C  C55  1  0.63953000  0.67864000  0.22205000  1.0
  C  C56  1  0.49232000  0.19594000  0.77934000  1.0
  C  C57  1  0.50768000  0.80406000  0.22066000  1.0
  C  C58  1  0.01804000  0.47924000  0.75047000  1.0
  C  C59  1  0.98196000  0.52075000  0.24953000  1.0
  O  O60  1  0.54511000  0.64557000  0.81906000  1.0
  O  O61  1  0.45489000  0.35444000  0.18093000  1.0
  O  O62  1  0.84428000  0.64755000  0.87093000  1.0
  O  O63  1  0.15572000  0.35246000  0.12907000  1.0
  O  O64  1  0.79973000  0.75408000  0.63134000  1.0
  O  O65  1  0.20026000  0.24590000  0.36865000  1.0
  O  O66  1  0.01927000  0.85068000  0.68274000  1.0
  O  O67  1  0.98072000  0.14931000  0.31726000  1.0
  O  O68  1  0.51149000  0.88328000  0.71592000  1.0
  O  O69  1  0.48853000  0.11672000  0.28407000  1.0
  O  O70  1  0.73178000  0.92994000  0.78919000  1.0
  O  O71  1  0.26822000  0.07006000  0.21081000  1.0
  O  O72  1  0.82722000  0.49230000  0.73745000  1.0
  O  O73  1  0.17278000  0.50769000  0.26256000  1.0
  O  O74  1  0.10283000  0.57707000  0.76175000  1.0
  O  O75  1  0.89717000  0.42293000  0.23825000  1.0
  O  O76  1  0.38259000  0.65565000  0.67406000  1.0
  O  O77  1  0.61741000  0.34434000  0.32594000  1.0
  O  O78  1  0.18585000  0.79747000  0.83780000  1.0
  O  O79  1  0.81415000  0.20254000  0.16220000  1.0
