# generated using pymatgen
data_MnH4C6(NO2)2
_symmetry_space_group_name_H-M   'P 1'
_cell_length_a   9.36859000
_cell_length_b   9.51985000
_cell_length_c   10.45160000
_cell_angle_alpha   90.00040000
_cell_angle_beta   89.99970000
_cell_angle_gamma   90.00010000
_symmetry_Int_Tables_number   1
_chemical_formula_structural   MnH4C6(NO2)2
_chemical_formula_sum   'Mn4 H16 C24 N8 O16'
_cell_volume   932.15282237
_cell_formula_units_Z   4
loop_
 _symmetry_equiv_pos_site_id
 _symmetry_equiv_pos_as_xyz
  1  'x, y, z'
loop_
 _atom_site_type_symbol
 _atom_site_label
 _atom_site_symmetry_multiplicity
 _atom_site_fract_x
 _atom_site_fract_y
 _atom_site_fract_z
 _atom_site_occupancy
  Mn  Mn0  1  0.44768000  0.68098000  0.46825000  1.0
  Mn  Mn1  1  0.05232000  0.18098000  0.53175000  1.0
  Mn  Mn2  1  0.55231000  0.81903000  0.96825000  1.0
  Mn  Mn3  1  0.94769000  0.31903000  0.03175000  1.0
  H  H4  1  0.23531000  0.90272000  0.57605000  1.0
  H  H5  1  0.26471000  0.40270000  0.42396000  1.0
  H  H6  1  0.76470000  0.59731000  0.07605000  1.0
  H  H7  1  0.73529000  0.09731000  0.92396000  1.0
  H  H8  1  0.80595000  0.03474000  0.68917000  1.0
  H  H9  1  0.69405000  0.53472000  0.31082000  1.0
  H  H10  1  0.19406000  0.46526000  0.18917000  1.0
  H  H11  1  0.30595000  0.96527000  0.81082000  1.0
  H  H12  1  0.90253000  0.01254000  0.30083000  1.0
  H  H13  1  0.59750000  0.51258000  0.69916000  1.0
  H  H14  1  0.09749000  0.48744000  0.80083000  1.0
  H  H15  1  0.40249000  0.98743000  0.19917000  1.0
  H  H16  1  0.69955000  0.84082000  0.26862000  1.0
  H  H17  1  0.80045000  0.34084000  0.73136000  1.0
  H  H18  1  0.30046000  0.65917000  0.76863000  1.0
  H  H19  1  0.19953000  0.15917000  0.23138000  1.0
  C  C20  1  0.66852000  0.89921000  0.57682000  1.0
  C  C21  1  0.83148000  0.39919000  0.42318000  1.0
  C  C22  1  0.33149000  0.60079000  0.07682000  1.0
  C  C23  1  0.16851000  0.10080000  0.92317000  1.0
  C  C24  1  0.24970000  0.93102000  0.47372000  1.0
  C  C25  1  0.25031000  0.43101000  0.52628000  1.0
  C  C26  1  0.75031000  0.56899000  0.97372000  1.0
  C  C27  1  0.74968000  0.06900000  0.02628000  1.0
  C  C28  1  0.56855000  0.85977000  0.68332000  1.0
  C  C29  1  0.93144000  0.35976000  0.31669000  1.0
  C  C30  1  0.43145000  0.64024000  0.18332000  1.0
  C  C31  1  0.06853000  0.14023000  0.81668000  1.0
  C  C32  1  0.78260000  0.99131000  0.59501000  1.0
  C  C33  1  0.71740000  0.49130000  0.40499000  1.0
  C  C34  1  0.21740000  0.50869000  0.09501000  1.0
  C  C35  1  0.28260000  0.00869000  0.90498000  1.0
  C  C36  1  0.83745000  0.97699000  0.38100000  1.0
  C  C37  1  0.66258000  0.47701000  0.61901000  1.0
  C  C38  1  0.16256000  0.52300000  0.88100000  1.0
  C  C39  1  0.33742000  0.02299000  0.11900000  1.0
  C  C40  1  0.72480000  0.88272000  0.36298000  1.0
  C  C41  1  0.77519000  0.38272000  0.63702000  1.0
  C  C42  1  0.27521000  0.61728000  0.86298000  1.0
  C  C43  1  0.22479000  0.11728000  0.13702000  1.0
  N  N44  1  0.64145000  0.84326000  0.46067000  1.0
  N  N45  1  0.85854000  0.34326000  0.53933000  1.0
  N  N46  1  0.35856000  0.65675000  0.96067000  1.0
  N  N47  1  0.14143000  0.15675000  0.03932000  1.0
  N  N48  1  0.86715000  0.02967000  0.49739000  1.0
  N  N49  1  0.63287000  0.52967000  0.50261000  1.0
  N  N50  1  0.13287000  0.47032000  0.99739000  1.0
  N  N51  1  0.36714000  0.97032000  0.00260000  1.0
  O  O52  1  0.32130000  0.84843000  0.40317000  1.0
  O  O53  1  0.17871000  0.34844000  0.59683000  1.0
  O  O54  1  0.67870000  0.65157000  0.90317000  1.0
  O  O55  1  0.82129000  0.15158000  0.09683000  1.0
  O  O56  1  0.58472000  0.92162000  0.79024000  1.0
  O  O57  1  0.91530000  0.42160000  0.20977000  1.0
  O  O58  1  0.41528000  0.57838000  0.29024000  1.0
  O  O59  1  0.08471000  0.07838000  0.70976000  1.0
  O  O60  1  0.19398000  0.04434000  0.43447000  1.0
  O  O61  1  0.30601000  0.54434000  0.56552000  1.0
  O  O62  1  0.80603000  0.45567000  0.93448000  1.0
  O  O63  1  0.69398000  0.95567000  0.06552000  1.0
  O  O64  1  0.47277000  0.76931000  0.65880000  1.0
  O  O65  1  0.02723000  0.26931000  0.34120000  1.0
  O  O66  1  0.52723000  0.73070000  0.15880000  1.0
  O  O67  1  0.97275000  0.23069000  0.84122000  1.0
