# generated using pymatgen
data_NdH8C6N2O9
_symmetry_space_group_name_H-M   'P 1'
_cell_length_a   6.79112000
_cell_length_b   7.31455000
_cell_length_c   22.70000000
_cell_angle_alpha   90.00000000
_cell_angle_beta   90.00000000
_cell_angle_gamma   103.37300000
_symmetry_Int_Tables_number   1
_chemical_formula_structural   NdH8C6N2O9
_chemical_formula_sum   'Nd4 H32 C24 N8 O36'
_cell_volume   1097.02461594
_cell_formula_units_Z   4
loop_
 _symmetry_equiv_pos_site_id
 _symmetry_equiv_pos_as_xyz
  1  'x, y, z'
loop_
 _atom_site_type_symbol
 _atom_site_label
 _atom_site_symmetry_multiplicity
 _atom_site_fract_x
 _atom_site_fract_y
 _atom_site_fract_z
 _atom_site_occupancy
  Nd  Nd0  1  0.75470000  0.50909000  0.37834000  1.0
  Nd  Nd1  1  0.24529000  0.99091000  0.87834000  1.0
  Nd  Nd2  1  0.24529000  0.49091000  0.62166000  1.0
  Nd  Nd3  1  0.75470000  0.00909000  0.12166000  1.0
  H  H4  1  0.09561000  0.37860000  0.21792000  1.0
  H  H5  1  0.90438000  0.12139000  0.71792000  1.0
  H  H6  1  0.90439000  0.62139000  0.78208000  1.0
  H  H7  1  0.09561000  0.87861000  0.28208000  1.0
  H  H8  1  0.19236000  0.36455000  0.32293000  1.0
  H  H9  1  0.80764000  0.13545000  0.82293000  1.0
  H  H10  1  0.80763000  0.63545000  0.67707000  1.0
  H  H11  1  0.19237000  0.86455000  0.17707000  1.0
  H  H12  1  0.02989000  0.35207000  0.46273000  1.0
  H  H13  1  0.97011000  0.14793000  0.96274000  1.0
  H  H14  1  0.97011000  0.64793000  0.53726000  1.0
  H  H15  1  0.02989000  0.85207000  0.03727000  1.0
  H  H16  1  0.88642000  0.94429000  0.37795000  1.0
  H  H17  1  0.11358000  0.55571000  0.87795000  1.0
  H  H18  1  0.11358000  0.05572000  0.62205000  1.0
  H  H19  1  0.88642000  0.44428000  0.12205000  1.0
  H  H20  1  0.14523000  0.81367000  0.39070000  1.0
  H  H21  1  0.85476000  0.68633000  0.89071000  1.0
  H  H22  1  0.85476000  0.18634000  0.60929000  1.0
  H  H23  1  0.14523000  0.31367000  0.10930000  1.0
  H  H24  1  0.22487000  0.62678000  0.40528000  1.0
  H  H25  1  0.77512000  0.87322000  0.90528000  1.0
  H  H26  1  0.77513000  0.37323000  0.59472000  1.0
  H  H27  1  0.22487000  0.12677000  0.09472000  1.0
  H  H28  1  0.70611000  0.93196000  0.42108000  1.0
  H  H29  1  0.29389000  0.56804000  0.92108000  1.0
  H  H30  1  0.29389000  0.06804000  0.57892000  1.0
  H  H31  1  0.70611000  0.43196000  0.07893000  1.0
  H  H32  1  0.04645000  0.21423000  0.41133000  1.0
  H  H33  1  0.95353000  0.28576000  0.91133000  1.0
  H  H34  1  0.95354000  0.78577000  0.58867000  1.0
  H  H35  1  0.04646000  0.71423000  0.08867000  1.0
  C  C36  1  0.76743000  0.71223000  0.24096000  1.0
  C  C37  1  0.23257000  0.78777000  0.74096000  1.0
  C  C38  1  0.23257000  0.28777000  0.75904000  1.0
  C  C39  1  0.76744000  0.21223000  0.25904000  1.0
  C  C40  1  0.59618000  0.49287000  0.51720000  1.0
  C  C41  1  0.40383000  0.00714000  0.01720000  1.0
  C  C42  1  0.40382000  0.50714000  0.48280000  1.0
  C  C43  1  0.59618000  0.99286000  0.98280000  1.0
  C  C44  1  0.36639000  0.60751000  0.13999000  1.0
  C  C45  1  0.63361000  0.89248000  0.63999000  1.0
  C  C46  1  0.63360000  0.39248000  0.86001000  1.0
  C  C47  1  0.36639000  0.10751000  0.36001000  1.0
  C  C48  1  0.39745000  0.55573000  0.20212000  1.0
  C  C49  1  0.60256000  0.94427000  0.70212000  1.0
  C  C50  1  0.60255000  0.44428000  0.79788000  1.0
  C  C51  1  0.39745000  0.05572000  0.29788000  1.0
  C  C52  1  0.55559000  0.60174000  0.24326000  1.0
  C  C53  1  0.44441000  0.89826000  0.74326000  1.0
  C  C54  1  0.44441000  0.39826000  0.75674000  1.0
  C  C55  1  0.55560000  0.10173000  0.25674000  1.0
  C  C56  1  0.29512000  0.43763000  0.28969000  1.0
  C  C57  1  0.70488000  0.06237000  0.78969000  1.0
  C  C58  1  0.70488000  0.56237000  0.71031000  1.0
  C  C59  1  0.29512000  0.93764000  0.21031000  1.0
  N  N60  1  0.23681000  0.45150000  0.23359000  1.0
  N  N61  1  0.76319000  0.04850000  0.73359000  1.0
  N  N62  1  0.76319000  0.54850000  0.76641000  1.0
  N  N63  1  0.23681000  0.95150000  0.26641000  1.0
  N  N64  1  0.48779000  0.52620000  0.29726000  1.0
  N  N65  1  0.51221000  0.97380000  0.79726000  1.0
  N  N66  1  0.51221000  0.47380000  0.70274000  1.0
  N  N67  1  0.48780000  0.02620000  0.20274000  1.0
  O  O68  1  0.83863000  0.80396000  0.19543000  1.0
  O  O69  1  0.16138000  0.69603000  0.69542000  1.0
  O  O70  1  0.16137000  0.19603000  0.80457000  1.0
  O  O71  1  0.83864000  0.30397000  0.30457000  1.0
  O  O72  1  0.95586000  0.28936000  0.42801000  1.0
  O  O73  1  0.04413000  0.21064000  0.92801000  1.0
  O  O74  1  0.04413000  0.71065000  0.57199000  1.0
  O  O75  1  0.95587000  0.78936000  0.07199000  1.0
  O  O76  1  0.76176000  0.85974000  0.39209000  1.0
  O  O77  1  0.23824000  0.64026000  0.89209000  1.0
  O  O78  1  0.23824000  0.14026000  0.60791000  1.0
  O  O79  1  0.76176000  0.35974000  0.10791000  1.0
  O  O80  1  0.51154000  0.70673000  0.11110000  1.0
  O  O81  1  0.48847000  0.79326000  0.61110000  1.0
  O  O82  1  0.48846000  0.29327000  0.88890000  1.0
  O  O83  1  0.51154000  0.20674000  0.38890000  1.0
  O  O84  1  0.76167000  0.52856000  0.48907000  1.0
  O  O85  1  0.23835000  0.97146000  0.98906000  1.0
  O  O86  1  0.23835000  0.47146000  0.51094000  1.0
  O  O87  1  0.76166000  0.02855000  0.01093000  1.0
  O  O88  1  0.57264000  0.44657000  0.57101000  1.0
  O  O89  1  0.42737000  0.05342000  0.07101000  1.0
  O  O90  1  0.42737000  0.55341000  0.42899000  1.0
  O  O91  1  0.57264000  0.94657000  0.92899000  1.0
  O  O92  1  0.18627000  0.54968000  0.11942000  1.0
  O  O93  1  0.81373000  0.95031000  0.61942000  1.0
  O  O94  1  0.81372000  0.45031000  0.88058000  1.0
  O  O95  1  0.18628000  0.04969000  0.38058000  1.0
  O  O96  1  0.10571000  0.67438000  0.39216000  1.0
  O  O97  1  0.89429000  0.82562000  0.89216000  1.0
  O  O98  1  0.89429000  0.32562000  0.60784000  1.0
  O  O99  1  0.10571000  0.17438000  0.10784000  1.0
  O  O100  1  0.87147000  0.70932000  0.28797000  1.0
  O  O101  1  0.12852000  0.79068000  0.78797000  1.0
  O  O102  1  0.12852000  0.29069000  0.71203000  1.0
  O  O103  1  0.87148000  0.20931000  0.21203000  1.0
