# generated using pymatgen
data_CuH20C20(NO2)2
_symmetry_space_group_name_H-M   'P 1'
_cell_length_a   7.61059000
_cell_length_b   10.78830000
_cell_length_c   14.08100000
_cell_angle_alpha   90.00030000
_cell_angle_beta   90.00240000
_cell_angle_gamma   78.08300000
_symmetry_Int_Tables_number   1
_chemical_formula_structural   CuH20C20(NO2)2
_chemical_formula_sum   'Cu2 H40 C40 N4 O8'
_cell_volume   1131.20803779
_cell_formula_units_Z   2
loop_
 _symmetry_equiv_pos_site_id
 _symmetry_equiv_pos_as_xyz
  1  'x, y, z'
loop_
 _atom_site_type_symbol
 _atom_site_label
 _atom_site_symmetry_multiplicity
 _atom_site_fract_x
 _atom_site_fract_y
 _atom_site_fract_z
 _atom_site_occupancy
  Cu  Cu0  1  0.49999000  0.50000000  0.49999000  1.0
  Cu  Cu1  1  0.00000000  0.00000000  0.00000000  1.0
  H  H2  1  0.94841000  0.56494000  0.60842000  1.0
  H  H3  1  0.44839000  0.06494000  0.89159000  1.0
  H  H4  1  0.05158000  0.43506000  0.39158000  1.0
  H  H5  1  0.55162000  0.93505000  0.10843000  1.0
  H  H6  1  0.97803000  0.45820000  0.70772000  1.0
  H  H7  1  0.47801000  0.95820000  0.79229000  1.0
  H  H8  1  0.02196000  0.54180000  0.29228000  1.0
  H  H9  1  0.52201000  0.04180000  0.20773000  1.0
  H  H10  1  0.94128000  0.40371000  0.59239000  1.0
  H  H11  1  0.44128000  0.90371000  0.90762000  1.0
  H  H12  1  0.05869000  0.59629000  0.40760000  1.0
  H  H13  1  0.55874000  0.09628000  0.09239000  1.0
  H  H14  1  0.58041000  0.10115000  0.67221000  1.0
  H  H15  1  0.08040000  0.60117000  0.82778000  1.0
  H  H16  1  0.41957000  0.89884000  0.32777000  1.0
  H  H17  1  0.91964000  0.39885000  0.17221000  1.0
  H  H18  1  0.59260000  0.19761000  0.77198000  1.0
  H  H19  1  0.09256000  0.69763000  0.72802000  1.0
  H  H20  1  0.40741000  0.80236000  0.22801000  1.0
  H  H21  1  0.90746000  0.30240000  0.27197000  1.0
  H  H22  1  0.75874000  0.18546000  0.68055000  1.0
  H  H23  1  0.25873000  0.68548000  0.81945000  1.0
  H  H24  1  0.24124000  0.81452000  0.31943000  1.0
  H  H25  1  0.74130000  0.31456000  0.18054000  1.0
  H  H26  1  0.17372000  0.12735000  0.63624000  1.0
  H  H27  1  0.67367000  0.62739000  0.86377000  1.0
  H  H28  1  0.82627000  0.87263000  0.36376000  1.0
  H  H29  1  0.32635000  0.37263000  0.13623000  1.0
  H  H30  1  0.52966000  0.51899000  0.73741000  1.0
  H  H31  1  0.02969000  0.01899000  0.76261000  1.0
  H  H32  1  0.47035000  0.48100000  0.26260000  1.0
  H  H33  1  0.97031000  0.98100000  0.23741000  1.0
  H  H34  1  0.61944000  0.77299000  0.53281000  1.0
  H  H35  1  0.11944000  0.27303000  0.96720000  1.0
  H  H36  1  0.38055000  0.22701000  0.46720000  1.0
  H  H37  1  0.88058000  0.72698000  0.03281000  1.0
  H  H38  1  0.27387000  0.38963000  0.85059000  1.0
  H  H39  1  0.77386000  0.88963000  0.64940000  1.0
  H  H40  1  0.72612000  0.61036000  0.14940000  1.0
  H  H41  1  0.22613000  0.11038000  0.35059000  1.0
  C  C42  1  0.00737000  0.46896000  0.63237000  1.0
  C  C43  1  0.50736000  0.96896000  0.86763000  1.0
  C  C44  1  0.99261000  0.53104000  0.36762000  1.0
  C  C45  1  0.49266000  0.03103000  0.13238000  1.0
  C  C46  1  0.20600000  0.44099000  0.61225000  1.0
  C  C47  1  0.70600000  0.94100000  0.88775000  1.0
  C  C48  1  0.79398000  0.55900000  0.38774000  1.0
  C  C49  1  0.29402000  0.05900000  0.11226000  1.0
  C  C50  1  0.32015000  0.33894000  0.66028000  1.0
  C  C51  1  0.82013000  0.83896000  0.83972000  1.0
  C  C52  1  0.67983000  0.66105000  0.33971000  1.0
  C  C53  1  0.17988000  0.16105000  0.16028000  1.0
  C  C54  1  0.50653000  0.30120000  0.64151000  1.0
  C  C55  1  0.00651000  0.80122000  0.85849000  1.0
  C  C56  1  0.49346000  0.69879000  0.35848000  1.0
  C  C57  1  0.99350000  0.19879000  0.14151000  1.0
  C  C58  1  0.61633000  0.19023000  0.69511000  1.0
  C  C59  1  0.11631000  0.69025000  0.80489000  1.0
  C  C60  1  0.38365000  0.80976000  0.30488000  1.0
  C  C61  1  0.88371000  0.30977000  0.19510000  1.0
  C  C62  1  0.23682000  0.26843000  0.73280000  1.0
  C  C63  1  0.73680000  0.76844000  0.76720000  1.0
  C  C64  1  0.76316000  0.73156000  0.26720000  1.0
  C  C65  1  0.26321000  0.23157000  0.23280000  1.0
  C  C66  1  0.16619000  0.16232000  0.70918000  1.0
  C  C67  1  0.66618000  0.66233000  0.79083000  1.0
  C  C68  1  0.83378000  0.83767000  0.29083000  1.0
  C  C69  1  0.33385000  0.33767000  0.20918000  1.0
  C  C70  1  0.58432000  0.60249000  0.72074000  1.0
  C  C71  1  0.08432000  0.10250000  0.77927000  1.0
  C  C72  1  0.41572000  0.39750000  0.27927000  1.0
  C  C73  1  0.91566000  0.89750000  0.22074000  1.0
  C  C74  1  0.63435000  0.74336000  0.60711000  1.0
  C  C75  1  0.13437000  0.24338000  0.89290000  1.0
  C  C76  1  0.36563000  0.25665000  0.39290000  1.0
  C  C77  1  0.86563000  0.75663000  0.10711000  1.0
  C  C78  1  0.22050000  0.30794000  0.82796000  1.0
  C  C79  1  0.72049000  0.80794000  0.67205000  1.0
  C  C80  1  0.77949000  0.69205000  0.17204000  1.0
  C  C81  1  0.27950000  0.19207000  0.32797000  1.0
  N  N82  1  0.56681000  0.64191000  0.63030000  1.0
  N  N83  1  0.06684000  0.14192000  0.86971000  1.0
  N  N84  1  0.43319000  0.35808000  0.36971000  1.0
  N  N85  1  0.93316000  0.85808000  0.13030000  1.0
  O  O86  1  0.25719000  0.51230000  0.55033000  1.0
  O  O87  1  0.75719000  0.01230000  0.94967000  1.0
  O  O88  1  0.74279000  0.48769000  0.44967000  1.0
  O  O89  1  0.24282000  0.98768000  0.05034000  1.0
  O  O90  1  0.59491000  0.35218000  0.58083000  1.0
  O  O91  1  0.09490000  0.85220000  0.91916000  1.0
  O  O92  1  0.40507000  0.64782000  0.41916000  1.0
  O  O93  1  0.90510000  0.14781000  0.08084000  1.0
