# generated using pymatgen
data_Ag2H6C3(BrN)2
_symmetry_space_group_name_H-M   'P 1'
_cell_length_a   8.66084000
_cell_length_b   9.74788000
_cell_length_c   16.90600000
_cell_angle_alpha   90.00000000
_cell_angle_beta   90.00000000
_cell_angle_gamma   90.00000000
_symmetry_Int_Tables_number   1
_chemical_formula_structural   Ag2H6C3(BrN)2
_chemical_formula_sum   'Ag16 H48 C24 Br16 N16'
_cell_volume   1427.28615940
_cell_formula_units_Z   8
loop_
 _symmetry_equiv_pos_site_id
 _symmetry_equiv_pos_as_xyz
  1  'x, y, z'
loop_
 _atom_site_type_symbol
 _atom_site_label
 _atom_site_symmetry_multiplicity
 _atom_site_fract_x
 _atom_site_fract_y
 _atom_site_fract_z
 _atom_site_occupancy
  Ag  Ag0  1  0.15566000  0.25000000  0.36351000  1.0
  Ag  Ag1  1  0.34434000  0.75000000  0.86351000  1.0
  Ag  Ag2  1  0.84434000  0.75000000  0.63649000  1.0
  Ag  Ag3  1  0.65566000  0.25000000  0.13649000  1.0
  Ag  Ag4  1  0.33840000  0.43066000  0.20166000  1.0
  Ag  Ag5  1  0.16160000  0.93066000  0.70166000  1.0
  Ag  Ag6  1  0.33840000  0.06934000  0.20166000  1.0
  Ag  Ag7  1  0.16160000  0.56934000  0.70166000  1.0
  Ag  Ag8  1  0.66160000  0.56934000  0.79834000  1.0
  Ag  Ag9  1  0.83840000  0.06935000  0.29834000  1.0
  Ag  Ag10  1  0.66160000  0.93066000  0.79834000  1.0
  Ag  Ag11  1  0.83840000  0.43066000  0.29834000  1.0
  Ag  Ag12  1  0.24912000  0.75000000  0.41943000  1.0
  Ag  Ag13  1  0.25088000  0.25000000  0.91943000  1.0
  Ag  Ag14  1  0.75088000  0.25000000  0.58058000  1.0
  Ag  Ag15  1  0.74912000  0.75000000  0.08058000  1.0
  H  H16  1  0.23065000  0.46569000  0.51405000  1.0
  H  H17  1  0.26935000  0.96569000  0.01405000  1.0
  H  H18  1  0.23065000  0.03431000  0.51405000  1.0
  H  H19  1  0.26935000  0.53431000  0.01405000  1.0
  H  H20  1  0.76935000  0.53431000  0.48595000  1.0
  H  H21  1  0.73065000  0.03431000  0.98595000  1.0
  H  H22  1  0.76935000  0.96569000  0.48595000  1.0
  H  H23  1  0.73065000  0.46569000  0.98595000  1.0
  H  H24  1  0.06332000  0.37345000  0.54570000  1.0
  H  H25  1  0.43668000  0.87345000  0.04570000  1.0
  H  H26  1  0.06332000  0.12655000  0.54570000  1.0
  H  H27  1  0.43668000  0.62655000  0.04570000  1.0
  H  H28  1  0.93668000  0.62655000  0.45430000  1.0
  H  H29  1  0.56332000  0.12655000  0.95430000  1.0
  H  H30  1  0.93669000  0.87345000  0.45430000  1.0
  H  H31  1  0.56332000  0.37345000  0.95430000  1.0
  H  H32  1  0.46170000  0.37366000  0.68706000  1.0
  H  H33  1  0.03830000  0.87366000  0.18706000  1.0
  H  H34  1  0.46170000  0.12634000  0.68706000  1.0
  H  H35  1  0.03830000  0.62634000  0.18706000  1.0
  H  H36  1  0.53830000  0.62635000  0.31294000  1.0
  H  H37  1  0.96170000  0.12634000  0.81294000  1.0
  H  H38  1  0.53830000  0.87366000  0.31294000  1.0
  H  H39  1  0.96170000  0.37366000  0.81294000  1.0
  H  H40  1  0.46059000  0.46567000  0.59599000  1.0
  H  H41  1  0.03941000  0.96567000  0.09599000  1.0
  H  H42  1  0.46059000  0.03432000  0.59599000  1.0
  H  H43  1  0.03941000  0.53432000  0.09599000  1.0
  H  H44  1  0.53941000  0.53433000  0.40401000  1.0
  H  H45  1  0.96059000  0.03432000  0.90401000  1.0
  H  H46  1  0.53941000  0.96568000  0.40401000  1.0
  H  H47  1  0.96059000  0.46567000  0.90401000  1.0
  H  H48  1  0.45729000  0.15894000  0.47154000  1.0
  H  H49  1  0.04271000  0.65894000  0.97154000  1.0
  H  H50  1  0.45729000  0.34106000  0.47154000  1.0
  H  H51  1  0.04271000  0.84105000  0.97154000  1.0
  H  H52  1  0.54271000  0.84106000  0.52846000  1.0
  H  H53  1  0.95729000  0.34105000  0.02846000  1.0
  H  H54  1  0.54271000  0.65894000  0.52846000  1.0
  H  H55  1  0.95729000  0.15894000  0.02846000  1.0
  H  H56  1  0.23698000  0.25000000  0.72908000  1.0
  H  H57  1  0.26301000  0.75000000  0.22908000  1.0
  H  H58  1  0.76302000  0.75000000  0.27092000  1.0
  H  H59  1  0.73698000  0.25000000  0.77092000  1.0
  H  H60  1  0.06621000  0.25000000  0.66848000  1.0
  H  H61  1  0.43379000  0.75000000  0.16848000  1.0
  H  H62  1  0.93379000  0.75000000  0.33152000  1.0
  H  H63  1  0.56621000  0.25000000  0.83152000  1.0
  C  C64  1  0.41825000  0.37318000  0.62606000  1.0
  C  C65  1  0.08175000  0.87318000  0.12606000  1.0
  C  C66  1  0.41825000  0.12682000  0.62606000  1.0
  C  C67  1  0.08175000  0.62682000  0.12606000  1.0
  C  C68  1  0.58175000  0.62682000  0.37394000  1.0
  C  C69  1  0.91825000  0.12682000  0.87394000  1.0
  C  C70  1  0.58175000  0.87319000  0.37395000  1.0
  C  C71  1  0.91825000  0.37318000  0.87394000  1.0
  C  C72  1  0.19302000  0.25000000  0.66816000  1.0
  C  C73  1  0.30698000  0.75000000  0.16816000  1.0
  C  C74  1  0.80698000  0.75000000  0.33184000  1.0
  C  C75  1  0.69302000  0.25000000  0.83184000  1.0
  C  C76  1  0.19008000  0.37338000  0.54492000  1.0
  C  C77  1  0.30992000  0.87338000  0.04492000  1.0
  C  C78  1  0.19008000  0.12662000  0.54492000  1.0
  C  C79  1  0.30992000  0.62662000  0.04492000  1.0
  C  C80  1  0.80992000  0.62662000  0.45508000  1.0
  C  C81  1  0.69008000  0.12662000  0.95508000  1.0
  C  C82  1  0.80992000  0.87338000  0.45508000  1.0
  C  C83  1  0.69008000  0.37338000  0.95508000  1.0
  C  C84  1  0.41485000  0.25000000  0.50298000  1.0
  C  C85  1  0.08515000  0.75000000  0.00298000  1.0
  C  C86  1  0.58515000  0.75000000  0.49702000  1.0
  C  C87  1  0.91485000  0.25000000  0.99702000  1.0
  Br  Br88  1  0.48460000  0.25000000  0.29625000  1.0
  Br  Br89  1  0.01540000  0.75000000  0.79625000  1.0
  Br  Br90  1  0.51540000  0.75000000  0.70375000  1.0
  Br  Br91  1  0.98460000  0.25000000  0.20375000  1.0
  Br  Br92  1  0.16500000  0.53095000  0.33610000  1.0
  Br  Br93  1  0.33500000  0.03095000  0.83609000  1.0
  Br  Br94  1  0.16500000  0.96905000  0.33609000  1.0
  Br  Br95  1  0.33500000  0.46905000  0.83609000  1.0
  Br  Br96  1  0.83500000  0.46905000  0.66391000  1.0
  Br  Br97  1  0.66500000  0.96905000  0.16391000  1.0
  Br  Br98  1  0.83500000  0.03095000  0.66391000  1.0
  Br  Br99  1  0.66500000  0.53095000  0.16391000  1.0
  Br  Br100  1  0.83582000  0.25000000  0.43152000  1.0
  Br  Br101  1  0.66418000  0.75000000  0.93152000  1.0
  Br  Br102  1  0.16417000  0.75000000  0.56848000  1.0
  Br  Br103  1  0.33583000  0.25000000  0.06848000  1.0
  N  N104  1  0.24502000  0.25000000  0.50264000  1.0
  N  N105  1  0.25498000  0.75000000  0.00264000  1.0
  N  N106  1  0.75498000  0.75000000  0.49736000  1.0
  N  N107  1  0.74502000  0.25000000  0.99736000  1.0
  N  N108  1  0.24777000  0.37550000  0.62756000  1.0
  N  N109  1  0.25223000  0.87550000  0.12756000  1.0
  N  N110  1  0.24777000  0.12450000  0.62756000  1.0
  N  N111  1  0.25223000  0.62450000  0.12756000  1.0
  N  N112  1  0.75223000  0.62450000  0.37243000  1.0
  N  N113  1  0.74777000  0.12450000  0.87244000  1.0
  N  N114  1  0.75223000  0.87551000  0.37244000  1.0
  N  N115  1  0.74777000  0.37550000  0.87244000  1.0
  N  N116  1  0.47640000  0.25000000  0.58452000  1.0
  N  N117  1  0.02360000  0.75000000  0.08452000  1.0
  N  N118  1  0.52360000  0.75000000  0.41548000  1.0
  N  N119  1  0.97640000  0.25000000  0.91548000  1.0
