# generated using pymatgen
data_GdNiH12C15N2O13
_symmetry_space_group_name_H-M   'P 1'
_cell_length_a   9.53025000
_cell_length_b   10.62090000
_cell_length_c   10.72790000
_cell_angle_alpha   81.34030000
_cell_angle_beta   73.70350000
_cell_angle_gamma   75.73540000
_symmetry_Int_Tables_number   1
_chemical_formula_structural   GdNiH12C15N2O13
_chemical_formula_sum   'Gd2 Ni2 H24 C30 N4 O26'
_cell_volume   1006.23693905
_cell_formula_units_Z   2
loop_
 _symmetry_equiv_pos_site_id
 _symmetry_equiv_pos_as_xyz
  1  'x, y, z'
loop_
 _atom_site_type_symbol
 _atom_site_label
 _atom_site_symmetry_multiplicity
 _atom_site_fract_x
 _atom_site_fract_y
 _atom_site_fract_z
 _atom_site_occupancy
  Gd  Gd0  1  0.32433000  0.30245000  0.96586000  1.0
  Gd  Gd1  1  0.67575000  0.69765000  0.03413000  1.0
  Ni  Ni2  1  0.19754000  0.13706000  0.38041000  1.0
  Ni  Ni3  1  0.80250000  0.86283000  0.61939000  1.0
  H  H4  1  0.42324000  0.30234000  0.24496000  1.0
  H  H5  1  0.57675000  0.69764000  0.75500000  1.0
  H  H6  1  0.65363000  0.33808000  0.29022000  1.0
  H  H7  1  0.34627000  0.66201000  0.70983000  1.0
  H  H8  1  0.71094000  0.24145000  0.50528000  1.0
  H  H9  1  0.28886000  0.75870000  0.49482000  1.0
  H  H10  1  0.01273000  0.73703000  0.36614000  1.0
  H  H11  1  0.98743000  0.26260000  0.63370000  1.0
  H  H12  1  0.23831000  0.55308000  0.32483000  1.0
  H  H13  1  0.76185000  0.44650000  0.67529000  1.0
  H  H14  1  0.32041000  0.42248000  0.51840000  1.0
  H  H15  1  0.67965000  0.57735000  0.48188000  1.0
  H  H16  1  0.44801000  0.07987000  0.13735000  1.0
  H  H17  1  0.55208000  0.92017000  0.86263000  1.0
  H  H18  1  0.59093000  0.08172000  0.02114000  1.0
  H  H19  1  0.40914000  0.91841000  0.97884000  1.0
  H  H20  1  0.14022000  0.08896000  0.03681000  1.0
  H  H21  1  0.86009000  0.91090000  0.96351000  1.0
  H  H22  1  0.23664000  0.07392000  0.88995000  1.0
  H  H23  1  0.76325000  0.92614000  0.11020000  1.0
  H  H24  1  0.13923000  0.96162000  0.28331000  1.0
  H  H25  1  0.86077000  0.03824000  0.71647000  1.0
  H  H26  1  0.96848000  0.00695000  0.36228000  1.0
  H  H27  1  0.03153000  0.99301000  0.63739000  1.0
  C  C28  1  0.45396000  0.26249000  0.33545000  1.0
  C  C29  1  0.54598000  0.73753000  0.66452000  1.0
  C  C30  1  0.58192000  0.28128000  0.36206000  1.0
  C  C31  1  0.41798000  0.71879000  0.63797000  1.0
  C  C32  1  0.61193000  0.22899000  0.48106000  1.0
  C  C33  1  0.38791000  0.77111000  0.51899000  1.0
  C  C34  1  0.51325000  0.16084000  0.57162000  1.0
  C  C35  1  0.48660000  0.83924000  0.42842000  1.0
  C  C36  1  0.38826000  0.14404000  0.53734000  1.0
  C  C37  1  0.61165000  0.85599000  0.46265000  1.0
  C  C38  1  0.27572000  0.06826000  0.62183000  1.0
  C  C39  1  0.72415000  0.93179000  0.37809000  1.0
  C  C40  1  0.53982000  0.11715000  0.70443000  1.0
  C  C41  1  0.46009000  0.88293000  0.29558000  1.0
  C  C42  1  0.05289000  0.67776000  0.44652000  1.0
  C  C43  1  0.94723000  0.32198000  0.55340000  1.0
  C  C44  1  0.17737000  0.57418000  0.42463000  1.0
  C  C45  1  0.82274000  0.42552000  0.57543000  1.0
  C  C46  1  0.22175000  0.50178000  0.53188000  1.0
  C  C47  1  0.77830000  0.49806000  0.46827000  1.0
  C  C48  1  0.13981000  0.53113000  0.65852000  1.0
  C  C49  1  0.86021000  0.46885000  0.34158000  1.0
  C  C50  1  0.01628000  0.63594000  0.67161000  1.0
  C  C51  1  0.98373000  0.36406000  0.32836000  1.0
  C  C52  1  0.91303000  0.67162000  0.80045000  1.0
  C  C53  1  0.08698000  0.32850000  0.19951000  1.0
  C  C54  1  0.19025000  0.45139000  0.77326000  1.0
  C  C55  1  0.80971000  0.54871000  0.22691000  1.0
  C  C56  1  0.56305000  0.47671000  0.93945000  1.0
  C  C57  1  0.43700000  0.52338000  0.06058000  1.0
  N  N58  1  0.36192000  0.19424000  0.42061000  1.0
  N  N59  1  0.63806000  0.80576000  0.57934000  1.0
  N  N60  1  0.97607000  0.70861000  0.56731000  1.0
  N  N61  1  0.02400000  0.29126000  0.43257000  1.0
  O  O62  1  0.18009000  0.05052000  0.56354000  1.0
  O  O63  1  0.81993000  0.94941000  0.43626000  1.0
  O  O64  1  0.27927000  0.02553000  0.73571000  1.0
  O  O65  1  0.72038000  0.97464000  0.26430000  1.0
  O  O66  1  0.46848000  0.19295000  0.79073000  1.0
  O  O67  1  0.53154000  0.80714000  0.20929000  1.0
  O  O68  1  0.63612000  0.01383000  0.72357000  1.0
  O  O69  1  0.36379000  0.98620000  0.27636000  1.0
  O  O70  1  0.93539000  0.61387000  0.90604000  1.0
  O  O71  1  0.06464000  0.38638000  0.09393000  1.0
  O  O72  1  0.79384000  0.76201000  0.79771000  1.0
  O  O73  1  0.20612000  0.23805000  0.20219000  1.0
  O  O74  1  0.27049000  0.49779000  0.82430000  1.0
  O  O75  1  0.72953000  0.50234000  0.17579000  1.0
  O  O76  1  0.16200000  0.33915000  0.80700000  1.0
  O  O77  1  0.83792000  0.66099000  0.19326000  1.0
  O  O78  1  0.55335000  0.37996000  0.88937000  1.0
  O  O79  1  0.44669000  0.62013000  0.11064000  1.0
  O  O80  1  0.66573000  0.54097000  0.89936000  1.0
  O  O81  1  0.33434000  0.45907000  0.10071000  1.0
  O  O82  1  0.49697000  0.13717000  0.06511000  1.0
  O  O83  1  0.50312000  0.86294000  0.93493000  1.0
  O  O84  1  0.23892000  0.08975000  0.97859000  1.0
  O  O85  1  0.76123000  0.91024000  0.02150000  1.0
  O  O86  1  0.06326000  0.03751000  0.31548000  1.0
  O  O87  1  0.93673000  0.96242000  0.68410000  1.0
