# generated using pymatgen
data_LiH5(C2O)4
_symmetry_space_group_name_H-M   'P 1'
_cell_length_a   5.09018000
_cell_length_b   8.36313000
_cell_length_c   16.23280000
_cell_angle_alpha   90.00100000
_cell_angle_beta   89.99930000
_cell_angle_gamma   89.64140000
_symmetry_Int_Tables_number   1
_chemical_formula_structural   LiH5(C2O)4
_chemical_formula_sum   'Li4 H20 C32 O16'
_cell_volume   691.01411652
_cell_formula_units_Z   4
loop_
 _symmetry_equiv_pos_site_id
 _symmetry_equiv_pos_as_xyz
  1  'x, y, z'
loop_
 _atom_site_type_symbol
 _atom_site_label
 _atom_site_symmetry_multiplicity
 _atom_site_fract_x
 _atom_site_fract_y
 _atom_site_fract_z
 _atom_site_occupancy
  Li  Li0  1  0.20270000  0.53416000  0.55242000  1.0
  Li  Li1  1  0.79730000  0.96584000  0.05242000  1.0
  Li  Li2  1  0.79729000  0.46584000  0.44758000  1.0
  Li  Li3  1  0.20270000  0.03417000  0.94758000  1.0
  H  H4  1  0.44631000  0.31117000  0.76049000  1.0
  H  H5  1  0.55368000  0.18884000  0.26050000  1.0
  H  H6  1  0.55368000  0.68884000  0.23951000  1.0
  H  H7  1  0.44631000  0.81115000  0.73950000  1.0
  H  H8  1  0.95389000  0.52766000  0.94075000  1.0
  H  H9  1  0.04610000  0.97234000  0.44076000  1.0
  H  H10  1  0.04613000  0.47234000  0.05924000  1.0
  H  H11  1  0.95389000  0.02766000  0.55925000  1.0
  H  H12  1  0.19348000  0.66706000  0.82987000  1.0
  H  H13  1  0.80651000  0.83295000  0.32986000  1.0
  H  H14  1  0.80652000  0.33294000  0.17013000  1.0
  H  H15  1  0.19348000  0.16706000  0.67014000  1.0
  H  H16  1  0.07067000  0.62430000  0.68439000  1.0
  H  H17  1  0.92933000  0.87570000  0.18439000  1.0
  H  H18  1  0.92933000  0.37570000  0.31560000  1.0
  H  H19  1  0.07067000  0.12429000  0.81561000  1.0
  H  H20  1  0.58038000  0.24909000  0.03801000  1.0
  H  H21  1  0.41962000  0.25092000  0.53802000  1.0
  H  H22  1  0.41962000  0.75092000  0.96199000  1.0
  H  H23  1  0.58038000  0.74908000  0.46198000  1.0
  C  C24  1  0.75042000  0.46354000  0.71232000  1.0
  C  C25  1  0.24958000  0.03646000  0.21232000  1.0
  C  C26  1  0.24957000  0.53646000  0.28768000  1.0
  C  C27  1  0.75042000  0.96353000  0.78768000  1.0
  C  C28  1  0.60998000  0.38886000  0.77542000  1.0
  C  C29  1  0.39002000  0.11115000  0.27543000  1.0
  C  C30  1  0.39002000  0.61115000  0.22458000  1.0
  C  C31  1  0.60998000  0.88885000  0.72457000  1.0
  C  C32  1  0.68439000  0.40973000  0.85775000  1.0
  C  C33  1  0.31561000  0.09028000  0.35775000  1.0
  C  C34  1  0.31561000  0.59028000  0.14225000  1.0
  C  C35  1  0.68439000  0.90972000  0.64225000  1.0
  C  C36  1  0.89555000  0.51017000  0.87703000  1.0
  C  C37  1  0.10445000  0.98983000  0.37704000  1.0
  C  C38  1  0.10446000  0.48983000  0.12297000  1.0
  C  C39  1  0.89555000  0.01017000  0.62296000  1.0
  C  C40  1  0.03201000  0.58747000  0.81453000  1.0
  C  C41  1  0.96799000  0.91253000  0.31453000  1.0
  C  C42  1  0.96800000  0.41252000  0.18546000  1.0
  C  C43  1  0.03200000  0.08747000  0.68547000  1.0
  C  C44  1  0.96224000  0.56281000  0.73256000  1.0
  C  C45  1  0.03776000  0.93719000  0.23256000  1.0
  C  C46  1  0.03775000  0.43719000  0.26744000  1.0
  C  C47  1  0.96224000  0.06280000  0.76744000  1.0
  C  C48  1  0.67896000  0.43615000  0.62404000  1.0
  C  C49  1  0.32104000  0.06385000  0.12404000  1.0
  C  C50  1  0.32103000  0.56385000  0.37596000  1.0
  C  C51  1  0.67896000  0.93614000  0.87596000  1.0
  C  C52  1  0.54975000  0.31692000  0.92301000  1.0
  C  C53  1  0.45025000  0.18309000  0.42301000  1.0
  C  C54  1  0.45027000  0.68310000  0.07700000  1.0
  C  C55  1  0.54974000  0.81690000  0.57699000  1.0
  O  O56  1  0.84138000  0.47611000  0.56825000  1.0
  O  O57  1  0.15861000  0.02391000  0.06825000  1.0
  O  O58  1  0.15861000  0.52389000  0.43175000  1.0
  O  O59  1  0.84139000  0.97610000  0.93175000  1.0
  O  O60  1  0.45329000  0.37599000  0.60785000  1.0
  O  O61  1  0.54670000  0.12402000  0.10785000  1.0
  O  O62  1  0.54670000  0.62401000  0.39215000  1.0
  O  O63  1  0.45330000  0.87598000  0.89215000  1.0
  O  O64  1  0.65469000  0.33201000  0.99729000  1.0
  O  O65  1  0.34531000  0.16800000  0.49729000  1.0
  O  O66  1  0.34531000  0.66801000  0.00272000  1.0
  O  O67  1  0.65470000  0.83200000  0.50271000  1.0
  O  O68  1  0.35946000  0.22876000  0.90840000  1.0
  O  O69  1  0.64053000  0.27125000  0.40841000  1.0
  O  O70  1  0.64054000  0.77124000  0.09160000  1.0
  O  O71  1  0.35947000  0.72876000  0.59159000  1.0
