# generated using pymatgen
data_CuH5C5N4
_symmetry_space_group_name_H-M   'P 1'
_cell_length_a   6.87248000
_cell_length_b   8.05396000
_cell_length_c   11.32070000
_cell_angle_alpha   89.99910000
_cell_angle_beta   89.99980000
_cell_angle_gamma   90.00000000
_symmetry_Int_Tables_number   1
_chemical_formula_structural   CuH5C5N4
_chemical_formula_sum   'Cu4 H20 C20 N16'
_cell_volume   626.60843191
_cell_formula_units_Z   4
loop_
 _symmetry_equiv_pos_site_id
 _symmetry_equiv_pos_as_xyz
  1  'x, y, z'
loop_
 _atom_site_type_symbol
 _atom_site_label
 _atom_site_symmetry_multiplicity
 _atom_site_fract_x
 _atom_site_fract_y
 _atom_site_fract_z
 _atom_site_occupancy
  Cu  Cu0  1  0.21080000  0.95647000  0.50896000  1.0
  Cu  Cu1  1  0.21080000  0.45646000  0.99104000  1.0
  Cu  Cu2  1  0.78920000  0.95646000  0.00896000  1.0
  Cu  Cu3  1  0.78921000  0.45648000  0.49104000  1.0
  H  H4  1  0.36723000  0.84689000  0.94694000  1.0
  H  H5  1  0.36723000  0.34690000  0.55306000  1.0
  H  H6  1  0.63278000  0.84691000  0.44693000  1.0
  H  H7  1  0.63277000  0.34690000  0.05307000  1.0
  H  H8  1  0.81554000  0.08392000  0.76549000  1.0
  H  H9  1  0.81553000  0.58394000  0.73450000  1.0
  H  H10  1  0.18447000  0.08394000  0.26548000  1.0
  H  H11  1  0.18446000  0.58392000  0.23452000  1.0
  H  H12  1  0.62017000  0.07266000  0.57971000  1.0
  H  H13  1  0.62016000  0.57265000  0.92029000  1.0
  H  H14  1  0.37983000  0.07266000  0.07970000  1.0
  H  H15  1  0.37983000  0.57265000  0.42030000  1.0
  H  H16  1  0.06182000  0.81049000  0.68397000  1.0
  H  H17  1  0.06182000  0.31047000  0.81604000  1.0
  H  H18  1  0.93819000  0.81048000  0.18396000  1.0
  H  H19  1  0.93819000  0.31048000  0.31604000  1.0
  H  H20  1  0.07239000  0.78512000  0.83863000  1.0
  H  H21  1  0.07239000  0.28512000  0.66137000  1.0
  H  H22  1  0.92761000  0.78512000  0.33862000  1.0
  H  H23  1  0.92761000  0.28512000  0.16137000  1.0
  C  C24  1  0.30908000  0.89621000  0.76132000  1.0
  C  C25  1  0.30909000  0.39621000  0.73868000  1.0
  C  C26  1  0.69091000  0.89621000  0.26132000  1.0
  C  C27  1  0.69091000  0.39621000  0.23868000  1.0
  C  C28  1  0.42360000  0.90129000  0.86561000  1.0
  C  C29  1  0.42359000  0.40130000  0.63439000  1.0
  C  C30  1  0.57640000  0.90130000  0.36561000  1.0
  C  C31  1  0.57639000  0.40129000  0.13440000  1.0
  C  C32  1  0.67028000  0.03071000  0.76435000  1.0
  C  C33  1  0.67027000  0.53072000  0.73565000  1.0
  C  C34  1  0.32973000  0.03073000  0.26434000  1.0
  C  C35  1  0.32972000  0.53070000  0.23566000  1.0
  C  C36  1  0.56147000  0.02299000  0.66181000  1.0
  C  C37  1  0.56146000  0.52298000  0.83819000  1.0
  C  C38  1  0.43854000  0.02299000  0.16180000  1.0
  C  C39  1  0.43854000  0.52298000  0.33820000  1.0
  C  C40  1  0.02208000  0.12307000  0.50002000  1.0
  C  C41  1  0.02207000  0.62306000  0.99998000  1.0
  C  C42  1  0.97792000  0.12305000  0.00002000  1.0
  C  C43  1  0.97792000  0.62309000  0.49999000  1.0
  N  N44  1  0.38169000  0.95573000  0.65773000  1.0
  N  N45  1  0.38169000  0.45573000  0.84227000  1.0
  N  N46  1  0.61831000  0.95573000  0.15772000  1.0
  N  N47  1  0.61831000  0.45573000  0.34228000  1.0
  N  N48  1  0.60101000  0.96727000  0.86724000  1.0
  N  N49  1  0.60100000  0.46727000  0.63276000  1.0
  N  N50  1  0.39899000  0.96728000  0.36724000  1.0
  N  N51  1  0.39899000  0.46726000  0.13277000  1.0
  N  N52  1  0.12793000  0.83371000  0.76277000  1.0
  N  N53  1  0.12793000  0.33370000  0.73723000  1.0
  N  N54  1  0.87207000  0.83371000  0.26277000  1.0
  N  N55  1  0.87207000  0.33371000  0.23723000  1.0
  N  N56  1  0.90735000  0.23249000  0.49708000  1.0
  N  N57  1  0.90736000  0.73247000  0.00291000  1.0
  N  N58  1  0.09266000  0.23248000  0.99709000  1.0
  N  N59  1  0.09265000  0.73249000  0.50292000  1.0
