# generated using pymatgen
data_Y2H16C21O17
_symmetry_space_group_name_H-M   'P 1'
_cell_length_a   9.93312000
_cell_length_b   10.68080000
_cell_length_c   28.98670000
_cell_angle_alpha   90.00010000
_cell_angle_beta   90.00050000
_cell_angle_gamma   88.40510000
_symmetry_Int_Tables_number   1
_chemical_formula_structural   Y2H16C21O17
_chemical_formula_sum   'Y8 H64 C84 O68'
_cell_volume   3074.11394463
_cell_formula_units_Z   4
loop_
 _symmetry_equiv_pos_site_id
 _symmetry_equiv_pos_as_xyz
  1  'x, y, z'
loop_
 _atom_site_type_symbol
 _atom_site_label
 _atom_site_symmetry_multiplicity
 _atom_site_fract_x
 _atom_site_fract_y
 _atom_site_fract_z
 _atom_site_occupancy
  Y  Y0  1  0.44537000  0.03776000  0.41846000  1.0
  Y  Y1  1  0.45038000  0.76292000  0.24951000  1.0
  Y  Y2  1  0.55463000  0.46224000  0.91846000  1.0
  Y  Y3  1  0.54962000  0.73708000  0.74951000  1.0
  Y  Y4  1  0.55463000  0.96224000  0.58154000  1.0
  Y  Y5  1  0.54962000  0.23708000  0.75049000  1.0
  Y  Y6  1  0.44537000  0.53777000  0.08154000  1.0
  Y  Y7  1  0.45038000  0.26292000  0.25049000  1.0
  H  H8  1  0.01566000  0.18030000  0.41054000  1.0
  H  H9  1  0.76874000  0.17788000  0.39558000  1.0
  H  H10  1  0.88688000  0.82870000  0.20415000  1.0
  H  H11  1  0.13019000  0.87826000  0.20812000  1.0
  H  H12  1  0.06866000  0.66779000  0.49038000  1.0
  H  H13  1  0.18054000  0.28723000  0.50828000  1.0
  H  H14  1  0.56018000  0.29059000  0.40116000  1.0
  H  H15  1  0.57668000  0.26543000  0.45567000  1.0
  H  H16  1  0.59273000  0.85423000  0.35385000  1.0
  H  H17  1  0.61808000  0.82296000  0.40574000  1.0
  H  H18  1  0.28616000  0.84704000  0.33246000  1.0
  H  H19  1  0.34871000  0.71126000  0.34063000  1.0
  H  H20  1  0.57608000  0.64772000  0.33403000  1.0
  H  H21  1  0.57232000  0.53174000  0.29974000  1.0
  H  H22  1  0.34741000  0.77522000  0.14849000  1.0
  H  H23  1  0.38490000  0.91161000  0.16598000  1.0
  H  H24  1  0.98435000  0.31970000  0.91054000  1.0
  H  H25  1  0.23127000  0.32211000  0.89558000  1.0
  H  H26  1  0.11311000  0.67130000  0.70416000  1.0
  H  H27  1  0.86981000  0.62175000  0.70812000  1.0
  H  H28  1  0.93134000  0.83222000  0.99038000  1.0
  H  H29  1  0.81947000  0.21277000  0.00828000  1.0
  H  H30  1  0.43982000  0.20940000  0.90116000  1.0
  H  H31  1  0.42331000  0.23458000  0.95567000  1.0
  H  H32  1  0.40728000  0.64576000  0.85385000  1.0
  H  H33  1  0.38194000  0.67704000  0.90575000  1.0
  H  H34  1  0.71384000  0.65296000  0.83247000  1.0
  H  H35  1  0.65127000  0.78874000  0.84063000  1.0
  H  H36  1  0.42390000  0.85228000  0.83403000  1.0
  H  H37  1  0.42769000  0.96826000  0.79974000  1.0
  H  H38  1  0.65258000  0.72478000  0.64849000  1.0
  H  H39  1  0.61510000  0.58839000  0.66598000  1.0
  H  H40  1  0.98434000  0.81970000  0.58945000  1.0
  H  H41  1  0.23126000  0.82212000  0.60442000  1.0
  H  H42  1  0.11312000  0.17130000  0.79585000  1.0
  H  H43  1  0.86982000  0.12174000  0.79188000  1.0
  H  H44  1  0.93134000  0.33221000  0.50962000  1.0
  H  H45  1  0.81946000  0.71277000  0.49172000  1.0
  H  H46  1  0.43982000  0.70941000  0.59884000  1.0
  H  H47  1  0.42331000  0.73458000  0.54433000  1.0
  H  H48  1  0.40727000  0.14577000  0.64615000  1.0
  H  H49  1  0.38192000  0.17704000  0.59426000  1.0
  H  H50  1  0.71384000  0.15296000  0.66754000  1.0
  H  H51  1  0.65129000  0.28874000  0.65937000  1.0
  H  H52  1  0.42392000  0.35228000  0.66597000  1.0
  H  H53  1  0.42768000  0.46826000  0.70026000  1.0
  H  H54  1  0.65259000  0.22478000  0.85151000  1.0
  H  H55  1  0.61510000  0.08839000  0.83402000  1.0
  H  H56  1  0.01565000  0.68031000  0.08946000  1.0
  H  H57  1  0.76874000  0.67789000  0.10442000  1.0
  H  H58  1  0.88689000  0.32869000  0.29584000  1.0
  H  H59  1  0.13019000  0.37825000  0.29188000  1.0
  H  H60  1  0.06867000  0.16779000  0.00962000  1.0
  H  H61  1  0.18054000  0.78722000  0.99172000  1.0
  H  H62  1  0.56018000  0.79060000  0.09885000  1.0
  H  H63  1  0.57669000  0.76543000  0.04433000  1.0
  H  H64  1  0.59272000  0.35424000  0.14615000  1.0
  H  H65  1  0.61806000  0.32295000  0.09426000  1.0
  H  H66  1  0.28616000  0.34704000  0.16753000  1.0
  H  H67  1  0.34873000  0.21126000  0.15937000  1.0
  H  H68  1  0.57610000  0.14772000  0.16597000  1.0
  H  H69  1  0.57232000  0.03174000  0.20026000  1.0
  H  H70  1  0.34742000  0.27522000  0.35151000  1.0
  H  H71  1  0.38490000  0.41161000  0.33402000  1.0
  C  C72  1  0.06893000  0.08895000  0.34724000  1.0
  C  C73  1  0.97786000  0.13947000  0.37879000  1.0
  C  C74  1  0.83867000  0.13607000  0.37069000  1.0
  C  C75  1  0.78945000  0.07808000  0.33175000  1.0
  C  C76  1  0.87984000  0.01656000  0.30009000  1.0
  C  C77  1  0.83344000  0.93969000  0.26326000  1.0
  C  C78  1  0.92359000  0.88906000  0.23146000  1.0
  C  C79  1  0.06115000  0.91472000  0.23436000  1.0
  C  C80  1  0.11059000  0.98651000  0.27003000  1.0
  C  C81  1  0.02219000  0.03132000  0.30579000  1.0
  C  C82  1  0.21155000  0.08077000  0.36338000  1.0
  C  C83  1  0.64216000  0.09685000  0.32173000  1.0
  C  C84  1  0.69214000  0.89639000  0.25975000  1.0
  C  C85  1  0.25314000  0.02723000  0.26533000  1.0
  C  C86  1  0.02937000  0.76383000  0.49325000  1.0
  C  C87  1  0.11992000  0.86013000  0.49336000  1.0
  C  C88  1  0.26517000  0.82369000  0.48326000  1.0
  C  C89  1  0.07174000  0.98661000  0.49968000  1.0
  C  C90  1  0.16020000  0.08849000  0.50547000  1.0
  C  C91  1  0.30752000  0.07012000  0.51536000  1.0
  C  C92  1  0.11015000  0.21083000  0.50610000  1.0
  C  C93  1  0.93107000  0.41105000  0.84724000  1.0
  C  C94  1  0.02214000  0.36052000  0.87879000  1.0
  C  C95  1  0.16134000  0.36392000  0.87069000  1.0
  C  C96  1  0.21055000  0.42192000  0.83175000  1.0
  C  C97  1  0.12017000  0.48344000  0.80009000  1.0
  C  C98  1  0.16656000  0.56032000  0.76326000  1.0
  C  C99  1  0.07640000  0.61094000  0.73146000  1.0
  C  C100  1  0.93884000  0.58527000  0.73436000  1.0
  C  C101  1  0.88941000  0.51349000  0.77003000  1.0
  C  C102  1  0.97781000  0.46867000  0.80579000  1.0
  C  C103  1  0.78845000  0.41922000  0.86338000  1.0
  C  C104  1  0.35784000  0.40315000  0.82173000  1.0
  C  C105  1  0.30785000  0.60362000  0.75975000  1.0
  C  C106  1  0.74687000  0.47277000  0.76533000  1.0
  C  C107  1  0.97063000  0.73617000  0.99326000  1.0
  C  C108  1  0.88008000  0.63987000  0.99336000  1.0
  C  C109  1  0.73483000  0.67631000  0.98327000  1.0
  C  C110  1  0.92826000  0.51339000  0.99968000  1.0
  C  C111  1  0.83980000  0.41151000  0.00547000  1.0
  C  C112  1  0.69248000  0.42988000  0.01536000  1.0
  C  C113  1  0.88985000  0.28917000  0.00609000  1.0
  C  C114  1  0.93107000  0.91106000  0.65276000  1.0
  C  C115  1  0.02214000  0.86053000  0.62121000  1.0
  C  C116  1  0.16133000  0.86393000  0.62930000  1.0
  C  C117  1  0.21055000  0.92192000  0.66824000  1.0
  C  C118  1  0.12017000  0.98344000  0.69991000  1.0
  C  C119  1  0.16656000  0.06031000  0.73674000  1.0
  C  C120  1  0.07641000  0.11093000  0.76854000  1.0
  C  C121  1  0.93884000  0.08527000  0.76564000  1.0
  C  C122  1  0.88941000  0.01349000  0.72997000  1.0
  C  C123  1  0.97781000  0.96868000  0.69421000  1.0
  C  C124  1  0.78845000  0.91923000  0.63661000  1.0
  C  C125  1  0.35784000  0.90316000  0.67827000  1.0
  C  C126  1  0.30786000  0.10362000  0.74025000  1.0
  C  C127  1  0.74686000  0.97277000  0.73467000  1.0
  C  C128  1  0.97063000  0.23617000  0.50675000  1.0
  C  C129  1  0.88008000  0.13987000  0.50664000  1.0
  C  C130  1  0.73483000  0.17632000  0.51674000  1.0
  C  C131  1  0.92826000  0.01339000  0.50032000  1.0
  C  C132  1  0.83980000  0.91151000  0.49453000  1.0
  C  C133  1  0.69248000  0.92988000  0.48464000  1.0
  C  C134  1  0.88985000  0.78917000  0.49390000  1.0
  C  C135  1  0.06893000  0.58895000  0.15276000  1.0
  C  C136  1  0.97786000  0.63948000  0.12121000  1.0
  C  C137  1  0.83866000  0.63608000  0.12931000  1.0
  C  C138  1  0.78944000  0.57808000  0.16825000  1.0
  C  C139  1  0.87984000  0.51655000  0.19991000  1.0
  C  C140  1  0.83344000  0.43968000  0.23674000  1.0
  C  C141  1  0.92360000  0.38906000  0.26854000  1.0
  C  C142  1  0.06116000  0.41472000  0.26564000  1.0
  C  C143  1  0.11059000  0.48651000  0.22997000  1.0
  C  C144  1  0.02219000  0.53132000  0.19421000  1.0
  C  C145  1  0.21155000  0.58078000  0.13662000  1.0
  C  C146  1  0.64216000  0.59684000  0.17827000  1.0
  C  C147  1  0.69215000  0.39638000  0.24025000  1.0
  C  C148  1  0.25314000  0.52723000  0.23467000  1.0
  C  C149  1  0.02937000  0.26383000  0.00675000  1.0
  C  C150  1  0.11992000  0.36013000  0.00665000  1.0
  C  C151  1  0.26518000  0.32369000  0.01674000  1.0
  C  C152  1  0.07174000  0.48661000  0.00032000  1.0
  C  C153  1  0.16020000  0.58849000  0.99453000  1.0
  C  C154  1  0.30752000  0.57012000  0.98464000  1.0
  C  C155  1  0.11015000  0.71083000  0.99391000  1.0
  O  O156  1  0.26113000  0.17139000  0.38611000  1.0
  O  O157  1  0.28051000  0.97845000  0.35913000  1.0
  O  O158  1  0.55816000  0.08649000  0.35395000  1.0
  O  O159  1  0.61021000  0.13025000  0.28083000  1.0
  O  O160  1  0.63380000  0.84911000  0.29496000  1.0
  O  O161  1  0.63313000  0.89525000  0.22061000  1.0
  O  O162  1  0.27779000  0.14086000  0.27427000  1.0
  O  O163  1  0.34117000  0.95026000  0.24926000  1.0
  O  O164  1  0.31493000  0.72801000  0.50254000  1.0
  O  O165  1  0.32512000  0.89111000  0.45317000  1.0
  O  O166  1  0.33986000  0.01243000  0.55245000  1.0
  O  O167  1  0.39195000  0.11965000  0.48862000  1.0
  O  O168  1  0.52094000  0.24852000  0.42741000  1.0
  O  O169  1  0.54656000  0.83030000  0.38274000  1.0
  O  O170  1  0.31264000  0.76637000  0.31664000  1.0
  O  O171  1  0.51983000  0.60676000  0.31126000  1.0
  O  O172  1  0.40771000  0.82277000  0.16914000  1.0
  O  O173  1  0.73887000  0.32861000  0.88611000  1.0
  O  O174  1  0.71950000  0.52154000  0.85913000  1.0
  O  O175  1  0.44184000  0.41351000  0.85395000  1.0
  O  O176  1  0.38980000  0.36974000  0.78083000  1.0
  O  O177  1  0.36621000  0.65089000  0.79496000  1.0
  O  O178  1  0.36686000  0.60474000  0.72062000  1.0
  O  O179  1  0.72221000  0.35915000  0.77427000  1.0
  O  O180  1  0.65883000  0.54975000  0.74926000  1.0
  O  O181  1  0.68507000  0.77199000  0.00254000  1.0
  O  O182  1  0.67488000  0.60889000  0.95317000  1.0
  O  O183  1  0.66014000  0.48757000  0.05245000  1.0
  O  O184  1  0.60804000  0.38035000  0.98862000  1.0
  O  O185  1  0.47906000  0.25148000  0.92741000  1.0
  O  O186  1  0.45345000  0.66970000  0.88275000  1.0
  O  O187  1  0.68736000  0.73363000  0.81664000  1.0
  O  O188  1  0.48016000  0.89324000  0.81126000  1.0
  O  O189  1  0.59228000  0.67722000  0.66914000  1.0
  O  O190  1  0.73887000  0.82860000  0.61389000  1.0
  O  O191  1  0.71950000  0.02155000  0.64087000  1.0
  O  O192  1  0.44184000  0.91352000  0.64605000  1.0
  O  O193  1  0.38979000  0.86974000  0.71917000  1.0
  O  O194  1  0.36621000  0.15090000  0.70504000  1.0
  O  O195  1  0.36687000  0.10474000  0.77938000  1.0
  O  O196  1  0.72221000  0.85914000  0.72573000  1.0
  O  O197  1  0.65883000  0.04974000  0.75074000  1.0
  O  O198  1  0.68507000  0.27198000  0.49746000  1.0
  O  O199  1  0.67488000  0.10889000  0.54684000  1.0
  O  O200  1  0.66013000  0.98757000  0.44755000  1.0
  O  O201  1  0.60804000  0.88035000  0.51138000  1.0
  O  O202  1  0.47906000  0.75148000  0.57259000  1.0
  O  O203  1  0.45344000  0.16970000  0.61726000  1.0
  O  O204  1  0.68736000  0.23363000  0.68336000  1.0
  O  O205  1  0.48017000  0.39324000  0.68874000  1.0
  O  O206  1  0.59229000  0.17723000  0.83086000  1.0
  O  O207  1  0.26113000  0.67140000  0.11389000  1.0
  O  O208  1  0.28051000  0.47846000  0.14087000  1.0
  O  O209  1  0.55816000  0.58648000  0.14605000  1.0
  O  O210  1  0.61021000  0.63025000  0.21917000  1.0
  O  O211  1  0.63379000  0.34911000  0.20504000  1.0
  O  O212  1  0.63313000  0.39526000  0.27938000  1.0
  O  O213  1  0.27779000  0.64085000  0.22573000  1.0
  O  O214  1  0.34117000  0.45025000  0.25074000  1.0
  O  O215  1  0.31493000  0.22801000  0.99746000  1.0
  O  O216  1  0.32513000  0.39112000  0.04683000  1.0
  O  O217  1  0.33986000  0.51243000  0.94755000  1.0
  O  O218  1  0.39196000  0.61965000  0.01137000  1.0
  O  O219  1  0.52095000  0.74852000  0.07259000  1.0
  O  O220  1  0.54655000  0.33030000  0.11725000  1.0
  O  O221  1  0.31264000  0.26637000  0.18336000  1.0
  O  O222  1  0.51984000  0.10676000  0.18874000  1.0
  O  O223  1  0.40772000  0.32278000  0.33086000  1.0
