# generated using pymatgen
data_AlH7C9O5
_symmetry_space_group_name_H-M   'P 1'
_cell_length_a   6.65680000
_cell_length_b   12.84930000
_cell_length_c   16.87960000
_cell_angle_alpha   89.98710000
_cell_angle_beta   90.78400000
_cell_angle_gamma   89.58040000
_symmetry_Int_Tables_number   1
_chemical_formula_structural   AlH7C9O5
_chemical_formula_sum   'Al4 H28 C36 O20'
_cell_volume   1443.62635102
_cell_formula_units_Z   4
loop_
 _symmetry_equiv_pos_site_id
 _symmetry_equiv_pos_as_xyz
  1  'x, y, z'
loop_
 _atom_site_type_symbol
 _atom_site_label
 _atom_site_symmetry_multiplicity
 _atom_site_fract_x
 _atom_site_fract_y
 _atom_site_fract_z
 _atom_site_occupancy
  Al  Al0  1  0.00689000  0.00641000  0.49661000  1.0
  Al  Al1  1  0.50695000  0.00812000  0.49889000  1.0
  Al  Al2  1  0.99210000  0.50924000  0.99830000  1.0
  Al  Al3  1  0.49240000  0.50468000  0.99762000  1.0
  H  H4  1  0.75572000  0.87619000  0.46936000  1.0
  H  H5  1  0.25304000  0.14042000  0.47531000  1.0
  H  H6  1  0.73383000  0.63368000  0.96115000  1.0
  H  H7  1  0.23542000  0.37773000  0.96678000  1.0
  H  H8  1  0.95570000  0.75767000  0.15619000  1.0
  H  H9  1  0.55220000  0.64843000  0.21035000  1.0
  H  H10  1  0.96895000  0.87011000  0.27783000  1.0
  H  H11  1  0.44902000  0.35729000  0.77757000  1.0
  H  H12  1  0.03628000  0.25084000  0.84960000  1.0
  H  H13  1  0.46948000  0.24399000  0.65695000  1.0
  H  H14  1  0.04706000  0.37054000  0.22136000  1.0
  H  H15  1  0.46537000  0.25990000  0.15070000  1.0
  H  H16  1  0.03517000  0.25711000  0.34210000  1.0
  H  H17  1  0.94832000  0.64808000  0.77010000  1.0
  H  H18  1  0.52817000  0.75559000  0.84674000  1.0
  H  H19  1  0.97187000  0.76126000  0.64938000  1.0
  H  H20  1  0.70278000  0.82355000  0.34670000  1.0
  H  H21  1  0.58630000  0.73115000  0.40788000  1.0
  H  H22  1  0.72149000  0.68923000  0.32287000  1.0
  H  H23  1  0.20641000  0.12239000  0.78534000  1.0
  H  H24  1  0.06335000  0.03167000  0.72862000  1.0
  H  H25  1  0.19354000  0.13038000  0.67972000  1.0
  H  H26  1  0.31178000  0.12468000  0.21194000  1.0
  H  H27  1  0.45392000  0.03957000  0.27483000  1.0
  H  H28  1  0.30973000  0.13953000  0.31677000  1.0
  H  H29  1  0.69343000  0.87461000  0.67923000  1.0
  H  H30  1  0.55564000  0.97410000  0.72494000  1.0
  H  H31  1  0.69603000  0.88454000  0.78481000  1.0
  C  C32  1  0.26206000  0.88593000  0.60710000  1.0
  C  C33  1  0.25698000  0.88672000  0.38573000  1.0
  C  C34  1  0.75025000  0.13052000  0.38782000  1.0
  C  C35  1  0.76137000  0.12152000  0.61136000  1.0
  C  C36  1  0.23182000  0.62703000  0.88684000  1.0
  C  C37  1  0.25338000  0.62820000  0.10515000  1.0
  C  C38  1  0.75616000  0.39059000  0.10831000  1.0
  C  C39  1  0.73591000  0.38084000  0.89089000  1.0
  C  C40  1  0.26412000  0.81962000  0.31351000  1.0
  C  C41  1  0.25442000  0.69651000  0.17665000  1.0
  C  C42  1  0.43382000  0.75720000  0.29533000  1.0
  C  C43  1  0.08783000  0.75861000  0.19499000  1.0
  C  C44  1  0.42444000  0.69730000  0.22627000  1.0
  C  C45  1  0.09514000  0.81998000  0.26271000  1.0
  C  C46  1  0.76309000  0.18433000  0.68583000  1.0
  C  C47  1  0.74357000  0.31137000  0.82015000  1.0
  C  C48  1  0.92637000  0.18337000  0.74060000  1.0
  C  C49  1  0.58101000  0.30911000  0.76663000  1.0
  C  C50  1  0.91260000  0.24885000  0.80660000  1.0
  C  C51  1  0.59271000  0.24632000  0.69998000  1.0
  C  C52  1  0.74498000  0.19444000  0.31385000  1.0
  C  C53  1  0.75444000  0.32236000  0.17977000  1.0
  C  C54  1  0.58115000  0.19232000  0.25932000  1.0
  C  C55  1  0.91790000  0.32152000  0.23289000  1.0
  C  C56  1  0.58952000  0.25836000  0.19352000  1.0
  C  C57  1  0.91099000  0.25828000  0.29945000  1.0
  C  C58  1  0.26184000  0.82139000  0.68072000  1.0
  C  C59  1  0.23926000  0.69455000  0.81501000  1.0
  C  C60  1  0.42235000  0.82248000  0.73674000  1.0
  C  C61  1  0.07962000  0.69620000  0.76011000  1.0
  C  C62  1  0.40708000  0.75708000  0.80262000  1.0
  C  C63  1  0.09299000  0.75890000  0.69340000  1.0
  C  C64  1  0.62113000  0.74970000  0.34600000  1.0
  C  C65  1  0.10777000  0.11367000  0.73320000  1.0
  C  C66  1  0.40457000  0.12051000  0.26607000  1.0
  C  C67  1  0.60209000  0.89227000  0.73118000  1.0
  O  O68  1  0.09183000  0.90861000  0.57598000  1.0
  O  O69  1  0.42443000  0.91357000  0.41653000  1.0
  O  O70  1  0.58284000  0.10608000  0.41822000  1.0
  O  O71  1  0.92865000  0.09640000  0.58119000  1.0
  O  O72  1  0.92298000  0.10615000  0.41641000  1.0
  O  O73  1  0.58961000  0.09918000  0.58194000  1.0
  O  O74  1  0.43070000  0.91276000  0.57948000  1.0
  O  O75  1  0.08444000  0.91298000  0.41159000  1.0
  O  O76  1  0.75741000  0.94346000  0.49522000  1.0
  O  O77  1  0.25519000  0.07122000  0.49799000  1.0
  O  O78  1  0.06093000  0.59135000  0.90613000  1.0
  O  O79  1  0.42014000  0.58645000  0.08670000  1.0
  O  O80  1  0.59175000  0.40167000  0.06964000  1.0
  O  O81  1  0.90057000  0.39827000  0.92798000  1.0
  O  O82  1  0.92232000  0.43247000  0.09062000  1.0
  O  O83  1  0.56407000  0.41788000  0.90886000  1.0
  O  O84  1  0.39739000  0.61047000  0.92385000  1.0
  O  O85  1  0.08765000  0.61643000  0.06771000  1.0
  O  O86  1  0.73993000  0.57209000  0.99427000  1.0
  O  O87  1  0.24125000  0.44192000  0.99681000  1.0
