# generated using pymatgen
data_ZnH9C24I5NO4
_symmetry_space_group_name_H-M   'P 1'
_cell_length_a   10.46310000
_cell_length_b   11.28070174
_cell_length_c   13.22170000
_cell_angle_alpha   89.14458218
_cell_angle_beta   75.18760000
_cell_angle_gamma   62.99644774
_symmetry_Int_Tables_number   1
_chemical_formula_structural   ZnH9C24I5NO4
_chemical_formula_sum   'Zn2 H18 C48 I10 N2 O8'
_cell_volume   1334.92865137
_cell_formula_units_Z   2
loop_
 _symmetry_equiv_pos_site_id
 _symmetry_equiv_pos_as_xyz
  1  'x, y, z'
loop_
 _atom_site_type_symbol
 _atom_site_label
 _atom_site_symmetry_multiplicity
 _atom_site_fract_x
 _atom_site_fract_y
 _atom_site_fract_z
 _atom_site_occupancy
  Zn  Zn0  1  0.91347000  0.65147000  0.50741000  1.0
  Zn  Zn1  1  0.08654000  0.34853000  0.49258000  1.0
  H  H2  1  0.36064000  0.02126000  0.71331000  1.0
  H  H3  1  0.63933000  0.97876000  0.28669000  1.0
  H  H4  1  0.12196000  0.73777000  0.55563000  1.0
  H  H5  1  0.87807000  0.26224000  0.44431000  1.0
  H  H6  1  0.07199000  0.88050000  0.71328000  1.0
  H  H7  1  0.92800000  0.11950000  0.28669000  1.0
  H  H8  1  0.78841000  0.69023000  0.82604000  1.0
  H  H9  1  0.21158000  0.30982000  0.17395000  1.0
  H  H10  1  0.84572000  0.79291000  0.19025000  1.0
  H  H11  1  0.08831000  0.71971000  0.05570000  1.0
  H  H12  1  0.29725000  0.73504000  0.10206000  1.0
  H  H13  1  0.26119000  0.82279000  0.28440000  1.0
  H  H14  1  0.01921000  0.89119000  0.42031000  1.0
  H  H15  1  0.15428000  0.20710000  0.80976000  1.0
  H  H16  1  0.91169000  0.28028000  0.94432000  1.0
  H  H17  1  0.70277000  0.26494000  0.89794000  1.0
  H  H18  1  0.73880000  0.17721000  0.71560000  1.0
  H  H19  1  0.98077000  0.10884000  0.57970000  1.0
  C  C20  1  0.97780000  0.48302000  0.31103000  1.0
  C  C21  1  0.02219000  0.51702000  0.68897000  1.0
  C  C22  1  0.00541000  0.52710000  0.80582000  1.0
  C  C23  1  0.99458000  0.47295000  0.19418000  1.0
  C  C24  1  0.17075000  0.35858000  0.02404000  1.0
  C  C25  1  0.82927000  0.64144000  0.97596000  1.0
  C  C26  1  0.13500000  0.37687000  0.13214000  1.0
  C  C27  1  0.86499000  0.62318000  0.86784000  1.0
  C  C28  1  0.88629000  0.54801000  0.14425000  1.0
  C  C29  1  0.11370000  0.45199000  0.85574000  1.0
  C  C30  1  0.92465000  0.54943000  0.03231000  1.0
  C  C31  1  0.07535000  0.45057000  0.96767000  1.0
  C  C32  1  0.36261000  0.04144000  0.63225000  1.0
  C  C33  1  0.63740000  0.95856000  0.36774000  1.0
  C  C34  1  0.22925000  0.11007000  0.60649000  1.0
  C  C35  1  0.77076000  0.88993000  0.39350000  1.0
  C  C36  1  0.35646000  0.07828000  0.42760000  1.0
  C  C37  1  0.64355000  0.92172000  0.57240000  1.0
  C  C38  1  0.49990000  0.00695000  0.44610000  1.0
  C  C39  1  0.50011000  0.99305000  0.55389000  1.0
  C  C40  1  0.24910000  0.50465000  0.44326000  1.0
  C  C41  1  0.75088000  0.49533000  0.55673000  1.0
  C  C42  1  0.20945000  0.71494000  0.59354000  1.0
  C  C43  1  0.79054000  0.28506000  0.40645000  1.0
  C  C44  1  0.18119000  0.79401000  0.68208000  1.0
  C  C45  1  0.81878000  0.20597000  0.31790000  1.0
  C  C46  1  0.29129000  0.75942000  0.73700000  1.0
  C  C47  1  0.70868000  0.24057000  0.26299000  1.0
  C  C48  1  0.43274000  0.65392000  0.69596000  1.0
  C  C49  1  0.56724000  0.34609000  0.30402000  1.0
  C  C50  1  0.47216000  0.58102000  0.59414000  1.0
  C  C51  1  0.52785000  0.41896000  0.40584000  1.0
  C  C52  1  0.35300000  0.60389000  0.54771000  1.0
  C  C53  1  0.64700000  0.39609000  0.45227000  1.0
  C  C54  1  0.61894000  0.48353000  0.54097000  1.0
  C  C55  1  0.38107000  0.51644000  0.45901000  1.0
  C  C56  1  0.91585000  0.84692000  0.31439000  1.0
  C  C57  1  0.93656000  0.80017000  0.21072000  1.0
  C  C58  1  0.07321000  0.75846000  0.13531000  1.0
  C  C59  1  0.19031000  0.76706000  0.16143000  1.0
  C  C60  1  0.16998000  0.81612000  0.26383000  1.0
  C  C61  1  0.03431000  0.85455000  0.34016000  1.0
  C  C62  1  0.08415000  0.15310000  0.68561000  1.0
  C  C63  1  0.06344000  0.19983000  0.78930000  1.0
  C  C64  1  0.92678000  0.24154000  0.86471000  1.0
  C  C65  1  0.80970000  0.23293000  0.83858000  1.0
  C  C66  1  0.83001000  0.18387000  0.73618000  1.0
  C  C67  1  0.96568000  0.14547000  0.65985000  1.0
  I  I68  1  0.78042000  0.12839000  0.11592000  1.0
  I  I69  1  0.21950000  0.87159000  0.88408000  1.0
  I  I70  1  0.57503000  0.57778000  0.79458000  1.0
  I  I71  1  0.42497000  0.42224000  0.20540000  1.0
  I  I72  1  0.33765000  0.37369000  0.76212000  1.0
  I  I73  1  0.66235000  0.62629000  0.23787000  1.0
  I  I74  1  0.35035000  0.16417000  0.96287000  1.0
  I  I75  1  0.64966000  0.83583000  0.03713000  1.0
  I  I76  1  0.65614000  0.91876000  0.72881000  1.0
  I  I77  1  0.34384000  0.08125000  0.27118000  1.0
  N  N78  1  0.77094000  0.86364000  0.49635000  1.0
  N  N79  1  0.22907000  0.13637000  0.50365000  1.0
  O  O80  1  0.90566000  0.59946000  0.36042000  1.0
  O  O81  1  0.09429000  0.40057000  0.63958000  1.0
  O  O82  1  0.04618000  0.37386000  0.34769000  1.0
  O  O83  1  0.95384000  0.62616000  0.65230000  1.0
  O  O84  1  0.12990000  0.60947000  0.44295000  1.0
  O  O85  1  0.87009000  0.39051000  0.55703000  1.0
  O  O86  1  0.26564000  0.38544000  0.44242000  1.0
  O  O87  1  0.73436000  0.61451000  0.55759000  1.0
