# generated using pymatgen
data_AlH18C21(N3O2)3
_symmetry_space_group_name_H-M   'P 1'
_cell_length_a   3.92957000
_cell_length_b   27.97040000
_cell_length_c   27.97040000
_cell_angle_alpha   60.00000000
_cell_angle_beta   89.99950000
_cell_angle_gamma   90.00020000
_symmetry_Int_Tables_number   1
_chemical_formula_structural   AlH18C21(N3O2)3
_chemical_formula_sum   'Al2 H36 C42 N18 O12'
_cell_volume   2662.39822818
_cell_formula_units_Z   2
loop_
 _symmetry_equiv_pos_site_id
 _symmetry_equiv_pos_as_xyz
  1  'x, y, z'
loop_
 _atom_site_type_symbol
 _atom_site_label
 _atom_site_symmetry_multiplicity
 _atom_site_fract_x
 _atom_site_fract_y
 _atom_site_fract_z
 _atom_site_occupancy
  Al  Al0  1  0.01140000  0.50000000  0.00000000  1.0
  Al  Al1  1  0.07316000  0.16667000  0.66666000  1.0
  H  H2  1  0.84474000  0.29883000  0.51112000  1.0
  H  H3  1  0.82526000  0.34904000  0.40739000  1.0
  H  H4  1  0.28410000  0.45323000  0.25380000  1.0
  H  H5  1  0.82804000  0.31627000  0.26162000  1.0
  H  H6  1  0.84474000  0.19005000  0.79883000  1.0
  H  H7  1  0.82529000  0.24357000  0.84904000  1.0
  H  H8  1  0.28414000  0.29297000  0.95323000  1.0
  H  H9  1  0.82810000  0.42212000  0.81627000  1.0
  H  H10  1  0.84472000  0.01112000  0.69005000  1.0
  H  H11  1  0.82525000  0.90739000  0.74357000  1.0
  H  H12  1  0.28411000  0.75379000  0.79298000  1.0
  H  H13  1  0.82804000  0.76161000  0.92212000  1.0
  H  H14  1  0.23165000  0.13473000  0.56386000  1.0
  H  H15  1  0.23104000  0.13011000  0.50423000  1.0
  H  H16  1  0.23428000  0.23084000  0.36794000  1.0
  H  H17  1  0.01288000  0.18785000  0.42516000  1.0
  H  H18  1  0.12419000  0.51900000  0.10785000  1.0
  H  H19  1  0.03494000  0.51667000  0.16907000  1.0
  H  H20  1  0.90614000  0.37799000  0.11427000  1.0
  H  H21  1  0.02756000  0.32543000  0.17812000  1.0
  H  H22  1  0.23164000  0.30142000  0.63473000  1.0
  H  H23  1  0.23102000  0.36566000  0.63012000  1.0
  H  H24  1  0.23428000  0.40122000  0.73085000  1.0
  H  H25  1  0.01286000  0.38699000  0.68786000  1.0
  H  H26  1  0.12417000  0.37315000  0.01901000  1.0
  H  H27  1  0.03493000  0.31426000  0.01666000  1.0
  H  H28  1  0.90616000  0.50774000  0.87799000  1.0
  H  H29  1  0.02760000  0.49645000  0.82544000  1.0
  H  H30  1  0.23164000  0.06385000  0.80142000  1.0
  H  H31  1  0.23103000  0.00422000  0.86567000  1.0
  H  H32  1  0.23429000  0.86793000  0.90123000  1.0
  H  H33  1  0.01287000  0.92515000  0.88700000  1.0
  H  H34  1  0.12418000  0.60784000  0.87316000  1.0
  H  H35  1  0.03493000  0.66907000  0.81427000  1.0
  H  H36  1  0.90615000  0.61427000  0.00774000  1.0
  H  H37  1  0.02757000  0.67812000  0.99645000  1.0
  C  C38  1  0.51413000  0.58663000  0.95388000  1.0
  C  C39  1  0.51413000  0.45949000  0.08663000  1.0
  C  C40  1  0.51413000  0.45388000  0.95949000  1.0
  C  C41  1  0.57199000  0.20237000  0.58132000  1.0
  C  C42  1  0.57200000  0.21631000  0.70238000  1.0
  C  C43  1  0.57198000  0.08131000  0.71632000  1.0
  C  C44  1  0.55055000  0.22973000  0.52082000  1.0
  C  C45  1  0.71090000  0.28167000  0.48905000  1.0
  C  C46  1  0.70297000  0.30914000  0.43229000  1.0
  C  C47  1  0.54239000  0.28402000  0.40523000  1.0
  C  C48  1  0.39035000  0.23146000  0.43569000  1.0
  C  C49  1  0.38652000  0.20412000  0.49446000  1.0
  C  C50  1  0.39896000  0.43398000  0.23213000  1.0
  C  C51  1  0.55244000  0.38233000  0.26262000  1.0
  C  C52  1  0.69892000  0.35562000  0.23679000  1.0
  C  C53  1  0.70029000  0.38123000  0.17909000  1.0
  C  C54  1  0.52591000  0.43297000  0.14674000  1.0
  C  C55  1  0.36675000  0.45843000  0.17470000  1.0
  C  C56  1  0.55055000  0.24945000  0.72973000  1.0
  C  C57  1  0.71091000  0.22928000  0.78167000  1.0
  C  C58  1  0.70300000  0.25857000  0.80914000  1.0
  C  C59  1  0.54242000  0.31075000  0.78402000  1.0
  C  C60  1  0.39037000  0.33285000  0.73147000  1.0
  C  C61  1  0.38652000  0.30142000  0.70412000  1.0
  C  C62  1  0.39900000  0.33390000  0.93398000  1.0
  C  C63  1  0.55250000  0.35505000  0.88233000  1.0
  C  C64  1  0.69900000  0.40759000  0.85562000  1.0
  C  C65  1  0.70033000  0.43968000  0.88123000  1.0
  C  C66  1  0.52594000  0.42030000  0.93296000  1.0
  C  C67  1  0.36677000  0.36687000  0.95843000  1.0
  C  C68  1  0.55054000  0.02082000  0.74945000  1.0
  C  C69  1  0.71088000  0.98905000  0.72928000  1.0
  C  C70  1  0.70298000  0.93229000  0.75857000  1.0
  C  C71  1  0.54239000  0.90522000  0.81076000  1.0
  C  C72  1  0.39034000  0.93568000  0.83286000  1.0
  C  C73  1  0.38650000  0.99446000  0.80142000  1.0
  C  C74  1  0.39897000  0.73212000  0.83390000  1.0
  C  C75  1  0.55245000  0.76262000  0.85505000  1.0
  C  C76  1  0.69894000  0.73679000  0.90759000  1.0
  C  C77  1  0.70029000  0.67909000  0.93968000  1.0
  C  C78  1  0.52591000  0.64674000  0.92030000  1.0
  C  C79  1  0.36675000  0.67470000  0.86687000  1.0
  N  N80  1  0.52009000  0.30781000  0.34784000  1.0
  N  N81  1  0.55775000  0.35984000  0.32036000  1.0
  N  N82  1  0.52015000  0.34435000  0.80781000  1.0
  N  N83  1  0.55782000  0.31981000  0.85984000  1.0
  N  N84  1  0.52011000  0.84784000  0.84435000  1.0
  N  N85  1  0.55776000  0.82035000  0.81981000  1.0
  N  N86  1  0.22158000  0.15410000  0.52192000  1.0
  N  N87  1  0.24423000  0.20519000  0.40965000  1.0
  N  N88  1  0.20234000  0.50849000  0.14651000  1.0
  N  N89  1  0.84941000  0.35390000  0.15499000  1.0
  N  N90  1  0.22159000  0.32398000  0.65411000  1.0
  N  N91  1  0.24424000  0.38516000  0.70520000  1.0
  N  N92  1  0.20233000  0.34500000  0.00848000  1.0
  N  N93  1  0.84945000  0.49111000  0.85390000  1.0
  N  N94  1  0.22157000  0.02192000  0.82398000  1.0
  N  N95  1  0.24424000  0.90964000  0.88516000  1.0
  N  N96  1  0.20234000  0.64651000  0.84500000  1.0
  N  N97  1  0.84941000  0.65499000  0.99111000  1.0
  O  O98  1  0.27677000  0.44536000  0.99487000  1.0
  O  O99  1  0.27678000  0.55977000  0.94536000  1.0
  O  O100  1  0.27677000  0.49487000  0.05977000  1.0
  O  O101  1  0.74164000  0.49166000  0.94750000  1.0
  O  O102  1  0.74163000  0.44749000  0.06085000  1.0
  O  O103  1  0.74164000  0.56085000  0.99166000  1.0
  O  O104  1  0.34643000  0.11027000  0.72410000  1.0
  O  O105  1  0.34645000  0.16563000  0.61027000  1.0
  O  O106  1  0.34645000  0.22410000  0.66563000  1.0
  O  O107  1  0.81331000  0.10291000  0.68111000  1.0
  O  O108  1  0.81331000  0.18112000  0.71597000  1.0
  O  O109  1  0.81332000  0.21598000  0.60290000  1.0
