# generated using pymatgen
data_CuH9C11IN3O
_symmetry_space_group_name_H-M   'P 1'
_cell_length_a   8.58251000
_cell_length_b   8.93130000
_cell_length_c   9.15126000
_cell_angle_alpha   70.09560000
_cell_angle_beta   69.58860000
_cell_angle_gamma   85.25800000
_symmetry_Int_Tables_number   1
_chemical_formula_structural   CuH9C11IN3O
_chemical_formula_sum   'Cu2 H18 C22 I2 N6 O2'
_cell_volume   617.63635822
_cell_formula_units_Z   2
loop_
 _symmetry_equiv_pos_site_id
 _symmetry_equiv_pos_as_xyz
  1  'x, y, z'
loop_
 _atom_site_type_symbol
 _atom_site_label
 _atom_site_symmetry_multiplicity
 _atom_site_fract_x
 _atom_site_fract_y
 _atom_site_fract_z
 _atom_site_occupancy
  Cu  Cu0  1  0.43446000  0.38930000  0.13600000  1.0
  Cu  Cu1  1  0.56554000  0.61069000  0.86400000  1.0
  H  H2  1  0.22604000  0.37616000  0.46670000  1.0
  H  H3  1  0.77396000  0.62385000  0.53329000  1.0
  H  H4  1  0.24323000  0.29630000  0.74924000  1.0
  H  H5  1  0.75678000  0.70371000  0.25075000  1.0
  H  H6  1  0.51766000  0.21397000  0.78752000  1.0
  H  H7  1  0.48234000  0.78604000  0.21248000  1.0
  H  H8  1  0.72521000  0.29897000  0.26121000  1.0
  H  H9  1  0.27479000  0.70102000  0.73879000  1.0
  H  H10  1  0.03971000  0.13481000  0.70148000  1.0
  H  H11  1  0.96029000  0.86519000  0.29852000  1.0
  H  H12  1  0.05559000  0.86766000  0.90933000  1.0
  H  H13  1  0.94442000  0.13234000  0.09066000  1.0
  H  H14  1  0.84823000  0.64995000  0.98183000  1.0
  H  H15  1  0.15177000  0.35005000  0.01817000  1.0
  H  H16  1  0.61553000  0.94144000  0.66702000  1.0
  H  H17  1  0.38447000  0.05856000  0.33298000  1.0
  H  H18  1  0.03697000  0.48841000  0.27809000  1.0
  H  H19  1  0.96303000  0.51159000  0.72191000  1.0
  C  C20  1  0.34267000  0.33885000  0.48786000  1.0
  C  C21  1  0.65733000  0.66116000  0.51214000  1.0
  C  C22  1  0.35315000  0.29322000  0.64517000  1.0
  C  C23  1  0.64685000  0.70679000  0.35483000  1.0
  C  C24  1  0.50500000  0.24753000  0.66605000  1.0
  C  C25  1  0.49500000  0.75247000  0.33395000  1.0
  C  C26  1  0.64411000  0.25131000  0.52652000  1.0
  C  C27  1  0.35589000  0.74869000  0.47348000  1.0
  C  C28  1  0.62206000  0.29652000  0.37313000  1.0
  C  C29  1  0.37794000  0.70348000  0.62687000  1.0
  C  C30  1  0.81002000  0.20982000  0.54212000  1.0
  C  C31  1  0.18998000  0.79018000  0.45789000  1.0
  C  C32  1  0.82637000  0.05895000  0.66684000  1.0
  C  C33  1  0.17363000  0.94105000  0.33317000  1.0
  C  C34  1  0.95181000  0.03685000  0.73707000  1.0
  C  C35  1  0.04818000  0.96315000  0.26293000  1.0
  C  C36  1  0.95997000  0.88986000  0.85204000  1.0
  C  C37  1  0.04003000  0.11013000  0.14795000  1.0
  C  C38  1  0.84422000  0.76805000  0.89443000  1.0
  C  C39  1  0.15578000  0.23195000  0.10556000  1.0
  C  C40  1  0.71492000  0.93049000  0.71796000  1.0
  C  C41  1  0.28508000  0.06951000  0.28204000  1.0
  I  I42  1  0.27840000  0.65717000  0.07492000  1.0
  I  I43  1  0.72160000  0.34283000  0.92509000  1.0
  N  N44  1  0.47456000  0.33894000  0.35332000  1.0
  N  N45  1  0.52544000  0.66106000  0.64667000  1.0
  N  N46  1  0.72306000  0.78754000  0.82835000  1.0
  N  N47  1  0.27694000  0.21246000  0.17165000  1.0
  N  N48  1  0.94588000  0.29728000  0.45393000  1.0
  N  N49  1  0.05412000  0.70273000  0.54607000  1.0
  O  O50  1  0.92285000  0.43909000  0.34061000  1.0
  O  O51  1  0.07714000  0.56090000  0.65940000  1.0
