# generated using pymatgen
data_CdH24C20(SN4)2
_symmetry_space_group_name_H-M   'P 1'
_cell_length_a   9.10244000
_cell_length_b   10.82230000
_cell_length_c   12.33050000
_cell_angle_alpha   89.99990000
_cell_angle_beta   90.00000000
_cell_angle_gamma   108.61200000
_symmetry_Int_Tables_number   1
_chemical_formula_structural   CdH24C20(SN4)2
_chemical_formula_sum   'Cd2 H48 C40 S4 N16'
_cell_volume   1151.14409156
_cell_formula_units_Z   2
loop_
 _symmetry_equiv_pos_site_id
 _symmetry_equiv_pos_as_xyz
  1  'x, y, z'
loop_
 _atom_site_type_symbol
 _atom_site_label
 _atom_site_symmetry_multiplicity
 _atom_site_fract_x
 _atom_site_fract_y
 _atom_site_fract_z
 _atom_site_occupancy
  Cd  Cd0  1  0.81668000  0.74964000  0.67782000  1.0
  Cd  Cd1  1  0.18332000  0.25036000  0.17782000  1.0
  H  H2  1  0.62963000  0.55671000  0.87562000  1.0
  H  H3  1  0.37037000  0.44329000  0.37562000  1.0
  H  H4  1  0.13586000  0.43958000  0.82244000  1.0
  H  H5  1  0.86414000  0.56042000  0.32244000  1.0
  H  H6  1  0.18851000  0.58759000  0.66116000  1.0
  H  H7  1  0.81148000  0.41241000  0.16117000  1.0
  H  H8  1  0.46362000  0.71932000  0.61872000  1.0
  H  H9  1  0.53638000  0.28068000  0.11872000  1.0
  H  H10  1  0.31662000  0.29557000  0.93024000  1.0
  H  H11  1  0.68338000  0.70443000  0.43024000  1.0
  H  H12  1  0.46675000  0.41128000  0.00000000  1.0
  H  H13  1  0.53325000  0.58872000  0.50000000  1.0
  H  H14  1  0.13825000  0.40358000  0.00401000  1.0
  H  H15  1  0.86175000  0.59642000  0.50401000  1.0
  H  H16  1  0.28046000  0.50208000  0.07690000  1.0
  H  H17  1  0.71954000  0.49792000  0.57690000  1.0
  H  H18  1  0.97531000  0.89721000  0.45333000  1.0
  H  H19  1  0.02469000  0.10279000  0.95333000  1.0
  H  H20  1  0.47330000  0.02979000  0.48371000  1.0
  H  H21  1  0.52669000  0.97021000  0.98371000  1.0
  H  H22  1  0.44058000  0.91770000  0.66364000  1.0
  H  H23  1  0.55942000  0.08230000  0.16364000  1.0
  H  H24  1  0.17056000  0.80158000  0.73103000  1.0
  H  H25  1  0.82944000  0.19842000  0.23103000  1.0
  H  H26  1  0.35433000  0.12151000  0.34621000  1.0
  H  H27  1  0.64567000  0.87849000  0.84621000  1.0
  H  H28  1  0.25450000  0.97522000  0.27938000  1.0
  H  H29  1  0.74550000  0.02478000  0.77939000  1.0
  H  H30  1  0.08300000  0.13424000  0.38042000  1.0
  H  H31  1  0.91700000  0.86576000  0.88042000  1.0
  H  H32  1  0.02160000  0.01435000  0.29088000  1.0
  H  H33  1  0.97840000  0.98565000  0.79088000  1.0
  H  H34  1  0.68944000  0.90110000  0.32102000  1.0
  H  H35  1  0.31057000  0.09890000  0.82102000  1.0
  H  H36  1  0.53672000  0.63574000  0.05386000  1.0
  H  H37  1  0.46328000  0.36426000  0.55386000  1.0
  H  H38  1  0.81880000  0.66351000  0.01620000  1.0
  H  H39  1  0.18119000  0.33648000  0.51621000  1.0
  H  H40  1  0.02007000  0.81051000  0.13523000  1.0
  H  H41  1  0.97992000  0.18949000  0.63524000  1.0
  H  H42  1  0.40176000  0.70550000  0.30497000  1.0
  H  H43  1  0.59824000  0.29450000  0.80496000  1.0
  H  H44  1  0.41984000  0.85075000  0.23505000  1.0
  H  H45  1  0.58016000  0.14925000  0.73505000  1.0
  H  H46  1  0.20506000  0.63906000  0.19061000  1.0
  H  H47  1  0.79494000  0.36094000  0.69061000  1.0
  H  H48  1  0.28963000  0.72969000  0.08730000  1.0
  H  H49  1  0.71037000  0.27031000  0.58730000  1.0
  C  C50  1  0.89734000  0.53085000  0.85239000  1.0
  C  C51  1  0.10266000  0.46914000  0.35238000  1.0
  C  C52  1  0.74619000  0.99212000  0.52447000  1.0
  C  C53  1  0.25382000  0.00788000  0.02446000  1.0
  C  C54  1  0.52814000  0.56278000  0.83153000  1.0
  C  C55  1  0.47186000  0.43722000  0.33153000  1.0
  C  C56  1  0.37915000  0.48782000  0.86345000  1.0
  C  C57  1  0.62085000  0.51218000  0.36345000  1.0
  C  C58  1  0.25443000  0.49726000  0.80140000  1.0
  C  C59  1  0.74557000  0.50274000  0.30140000  1.0
  C  C60  1  0.28280000  0.58012000  0.71223000  1.0
  C  C61  1  0.71720000  0.41988000  0.21223000  1.0
  C  C62  1  0.43537000  0.65209000  0.68722000  1.0
  C  C63  1  0.56463000  0.34791000  0.18722000  1.0
  C  C64  1  0.35520000  0.39696000  0.95924000  1.0
  C  C65  1  0.64480000  0.60304000  0.45924000  1.0
  C  C66  1  0.08180000  0.90338000  0.49682000  1.0
  C  C67  1  0.91820000  0.09662000  0.99682000  1.0
  C  C68  1  0.22661000  0.97116000  0.45296000  1.0
  C  C69  1  0.77339000  0.02884000  0.95296000  1.0
  C  C70  1  0.35774000  0.97570000  0.51401000  1.0
  C  C71  1  0.64226000  0.02430000  0.01401000  1.0
  C  C72  1  0.33999000  0.91392000  0.61435000  1.0
  C  C73  1  0.66001000  0.08608000  0.11435000  1.0
  C  C74  1  0.19110000  0.84944000  0.65206000  1.0
  C  C75  1  0.80890000  0.15056000  0.15206000  1.0
  C  C76  1  0.24414000  0.04074000  0.34526000  1.0
  C  C77  1  0.75586000  0.95925000  0.84526000  1.0
  C  C78  1  0.71293000  0.84394000  0.25383000  1.0
  C  C79  1  0.28708000  0.15606000  0.75383000  1.0
  C  C80  1  0.59013000  0.76260000  0.19254000  1.0
  C  C81  1  0.40986000  0.23740000  0.69254000  1.0
  C  C82  1  0.62865000  0.69774000  0.10473000  1.0
  C  C83  1  0.37134000  0.30225000  0.60473000  1.0
  C  C84  1  0.78435000  0.71396000  0.08329000  1.0
  C  C85  1  0.21564000  0.28603000  0.58329000  1.0
  C  C86  1  0.89738000  0.79513000  0.15051000  1.0
  C  C87  1  0.10262000  0.20486000  0.65051000  1.0
  C  C88  1  0.42604000  0.75091000  0.22410000  1.0
  C  C89  1  0.57396000  0.24909000  0.72410000  1.0
  S  S90  1  0.86685000  0.40577000  0.93249000  1.0
  S  S91  1  0.13315000  0.59423000  0.43249000  1.0
  S  S92  1  0.78301000  0.12627000  0.45476000  1.0
  S  S93  1  0.21700000  0.87373000  0.95476000  1.0
  N  N94  1  0.91874000  0.62142000  0.79283000  1.0
  N  N95  1  0.08126000  0.37858000  0.29283000  1.0
  N  N96  1  0.71789000  0.89301000  0.57418000  1.0
  N  N97  1  0.28211000  0.10700000  0.07417000  1.0
  N  N98  1  0.55645000  0.64354000  0.74568000  1.0
  N  N99  1  0.44355000  0.35647000  0.24568000  1.0
  N  N100  1  0.24245000  0.41081000  0.04014000  1.0
  N  N101  1  0.75755000  0.58919000  0.54014000  1.0
  N  N102  1  0.06443000  0.84447000  0.59411000  1.0
  N  N103  1  0.93557000  0.15553000  0.09411000  1.0
  N  N104  1  0.11758000  0.09098000  0.31562000  1.0
  N  N105  1  0.88242000  0.90902000  0.81562000  1.0
  N  N106  1  0.86278000  0.86028000  0.23457000  1.0
  N  N107  1  0.13723000  0.13972000  0.73457000  1.0
  N  N108  1  0.30756000  0.67268000  0.14937000  1.0
  N  N109  1  0.69244000  0.32732000  0.64937000  1.0
