# generated using pymatgen
data_MnH8C16(NO2)4
_symmetry_space_group_name_H-M   'P 1'
_cell_length_a   8.29004000
_cell_length_b   11.82940000
_cell_length_c   16.45000000
_cell_angle_alpha   90.00000000
_cell_angle_beta   90.00000000
_cell_angle_gamma   93.10110000
_symmetry_Int_Tables_number   1
_chemical_formula_structural   MnH8C16(NO2)4
_chemical_formula_sum   'Mn4 H32 C64 N16 O32'
_cell_volume   1610.82667397
_cell_formula_units_Z   4
loop_
 _symmetry_equiv_pos_site_id
 _symmetry_equiv_pos_as_xyz
  1  'x, y, z'
loop_
 _atom_site_type_symbol
 _atom_site_label
 _atom_site_symmetry_multiplicity
 _atom_site_fract_x
 _atom_site_fract_y
 _atom_site_fract_z
 _atom_site_occupancy
  Mn  Mn0  1  0.99809000  0.81900000  0.43677000  1.0
  Mn  Mn1  1  0.00192000  0.68100000  0.93677000  1.0
  Mn  Mn2  1  0.00188000  0.18100000  0.56325000  1.0
  Mn  Mn3  1  0.99809000  0.31900000  0.06324000  1.0
  H  H4  1  0.62900000  0.90038000  0.35698000  1.0
  H  H5  1  0.37100000  0.59962000  0.85698000  1.0
  H  H6  1  0.37101000  0.09962000  0.64302000  1.0
  H  H7  1  0.62899000  0.40038000  0.14302000  1.0
  H  H8  1  0.14130000  0.66656000  0.14312000  1.0
  H  H9  1  0.85869000  0.83343000  0.64313000  1.0
  H  H10  1  0.85869000  0.33343000  0.85688000  1.0
  H  H11  1  0.14131000  0.16657000  0.35687000  1.0
  H  H12  1  0.46575000  0.79010000  0.61722000  1.0
  H  H13  1  0.53425000  0.70990000  0.11722000  1.0
  H  H14  1  0.53424000  0.20989000  0.38278000  1.0
  H  H15  1  0.46575000  0.29011000  0.88278000  1.0
  H  H16  1  0.76924000  0.46706000  0.30647000  1.0
  H  H17  1  0.23075000  0.03293000  0.80647000  1.0
  H  H18  1  0.23077000  0.53294000  0.69353000  1.0
  H  H19  1  0.76924000  0.96706000  0.19352000  1.0
  H  H20  1  0.51291000  0.05604000  0.28285000  1.0
  H  H21  1  0.48709000  0.44396000  0.78285000  1.0
  H  H22  1  0.48708000  0.94396000  0.71715000  1.0
  H  H23  1  0.51291000  0.55605000  0.21715000  1.0
  H  H24  1  0.46563000  0.12460000  0.14364000  1.0
  H  H25  1  0.53437000  0.37540000  0.64364000  1.0
  H  H26  1  0.53437000  0.87540000  0.85636000  1.0
  H  H27  1  0.46563000  0.62460000  0.35636000  1.0
  H  H28  1  0.25530000  0.02442000  0.05597000  1.0
  H  H29  1  0.74470000  0.47557000  0.55597000  1.0
  H  H30  1  0.74470000  0.97557000  0.94403000  1.0
  H  H31  1  0.25530000  0.52443000  0.44403000  1.0
  H  H32  1  0.09518000  0.86008000  0.11043000  1.0
  H  H33  1  0.90482000  0.63992000  0.61043000  1.0
  H  H34  1  0.90482000  0.13992000  0.88957000  1.0
  H  H35  1  0.09518000  0.36008000  0.38957000  1.0
  C  C36  1  0.65607000  0.84352000  0.52523000  1.0
  C  C37  1  0.34393000  0.65648000  0.02522000  1.0
  C  C38  1  0.34393000  0.15648000  0.47478000  1.0
  C  C39  1  0.65606000  0.34352000  0.97478000  1.0
  C  C40  1  0.51569000  0.84976000  0.47055000  1.0
  C  C41  1  0.48431000  0.65024000  0.97055000  1.0
  C  C42  1  0.48432000  0.15024000  0.52945000  1.0
  C  C43  1  0.51568000  0.34976000  0.02945000  1.0
  C  C44  1  0.35194000  0.82776000  0.48629000  1.0
  C  C45  1  0.64806000  0.67224000  0.98629000  1.0
  C  C46  1  0.64807000  0.17224000  0.51370000  1.0
  C  C47  1  0.35193000  0.32777000  0.01370000  1.0
  C  C48  1  0.26057000  0.78861000  0.55872000  1.0
  C  C49  1  0.73943000  0.71138000  0.05872000  1.0
  C  C50  1  0.73944000  0.21139000  0.44128000  1.0
  C  C51  1  0.26057000  0.28862000  0.94128000  1.0
  C  C52  1  0.36948000  0.88215000  0.35986000  1.0
  C  C53  1  0.63052000  0.61785000  0.85986000  1.0
  C  C54  1  0.63053000  0.11785000  0.64014000  1.0
  C  C55  1  0.36947000  0.38215000  0.14014000  1.0
  C  C56  1  0.33154000  0.91861000  0.27725000  1.0
  C  C57  1  0.66847000  0.58139000  0.77725000  1.0
  C  C58  1  0.66847000  0.08139000  0.72275000  1.0
  C  C59  1  0.33153000  0.41861000  0.22275000  1.0
  C  C60  1  0.42126000  0.01250000  0.24515000  1.0
  C  C61  1  0.57874000  0.48750000  0.74516000  1.0
  C  C62  1  0.57873000  0.98750000  0.75485000  1.0
  C  C63  1  0.42126000  0.51250000  0.25485000  1.0
  C  C64  1  0.39402000  0.05156000  0.16676000  1.0
  C  C65  1  0.60598000  0.44843000  0.66676000  1.0
  C  C66  1  0.60597000  0.94843000  0.83324000  1.0
  C  C67  1  0.39403000  0.55157000  0.33324000  1.0
  C  C68  1  0.27690000  0.99638000  0.11796000  1.0
  C  C69  1  0.72310000  0.50362000  0.61796000  1.0
  C  C70  1  0.72310000  0.00362000  0.88204000  1.0
  C  C71  1  0.27690000  0.49638000  0.38204000  1.0
  C  C72  1  0.18718000  0.90291000  0.14847000  1.0
  C  C73  1  0.81282000  0.59709000  0.64847000  1.0
  C  C74  1  0.81282000  0.09708000  0.85154000  1.0
  C  C75  1  0.18719000  0.40291000  0.35153000  1.0
  C  C76  1  0.21145000  0.86291000  0.22784000  1.0
  C  C77  1  0.78855000  0.63709000  0.72785000  1.0
  C  C78  1  0.78855000  0.13709000  0.77216000  1.0
  C  C79  1  0.21145000  0.36291000  0.27215000  1.0
  C  C80  1  0.11298000  0.76135000  0.25130000  1.0
  C  C81  1  0.88702000  0.73864000  0.75130000  1.0
  C  C82  1  0.88702000  0.23864000  0.74870000  1.0
  C  C83  1  0.11298000  0.26136000  0.24869000  1.0
  C  C84  1  0.91139000  0.49729000  0.18575000  1.0
  C  C85  1  0.08860000  0.00271000  0.68575000  1.0
  C  C86  1  0.08861000  0.50271000  0.81425000  1.0
  C  C87  1  0.91139000  0.99729000  0.31424000  1.0
  C  C88  1  0.97366000  0.59785000  0.23075000  1.0
  C  C89  1  0.02635000  0.90215000  0.73075000  1.0
  C  C90  1  0.02634000  0.40215000  0.76925000  1.0
  C  C91  1  0.97366000  0.09785000  0.26925000  1.0
  C  C92  1  0.94103000  0.63910000  0.30770000  1.0
  C  C93  1  0.05897000  0.86090000  0.80769000  1.0
  C  C94  1  0.05897000  0.36090000  0.69231000  1.0
  C  C95  1  0.94104000  0.13911000  0.19230000  1.0
  C  C96  1  0.84591000  0.59214000  0.37598000  1.0
  C  C97  1  0.15410000  0.90787000  0.87598000  1.0
  C  C98  1  0.15410000  0.40787000  0.62403000  1.0
  C  C99  1  0.84592000  0.09213000  0.12402000  1.0
  N  N100  1  0.52366000  0.88343000  0.39046000  1.0
  N  N101  1  0.47634000  0.61657000  0.89046000  1.0
  N  N102  1  0.47635000  0.11657000  0.60954000  1.0
  N  N103  1  0.52365000  0.38343000  0.10954000  1.0
  N  N104  1  0.26443000  0.84841000  0.41787000  1.0
  N  N105  1  0.73557000  0.65159000  0.91787000  1.0
  N  N106  1  0.73557000  0.15159000  0.58213000  1.0
  N  N107  1  0.26443000  0.34841000  0.08213000  1.0
  N  N108  1  0.02753000  0.73983000  0.31936000  1.0
  N  N109  1  0.97247000  0.76017000  0.81936000  1.0
  N  N110  1  0.97247000  0.26017000  0.68064000  1.0
  N  N111  1  0.02754000  0.23983000  0.18064000  1.0
  N  N112  1  0.08270000  0.67516000  0.19764000  1.0
  N  N113  1  0.91730000  0.82484000  0.69764000  1.0
  N  N114  1  0.91729000  0.32484000  0.80236000  1.0
  N  N115  1  0.08270000  0.17516000  0.30236000  1.0
  O  O116  1  0.79498000  0.87019000  0.49810000  1.0
  O  O117  1  0.20503000  0.62981000  0.99810000  1.0
  O  O118  1  0.20503000  0.12980000  0.50189000  1.0
  O  O119  1  0.79496000  0.37019000  0.00190000  1.0
  O  O120  1  0.62759000  0.81464000  0.59923000  1.0
  O  O121  1  0.37242000  0.68536000  0.09923000  1.0
  O  O122  1  0.37242000  0.18536000  0.40077000  1.0
  O  O123  1  0.62758000  0.31464000  0.90077000  1.0
  O  O124  1  0.33696000  0.77409000  0.62704000  1.0
  O  O125  1  0.66304000  0.72591000  0.12705000  1.0
  O  O126  1  0.66304000  0.22591000  0.37295000  1.0
  O  O127  1  0.33696000  0.27409000  0.87295000  1.0
  O  O128  1  0.11066000  0.77113000  0.55210000  1.0
  O  O129  1  0.88933000  0.72887000  0.05210000  1.0
  O  O130  1  0.88934000  0.22887000  0.44790000  1.0
  O  O131  1  0.11066000  0.27114000  0.94791000  1.0
  O  O132  1  0.98171000  0.47851000  0.11942000  1.0
  O  O133  1  0.01828000  0.02150000  0.61942000  1.0
  O  O134  1  0.01829000  0.52150000  0.88058000  1.0
  O  O135  1  0.98172000  0.97850000  0.38057000  1.0
  O  O136  1  0.79140000  0.43839000  0.21618000  1.0
  O  O137  1  0.20860000  0.06161000  0.71618000  1.0
  O  O138  1  0.20861000  0.56161000  0.78382000  1.0
  O  O139  1  0.79140000  0.93839000  0.28382000  1.0
  O  O140  1  0.76231000  0.49513000  0.36646000  1.0
  O  O141  1  0.23769000  0.00487000  0.86646000  1.0
  O  O142  1  0.23769000  0.50487000  0.63354000  1.0
  O  O143  1  0.76231000  0.99513000  0.13354000  1.0
  O  O144  1  0.84837000  0.64450000  0.44189000  1.0
  O  O145  1  0.15164000  0.85550000  0.94189000  1.0
  O  O146  1  0.15163000  0.35550000  0.55811000  1.0
  O  O147  1  0.84838000  0.14449000  0.05811000  1.0
