# generated using pymatgen
data_AgH9C12SN3O4F3
_symmetry_space_group_name_H-M   'P 1'
_cell_length_a   10.48560000
_cell_length_b   11.14070000
_cell_length_c   13.29180000
_cell_angle_alpha   91.06780000
_cell_angle_beta   90.00000000
_cell_angle_gamma   90.00000000
_symmetry_Int_Tables_number   1
_chemical_formula_structural   AgH9C12SN3O4F3
_chemical_formula_sum   'Ag4 H36 C48 S4 N12 O16 F12'
_cell_volume   1552.43755107
_cell_formula_units_Z   4
loop_
 _symmetry_equiv_pos_site_id
 _symmetry_equiv_pos_as_xyz
  1  'x, y, z'
loop_
 _atom_site_type_symbol
 _atom_site_label
 _atom_site_symmetry_multiplicity
 _atom_site_fract_x
 _atom_site_fract_y
 _atom_site_fract_z
 _atom_site_occupancy
  Ag  Ag0  1  0.92247000  0.40153000  0.96395000  1.0
  Ag  Ag1  1  0.42247000  0.09846000  0.53605000  1.0
  Ag  Ag2  1  0.07753000  0.59847000  0.03605000  1.0
  Ag  Ag3  1  0.57753000  0.90153000  0.46395000  1.0
  H  H4  1  0.96555000  0.49785000  0.75846000  1.0
  H  H5  1  0.46555000  0.00215000  0.74153000  1.0
  H  H6  1  0.03445000  0.50216000  0.24154000  1.0
  H  H7  1  0.53446000  0.99785000  0.25846000  1.0
  H  H8  1  0.85667000  0.62632000  0.63217000  1.0
  H  H9  1  0.35668000  0.87367000  0.86782000  1.0
  H  H10  1  0.14334000  0.37368000  0.36783000  1.0
  H  H11  1  0.64334000  0.12632000  0.13218000  1.0
  H  H12  1  0.56538000  0.69829000  0.85526000  1.0
  H  H13  1  0.06538000  0.80172000  0.64474000  1.0
  H  H14  1  0.43461000  0.30170000  0.14473000  1.0
  H  H15  1  0.93462000  0.19831000  0.35528000  1.0
  H  H16  1  0.68568000  0.56768000  0.97203000  1.0
  H  H17  1  0.18568000  0.93234000  0.52797000  1.0
  H  H18  1  0.31430000  0.43230000  0.02797000  1.0
  H  H19  1  0.81431000  0.06769000  0.47205000  1.0
  H  H20  1  0.51789000  0.52782000  0.69208000  1.0
  H  H21  1  0.01790000  0.97217000  0.80792000  1.0
  H  H22  1  0.48210000  0.47217000  0.30791000  1.0
  H  H23  1  0.98209000  0.02782000  0.19210000  1.0
  H  H24  1  0.33118000  0.44426000  0.60061000  1.0
  H  H25  1  0.83118000  0.05574000  0.89937000  1.0
  H  H26  1  0.66881000  0.55574000  0.39937000  1.0
  H  H27  1  0.16881000  0.94425000  0.10064000  1.0
  H  H28  1  0.23480000  0.56418000  0.45928000  1.0
  H  H29  1  0.73479000  0.93582000  0.04070000  1.0
  H  H30  1  0.76521000  0.43584000  0.54070000  1.0
  H  H31  1  0.26520000  0.06416000  0.95931000  1.0
  H  H32  1  0.34057000  0.75576000  0.41213000  1.0
  H  H33  1  0.84056000  0.74424000  0.08786000  1.0
  H  H34  1  0.65944000  0.24425000  0.58786000  1.0
  H  H35  1  0.15943000  0.25573000  0.91214000  1.0
  H  H36  1  0.72367000  0.99506000  0.71151000  1.0
  H  H37  1  0.22367000  0.50493000  0.78848000  1.0
  H  H38  1  0.27633000  0.00492000  0.28849000  1.0
  H  H39  1  0.77633000  0.49507000  0.21151000  1.0
  C  C40  1  0.87712000  0.54459000  0.77660000  1.0
  C  C41  1  0.37712000  0.95542000  0.72340000  1.0
  C  C42  1  0.12288000  0.45542000  0.22340000  1.0
  C  C43  1  0.62289000  0.04459000  0.27661000  1.0
  C  C44  1  0.81608000  0.61623000  0.70699000  1.0
  C  C45  1  0.31608000  0.88377000  0.79300000  1.0
  C  C46  1  0.18392000  0.38378000  0.29301000  1.0
  C  C47  1  0.68393000  0.11622000  0.20700000  1.0
  C  C48  1  0.70182000  0.67274000  0.73390000  1.0
  C  C49  1  0.20182000  0.82726000  0.76609000  1.0
  C  C50  1  0.29818000  0.32726000  0.26610000  1.0
  C  C51  1  0.79818000  0.17275000  0.23391000  1.0
  C  C52  1  0.65432000  0.65644000  0.83101000  1.0
  C  C53  1  0.15432000  0.84356000  0.66898000  1.0
  C  C54  1  0.34567000  0.34355000  0.16899000  1.0
  C  C55  1  0.84568000  0.15646000  0.33103000  1.0
  C  C56  1  0.72084000  0.58332000  0.89622000  1.0
  C  C57  1  0.22084000  0.91669000  0.60378000  1.0
  C  C58  1  0.27915000  0.41667000  0.10378000  1.0
  C  C59  1  0.77917000  0.08332000  0.39623000  1.0
  C  C60  1  0.62983000  0.74544000  0.66055000  1.0
  C  C61  1  0.12985000  0.75455000  0.83945000  1.0
  C  C62  1  0.37016000  0.25455000  0.33946000  1.0
  C  C63  1  0.87016000  0.24545000  0.16055000  1.0
  C  C64  1  0.52582000  0.68817000  0.60242000  1.0
  C  C65  1  0.02584000  0.81183000  0.89758000  1.0
  C  C66  1  0.47417000  0.31183000  0.39758000  1.0
  C  C67  1  0.97417000  0.18816000  0.10243000  1.0
  C  C68  1  0.47539000  0.57756000  0.63082000  1.0
  C  C69  1  0.97540000  0.92244000  0.86917000  1.0
  C  C70  1  0.52459000  0.42244000  0.36918000  1.0
  C  C71  1  0.02458000  0.07755000  0.13083000  1.0
  C  C72  1  0.36978000  0.53114000  0.57967000  1.0
  C  C73  1  0.86978000  0.96886000  0.92032000  1.0
  C  C74  1  0.63021000  0.46887000  0.42032000  1.0
  C  C75  1  0.13020000  0.03113000  0.07969000  1.0
  C  C76  1  0.31707000  0.59637000  0.50175000  1.0
  C  C77  1  0.81706000  0.90363000  0.99824000  1.0
  C  C78  1  0.68293000  0.40365000  0.49824000  1.0
  C  C79  1  0.18293000  0.09635000  0.00177000  1.0
  C  C80  1  0.37465000  0.70385000  0.47511000  1.0
  C  C81  1  0.87465000  0.79615000  0.02489000  1.0
  C  C82  1  0.62535000  0.29617000  0.52489000  1.0
  C  C83  1  0.12533000  0.20382000  0.97512000  1.0
  C  C84  1  0.54103000  0.20942000  0.89698000  1.0
  C  C85  1  0.04104000  0.29056000  0.60301000  1.0
  C  C86  1  0.45898000  0.79056000  0.10301000  1.0
  C  C87  1  0.95897000  0.70946000  0.39697000  1.0
  S  S88  1  0.66666667  0.23517000  0.79992000  1.0
  S  S89  1  0.16667000  0.26484000  0.70007000  1.0
  S  S90  1  0.33333333  0.76482000  0.20007000  1.0
  S  S91  1  0.83333000  0.73518000  0.29993000  1.0
  N  N92  1  0.83022000  0.52794000  0.86967000  1.0
  N  N93  1  0.33022000  0.97206000  0.63033000  1.0
  N  N94  1  0.16978000  0.47206000  0.13033000  1.0
  N  N95  1  0.66979000  0.02795000  0.36968000  1.0
  N  N96  1  0.47744000  0.74797000  0.52306000  1.0
  N  N97  1  0.97745000  0.75203000  0.97694000  1.0
  N  N98  1  0.52256000  0.25204000  0.47695000  1.0
  N  N99  1  0.02255000  0.24795000  0.02306000  1.0
  N  N100  1  0.64726000  0.85980000  0.64987000  1.0
  N  N101  1  0.14727000  0.64019000  0.85012000  1.0
  N  N102  1  0.35274000  0.14019000  0.35013000  1.0
  N  N103  1  0.85274000  0.35981000  0.14988000  1.0
  O  O104  1  0.74386000  0.90722000  0.70901000  1.0
  O  O105  1  0.24386000  0.59277000  0.79099000  1.0
  O  O106  1  0.25614000  0.09277000  0.29100000  1.0
  O  O107  1  0.75614000  0.40723000  0.20901000  1.0
  O  O108  1  0.78391000  0.23071000  0.85857000  1.0
  O  O109  1  0.28391000  0.26930000  0.64141000  1.0
  O  O110  1  0.21609000  0.76928000  0.14143000  1.0
  O  O111  1  0.71609000  0.73071000  0.35858000  1.0
  O  O112  1  0.63241000  0.35028000  0.75892000  1.0
  O  O113  1  0.13243000  0.14973000  0.74109000  1.0
  O  O114  1  0.36761000  0.64972000  0.24109000  1.0
  O  O115  1  0.86758000  0.85029000  0.25891000  1.0
  O  O116  1  0.64956000  0.13217000  0.72984000  1.0
  O  O117  1  0.14955000  0.36784000  0.77016000  1.0
  O  O118  1  0.35046000  0.86782000  0.27015000  1.0
  O  O119  1  0.85044000  0.63219000  0.22984000  1.0
  F  F120  1  0.55586000  0.10009000  0.94066000  1.0
  F  F121  1  0.05587000  0.39989000  0.55934000  1.0
  F  F122  1  0.44415000  0.89989000  0.05934000  1.0
  F  F123  1  0.94416000  0.60012000  0.44065000  1.0
  F  F124  1  0.54832000  0.29467000  0.97189000  1.0
  F  F125  1  0.04832000  0.20531000  0.52811000  1.0
  F  F126  1  0.45167000  0.70532000  0.02809000  1.0
  F  F127  1  0.95168000  0.79469000  0.47189000  1.0
  F  F128  1  0.42189000  0.21329000  0.85771000  1.0
  F  F129  1  0.92190000  0.28670000  0.64229000  1.0
  F  F130  1  0.57811000  0.78668000  0.14228000  1.0
  F  F131  1  0.07812000  0.71332000  0.35770000  1.0
