# generated using pymatgen
data_PrH6C10N2O7
_symmetry_space_group_name_H-M   'P 1'
_cell_length_a   7.57961000
_cell_length_b   8.97248000
_cell_length_c   9.80945000
_cell_angle_alpha   117.06500000
_cell_angle_beta   92.32520000
_cell_angle_gamma   99.04340000
_symmetry_Int_Tables_number   1
_chemical_formula_structural   PrH6C10N2O7
_chemical_formula_sum   'Pr2 H12 C20 N4 O14'
_cell_volume   581.89490317
_cell_formula_units_Z   2
loop_
 _symmetry_equiv_pos_site_id
 _symmetry_equiv_pos_as_xyz
  1  'x, y, z'
loop_
 _atom_site_type_symbol
 _atom_site_label
 _atom_site_symmetry_multiplicity
 _atom_site_fract_x
 _atom_site_fract_y
 _atom_site_fract_z
 _atom_site_occupancy
  Pr  Pr0  1  0.62527000  0.84550000  0.82028000  1.0
  Pr  Pr1  1  0.37473000  0.15450000  0.17972000  1.0
  H  H2  1  0.24916000  0.75263000  0.93231000  1.0
  H  H3  1  0.75084000  0.24737000  0.06768000  1.0
  H  H4  1  0.32224000  0.57797000  0.86287000  1.0
  H  H5  1  0.67775000  0.42202000  0.13712000  1.0
  H  H6  1  0.96068000  0.27911000  0.28510000  1.0
  H  H7  1  0.03932000  0.72089000  0.71490000  1.0
  H  H8  1  0.83590000  0.23899000  0.76859000  1.0
  H  H9  1  0.16410000  0.76102000  0.23141000  1.0
  H  H10  1  0.41872000  0.12466000  0.55511000  1.0
  H  H11  1  0.58128000  0.87533000  0.44489000  1.0
  H  H12  1  0.77395000  0.28697000  0.49479000  1.0
  H  H13  1  0.22606000  0.71304000  0.50521000  1.0
  C  C14  1  0.26047000  0.14380000  0.73802000  1.0
  C  C15  1  0.73953000  0.85620000  0.26198000  1.0
  C  C16  1  0.09348000  0.17581000  0.79885000  1.0
  C  C17  1  0.90652000  0.82419000  0.20115000  1.0
  C  C18  1  0.96543000  0.22160000  0.72587000  1.0
  C  C19  1  0.03457000  0.77840000  0.27413000  1.0
  C  C20  1  0.29550000  0.15654000  0.60401000  1.0
  C  C21  1  0.70450000  0.84346000  0.39598000  1.0
  C  C22  1  0.03888000  0.17223000  0.94366000  1.0
  C  C23  1  0.96112000  0.82779000  0.05634000  1.0
  C  C24  1  0.39940000  0.07529000  0.79368000  1.0
  C  C25  1  0.60060000  0.92470000  0.20632000  1.0
  C  C26  1  0.16818000  0.20279000  0.53206000  1.0
  C  C27  1  0.83183000  0.79721000  0.46794000  1.0
  C  C28  1  0.00523000  0.23640000  0.59480000  1.0
  C  C29  1  0.99478000  0.76360000  0.40520000  1.0
  C  C30  1  0.00722000  0.25932000  0.38069000  1.0
  C  C31  1  0.99278000  0.74068000  0.61931000  1.0
  C  C32  1  0.55053000  0.45352000  0.53383000  1.0
  C  C33  1  0.44946000  0.54649000  0.46619000  1.0
  N  N34  1  0.90789000  0.27307000  0.49629000  1.0
  N  N35  1  0.09211000  0.72693000  0.50371000  1.0
  N  N36  1  0.16493000  0.21789000  0.39675000  1.0
  N  N37  1  0.83507000  0.78211000  0.60324000  1.0
  O  O38  1  0.36759000  0.01879000  0.89272000  1.0
  O  O39  1  0.63240000  0.98120000  0.10727000  1.0
  O  O40  1  0.54559000  0.06106000  0.73509000  1.0
  O  O41  1  0.45441000  0.93893000  0.26491000  1.0
  O  O42  1  0.87316000  0.11105000  0.94096000  1.0
  O  O43  1  0.12685000  0.88896000  0.05904000  1.0
  O  O44  1  0.60672000  0.52885000  0.67564000  1.0
  O  O45  1  0.39326000  0.47114000  0.32436000  1.0
  O  O46  1  0.15133000  0.24182000  0.06461000  1.0
  O  O47  1  0.84868000  0.75819000  0.93539000  1.0
  O  O48  1  0.33593000  0.68891000  0.86578000  1.0
  O  O49  1  0.66407000  0.31109000  0.13422000  1.0
  O  O50  1  0.57056000  0.30455000  0.43784000  1.0
  O  O51  1  0.42943000  0.69544000  0.56217000  1.0
