# generated using pymatgen
data_CoH11C13NO6
_symmetry_space_group_name_H-M   'P 1'
_cell_length_a   9.60216000
_cell_length_b   9.60383071
_cell_length_c   15.71820000
_cell_angle_alpha   80.43359110
_cell_angle_beta   80.46040000
_cell_angle_gamma   61.67669637
_symmetry_Int_Tables_number   1
_chemical_formula_structural   CoH11C13NO6
_chemical_formula_sum   'Co4 H44 C52 N4 O24'
_cell_volume   1251.90441257
_cell_formula_units_Z   4
loop_
 _symmetry_equiv_pos_site_id
 _symmetry_equiv_pos_as_xyz
  1  'x, y, z'
loop_
 _atom_site_type_symbol
 _atom_site_label
 _atom_site_symmetry_multiplicity
 _atom_site_fract_x
 _atom_site_fract_y
 _atom_site_fract_z
 _atom_site_occupancy
  Co  Co0  1  0.07751000  0.21537000  0.22398000  1.0
  Co  Co1  1  0.78446000  0.92257000  0.27599000  1.0
  Co  Co2  1  0.92248000  0.78464000  0.77602000  1.0
  Co  Co3  1  0.21553000  0.07743000  0.72401000  1.0
  H  H4  1  0.26897000  0.24253000  0.31383000  1.0
  H  H5  1  0.75751000  0.73096000  0.18623000  1.0
  H  H6  1  0.73102000  0.75748000  0.68617000  1.0
  H  H7  1  0.24250000  0.26903000  0.81377000  1.0
  H  H8  1  0.14720000  0.18206000  0.36761000  1.0
  H  H9  1  0.81755000  0.85303000  0.13237000  1.0
  H  H10  1  0.85280000  0.81794000  0.63239000  1.0
  H  H11  1  0.18245000  0.14697000  0.86763000  1.0
  H  H12  1  0.00334000  0.06336000  0.11001000  1.0
  H  H13  1  0.93698000  0.99640000  0.38983000  1.0
  H  H14  1  0.99665000  0.93664000  0.88999000  1.0
  H  H15  1  0.06302000  0.00360000  0.61017000  1.0
  H  H16  1  0.85636000  0.17394000  0.16482000  1.0
  H  H17  1  0.82602000  0.14351000  0.33520000  1.0
  H  H18  1  0.14363000  0.82606000  0.83518000  1.0
  H  H19  1  0.17398000  0.85649000  0.66480000  1.0
  H  H20  1  0.52455000  0.75835000  0.23939000  1.0
  H  H21  1  0.24149000  0.47572000  0.26054000  1.0
  H  H22  1  0.47545000  0.24164000  0.76062000  1.0
  H  H23  1  0.75852000  0.52427000  0.73946000  1.0
  H  H24  1  0.64677000  0.31081000  0.39461000  1.0
  H  H25  1  0.68913000  0.35391000  0.10564000  1.0
  H  H26  1  0.35324000  0.68919000  0.60539000  1.0
  H  H27  1  0.31087000  0.64610000  0.89436000  1.0
  H  H28  1  0.18169000  0.70735000  0.43567000  1.0
  H  H29  1  0.29234000  0.81870000  0.06417000  1.0
  H  H30  1  0.81831000  0.29265000  0.56433000  1.0
  H  H31  1  0.70765000  0.18130000  0.93582000  1.0
  H  H32  1  0.11501000  0.57019000  0.52044000  1.0
  H  H33  1  0.42949000  0.88543000  0.97925000  1.0
  H  H34  1  0.88500000  0.42981000  0.47956000  1.0
  H  H35  1  0.57051000  0.11458000  0.02075000  1.0
  H  H36  1  0.05083000  0.39833000  0.63591000  1.0
  H  H37  1  0.60147000  0.94936000  0.86378000  1.0
  H  H38  1  0.94918000  0.60166000  0.36410000  1.0
  H  H39  1  0.39853000  0.05065000  0.13622000  1.0
  H  H40  1  0.58289000  0.17036000  0.47712000  1.0
  H  H41  1  0.82933000  0.41770000  0.02317000  1.0
  H  H42  1  0.41711000  0.82964000  0.52288000  1.0
  H  H43  1  0.17065000  0.58231000  0.97683000  1.0
  H  H44  1  0.49671000  0.01616000  0.59577000  1.0
  H  H45  1  0.98367000  0.50361000  0.90446000  1.0
  H  H46  1  0.50330000  0.98383000  0.40422000  1.0
  H  H47  1  0.01631000  0.49640000  0.09554000  1.0
  C  C48  1  0.60402000  0.52655000  0.31282000  1.0
  C  C49  1  0.47340000  0.39638000  0.18725000  1.0
  C  C50  1  0.39599000  0.47344000  0.68719000  1.0
  C  C51  1  0.52660000  0.60362000  0.81275000  1.0
  C  C52  1  0.49368000  0.68417000  0.29100000  1.0
  C  C53  1  0.31574000  0.50665000  0.20900000  1.0
  C  C54  1  0.50631000  0.31583000  0.70900000  1.0
  C  C55  1  0.68426000  0.49335000  0.79100000  1.0
  C  C56  1  0.40561000  0.49139000  0.42123000  1.0
  C  C57  1  0.50841000  0.59496000  0.07881000  1.0
  C  C58  1  0.59440000  0.50860000  0.57877000  1.0
  C  C59  1  0.49158000  0.40504000  0.92120000  1.0
  C  C60  1  0.34305000  0.74717000  0.33698000  1.0
  C  C61  1  0.25266000  0.65734000  0.16299000  1.0
  C  C62  1  0.65696000  0.25283000  0.66302000  1.0
  C  C63  1  0.74733000  0.34266000  0.83701000  1.0
  C  C64  1  0.55931000  0.43231000  0.37765000  1.0
  C  C65  1  0.56756000  0.44131000  0.12249000  1.0
  C  C66  1  0.44070000  0.56768000  0.62235000  1.0
  C  C67  1  0.43244000  0.55870000  0.87750000  1.0
  C  C68  1  0.30008000  0.65201000  0.40149000  1.0
  C  C69  1  0.34773000  0.70039000  0.09846000  1.0
  C  C70  1  0.69993000  0.34799000  0.59851000  1.0
  C  C71  1  0.65227000  0.29961000  0.90154000  1.0
  C  C72  1  0.22570000  0.91813000  0.32095000  1.0
  C  C73  1  0.08163000  0.77453000  0.17899000  1.0
  C  C74  1  0.77430000  0.08186000  0.67905000  1.0
  C  C75  1  0.91836000  0.22547000  0.82100000  1.0
  C  C76  1  0.76758000  0.45766000  0.26568000  1.0
  C  C77  1  0.54219000  0.23285000  0.23439000  1.0
  C  C78  1  0.23243000  0.54233000  0.73432000  1.0
  C  C79  1  0.45780000  0.76716000  0.76561000  1.0
  C  C80  1  0.20554000  0.44810000  0.53323000  1.0
  C  C81  1  0.55160000  0.79490000  0.96659000  1.0
  C  C82  1  0.79447000  0.55190000  0.46678000  1.0
  C  C83  1  0.44840000  0.20511000  0.03341000  1.0
  C  C84  1  0.16704000  0.35253000  0.59853000  1.0
  C  C85  1  0.64724000  0.83325000  0.90129000  1.0
  C  C86  1  0.83297000  0.64746000  0.40147000  1.0
  C  C87  1  0.35275000  0.16676000  0.09871000  1.0
  C  C88  1  0.35805000  0.38911000  0.48742000  1.0
  C  C89  1  0.61064000  0.64247000  0.01253000  1.0
  C  C90  1  0.64195000  0.61089000  0.51258000  1.0
  C  C91  1  0.38935000  0.35754000  0.98747000  1.0
  C  C92  1  0.46303000  0.22853000  0.50956000  1.0
  C  C93  1  0.77126000  0.53747000  0.99057000  1.0
  C  C94  1  0.53697000  0.77146000  0.49044000  1.0
  C  C95  1  0.22874000  0.46253000  0.00943000  1.0
  C  C96  1  0.41658000  0.13968000  0.57584000  1.0
  C  C97  1  0.86018000  0.58377000  0.92431000  1.0
  C  C98  1  0.58343000  0.86032000  0.42416000  1.0
  C  C99  1  0.13980000  0.41624000  0.07569000  1.0
  N  N100  1  0.27169000  0.20005000  0.62105000  1.0
  N  N101  1  0.79977000  0.72857000  0.87894000  1.0
  N  N102  1  0.72831000  0.79995000  0.37895000  1.0
  N  N103  1  0.20022000  0.27144000  0.12106000  1.0
  O  O104  1  0.15280000  0.27042000  0.32704000  1.0
  O  O105  1  0.72932000  0.84721000  0.17296000  1.0
  O  O106  1  0.84721000  0.72957000  0.67296000  1.0
  O  O107  1  0.27068000  0.15279000  0.82704000  1.0
  O  O108  1  0.95452000  0.16979000  0.13050000  1.0
  O  O109  1  0.83038000  0.04522000  0.36946000  1.0
  O  O110  1  0.04548000  0.83020000  0.86950000  1.0
  O  O111  1  0.16961000  0.95478000  0.63054000  1.0
  O  O112  1  0.85652000  0.30657000  0.28247000  1.0
  O  O113  1  0.69321000  0.14361000  0.21754000  1.0
  O  O114  1  0.14348000  0.69343000  0.71753000  1.0
  O  O115  1  0.30679000  0.85639000  0.78246000  1.0
  O  O116  1  0.81596000  0.54157000  0.21142000  1.0
  O  O117  1  0.45818000  0.18473000  0.28872000  1.0
  O  O118  1  0.18405000  0.45842000  0.78857000  1.0
  O  O119  1  0.54182000  0.81528000  0.71128000  1.0
  O  O120  1  0.22264000  0.98291000  0.24216000  1.0
  O  O121  1  0.01698000  0.77754000  0.25780000  1.0
  O  O122  1  0.77736000  0.01709000  0.75784000  1.0
  O  O123  1  0.98303000  0.22246000  0.74220000  1.0
  O  O124  1  0.13657000  0.98991000  0.38501000  1.0
  O  O125  1  0.00971000  0.86363000  0.11493000  1.0
  O  O126  1  0.86343000  0.01009000  0.61499000  1.0
  O  O127  1  0.99028000  0.13636000  0.88506000  1.0
