# generated using pymatgen
data_CoH8C10(SN)2
_symmetry_space_group_name_H-M   'P 1'
_cell_length_a   7.54409000
_cell_length_b   7.54532000
_cell_length_c   11.35990000
_cell_angle_alpha   73.35120000
_cell_angle_beta   73.34900000
_cell_angle_gamma   84.75240000
_symmetry_Int_Tables_number   1
_chemical_formula_structural   CoH8C10(SN)2
_chemical_formula_sum   'Co2 H16 C20 S4 N4'
_cell_volume   593.51813633
_cell_formula_units_Z   2
loop_
 _symmetry_equiv_pos_site_id
 _symmetry_equiv_pos_as_xyz
  1  'x, y, z'
loop_
 _atom_site_type_symbol
 _atom_site_label
 _atom_site_symmetry_multiplicity
 _atom_site_fract_x
 _atom_site_fract_y
 _atom_site_fract_z
 _atom_site_occupancy
  Co  Co0  1  0.61414000  0.38603000  0.75000000  1.0
  Co  Co1  1  0.38610000  0.61412000  0.24996000  1.0
  H  H2  1  0.48296000  0.68012000  0.86517000  1.0
  H  H3  1  0.31973000  0.51711000  0.63492000  1.0
  H  H4  1  0.51721000  0.31980000  0.13478000  1.0
  H  H5  1  0.68034000  0.48278000  0.36519000  1.0
  H  H6  1  0.52457000  0.01520000  0.81758000  1.0
  H  H7  1  0.98466000  0.47533000  0.68256000  1.0
  H  H8  1  0.47532000  0.98480000  0.18248000  1.0
  H  H9  1  0.01535000  0.52471000  0.31748000  1.0
  H  H10  1  0.84822000  0.00892000  0.43589000  1.0
  H  H11  1  0.99104000  0.15164000  0.06413000  1.0
  H  H12  1  0.15173000  0.99107000  0.56406000  1.0
  H  H13  1  0.00902000  0.84833000  0.93583000  1.0
  H  H14  1  0.79667000  0.67167000  0.49971000  1.0
  H  H15  1  0.32825000  0.20331000  0.00029000  1.0
  H  H16  1  0.20336000  0.32831000  0.50025000  1.0
  H  H17  1  0.67176000  0.79666000  0.99963000  1.0
  C  C18  1  0.56467000  0.75718000  0.77111000  1.0
  C  C19  1  0.24279000  0.43534000  0.72898000  1.0
  C  C20  1  0.43535000  0.24295000  0.22886000  1.0
  C  C21  1  0.75710000  0.56470000  0.27111000  1.0
  C  C22  1  0.58797000  0.94535000  0.74384000  1.0
  C  C23  1  0.05456000  0.41205000  0.75628000  1.0
  C  C24  1  0.41204000  0.05470000  0.25619000  1.0
  C  C25  1  0.94536000  0.58801000  0.24379000  1.0
  C  C26  1  0.69379000  0.04435000  0.62198000  1.0
  C  C27  1  0.95550000  0.30616000  0.87809000  1.0
  C  C28  1  0.30623000  0.95557000  0.37800000  1.0
  C  C29  1  0.04448000  0.69377000  0.12194000  1.0
  C  C30  1  0.76675000  0.94155000  0.53228000  1.0
  C  C31  1  0.05829000  0.23332000  0.96778000  1.0
  C  C32  1  0.23329000  0.05837000  0.46768000  1.0
  C  C33  1  0.94168000  0.76674000  0.03224000  1.0
  C  C34  1  0.73825000  0.75278000  0.56748000  1.0
  C  C35  1  0.24711000  0.26181000  0.93257000  1.0
  C  C36  1  0.26177000  0.24722000  0.43248000  1.0
  C  C37  1  0.75282000  0.73824000  0.06745000  1.0
  S  S38  1  0.73618000  0.27887000  0.58156000  1.0
  S  S39  1  0.72101000  0.26357000  0.91851000  1.0
  S  S40  1  0.26370000  0.72108000  0.41828000  1.0
  S  S41  1  0.27895000  0.73634000  0.08168000  1.0
  N  N42  1  0.64054000  0.65860000  0.68582000  1.0
  N  N43  1  0.34143000  0.35932000  0.81421000  1.0
  N  N44  1  0.35945000  0.34152000  0.31415000  1.0
  N  N45  1  0.65852000  0.64058000  0.18580000  1.0
