# generated using pymatgen
data_Zn2P2H16C13(NO3)2
_symmetry_space_group_name_H-M   'P 1'
_cell_length_a   5.11646000
_cell_length_b   11.27420000
_cell_length_c   15.28160000
_cell_angle_alpha   104.68800000
_cell_angle_beta   90.00000000
_cell_angle_gamma   89.99980000
_symmetry_Int_Tables_number   1
_chemical_formula_structural   Zn2P2H16C13(NO3)2
_chemical_formula_sum   'Zn4 P4 H32 C26 N4 O12'
_cell_volume   852.69694557
_cell_formula_units_Z   2
loop_
 _symmetry_equiv_pos_site_id
 _symmetry_equiv_pos_as_xyz
  1  'x, y, z'
loop_
 _atom_site_type_symbol
 _atom_site_label
 _atom_site_symmetry_multiplicity
 _atom_site_fract_x
 _atom_site_fract_y
 _atom_site_fract_z
 _atom_site_occupancy
  Zn  Zn0  1  0.69971000  0.35758000  0.50337000  1.0
  Zn  Zn1  1  0.69972000  0.14242000  0.99663000  1.0
  Zn  Zn2  1  0.30029000  0.64243000  0.49663000  1.0
  Zn  Zn3  1  0.30028000  0.85757000  0.00337000  1.0
  P  P4  1  0.22583000  0.44456000  0.61191000  1.0
  P  P5  1  0.22585000  0.05544000  0.88809000  1.0
  P  P6  1  0.77416000  0.55544000  0.38809000  1.0
  P  P7  1  0.77415000  0.94456000  0.11192000  1.0
  H  H8  1  0.27948000  0.45478000  0.70409000  1.0
  H  H9  1  0.27949000  0.04522000  0.79591000  1.0
  H  H10  1  0.72052000  0.54523000  0.29591000  1.0
  H  H11  1  0.72052000  0.95478000  0.20409000  1.0
  H  H12  1  0.10835000  0.28370000  0.36751000  1.0
  H  H13  1  0.10835000  0.21630000  0.13249000  1.0
  H  H14  1  0.89166000  0.71630000  0.63250000  1.0
  H  H15  1  0.89165000  0.78371000  0.86751000  1.0
  H  H16  1  0.32978000  0.09087000  0.28256000  1.0
  H  H17  1  0.32977000  0.40912000  0.21744000  1.0
  H  H18  1  0.67023000  0.90913000  0.71744000  1.0
  H  H19  1  0.67022000  0.59088000  0.78256000  1.0
  H  H20  1  0.79659000  0.88916000  0.41036000  1.0
  H  H21  1  0.79658000  0.61084000  0.08964000  1.0
  H  H22  1  0.20341000  0.11084000  0.58964000  1.0
  H  H23  1  0.20341000  0.38916000  0.91035000  1.0
  H  H24  1  0.58822000  0.09014000  0.48597000  1.0
  H  H25  1  0.58823000  0.40986000  0.01403000  1.0
  H  H26  1  0.41177000  0.90986000  0.51403000  1.0
  H  H27  1  0.41177000  0.59014000  0.98597000  1.0
  H  H28  1  0.34488000  0.82931000  0.34915000  1.0
  H  H29  1  0.34488000  0.67069000  0.15085000  1.0
  H  H30  1  0.65512000  0.17070000  0.65085000  1.0
  H  H31  1  0.65511000  0.32931000  0.84915000  1.0
  H  H32  1  0.36932000  0.87745000  0.24806000  1.0
  H  H33  1  0.36932000  0.62255000  0.25194000  1.0
  H  H34  1  0.63068000  0.12255000  0.75194000  1.0
  H  H35  1  0.63068000  0.37745000  0.74806000  1.0
  H  H36  1  0.92935000  0.72308000  0.29955000  1.0
  H  H37  1  0.92935000  0.77692000  0.20044000  1.0
  H  H38  1  0.07065000  0.27693000  0.70045000  1.0
  H  H39  1  0.07065000  0.22308000  0.79956000  1.0
  C  C40  1  0.04535000  0.19402000  0.37440000  1.0
  C  C41  1  0.04534000  0.30598000  0.12560000  1.0
  C  C42  1  0.95465000  0.80598000  0.62560000  1.0
  C  C43  1  0.95466000  0.69402000  0.87440000  1.0
  C  C44  1  0.16864000  0.08672000  0.32834000  1.0
  C  C45  1  0.16863000  0.41327000  0.17165000  1.0
  C  C46  1  0.83137000  0.91328000  0.67165000  1.0
  C  C47  1  0.83138000  0.58673000  0.82835000  1.0
  C  C48  1  0.08600000  0.97363000  0.34100000  1.0
  C  C49  1  0.08600000  0.52637000  0.15900000  1.0
  C  C50  1  0.91400000  0.02637000  0.65900000  1.0
  C  C51  1  0.91399000  0.47363000  0.84100000  1.0
  C  C52  1  0.87053000  0.97423000  0.39794000  1.0
  C  C53  1  0.87053000  0.52576000  0.10206000  1.0
  C  C54  1  0.12946000  0.02577000  0.60206000  1.0
  C  C55  1  0.12947000  0.47422000  0.89794000  1.0
  C  C56  1  0.75512000  0.08517000  0.44081000  1.0
  C  C57  1  0.75512000  0.41483000  0.05918000  1.0
  C  C58  1  0.24489000  0.91483000  0.55918000  1.0
  C  C59  1  0.24489000  0.58518000  0.94082000  1.0
  C  C60  1  0.22912000  0.85790000  0.29695000  1.0
  C  C61  1  0.22911000  0.64210000  0.20305000  1.0
  C  C62  1  0.77088000  0.14210000  0.70305000  1.0
  C  C63  1  0.77089000  0.35790000  0.79695000  1.0
  C  C64  1  0.05599000  0.75000000  0.25000000  1.0
  C  C65  1  0.94400000  0.25000000  0.75000000  1.0
  N  N66  1  0.84270000  0.19344000  0.43072000  1.0
  N  N67  1  0.84269000  0.30656000  0.06928000  1.0
  N  N68  1  0.15731000  0.80657000  0.56928000  1.0
  N  N69  1  0.15730000  0.69344000  0.93072000  1.0
  O  O70  1  0.92749000  0.43455000  0.60389000  1.0
  O  O71  1  0.92751000  0.06544000  0.89611000  1.0
  O  O72  1  0.07251000  0.56545000  0.39611000  1.0
  O  O73  1  0.07251000  0.93455000  0.10389000  1.0
  O  O74  1  0.36527000  0.32706000  0.55724000  1.0
  O  O75  1  0.36528000  0.17294000  0.94276000  1.0
  O  O76  1  0.63473000  0.67295000  0.44276000  1.0
  O  O77  1  0.63472000  0.82706000  0.05724000  1.0
  O  O78  1  0.34074000  0.56235000  0.59488000  1.0
  O  O79  1  0.34077000  0.93765000  0.90512000  1.0
  O  O80  1  0.65925000  0.43766000  0.40512000  1.0
  O  O81  1  0.65924000  0.06234000  0.09488000  1.0
