# generated using pymatgen
data_ZnH9C14(NO2)2
_symmetry_space_group_name_H-M   'P 1'
_cell_length_a   9.16627000
_cell_length_b   10.76660000
_cell_length_c   14.83010000
_cell_angle_alpha   90.00000000
_cell_angle_beta   90.00000000
_cell_angle_gamma   108.12300000
_symmetry_Int_Tables_number   1
_chemical_formula_structural   ZnH9C14(NO2)2
_chemical_formula_sum   'Zn4 H36 C56 N8 O16'
_cell_volume   1390.96945062
_cell_formula_units_Z   4
loop_
 _symmetry_equiv_pos_site_id
 _symmetry_equiv_pos_as_xyz
  1  'x, y, z'
loop_
 _atom_site_type_symbol
 _atom_site_label
 _atom_site_symmetry_multiplicity
 _atom_site_fract_x
 _atom_site_fract_y
 _atom_site_fract_z
 _atom_site_occupancy
  Zn  Zn0  1  0.35897000  0.88783000  0.00186000  1.0
  Zn  Zn1  1  0.14104000  0.61217000  0.50186000  1.0
  Zn  Zn2  1  0.64103000  0.11217000  0.99814000  1.0
  Zn  Zn3  1  0.85897000  0.38782000  0.49814000  1.0
  H  H4  1  0.64867000  0.43230000  0.08558000  1.0
  H  H5  1  0.85133000  0.06770000  0.58558000  1.0
  H  H6  1  0.35132000  0.56770000  0.91443000  1.0
  H  H7  1  0.14867000  0.93230000  0.41442000  1.0
  H  H8  1  0.19285000  0.66190000  0.12289000  1.0
  H  H9  1  0.30715000  0.83809000  0.62289000  1.0
  H  H10  1  0.80715000  0.33809000  0.87711000  1.0
  H  H11  1  0.69285000  0.16190000  0.37711000  1.0
  H  H12  1  0.36701000  0.47502000  0.69692000  1.0
  H  H13  1  0.13299000  0.02498000  0.19692000  1.0
  H  H14  1  0.63299000  0.52498000  0.30309000  1.0
  H  H15  1  0.86701000  0.97502000  0.80308000  1.0
  H  H16  1  0.92294000  0.51382000  0.14272000  1.0
  H  H17  1  0.57706000  0.98618000  0.64272000  1.0
  H  H18  1  0.07706000  0.48617000  0.85728000  1.0
  H  H19  1  0.42294000  0.01383000  0.35728000  1.0
  H  H20  1  0.50364000  0.37112000  0.80791000  1.0
  H  H21  1  0.99636000  0.12888000  0.30791000  1.0
  H  H22  1  0.49636000  0.62888000  0.19209000  1.0
  H  H23  1  0.00364000  0.87112000  0.69208000  1.0
  H  H24  1  0.09393000  0.04573000  0.83324000  1.0
  H  H25  1  0.40607000  0.45427000  0.33324000  1.0
  H  H26  1  0.90607000  0.95427000  0.16676000  1.0
  H  H27  1  0.59393000  0.54573000  0.66676000  1.0
  H  H28  1  0.95849000  0.15091000  0.72302000  1.0
  H  H29  1  0.54151000  0.34909000  0.22302000  1.0
  H  H30  1  0.04151000  0.84909000  0.27699000  1.0
  H  H31  1  0.45849000  0.65091000  0.77698000  1.0
  H  H32  1  0.79632000  0.70115000  0.91117000  1.0
  H  H33  1  0.70368000  0.79885000  0.41117000  1.0
  H  H34  1  0.20368000  0.29885000  0.08883000  1.0
  H  H35  1  0.29632000  0.20115000  0.58883000  1.0
  H  H36  1  0.07236000  0.84043000  0.90041000  1.0
  H  H37  1  0.42764000  0.65957000  0.40041000  1.0
  H  H38  1  0.92764000  0.15956000  0.09959000  1.0
  H  H39  1  0.57236000  0.34043000  0.59959000  1.0
  C  C40  1  0.15675000  0.31879000  0.70345000  1.0
  C  C41  1  0.34324000  0.18121000  0.20345000  1.0
  C  C42  1  0.84324000  0.68121000  0.29655000  1.0
  C  C43  1  0.65676000  0.81879000  0.79654000  1.0
  C  C44  1  0.30639000  0.20072000  0.82559000  1.0
  C  C45  1  0.19361000  0.29928000  0.32558000  1.0
  C  C46  1  0.69361000  0.79928000  0.17442000  1.0
  C  C47  1  0.80639000  0.70072000  0.67442000  1.0
  C  C48  1  0.10085000  0.66693000  0.07779000  1.0
  C  C49  1  0.39915000  0.83307000  0.57779000  1.0
  C  C50  1  0.89915000  0.33307000  0.92221000  1.0
  C  C51  1  0.60085000  0.16693000  0.42221000  1.0
  C  C52  1  0.30985000  0.38090000  0.72781000  1.0
  C  C53  1  0.19015000  0.11910000  0.22781000  1.0
  C  C54  1  0.69015000  0.61910000  0.27219000  1.0
  C  C55  1  0.80985000  0.88091000  0.77219000  1.0
  C  C56  1  0.38453000  0.13478000  0.89032000  1.0
  C  C57  1  0.11547000  0.36522000  0.39032000  1.0
  C  C58  1  0.61547000  0.86521000  0.10968000  1.0
  C  C59  1  0.88454000  0.63479000  0.60968000  1.0
  C  C60  1  0.95081000  0.58510000  0.08813000  1.0
  C  C61  1  0.54919000  0.91490000  0.58813000  1.0
  C  C62  1  0.04920000  0.41490000  0.91187000  1.0
  C  C63  1  0.45080000  0.08510000  0.41186000  1.0
  C  C64  1  0.38479000  0.32294000  0.78835000  1.0
  C  C65  1  0.11521000  0.17706000  0.28835000  1.0
  C  C66  1  0.61521000  0.67706000  0.21165000  1.0
  C  C67  1  0.88480000  0.82294000  0.71165000  1.0
  C  C68  1  0.83699000  0.59665000  0.02844000  1.0
  C  C69  1  0.66300000  0.90335000  0.52844000  1.0
  C  C70  1  0.16301000  0.40335000  0.97156000  1.0
  C  C71  1  0.33699000  0.09666000  0.47156000  1.0
  C  C72  1  0.15260000  0.13959000  0.80224000  1.0
  C  C73  1  0.34740000  0.36041000  0.30224000  1.0
  C  C74  1  0.84740000  0.86041000  0.19776000  1.0
  C  C75  1  0.65260000  0.63959000  0.69776000  1.0
  C  C76  1  0.08269000  0.38188000  0.63464000  1.0
  C  C77  1  0.41732000  0.11812000  0.13464000  1.0
  C  C78  1  0.91732000  0.61813000  0.36536000  1.0
  C  C79  1  0.58269000  0.88188000  0.86536000  1.0
  C  C80  1  0.07789000  0.19774000  0.74168000  1.0
  C  C81  1  0.42211000  0.30226000  0.24168000  1.0
  C  C82  1  0.92211000  0.80226000  0.25832000  1.0
  C  C83  1  0.57789000  0.69774000  0.75832000  1.0
  C  C84  1  0.67754000  0.51490000  0.03825000  1.0
  C  C85  1  0.82246000  0.98509000  0.53825000  1.0
  C  C86  1  0.32246000  0.48509000  0.96175000  1.0
  C  C87  1  0.17754000  0.01491000  0.46175000  1.0
  C  C88  1  0.88115000  0.68992000  0.95911000  1.0
  C  C89  1  0.61886000  0.81008000  0.45911000  1.0
  C  C90  1  0.11886000  0.31008000  0.04089000  1.0
  C  C91  1  0.38114000  0.18992000  0.54089000  1.0
  C  C92  1  0.03295000  0.76675000  0.95284000  1.0
  C  C93  1  0.46705000  0.73325000  0.45284000  1.0
  C  C94  1  0.96705000  0.23325000  0.04717000  1.0
  C  C95  1  0.53295000  0.26675000  0.54716000  1.0
  N  N96  1  0.57260000  0.54162000  0.99067000  1.0
  N  N97  1  0.92739000  0.95838000  0.49067000  1.0
  N  N98  1  0.42740000  0.45838000  0.00933000  1.0
  N  N99  1  0.07260000  0.04162000  0.50933000  1.0
  N  N100  1  0.14159000  0.75644000  0.01142000  1.0
  N  N101  1  0.35842000  0.74356000  0.51142000  1.0
  N  N102  1  0.85842000  0.24355000  0.98858000  1.0
  N  N103  1  0.64158000  0.25644000  0.48858000  1.0
  O  O104  1  0.94864000  0.31737000  0.60727000  1.0
  O  O105  1  0.55137000  0.18263000  0.10728000  1.0
  O  O106  1  0.05136000  0.68263000  0.39272000  1.0
  O  O107  1  0.44865000  0.81737000  0.89273000  1.0
  O  O108  1  0.52169000  0.19716000  0.91323000  1.0
  O  O109  1  0.97830000  0.30283000  0.41324000  1.0
  O  O110  1  0.47831000  0.80283000  0.08677000  1.0
  O  O111  1  0.02169000  0.69717000  0.58677000  1.0
  O  O112  1  0.16225000  0.49510000  0.60829000  1.0
  O  O113  1  0.33776000  0.00490000  0.10829000  1.0
  O  O114  1  0.83775000  0.50490000  0.39171000  1.0
  O  O115  1  0.66225000  0.99510000  0.89171000  1.0
  O  O116  1  0.30651000  0.02102000  0.91689000  1.0
  O  O117  1  0.19349000  0.47898000  0.41689000  1.0
  O  O118  1  0.69349000  0.97898000  0.08311000  1.0
  O  O119  1  0.80651000  0.52102000  0.58310000  1.0
