# generated using pymatgen
data_Zn4H12C48Cl12O13
_symmetry_space_group_name_H-M   'P 1'
_cell_length_a   28.14660091
_cell_length_b   28.14690000
_cell_length_c   28.14620000
_cell_angle_alpha   120.00690000
_cell_angle_beta   120.00517316
_cell_angle_gamma   59.99494537
_symmetry_Int_Tables_number   1
_chemical_formula_structural   Zn4H12C48Cl12O13
_chemical_formula_sum   'Zn8 H24 C96 Cl24 O26'
_cell_volume   15765.40291984
_cell_formula_units_Z   2
loop_
 _symmetry_equiv_pos_site_id
 _symmetry_equiv_pos_as_xyz
  1  'x, y, z'
loop_
 _atom_site_type_symbol
 _atom_site_label
 _atom_site_symmetry_multiplicity
 _atom_site_fract_x
 _atom_site_fract_y
 _atom_site_fract_z
 _atom_site_occupancy
  Zn  Zn0  1  0.02849000  0.02851000  0.47152000  1.0
  Zn  Zn1  1  0.91447000  0.02855000  0.47145000  1.0
  Zn  Zn2  1  0.02843000  0.02852000  0.58544000  1.0
  Zn  Zn3  1  0.02846000  0.91458000  0.47152000  1.0
  Zn  Zn4  1  0.47158000  0.47149000  0.02858000  1.0
  Zn  Zn5  1  0.47149000  0.47151000  0.91459000  1.0
  Zn  Zn6  1  0.58547000  0.47151000  0.02854000  1.0
  Zn  Zn7  1  0.47151000  0.58547000  0.02856000  1.0
  H  H8  1  0.36803000  0.70846000  0.13213000  1.0
  H  H9  1  0.36799000  0.55543000  0.13210000  1.0
  H  H10  1  0.13203000  0.94447000  0.36797000  1.0
  H  H11  1  0.13202000  0.79145000  0.36801000  1.0
  H  H12  1  0.55552000  0.36795000  0.79154000  1.0
  H  H13  1  0.70861000  0.36798000  0.94457000  1.0
  H  H14  1  0.79135000  0.13213000  0.55549000  1.0
  H  H15  1  0.94444000  0.13210000  0.70851000  1.0
  H  H16  1  0.36809000  0.36784000  0.79161000  1.0
  H  H17  1  0.36811000  0.36783000  0.94465000  1.0
  H  H18  1  0.13215000  0.13197000  0.55559000  1.0
  H  H19  1  0.13206000  0.13196000  0.70858000  1.0
  H  H20  1  0.55554000  0.70851000  0.13203000  1.0
  H  H21  1  0.70860000  0.55548000  0.13206000  1.0
  H  H22  1  0.79141000  0.94449000  0.36799000  1.0
  H  H23  1  0.94449000  0.79148000  0.36798000  1.0
  H  H24  1  0.70862000  0.36796000  0.13200000  1.0
  H  H25  1  0.55563000  0.36793000  0.13207000  1.0
  H  H26  1  0.94462000  0.13204000  0.36800000  1.0
  H  H27  1  0.79151000  0.13207000  0.36791000  1.0
  H  H28  1  0.36807000  0.55556000  0.79148000  1.0
  H  H29  1  0.36806000  0.70860000  0.94456000  1.0
  H  H30  1  0.13201000  0.79150000  0.55555000  1.0
  H  H31  1  0.13202000  0.94457000  0.70860000  1.0
  C  C32  1  0.90917000  0.09091000  0.40910000  1.0
  C  C33  1  0.90906000  0.09095000  0.59084000  1.0
  C  C34  1  0.09089000  0.09087000  0.59090000  1.0
  C  C35  1  0.09084000  0.90918000  0.59090000  1.0
  C  C36  1  0.09086000  0.90913000  0.40912000  1.0
  C  C37  1  0.90910000  0.90915000  0.40910000  1.0
  C  C38  1  0.40922000  0.40903000  0.90926000  1.0
  C  C39  1  0.59091000  0.40909000  0.90921000  1.0
  C  C40  1  0.59095000  0.40909000  0.09091000  1.0
  C  C41  1  0.59091000  0.59085000  0.09096000  1.0
  C  C42  1  0.40919000  0.59081000  0.09099000  1.0
  C  C43  1  0.40915000  0.59090000  0.90918000  1.0
  C  C44  1  0.37164000  0.62833000  0.12851000  1.0
  C  C45  1  0.35418000  0.68899000  0.14596000  1.0
  C  C46  1  0.31926000  0.72378000  0.18082000  1.0
  C  C47  1  0.30063000  0.69931000  0.19942000  1.0
  C  C48  1  0.31925000  0.63759000  0.18080000  1.0
  C  C49  1  0.35415000  0.60260000  0.14594000  1.0
  C  C50  1  0.26534000  0.73461000  0.23471000  1.0
  C  C51  1  0.23468000  0.76528000  0.26538000  1.0
  C  C52  1  0.19939000  0.80059000  0.30067000  1.0
  C  C53  1  0.18077000  0.86230000  0.31926000  1.0
  C  C54  1  0.14588000  0.89730000  0.35414000  1.0
  C  C55  1  0.12841000  0.87157000  0.37160000  1.0
  C  C56  1  0.14587000  0.81092000  0.35416000  1.0
  C  C57  1  0.18078000  0.77612000  0.31929000  1.0
  C  C58  1  0.62845000  0.37157000  0.87167000  1.0
  C  C59  1  0.60269000  0.35411000  0.81100000  1.0
  C  C60  1  0.63767000  0.31926000  0.77621000  1.0
  C  C61  1  0.69938000  0.30067000  0.80068000  1.0
  C  C62  1  0.72388000  0.31928000  0.86239000  1.0
  C  C63  1  0.68911000  0.35414000  0.89740000  1.0
  C  C64  1  0.73465000  0.26541000  0.76538000  1.0
  C  C65  1  0.76530000  0.23475000  0.73469000  1.0
  C  C66  1  0.80058000  0.19945000  0.69938000  1.0
  C  C67  1  0.77609000  0.18085000  0.63767000  1.0
  C  C68  1  0.81086000  0.14596000  0.60266000  1.0
  C  C69  1  0.87152000  0.12850000  0.62838000  1.0
  C  C70  1  0.89727000  0.14596000  0.68904000  1.0
  C  C71  1  0.86229000  0.18083000  0.72384000  1.0
  C  C72  1  0.37172000  0.37146000  0.87174000  1.0
  C  C73  1  0.35426000  0.35398000  0.81108000  1.0
  C  C74  1  0.31937000  0.31910000  0.77630000  1.0
  C  C75  1  0.30075000  0.30050000  0.80078000  1.0
  C  C76  1  0.31938000  0.31911000  0.86249000  1.0
  C  C77  1  0.35428000  0.35399000  0.89749000  1.0
  C  C78  1  0.26546000  0.26521000  0.76550000  1.0
  C  C79  1  0.23480000  0.23453000  0.73481000  1.0
  C  C80  1  0.19950000  0.19925000  0.69948000  1.0
  C  C81  1  0.18091000  0.18065000  0.63778000  1.0
  C  C82  1  0.14599000  0.14579000  0.60276000  1.0
  C  C83  1  0.12849000  0.12835000  0.62847000  1.0
  C  C84  1  0.14594000  0.14578000  0.68912000  1.0
  C  C85  1  0.18085000  0.18064000  0.72393000  1.0
  C  C86  1  0.62845000  0.62838000  0.12845000  1.0
  C  C87  1  0.60270000  0.68905000  0.14587000  1.0
  C  C88  1  0.63769000  0.72383000  0.18072000  1.0
  C  C89  1  0.69940000  0.69935000  0.19934000  1.0
  C  C90  1  0.72388000  0.63764000  0.18074000  1.0
  C  C91  1  0.68911000  0.60264000  0.14589000  1.0
  C  C92  1  0.73469000  0.73464000  0.23464000  1.0
  C  C93  1  0.76536000  0.76531000  0.26535000  1.0
  C  C94  1  0.80064000  0.80061000  0.30066000  1.0
  C  C95  1  0.77615000  0.86232000  0.31928000  1.0
  C  C96  1  0.81091000  0.89733000  0.35415000  1.0
  C  C97  1  0.87157000  0.87160000  0.37159000  1.0
  C  C98  1  0.89733000  0.81094000  0.35415000  1.0
  C  C99  1  0.86235000  0.77615000  0.31928000  1.0
  C  C100  1  0.62851000  0.37155000  0.12842000  1.0
  C  C101  1  0.68917000  0.35410000  0.14585000  1.0
  C  C102  1  0.72397000  0.31922000  0.18073000  1.0
  C  C103  1  0.69951000  0.30061000  0.19936000  1.0
  C  C104  1  0.63782000  0.31919000  0.18078000  1.0
  C  C105  1  0.60280000  0.35408000  0.14589000  1.0
  C  C106  1  0.73483000  0.26533000  0.23465000  1.0
  C  C107  1  0.76551000  0.23467000  0.26532000  1.0
  C  C108  1  0.80077000  0.19938000  0.30061000  1.0
  C  C109  1  0.86248000  0.18077000  0.31925000  1.0
  C  C110  1  0.89744000  0.14590000  0.35414000  1.0
  C  C111  1  0.87167000  0.12845000  0.37157000  1.0
  C  C112  1  0.81101000  0.14591000  0.35408000  1.0
  C  C113  1  0.77625000  0.18079000  0.31919000  1.0
  C  C114  1  0.37168000  0.62846000  0.87165000  1.0
  C  C115  1  0.35425000  0.60272000  0.81098000  1.0
  C  C116  1  0.31938000  0.63773000  0.77621000  1.0
  C  C117  1  0.30075000  0.69943000  0.80069000  1.0
  C  C118  1  0.31937000  0.72390000  0.86241000  1.0
  C  C119  1  0.35423000  0.68912000  0.89739000  1.0
  C  C120  1  0.26543000  0.73473000  0.76540000  1.0
  C  C121  1  0.23473000  0.76541000  0.73473000  1.0
  C  C122  1  0.19940000  0.80070000  0.69943000  1.0
  C  C123  1  0.18077000  0.77621000  0.63772000  1.0
  C  C124  1  0.14586000  0.81099000  0.60272000  1.0
  C  C125  1  0.12840000  0.87164000  0.62845000  1.0
  C  C126  1  0.14587000  0.89740000  0.68911000  1.0
  C  C127  1  0.18078000  0.86241000  0.72390000  1.0
  Cl  Cl128  1  0.29793000  0.60563000  0.20205000  1.0
  Cl  Cl129  1  0.29799000  0.79832000  0.20208000  1.0
  Cl  Cl130  1  0.20206000  0.70158000  0.29804000  1.0
  Cl  Cl131  1  0.20206000  0.89426000  0.29799000  1.0
  Cl  Cl132  1  0.79842000  0.29804000  0.89436000  1.0
  Cl  Cl133  1  0.60565000  0.29800000  0.70167000  1.0
  Cl  Cl134  1  0.89432000  0.20208000  0.79838000  1.0
  Cl  Cl135  1  0.70155000  0.20211000  0.60569000  1.0
  Cl  Cl136  1  0.29811000  0.29784000  0.89448000  1.0
  Cl  Cl137  1  0.29808000  0.29785000  0.70176000  1.0
  Cl  Cl138  1  0.20212000  0.20189000  0.79847000  1.0
  Cl  Cl139  1  0.20222000  0.20191000  0.60581000  1.0
  Cl  Cl140  1  0.79842000  0.60567000  0.20200000  1.0
  Cl  Cl141  1  0.60568000  0.79836000  0.20196000  1.0
  Cl  Cl142  1  0.89436000  0.70162000  0.29801000  1.0
  Cl  Cl143  1  0.70160000  0.89430000  0.29802000  1.0
  Cl  Cl144  1  0.60586000  0.29792000  0.20207000  1.0
  Cl  Cl145  1  0.79851000  0.29794000  0.20199000  1.0
  Cl  Cl146  1  0.70171000  0.20207000  0.29789000  1.0
  Cl  Cl147  1  0.89448000  0.20204000  0.29800000  1.0
  Cl  Cl148  1  0.29810000  0.79843000  0.89441000  1.0
  Cl  Cl149  1  0.29812000  0.60572000  0.70167000  1.0
  Cl  Cl150  1  0.20205000  0.89443000  0.79844000  1.0
  Cl  Cl151  1  0.20204000  0.70167000  0.60572000  1.0
  O  O152  1  0.99994000  0.00006000  0.49997000  1.0
  O  O153  1  0.96411000  0.07645000  0.42358000  1.0
  O  O154  1  0.88303000  0.07650000  0.53590000  1.0
  O  O155  1  0.07638000  0.07645000  0.61691000  1.0
  O  O156  1  0.88311000  0.07648000  0.42353000  1.0
  O  O157  1  0.07643000  0.07644000  0.53597000  1.0
  O  O158  1  0.96399000  0.07648000  0.61687000  1.0
  O  O159  1  0.07637000  0.96412000  0.61691000  1.0
  O  O160  1  0.07639000  0.88312000  0.42358000  1.0
  O  O161  1  0.07639000  0.88315000  0.53596000  1.0
  O  O162  1  0.07641000  0.96406000  0.42357000  1.0
  O  O163  1  0.88307000  0.96408000  0.42351000  1.0
  O  O164  1  0.96404000  0.88313000  0.42356000  1.0
  O  O165  1  0.50001000  0.49999000  0.00006000  1.0
  O  O166  1  0.42368000  0.42350000  0.96420000  1.0
  O  O167  1  0.53597000  0.42354000  0.88319000  1.0
  O  O168  1  0.61695000  0.42357000  0.07646000  1.0
  O  O169  1  0.42362000  0.42352000  0.88322000  1.0
  O  O170  1  0.53602000  0.42354000  0.07648000  1.0
  O  O171  1  0.61695000  0.42354000  0.96415000  1.0
  O  O172  1  0.61695000  0.53590000  0.07653000  1.0
  O  O173  1  0.42363000  0.61684000  0.07653000  1.0
  O  O174  1  0.53597000  0.61687000  0.07653000  1.0
  O  O175  1  0.42368000  0.53587000  0.07655000  1.0
  O  O176  1  0.42357000  0.53596000  0.88315000  1.0
  O  O177  1  0.42358000  0.61692000  0.96413000  1.0
