# generated using pymatgen
data_CdH9C10I(NO)3
_symmetry_space_group_name_H-M   'P 1'
_cell_length_a   11.69660000
_cell_length_b   11.69660000
_cell_length_c   14.72910000
_cell_angle_alpha   78.85940000
_cell_angle_beta   78.85940000
_cell_angle_gamma   85.56110000
_symmetry_Int_Tables_number   1
_chemical_formula_structural   CdH9C10I(NO)3
_chemical_formula_sum   'Cd4 H36 C40 I4 N12 O12'
_cell_volume   1938.18486187
_cell_formula_units_Z   4
loop_
 _symmetry_equiv_pos_site_id
 _symmetry_equiv_pos_as_xyz
  1  'x, y, z'
loop_
 _atom_site_type_symbol
 _atom_site_label
 _atom_site_symmetry_multiplicity
 _atom_site_fract_x
 _atom_site_fract_y
 _atom_site_fract_z
 _atom_site_occupancy
  Cd  Cd0  1  0.88939000  0.28295000  0.93357000  1.0
  Cd  Cd1  1  0.71705000  0.11061000  0.56643000  1.0
  Cd  Cd2  1  0.11061000  0.71705000  0.06643000  1.0
  Cd  Cd3  1  0.28295000  0.88939000  0.43357000  1.0
  H  H4  1  0.10034000  0.08351000  0.92464000  1.0
  H  H5  1  0.91650000  0.89966000  0.57535000  1.0
  H  H6  1  0.89966000  0.91649000  0.07536000  1.0
  H  H7  1  0.08350000  0.10034000  0.42465000  1.0
  H  H8  1  0.22140000  0.97298000  0.81606000  1.0
  H  H9  1  0.02702000  0.77860000  0.68394000  1.0
  H  H10  1  0.77860000  0.02702000  0.18394000  1.0
  H  H11  1  0.97299000  0.22140000  0.31606000  1.0
  H  H12  1  0.92787000  0.27186000  0.71830000  1.0
  H  H13  1  0.72814000  0.07213000  0.78170000  1.0
  H  H14  1  0.07213000  0.72814000  0.28170000  1.0
  H  H15  1  0.27186000  0.92787000  0.21830000  1.0
  H  H16  1  0.04432000  0.16579000  0.59595000  1.0
  H  H17  1  0.83421000  0.95568000  0.90405000  1.0
  H  H18  1  0.95568000  0.83421000  0.40405000  1.0
  H  H19  1  0.16579000  0.04432000  0.09595000  1.0
  H  H20  1  0.64702000  0.94233000  0.10368000  1.0
  H  H21  1  0.05767000  0.35298000  0.39633000  1.0
  H  H22  1  0.35298000  0.05767000  0.89632000  1.0
  H  H23  1  0.94233000  0.64702000  0.60368000  1.0
  H  H24  1  0.52560000  0.17917000  0.87689000  1.0
  H  H25  1  0.82083000  0.47440000  0.62311000  1.0
  H  H26  1  0.47440000  0.82083000  0.12311000  1.0
  H  H27  1  0.17917000  0.52560000  0.37689000  1.0
  H  H28  1  0.29260000  0.89232000  0.71712000  1.0
  H  H29  1  0.10768000  0.70740000  0.78288000  1.0
  H  H30  1  0.70740000  0.10768000  0.28288000  1.0
  H  H31  1  0.89232000  0.29260000  0.21712000  1.0
  H  H32  1  0.35521000  0.75893000  0.60788000  1.0
  H  H33  1  0.24107000  0.64478000  0.89212000  1.0
  H  H34  1  0.64478000  0.24107000  0.39212000  1.0
  H  H35  1  0.75893000  0.35522000  0.10788000  1.0
  H  H36  1  0.43116000  0.88161000  0.57958000  1.0
  H  H37  1  0.11839000  0.56883000  0.92042000  1.0
  H  H38  1  0.56884000  0.11839000  0.42042000  1.0
  H  H39  1  0.88161000  0.43116000  0.07958000  1.0
  C  C40  1  0.70065000  0.14092000  0.97730000  1.0
  C  C41  1  0.85908000  0.29935000  0.52270000  1.0
  C  C42  1  0.29935000  0.85908000  0.02270000  1.0
  C  C43  1  0.14092000  0.70065000  0.47730000  1.0
  C  C44  1  0.09052000  0.09996000  0.85121000  1.0
  C  C45  1  0.90004000  0.90948000  0.64879000  1.0
  C  C46  1  0.90948000  0.90004000  0.14879000  1.0
  C  C47  1  0.09996000  0.09052000  0.35121000  1.0
  C  C48  1  0.15900000  0.03758000  0.78767000  1.0
  C  C49  1  0.96242000  0.84100000  0.71233000  1.0
  C  C50  1  0.84100000  0.96242000  0.21233000  1.0
  C  C51  1  0.03758000  0.15900000  0.28767000  1.0
  C  C52  1  0.99443000  0.20500000  0.73603000  1.0
  C  C53  1  0.79501000  0.00556000  0.76397000  1.0
  C  C54  1  0.00556000  0.79500000  0.26397000  1.0
  C  C55  1  0.20500000  0.99444000  0.23603000  1.0
  C  C56  1  0.05894000  0.14618000  0.66820000  1.0
  C  C57  1  0.85382000  0.94106000  0.83181000  1.0
  C  C58  1  0.94106000  0.85381000  0.33181000  1.0
  C  C59  1  0.14618000  0.05894000  0.16820000  1.0
  C  C60  1  0.14208000  0.05974000  0.69430000  1.0
  C  C61  1  0.94026000  0.85792000  0.80570000  1.0
  C  C62  1  0.85792000  0.94026000  0.30570000  1.0
  C  C63  1  0.05974000  0.14208000  0.19430000  1.0
  C  C64  1  0.58249000  0.96695000  0.05830000  1.0
  C  C65  1  0.03305000  0.41750000  0.44170000  1.0
  C  C66  1  0.41751000  0.03305000  0.94170000  1.0
  C  C67  1  0.96695000  0.58249000  0.55830000  1.0
  C  C68  1  0.51357000  0.10080000  0.93085000  1.0
  C  C69  1  0.89920000  0.48643000  0.56915000  1.0
  C  C70  1  0.48643000  0.89920000  0.06915000  1.0
  C  C71  1  0.10079000  0.51357000  0.43085000  1.0
  C  C72  1  0.59683000  0.06836000  0.98925000  1.0
  C  C73  1  0.93164000  0.40317000  0.51076000  1.0
  C  C74  1  0.40317000  0.93164000  0.01076000  1.0
  C  C75  1  0.06836000  0.59683000  0.48925000  1.0
  C  C76  1  0.20684000  0.99469000  0.62092000  1.0
  C  C77  1  0.00531000  0.79316000  0.87908000  1.0
  C  C78  1  0.79316000  0.00531000  0.37908000  1.0
  C  C79  1  0.99470000  0.20685000  0.12092000  1.0
  I  I80  1  0.93344000  0.50787000  0.83596000  1.0
  I  I81  1  0.49214000  0.06655000  0.66403000  1.0
  I  I82  1  0.06656000  0.49214000  0.16403000  1.0
  I  I83  1  0.50786000  0.93344000  0.33597000  1.0
  N  N84  1  0.00949000  0.18162000  0.82621000  1.0
  N  N85  1  0.81838000  0.99051000  0.67379000  1.0
  N  N86  1  0.99051000  0.81838000  0.17379000  1.0
  N  N87  1  0.18162000  0.00949000  0.32621000  1.0
  N  N88  1  0.27043000  0.89759000  0.65277000  1.0
  N  N89  1  0.10242000  0.72957000  0.84723000  1.0
  N  N90  1  0.72957000  0.10241000  0.34723000  1.0
  N  N91  1  0.89759000  0.27043000  0.15277000  1.0
  N  N92  1  0.35058000  0.84720000  0.58612000  1.0
  N  N93  1  0.15280000  0.64942000  0.91388000  1.0
  N  N94  1  0.64942000  0.15280000  0.41388000  1.0
  N  N95  1  0.84720000  0.35058000  0.08612000  1.0
  O  O96  1  0.71760000  0.22427000  0.90602000  1.0
  O  O97  1  0.77573000  0.28239000  0.59399000  1.0
  O  O98  1  0.28239000  0.77574000  0.09399000  1.0
  O  O99  1  0.22427000  0.71760000  0.40602000  1.0
  O  O100  1  0.76975000  0.11753000  0.03629000  1.0
  O  O101  1  0.88247000  0.23025000  0.46371000  1.0
  O  O102  1  0.23025000  0.88247000  0.96370000  1.0
  O  O103  1  0.11752000  0.76975000  0.53629000  1.0
  O  O104  1  0.19897000  0.02632000  0.53670000  1.0
  O  O105  1  0.97368000  0.80103000  0.96329000  1.0
  O  O106  1  0.80103000  0.97368000  0.46330000  1.0
  O  O107  1  0.02632000  0.19897000  0.03670000  1.0
