# generated using pymatgen
data_NiH14C14(NO3)2
_symmetry_space_group_name_H-M   'P 1'
_cell_length_a   7.94260000
_cell_length_b   11.84180000
_cell_length_c   15.43600000
_cell_angle_alpha   90.23010000
_cell_angle_beta   89.72480000
_cell_angle_gamma   89.92120000
_symmetry_Int_Tables_number   1
_chemical_formula_structural   NiH14C14(NO3)2
_chemical_formula_sum   'Ni4 H56 C56 N8 O24'
_cell_volume   1451.79818454
_cell_formula_units_Z   4
loop_
 _symmetry_equiv_pos_site_id
 _symmetry_equiv_pos_as_xyz
  1  'x, y, z'
loop_
 _atom_site_type_symbol
 _atom_site_label
 _atom_site_symmetry_multiplicity
 _atom_site_fract_x
 _atom_site_fract_y
 _atom_site_fract_z
 _atom_site_occupancy
  Ni  Ni0  1  0.00000000  0.50000000  0.00000000  1.0
  Ni  Ni1  1  0.50000000  0.50000000  0.50000000  1.0
  Ni  Ni2  1  0.49999000  0.00000000  0.00000000  1.0
  Ni  Ni3  1  0.00000000  0.00000000  0.50000000  1.0
  H  H4  1  0.83571000  0.60047000  0.15613000  1.0
  H  H5  1  0.66327000  0.39979000  0.65504000  1.0
  H  H6  1  0.33623000  0.89955000  0.84430000  1.0
  H  H7  1  0.16316000  0.10142000  0.34772000  1.0
  H  H8  1  0.16430000  0.39954000  0.84387000  1.0
  H  H9  1  0.33672000  0.60020000  0.34496000  1.0
  H  H10  1  0.66375000  0.10045000  0.15570000  1.0
  H  H11  1  0.83684000  0.89858000  0.65227000  1.0
  H  H12  1  0.02346000  0.28311000  0.09658000  1.0
  H  H13  1  0.47713000  0.71735000  0.59775000  1.0
  H  H14  1  0.52343000  0.21668000  0.90301000  1.0
  H  H15  1  0.97545000  0.78417000  0.40569000  1.0
  H  H16  1  0.97654000  0.71690000  0.90342000  1.0
  H  H17  1  0.52286000  0.28265000  0.40225000  1.0
  H  H18  1  0.47657000  0.78332000  0.09699000  1.0
  H  H19  1  0.02456000  0.21582000  0.59431000  1.0
  H  H20  1  0.75990000  0.54141000  0.30756000  1.0
  H  H21  1  0.73929000  0.45902000  0.80634000  1.0
  H  H22  1  0.26044000  0.95858000  0.69327000  1.0
  H  H23  1  0.23877000  0.04193000  0.19616000  1.0
  H  H24  1  0.24012000  0.45860000  0.69245000  1.0
  H  H25  1  0.26072000  0.54097000  0.19365000  1.0
  H  H26  1  0.73956000  0.04141000  0.30673000  1.0
  H  H27  1  0.76122000  0.95806000  0.80383000  1.0
  H  H28  1  0.95455000  0.21033000  0.24476000  1.0
  H  H29  1  0.54591000  0.79028000  0.74590000  1.0
  H  H30  1  0.45454000  0.28960000  0.75529000  1.0
  H  H31  1  0.04460000  0.71122000  0.25732000  1.0
  H  H32  1  0.04546000  0.78968000  0.75525000  1.0
  H  H33  1  0.45409000  0.20971000  0.25411000  1.0
  H  H34  1  0.54548000  0.71039000  0.24471000  1.0
  H  H35  1  0.95540000  0.28877000  0.74269000  1.0
  H  H36  1  0.82139000  0.34178000  0.35250000  1.0
  H  H37  1  0.67857000  0.65865000  0.85259000  1.0
  H  H38  1  0.32153000  0.15809000  0.64803000  1.0
  H  H39  1  0.17752000  0.84267000  0.14992000  1.0
  H  H40  1  0.17863000  0.65824000  0.64750000  1.0
  H  H41  1  0.32144000  0.34133000  0.14741000  1.0
  H  H42  1  0.67849000  0.84190000  0.35196000  1.0
  H  H43  1  0.82248000  0.15733000  0.85008000  1.0
  H  H44  1  0.00690000  0.71493000  0.04531000  1.0
  H  H45  1  0.49295000  0.28521000  0.54547000  1.0
  H  H46  1  0.50770000  0.78506000  0.95495000  1.0
  H  H47  1  0.99003000  0.21796000  0.45234000  1.0
  H  H48  1  0.99309000  0.28508000  0.95469000  1.0
  H  H49  1  0.50705000  0.71478000  0.45452000  1.0
  H  H50  1  0.49230000  0.21494000  0.04505000  1.0
  H  H51  1  0.00998000  0.78204000  0.54767000  1.0
  H  H52  1  0.19334000  0.67107000  0.02695000  1.0
  H  H53  1  0.30678000  0.32913000  0.52687000  1.0
  H  H54  1  0.69378000  0.82897000  0.97305000  1.0
  H  H55  1  0.80419000  0.17451000  0.47111000  1.0
  H  H56  1  0.80666000  0.32894000  0.97304000  1.0
  H  H57  1  0.69322000  0.67087000  0.47313000  1.0
  H  H58  1  0.30621000  0.17103000  0.02695000  1.0
  H  H59  1  0.19582000  0.82548000  0.52889000  1.0
  C  C60  1  0.86000000  0.51493000  0.17886000  1.0
  C  C61  1  0.63935000  0.48543000  0.67826000  1.0
  C  C62  1  0.36042000  0.98506000  0.82148000  1.0
  C  C63  1  0.13907000  0.01591000  0.32469000  1.0
  C  C64  1  0.14001000  0.48508000  0.82114000  1.0
  C  C65  1  0.36065000  0.51457000  0.32173000  1.0
  C  C66  1  0.63958000  0.01494000  0.17853000  1.0
  C  C67  1  0.86093000  0.98409000  0.67531000  1.0
  C  C68  1  0.96396000  0.33716000  0.14513000  1.0
  C  C69  1  0.53620000  0.66327000  0.64580000  1.0
  C  C70  1  0.46410000  0.16268000  0.85473000  1.0
  C  C71  1  0.03503000  0.83807000  0.35753000  1.0
  C  C72  1  0.03603000  0.66285000  0.85487000  1.0
  C  C73  1  0.46379000  0.33672000  0.35420000  1.0
  C  C74  1  0.53589000  0.83732000  0.14527000  1.0
  C  C75  1  0.96497000  0.16192000  0.64247000  1.0
  C  C76  1  0.81871000  0.48168000  0.26269000  1.0
  C  C77  1  0.68082000  0.51879000  0.76204000  1.0
  C  C78  1  0.31902000  0.01834000  0.73785000  1.0
  C  C79  1  0.18018000  0.98229000  0.24073000  1.0
  C  C80  1  0.18130000  0.51833000  0.73732000  1.0
  C  C81  1  0.31919000  0.48121000  0.23796000  1.0
  C  C82  1  0.68098000  0.98166000  0.26215000  1.0
  C  C83  1  0.81982000  0.01771000  0.75927000  1.0
  C  C84  1  0.92574000  0.29739000  0.22755000  1.0
  C  C85  1  0.57448000  0.70315000  0.72825000  1.0
  C  C86  1  0.42582000  0.20254000  0.77251000  1.0
  C  C87  1  0.07341000  0.79831000  0.27482000  1.0
  C  C88  1  0.07426000  0.70263000  0.77245000  1.0
  C  C89  1  0.42551000  0.29684000  0.27175000  1.0
  C  C90  1  0.57418000  0.79745000  0.22749000  1.0
  C  C91  1  0.92660000  0.20168000  0.72519000  1.0
  C  C92  1  0.85232000  0.37069000  0.28755000  1.0
  C  C93  1  0.64758000  0.62988000  0.78758000  1.0
  C  C94  1  0.35249000  0.12932000  0.71287000  1.0
  C  C95  1  0.14660000  0.87137000  0.21513000  1.0
  C  C96  1  0.14769000  0.62932000  0.71245000  1.0
  C  C97  1  0.35242000  0.37012000  0.21242000  1.0
  C  C98  1  0.64751000  0.87067000  0.28713000  1.0
  C  C99  1  0.85340000  0.12863000  0.78487000  1.0
  C  C100  1  0.62089000  0.53444000  0.99367000  1.0
  C  C101  1  0.87935000  0.46536000  0.49340000  1.0
  C  C102  1  0.12079000  0.96556000  0.00693000  1.0
  C  C103  1  0.37963000  0.03520000  0.50659000  1.0
  C  C104  1  0.37911000  0.46556000  0.00633000  1.0
  C  C105  1  0.12064000  0.53465000  0.50660000  1.0
  C  C106  1  0.87921000  0.03444000  0.99308000  1.0
  C  C107  1  0.62037000  0.96480000  0.49339000  1.0
  C  C108  1  0.44762000  0.57963000  0.99035000  1.0
  C  C109  1  0.05288000  0.42038000  0.49051000  1.0
  C  C110  1  0.94753000  0.92045000  0.00976000  1.0
  C  C111  1  0.55316000  0.07928000  0.51048000  1.0
  C  C112  1  0.55238000  0.42038000  0.00965000  1.0
  C  C113  1  0.94711000  0.57962000  0.50950000  1.0
  C  C114  1  0.05246000  0.07954000  0.99025000  1.0
  C  C115  1  0.44684000  0.92071000  0.48950000  1.0
  N  N116  1  0.93230000  0.44419000  0.12097000  1.0
  N  N117  1  0.56736000  0.55613000  0.62101000  1.0
  N  N118  1  0.43264000  0.05567000  0.87904000  1.0
  N  N119  1  0.06662000  0.94522000  0.38228000  1.0
  N  N120  1  0.06770000  0.55582000  0.87903000  1.0
  N  N121  1  0.43263000  0.44386000  0.37899000  1.0
  N  N122  1  0.56735000  0.94433000  0.12096000  1.0
  N  N123  1  0.93338000  0.05478000  0.61772000  1.0
  O  O124  1  0.76404000  0.57911000  0.98554000  1.0
  O  O125  1  0.73633000  0.42069000  0.48499000  1.0
  O  O126  1  0.26397000  0.92111000  0.01576000  1.0
  O  O127  1  0.23766000  0.08153000  0.51510000  1.0
  O  O128  1  0.23596000  0.42089000  0.01446000  1.0
  O  O129  1  0.26366000  0.57931000  0.51501000  1.0
  O  O130  1  0.73602000  0.07889000  0.98425000  1.0
  O  O131  1  0.76234000  0.91847000  0.48489000  1.0
  O  O132  1  0.08619000  0.65105000  0.05781000  1.0
  O  O133  1  0.41358000  0.34945000  0.55757000  1.0
  O  O134  1  0.58699000  0.84891000  0.94231000  1.0
  O  O135  1  0.90908000  0.15592000  0.43787000  1.0
  O  O136  1  0.91381000  0.34895000  0.94219000  1.0
  O  O137  1  0.58642000  0.65055000  0.44243000  1.0
  O  O138  1  0.41300000  0.15109000  0.05770000  1.0
  O  O139  1  0.09094000  0.84408000  0.56213000  1.0
  O  O140  1  0.38375000  0.67634000  0.97986000  1.0
  O  O141  1  0.11749000  0.32373000  0.48019000  1.0
  O  O142  1  0.88351000  0.82389000  0.02035000  1.0
  O  O143  1  0.61703000  0.17566000  0.52208000  1.0
  O  O144  1  0.61624000  0.32367000  0.02014000  1.0
  O  O145  1  0.88251000  0.67628000  0.51981000  1.0
  O  O146  1  0.11647000  0.17611000  0.97966000  1.0
  O  O147  1  0.38297000  0.82434000  0.47789000  1.0
