# generated using pymatgen
data_ZnH20C22S2N12(OF)6
_symmetry_space_group_name_H-M   'P 1'
_cell_length_a   12.39080000
_cell_length_b   15.78620000
_cell_length_c   15.78620000
_cell_angle_alpha   60.00000000
_cell_angle_beta   90.00010000
_cell_angle_gamma   89.99990000
_symmetry_Int_Tables_number   1
_chemical_formula_structural   ZnH20C22S2N12(OF)6
_chemical_formula_sum   'Zn3 H60 C66 S6 N36 O18 F18'
_cell_volume   2674.14640332
_cell_formula_units_Z   3
loop_
 _symmetry_equiv_pos_site_id
 _symmetry_equiv_pos_as_xyz
  1  'x, y, z'
loop_
 _atom_site_type_symbol
 _atom_site_label
 _atom_site_symmetry_multiplicity
 _atom_site_fract_x
 _atom_site_fract_y
 _atom_site_fract_z
 _atom_site_occupancy
  Zn  Zn0  1  0.16667000  0.00000000  0.42164000  1.0
  Zn  Zn1  1  0.50000000  0.57836000  1.00000000  1.0
  Zn  Zn2  1  0.83333000  0.42164000  0.57836000  1.0
  H  H3  1  0.16753000  0.81558000  0.62623000  1.0
  H  H4  1  0.97564000  0.06483000  0.51464000  1.0
  H  H5  1  0.77166000  0.05580000  0.75433000  1.0
  H  H6  1  0.84576000  0.94551000  0.82903000  1.0
  H  H7  1  0.76466000  0.95656000  0.73117000  1.0
  H  H8  1  0.79929000  0.20072000  0.66839000  1.0
  H  H9  1  0.06674000  0.38361000  0.56635000  1.0
  H  H10  1  0.30062000  0.27532000  0.66024000  1.0
  H  H11  1  0.23113000  0.37811000  0.56538000  1.0
  H  H12  1  0.34517000  0.32837000  0.53675000  1.0
  H  H13  1  0.50087000  0.55819000  0.81558000  1.0
  H  H14  1  0.30897000  0.42053000  0.06483000  1.0
  H  H15  1  0.10500000  0.18988000  0.05579000  1.0
  H  H16  1  0.17909000  0.22547000  0.94550000  1.0
  H  H17  1  0.09799000  0.31227000  0.95656000  1.0
  H  H18  1  0.13262000  0.13089000  0.20072000  1.0
  H  H19  1  0.40007000  0.05004000  0.38360000  1.0
  H  H20  1  0.63395000  0.06443000  0.27532000  1.0
  H  H21  1  0.56446000  0.05651000  0.37811000  1.0
  H  H22  1  0.67850000  0.13488000  0.32837000  1.0
  H  H23  1  0.83420000  0.62623000  0.55819000  1.0
  H  H24  1  0.64231000  0.51464000  0.42053000  1.0
  H  H25  1  0.43833000  0.75433000  0.18987000  1.0
  H  H26  1  0.51243000  0.82902000  0.22547000  1.0
  H  H27  1  0.43132000  0.73117000  0.31228000  1.0
  H  H28  1  0.46595000  0.66839000  0.13090000  1.0
  H  H29  1  0.73341000  0.56636000  0.05003000  1.0
  H  H30  1  0.96729000  0.66025000  0.06444000  1.0
  H  H31  1  0.89780000  0.56538000  0.05651000  1.0
  H  H32  1  0.01184000  0.53675000  0.13488000  1.0
  H  H33  1  0.83247000  0.44181000  0.37376000  1.0
  H  H34  1  0.02436000  0.57947000  0.48536000  1.0
  H  H35  1  0.22833000  0.81013000  0.24567000  1.0
  H  H36  1  0.15424000  0.77453000  0.17098000  1.0
  H  H37  1  0.23534000  0.68773000  0.26883000  1.0
  H  H38  1  0.20071000  0.86911000  0.33161000  1.0
  H  H39  1  0.93326000  0.94996000  0.43365000  1.0
  H  H40  1  0.69938000  0.93556000  0.33975000  1.0
  H  H41  1  0.76887000  0.94349000  0.43462000  1.0
  H  H42  1  0.65483000  0.86512000  0.46325000  1.0
  H  H43  1  0.49914000  0.37377000  0.18442000  1.0
  H  H44  1  0.69103000  0.48536000  0.93517000  1.0
  H  H45  1  0.89500000  0.24567000  0.94421000  1.0
  H  H46  1  0.82091000  0.17097000  0.05450000  1.0
  H  H47  1  0.90201000  0.26882000  0.04345000  1.0
  H  H48  1  0.86738000  0.33161000  0.79929000  1.0
  H  H49  1  0.59993000  0.43364000  0.61640000  1.0
  H  H50  1  0.36605000  0.33975000  0.72469000  1.0
  H  H51  1  0.43553000  0.43462000  0.62189000  1.0
  H  H52  1  0.32150000  0.46325000  0.67163000  1.0
  H  H53  1  0.16580000  0.18442000  0.44181000  1.0
  H  H54  1  0.35769000  0.93517000  0.57947000  1.0
  H  H55  1  0.56167000  0.94420000  0.81013000  1.0
  H  H56  1  0.48757000  0.05449000  0.77454000  1.0
  H  H57  1  0.56868000  0.04345000  0.68773000  1.0
  H  H58  1  0.53404000  0.79929000  0.86911000  1.0
  H  H59  1  0.26660000  0.61639000  0.94996000  1.0
  H  H60  1  0.03271000  0.72469000  0.93556000  1.0
  H  H61  1  0.10220000  0.62189000  0.94349000  1.0
  H  H62  1  0.98816000  0.67163000  0.86512000  1.0
  C  C63  1  0.08027000  0.83705000  0.73356000  1.0
  C  C64  1  0.11126000  0.86085000  0.63912000  1.0
  C  C65  1  0.00598000  0.99875000  0.57759000  1.0
  C  C66  1  0.97533000  0.97290000  0.67304000  1.0
  C  C67  1  0.81767000  0.99667000  0.75443000  1.0
  C  C68  1  0.94798000  0.13099000  0.65503000  1.0
  C  C69  1  0.88504000  0.20743000  0.65150000  1.0
  C  C70  1  0.03443000  0.31084000  0.59231000  1.0
  C  C71  1  0.09607000  0.23387000  0.59616000  1.0
  C  C72  1  0.27401000  0.31047000  0.58373000  1.0
  C  C73  1  0.95153000  0.29062000  0.27594000  1.0
  C  C74  1  0.41361000  0.42939000  0.83705000  1.0
  C  C75  1  0.44459000  0.50003000  0.86085000  1.0
  C  C76  1  0.33932000  0.42366000  0.99875000  1.0
  C  C77  1  0.30866000  0.35406000  0.97290000  1.0
  C  C78  1  0.15100000  0.24890000  0.99667000  1.0
  C  C79  1  0.28132000  0.21398000  0.13099000  1.0
  C  C80  1  0.21837000  0.14108000  0.20743000  1.0
  C  C81  1  0.36776000  0.09685000  0.31084000  1.0
  C  C82  1  0.42940000  0.16997000  0.23388000  1.0
  C  C83  1  0.60734000  0.10579000  0.31047000  1.0
  C  C84  1  0.28487000  0.43344000  0.29062000  1.0
  C  C85  1  0.74694000  0.73356000  0.42939000  1.0
  C  C86  1  0.77793000  0.63912000  0.50003000  1.0
  C  C87  1  0.67266000  0.57759000  0.42365000  1.0
  C  C88  1  0.64199000  0.67303000  0.35407000  1.0
  C  C89  1  0.48434000  0.75443000  0.24890000  1.0
  C  C90  1  0.61465000  0.65503000  0.21398000  1.0
  C  C91  1  0.55171000  0.65149000  0.14108000  1.0
  C  C92  1  0.70109000  0.59231000  0.09685000  1.0
  C  C93  1  0.76274000  0.59615000  0.16998000  1.0
  C  C94  1  0.94068000  0.58374000  0.10579000  1.0
  C  C95  1  0.61820000  0.27594000  0.43344000  1.0
  C  C96  1  0.91973000  0.57061000  0.26644000  1.0
  C  C97  1  0.88874000  0.49997000  0.36088000  1.0
  C  C98  1  0.99402000  0.57634000  0.42241000  1.0
  C  C99  1  0.02467000  0.64594000  0.32696000  1.0
  C  C100  1  0.18233000  0.75110000  0.24557000  1.0
  C  C101  1  0.05202000  0.78602000  0.34497000  1.0
  C  C102  1  0.11496000  0.85892000  0.34851000  1.0
  C  C103  1  0.96557000  0.90315000  0.40768000  1.0
  C  C104  1  0.90393000  0.83002000  0.40385000  1.0
  C  C105  1  0.72599000  0.89420000  0.41627000  1.0
  C  C106  1  0.04847000  0.56656000  0.72406000  1.0
  C  C107  1  0.58640000  0.26644000  0.16295000  1.0
  C  C108  1  0.55541000  0.36088000  0.13915000  1.0
  C  C109  1  0.66068000  0.42241000  0.00125000  1.0
  C  C110  1  0.69134000  0.32696000  0.02711000  1.0
  C  C111  1  0.84900000  0.24557000  0.00333000  1.0
  C  C112  1  0.71868000  0.34497000  0.86901000  1.0
  C  C113  1  0.78163000  0.34851000  0.79257000  1.0
  C  C114  1  0.63224000  0.40769000  0.68916000  1.0
  C  C115  1  0.57060000  0.40385000  0.76613000  1.0
  C  C116  1  0.39266000  0.41626000  0.68954000  1.0
  C  C117  1  0.71513000  0.72406000  0.70938000  1.0
  C  C118  1  0.25306000  0.16295000  0.57061000  1.0
  C  C119  1  0.22207000  0.13915000  0.49997000  1.0
  C  C120  1  0.32734000  0.00124000  0.57635000  1.0
  C  C121  1  0.35801000  0.02710000  0.64593000  1.0
  C  C122  1  0.51566000  0.00333000  0.75110000  1.0
  C  C123  1  0.38535000  0.86901000  0.78602000  1.0
  C  C124  1  0.44829000  0.79257000  0.85892000  1.0
  C  C125  1  0.29891000  0.68916000  0.90315000  1.0
  C  C126  1  0.23726000  0.76613000  0.83002000  1.0
  C  C127  1  0.05932000  0.68953000  0.89421000  1.0
  C  C128  1  0.38180000  0.70938000  0.56656000  1.0
  S  S129  1  0.95470000  0.15946000  0.30864000  1.0
  S  S130  1  0.28804000  0.53191000  0.15945000  1.0
  S  S131  1  0.62137000  0.30864000  0.53190000  1.0
  S  S132  1  0.04530000  0.46810000  0.69135000  1.0
  S  S133  1  0.71196000  0.69136000  0.84054000  1.0
  S  S134  1  0.37863000  0.84054000  0.46810000  1.0
  N  N135  1  0.01068000  0.89123000  0.75110000  1.0
  N  N136  1  0.07419000  0.94256000  0.56143000  1.0
  N  N137  1  0.90869000  0.03762000  0.68711000  1.0
  N  N138  1  0.05163000  0.14602000  0.62708000  1.0
  N  N139  1  0.93040000  0.29558000  0.61868000  1.0
  N  N140  1  0.20382000  0.24460000  0.56913000  1.0
  N  N141  1  0.34401000  0.35767000  0.89123000  1.0
  N  N142  1  0.40752000  0.49601000  0.94256000  1.0
  N  N143  1  0.24202000  0.27527000  0.03762000  1.0
  N  N144  1  0.38496000  0.22690000  0.14602000  1.0
  N  N145  1  0.26373000  0.08574000  0.29557000  1.0
  N  N146  1  0.53715000  0.18627000  0.24460000  1.0
  N  N147  1  0.67734000  0.75110000  0.35766000  1.0
  N  N148  1  0.74086000  0.56142000  0.49602000  1.0
  N  N149  1  0.57535000  0.68711000  0.27527000  1.0
  N  N150  1  0.71829000  0.62709000  0.22689000  1.0
  N  N151  1  0.59706000  0.61869000  0.08574000  1.0
  N  N152  1  0.87049000  0.56913000  0.18627000  1.0
  N  N153  1  0.98932000  0.64233000  0.24891000  1.0
  N  N154  1  0.92581000  0.50399000  0.43857000  1.0
  N  N155  1  0.09131000  0.72473000  0.31289000  1.0
  N  N156  1  0.94837000  0.77310000  0.37292000  1.0
  N  N157  1  0.06960000  0.91426000  0.38132000  1.0
  N  N158  1  0.79618000  0.81373000  0.43087000  1.0
  N  N159  1  0.65599000  0.24890000  0.10877000  1.0
  N  N160  1  0.59248000  0.43858000  0.05744000  1.0
  N  N161  1  0.75798000  0.31289000  0.96238000  1.0
  N  N162  1  0.61504000  0.37292000  0.85398000  1.0
  N  N163  1  0.73627000  0.38131000  0.70443000  1.0
  N  N164  1  0.46285000  0.43087000  0.75540000  1.0
  N  N165  1  0.32266000  0.10877000  0.64233000  1.0
  N  N166  1  0.25914000  0.05744000  0.50398000  1.0
  N  N167  1  0.42465000  0.96238000  0.72473000  1.0
  N  N168  1  0.28171000  0.85398000  0.77310000  1.0
  N  N169  1  0.40294000  0.70442000  0.91427000  1.0
  N  N170  1  0.12951000  0.75540000  0.81373000  1.0
  O  O171  1  0.86196000  0.11622000  0.37243000  1.0
  O  O172  1  0.05933000  0.12811000  0.36095000  1.0
  O  O173  1  0.95329000  0.16204000  0.21549000  1.0
  O  O174  1  0.19530000  0.51136000  0.11621000  1.0
  O  O175  1  0.39266000  0.51094000  0.12812000  1.0
  O  O176  1  0.28662000  0.62247000  0.16204000  1.0
  O  O177  1  0.52863000  0.37243000  0.51135000  1.0
  O  O178  1  0.72600000  0.36094000  0.51094000  1.0
  O  O179  1  0.61996000  0.21549000  0.62247000  1.0
  O  O180  1  0.13804000  0.48865000  0.62757000  1.0
  O  O181  1  0.94067000  0.48906000  0.63905000  1.0
  O  O182  1  0.04671000  0.37753000  0.78451000  1.0
  O  O183  1  0.80470000  0.62757000  0.88378000  1.0
  O  O184  1  0.60734000  0.63906000  0.87188000  1.0
  O  O185  1  0.71338000  0.78451000  0.83796000  1.0
  O  O186  1  0.47137000  0.88378000  0.48865000  1.0
  O  O187  1  0.27400000  0.87188000  0.48906000  1.0
  O  O188  1  0.38004000  0.83796000  0.37753000  1.0
  F  F189  1  0.03506000  0.34065000  0.21654000  1.0
  F  F190  1  0.85803000  0.33345000  0.22887000  1.0
  F  F191  1  0.95792000  0.29891000  0.35760000  1.0
  F  F192  1  0.36840000  0.44281000  0.34065000  1.0
  F  F193  1  0.19137000  0.43767000  0.33346000  1.0
  F  F194  1  0.29126000  0.34349000  0.29890000  1.0
  F  F195  1  0.70173000  0.21654000  0.44281000  1.0
  F  F196  1  0.52470000  0.22888000  0.43767000  1.0
  F  F197  1  0.62460000  0.35761000  0.34349000  1.0
  F  F198  1  0.96493000  0.55719000  0.78346000  1.0
  F  F199  1  0.14196000  0.56232000  0.77113000  1.0
  F  F200  1  0.04207000  0.65651000  0.64240000  1.0
  F  F201  1  0.63160000  0.78346000  0.65935000  1.0
  F  F202  1  0.80863000  0.77113000  0.66654000  1.0
  F  F203  1  0.70874000  0.64239000  0.70109000  1.0
  F  F204  1  0.29827000  0.65935000  0.55719000  1.0
  F  F205  1  0.47530000  0.66655000  0.56232000  1.0
  F  F206  1  0.37541000  0.70109000  0.65652000  1.0
