# generated using pymatgen
data_CdH20C16(SN3)2
_symmetry_space_group_name_H-M   'P 1'
_cell_length_a   5.90365000
_cell_length_b   11.08550000
_cell_length_c   14.31490000
_cell_angle_alpha   90.00000000
_cell_angle_beta   98.92560000
_cell_angle_gamma   89.99920000
_symmetry_Int_Tables_number   1
_chemical_formula_structural   CdH20C16(SN3)2
_chemical_formula_sum   'Cd2 H40 C32 S4 N12'
_cell_volume   925.49287255
_cell_formula_units_Z   2
loop_
 _symmetry_equiv_pos_site_id
 _symmetry_equiv_pos_as_xyz
  1  'x, y, z'
loop_
 _atom_site_type_symbol
 _atom_site_label
 _atom_site_symmetry_multiplicity
 _atom_site_fract_x
 _atom_site_fract_y
 _atom_site_fract_z
 _atom_site_occupancy
  Cd  Cd0  1  0.00001000  0.99999000  0.99999000  1.0
  Cd  Cd1  1  0.00002000  0.50000000  0.50000000  1.0
  H  H2  1  0.35056000  0.22727000  0.00743000  1.0
  H  H3  1  0.35058000  0.27272000  0.50742000  1.0
  H  H4  1  0.64944000  0.77272000  0.99256000  1.0
  H  H5  1  0.64946000  0.72727000  0.49257000  1.0
  H  H6  1  0.37162000  0.43548000  0.95449000  1.0
  H  H7  1  0.37162000  0.06451000  0.45448000  1.0
  H  H8  1  0.62839000  0.56450000  0.04551000  1.0
  H  H9  1  0.62836000  0.93548000  0.54551000  1.0
  H  H10  1  0.66589000  0.39524000  0.81338000  1.0
  H  H11  1  0.66589000  0.10478000  0.31338000  1.0
  H  H12  1  0.33411000  0.60477000  0.18663000  1.0
  H  H13  1  0.33410000  0.89524000  0.68662000  1.0
  H  H14  1  0.67686000  0.19134000  0.87667000  1.0
  H  H15  1  0.67688000  0.30867000  0.37668000  1.0
  H  H16  1  0.32312000  0.80867000  0.12332000  1.0
  H  H17  1  0.32314000  0.69135000  0.62333000  1.0
  H  H18  1  0.38947000  0.57480000  0.86376000  1.0
  H  H19  1  0.38946000  0.92519000  0.36375000  1.0
  H  H20  1  0.61055000  0.42519000  0.13623000  1.0
  H  H21  1  0.61050000  0.07479000  0.63622000  1.0
  H  H22  1  0.22804000  0.69969000  0.81333000  1.0
  H  H23  1  0.22801000  0.80031000  0.31332000  1.0
  H  H24  1  0.77197000  0.30032000  0.18668000  1.0
  H  H25  1  0.77188000  0.19966000  0.68669000  1.0
  H  H26  1  0.24323000  0.67047000  0.93621000  1.0
  H  H27  1  0.24320000  0.82952000  0.43620000  1.0
  H  H28  1  0.75682000  0.32951000  0.06381000  1.0
  H  H29  1  0.75677000  0.17050000  0.56382000  1.0
  H  H30  1  0.67858000  0.56230000  0.78359000  1.0
  H  H31  1  0.67858000  0.93772000  0.28358000  1.0
  H  H32  1  0.32143000  0.43771000  0.21641000  1.0
  H  H33  1  0.32139000  0.06230000  0.71641000  1.0
  H  H34  1  0.80983000  0.70319000  0.81733000  1.0
  H  H35  1  0.80980000  0.79683000  0.31732000  1.0
  H  H36  1  0.19019000  0.29681000  0.18269000  1.0
  H  H37  1  0.19014000  0.20319000  0.68266000  1.0
  H  H38  1  0.87033000  0.62703000  0.71406000  1.0
  H  H39  1  0.87031000  0.87298000  0.21405000  1.0
  H  H40  1  0.12969000  0.37298000  0.28595000  1.0
  H  H41  1  0.12964000  0.12704000  0.78594000  1.0
  C  C42  1  0.20171000  0.26831000  0.96453000  1.0
  C  C43  1  0.20173000  0.23168000  0.46453000  1.0
  C  C44  1  0.79829000  0.73169000  0.03546000  1.0
  C  C45  1  0.79830000  0.76830000  0.53548000  1.0
  C  C46  1  0.21298000  0.38593000  0.93395000  1.0
  C  C47  1  0.21300000  0.11406000  0.43394000  1.0
  C  C48  1  0.78701000  0.61407000  0.06604000  1.0
  C  C49  1  0.78700000  0.88592000  0.56605000  1.0
  C  C50  1  0.02095000  0.43985000  0.87649000  1.0
  C  C51  1  0.02095000  0.06016000  0.37649000  1.0
  C  C52  1  0.97905000  0.56015000  0.12350000  1.0
  C  C53  1  0.97904000  0.93985000  0.62350000  1.0
  C  C54  1  0.82328000  0.36480000  0.85684000  1.0
  C  C55  1  0.82329000  0.13521000  0.35684000  1.0
  C  C56  1  0.17671000  0.63520000  0.14316000  1.0
  C  C57  1  0.17670000  0.86481000  0.64316000  1.0
  C  C58  1  0.82846000  0.24866000  0.89194000  1.0
  C  C59  1  0.82848000  0.25135000  0.39195000  1.0
  C  C60  1  0.17153000  0.75133000  0.10806000  1.0
  C  C61  1  0.17155000  0.74867000  0.60806000  1.0
  C  C62  1  0.23393000  0.62790000  0.86622000  1.0
  C  C63  1  0.23391000  0.87210000  0.36621000  1.0
  C  C64  1  0.76609000  0.37210000  0.13379000  1.0
  C  C65  1  0.76605000  0.12789000  0.63379000  1.0
  C  C66  1  0.83650000  0.61431000  0.78676000  1.0
  C  C67  1  0.83649000  0.88571000  0.28675000  1.0
  C  C68  1  0.16352000  0.38570000  0.21325000  1.0
  C  C69  1  0.16347000  0.11431000  0.71324000  1.0
  C  C70  1  0.53661000  0.05908000  0.11521000  1.0
  C  C71  1  0.53662000  0.44092000  0.61521000  1.0
  C  C72  1  0.46338000  0.94092000  0.88480000  1.0
  C  C73  1  0.46342000  0.55907000  0.38479000  1.0
  S  S74  1  0.30419000  0.05991000  0.16403000  1.0
  S  S75  1  0.30422000  0.44008000  0.66404000  1.0
  S  S76  1  0.69579000  0.94008000  0.83596000  1.0
  S  S77  1  0.69582000  0.55991000  0.33596000  1.0
  N  N78  1  0.01370000  0.19790000  0.94477000  1.0
  N  N79  1  0.01372000  0.30210000  0.44478000  1.0
  N  N80  1  0.98631000  0.80210000  0.05522000  1.0
  N  N81  1  0.98633000  0.69790000  0.55523000  1.0
  N  N82  1  0.02933000  0.55388000  0.84343000  1.0
  N  N83  1  0.02932000  0.94613000  0.34343000  1.0
  N  N84  1  0.97069000  0.44612000  0.15657000  1.0
  N  N85  1  0.97064000  0.05387000  0.65657000  1.0
  N  N86  1  0.70651000  0.06032000  0.08102000  1.0
  N  N87  1  0.70651000  0.43968000  0.58103000  1.0
  N  N88  1  0.29349000  0.93967000  0.91898000  1.0
  N  N89  1  0.29350000  0.56032000  0.41898000  1.0
