# generated using pymatgen
data_ZnH4C4(BrN)2
_symmetry_space_group_name_H-M   'P 1'
_cell_length_a   5.92215000
_cell_length_b   6.98377000
_cell_length_c   9.85014000
_cell_angle_alpha   89.99330000
_cell_angle_beta   89.99830000
_cell_angle_gamma   68.85600000
_symmetry_Int_Tables_number   1
_chemical_formula_structural   ZnH4C4(BrN)2
_chemical_formula_sum   'Zn2 H8 C8 Br4 N4'
_cell_volume   379.96439851
_cell_formula_units_Z   2
loop_
 _symmetry_equiv_pos_site_id
 _symmetry_equiv_pos_as_xyz
  1  'x, y, z'
loop_
 _atom_site_type_symbol
 _atom_site_label
 _atom_site_symmetry_multiplicity
 _atom_site_fract_x
 _atom_site_fract_y
 _atom_site_fract_z
 _atom_site_occupancy
  Zn  Zn0  1  0.59828000  0.47950000  0.25000000  1.0
  Zn  Zn1  1  0.40169000  0.52052000  0.75000000  1.0
  H  H2  1  0.03292000  0.17740000  0.10897000  1.0
  H  H3  1  0.03292000  0.17735000  0.39107000  1.0
  H  H4  1  0.96712000  0.82262000  0.89104000  1.0
  H  H5  1  0.96710000  0.82263000  0.60892000  1.0
  H  H6  1  0.65797000  0.80620000  0.06357000  1.0
  H  H7  1  0.65790000  0.80619000  0.43638000  1.0
  H  H8  1  0.34207000  0.19383000  0.93644000  1.0
  H  H9  1  0.34207000  0.19381000  0.56362000  1.0
  C  C10  1  0.01917000  0.32150000  0.06028000  1.0
  C  C11  1  0.01917000  0.32147000  0.43975000  1.0
  C  C12  1  0.98083000  0.67855000  0.93974000  1.0
  C  C13  1  0.98085000  0.67853000  0.56025000  1.0
  C  C14  1  0.81056000  0.66969000  0.03431000  1.0
  C  C15  1  0.81052000  0.66966000  0.46567000  1.0
  C  C16  1  0.18951000  0.33034000  0.96569000  1.0
  C  C17  1  0.18950000  0.33035000  0.53435000  1.0
  Br  Br18  1  0.24438000  0.77342000  0.24998000  1.0
  Br  Br19  1  0.75549000  0.22653000  0.75003000  1.0
  Br  Br20  1  0.58447000  0.14656000  0.24998000  1.0
  Br  Br21  1  0.41551000  0.85343000  0.74997000  1.0
  N  N22  1  0.83103000  0.49124000  0.09397000  1.0
  N  N23  1  0.83095000  0.49123000  0.40601000  1.0
  N  N24  1  0.16901000  0.50872000  0.90607000  1.0
  N  N25  1  0.16902000  0.50874000  0.59396000  1.0
