# generated using pymatgen
data_Cd5H18C8Br4(N10O)2
_symmetry_space_group_name_H-M   'P 1'
_cell_length_a   9.31133000
_cell_length_b   10.42580000
_cell_length_c   13.98900000
_cell_angle_alpha   90.00000000
_cell_angle_beta   95.33580000
_cell_angle_gamma   90.00000000
_symmetry_Int_Tables_number   1
_chemical_formula_structural   Cd5H18C8Br4(N10O)2
_chemical_formula_sum   'Cd10 H36 C16 Br8 N40 O4'
_cell_volume   1352.14043142
_cell_formula_units_Z   2
loop_
 _symmetry_equiv_pos_site_id
 _symmetry_equiv_pos_as_xyz
  1  'x, y, z'
loop_
 _atom_site_type_symbol
 _atom_site_label
 _atom_site_symmetry_multiplicity
 _atom_site_fract_x
 _atom_site_fract_y
 _atom_site_fract_z
 _atom_site_occupancy
  Cd  Cd0  1  0.00000000  0.50000000  0.50000000  1.0
  Cd  Cd1  1  0.00000000  0.00000000  0.00000000  1.0
  Cd  Cd2  1  0.18729000  0.17361000  0.51429000  1.0
  Cd  Cd3  1  0.81271000  0.67361000  0.98571000  1.0
  Cd  Cd4  1  0.81271000  0.82640000  0.48571000  1.0
  Cd  Cd5  1  0.18730000  0.32640000  0.01429000  1.0
  Cd  Cd6  1  0.52611000  0.45487000  0.12024000  1.0
  Cd  Cd7  1  0.47388000  0.95487000  0.37976000  1.0
  Cd  Cd8  1  0.47389000  0.54513000  0.87976000  1.0
  Cd  Cd9  1  0.52611000  0.04513000  0.62024000  1.0
  H  H10  1  0.82594000  0.30476000  0.36715000  1.0
  H  H11  1  0.17406000  0.80476000  0.13285000  1.0
  H  H12  1  0.17406000  0.69524000  0.63285000  1.0
  H  H13  1  0.82594000  0.19524000  0.86715000  1.0
  H  H14  1  0.75022000  0.30585000  0.25194000  1.0
  H  H15  1  0.24978000  0.80585000  0.24806000  1.0
  H  H16  1  0.24978000  0.69415000  0.74806000  1.0
  H  H17  1  0.75023000  0.19415000  0.75194000  1.0
  H  H18  1  0.46903000  0.20554000  0.46377000  1.0
  H  H19  1  0.53096000  0.70554000  0.03623000  1.0
  H  H20  1  0.53096000  0.79446000  0.53623000  1.0
  H  H21  1  0.46904000  0.29446000  0.96377000  1.0
  H  H22  1  0.66968000  0.46851000  0.54486000  1.0
  H  H23  1  0.33032000  0.96851000  0.95514000  1.0
  H  H24  1  0.33031000  0.53149000  0.45514000  1.0
  H  H25  1  0.66969000  0.03149000  0.04486000  1.0
  H  H26  1  0.56209000  0.36842000  0.60114000  1.0
  H  H27  1  0.43791000  0.86842000  0.89886000  1.0
  H  H28  1  0.43790000  0.63157000  0.39886000  1.0
  H  H29  1  0.56210000  0.13157000  0.10114000  1.0
  H  H30  1  0.63009000  0.83128000  0.23390000  1.0
  H  H31  1  0.36991000  0.33128000  0.26610000  1.0
  H  H32  1  0.36991000  0.16872000  0.76610000  1.0
  H  H33  1  0.63009000  0.66872000  0.73390000  1.0
  H  H34  1  0.48087000  0.74138000  0.21302000  1.0
  H  H35  1  0.51913000  0.24138000  0.28698000  1.0
  H  H36  1  0.51913000  0.25862000  0.78697000  1.0
  H  H37  1  0.48088000  0.75862000  0.71303000  1.0
  H  H38  1  0.00041000  0.96916000  0.63000000  1.0
  H  H39  1  0.99958000  0.46916000  0.87000000  1.0
  H  H40  1  0.99958000  0.03084000  0.37000000  1.0
  H  H41  1  0.00042000  0.53084000  0.13000000  1.0
  H  H42  1  0.83525000  0.95228000  0.66760000  1.0
  H  H43  1  0.16475000  0.45228000  0.83240000  1.0
  H  H44  1  0.16475000  0.04772000  0.33240000  1.0
  H  H45  1  0.83525000  0.54772000  0.16760000  1.0
  C  C46  1  0.72918000  0.47071000  0.32488000  1.0
  C  C47  1  0.27082000  0.97071000  0.17512000  1.0
  C  C48  1  0.27082000  0.52930000  0.67512000  1.0
  C  C49  1  0.72918000  0.02930000  0.82488000  1.0
  C  C50  1  0.86305000  0.11455000  0.59245000  1.0
  C  C51  1  0.13695000  0.61456000  0.90755000  1.0
  C  C52  1  0.13694000  0.88544000  0.40755000  1.0
  C  C53  1  0.86306000  0.38545000  0.09245000  1.0
  C  C54  1  0.74729000  0.28949000  0.56474000  1.0
  C  C55  1  0.25271000  0.78949000  0.93526000  1.0
  C  C56  1  0.25270000  0.71051000  0.43526000  1.0
  C  C57  1  0.74730000  0.21051000  0.06474000  1.0
  C  C58  1  0.64299000  0.65995000  0.29998000  1.0
  C  C59  1  0.35702000  0.15995000  0.20002000  1.0
  C  C60  1  0.35701000  0.34005000  0.70002000  1.0
  C  C61  1  0.64299000  0.84006000  0.79998000  1.0
  Br  Br62  1  0.25194000  0.96726000  0.64760000  1.0
  Br  Br63  1  0.74806000  0.46726000  0.85240000  1.0
  Br  Br64  1  0.74805000  0.03274000  0.35240000  1.0
  Br  Br65  1  0.25195000  0.53274000  0.14760000  1.0
  Br  Br66  1  0.13708000  0.34859000  0.36447000  1.0
  Br  Br67  1  0.86292000  0.84859000  0.13553000  1.0
  Br  Br68  1  0.86290000  0.65141000  0.63553000  1.0
  Br  Br69  1  0.13709000  0.15141000  0.86447000  1.0
  N  N70  1  0.63506000  0.53841000  0.26284000  1.0
  N  N71  1  0.36495000  0.03841000  0.23716000  1.0
  N  N72  1  0.36494000  0.46159000  0.73715000  1.0
  N  N73  1  0.63506000  0.96159000  0.76284000  1.0
  N  N74  1  0.74635000  0.34072000  0.31981000  1.0
  N  N75  1  0.25365000  0.84072000  0.18019000  1.0
  N  N76  1  0.25364000  0.65928000  0.68019000  1.0
  N  N77  1  0.74636000  0.15929000  0.81981000  1.0
  N  N78  1  0.95493000  0.19458000  0.55702000  1.0
  N  N79  1  0.04507000  0.69458000  0.94298000  1.0
  N  N80  1  0.04507000  0.80542000  0.44298000  1.0
  N  N81  1  0.95493000  0.30543000  0.05702000  1.0
  N  N82  1  0.73111000  0.16829000  0.59952000  1.0
  N  N83  1  0.26889000  0.66829000  0.90048000  1.0
  N  N84  1  0.26889000  0.83171000  0.40048000  1.0
  N  N85  1  0.73111000  0.33171000  0.09952000  1.0
  N  N86  1  0.89199000  0.98618000  0.61382000  1.0
  N  N87  1  0.10801000  0.48618000  0.88618000  1.0
  N  N88  1  0.10801000  0.01382000  0.38618000  1.0
  N  N89  1  0.89199000  0.51382000  0.11382000  1.0
  N  N90  1  0.63561000  0.37620000  0.55200000  1.0
  N  N91  1  0.36439000  0.87619000  0.94800000  1.0
  N  N92  1  0.36438000  0.62380000  0.44800000  1.0
  N  N93  1  0.63562000  0.12380000  0.05201000  1.0
  N  N94  1  0.88024000  0.30950000  0.53924000  1.0
  N  N95  1  0.11976000  0.80950000  0.96076000  1.0
  N  N96  1  0.11975000  0.69051000  0.46076000  1.0
  N  N97  1  0.88025000  0.19051000  0.03924000  1.0
  N  N98  1  0.73400000  0.66666667  0.37890000  1.0
  N  N99  1  0.26600000  0.16662000  0.12110000  1.0
  N  N100  1  0.26599000  0.33338000  0.62110000  1.0
  N  N101  1  0.73401000  0.83339000  0.87890000  1.0
  N  N102  1  0.56386000  0.76583000  0.26295000  1.0
  N  N103  1  0.43614000  0.26583000  0.23705000  1.0
  N  N104  1  0.43614000  0.23417000  0.73704000  1.0
  N  N105  1  0.56386000  0.73418000  0.76296000  1.0
  N  N106  1  0.79313000  0.54546000  0.39382000  1.0
  N  N107  1  0.20687000  0.04546000  0.10618000  1.0
  N  N108  1  0.20687000  0.45454000  0.60618000  1.0
  N  N109  1  0.79313000  0.95455000  0.89382000  1.0
  O  O110  1  0.41892000  0.12643000  0.47781000  1.0
  O  O111  1  0.58108000  0.62643000  0.02219000  1.0
  O  O112  1  0.58108000  0.87357000  0.52219000  1.0
  O  O113  1  0.41892000  0.37357000  0.97781000  1.0
