# generated using pymatgen
data_ZnH10C17O5F6
_symmetry_space_group_name_H-M   'P 1'
_cell_length_a   6.92199000
_cell_length_b   12.83890000
_cell_length_c   21.10420000
_cell_angle_alpha   85.73090000
_cell_angle_beta   89.99990000
_cell_angle_gamma   89.99990000
_symmetry_Int_Tables_number   1
_chemical_formula_structural   ZnH10C17O5F6
_chemical_formula_sum   'Zn4 H40 C68 O20 F24'
_cell_volume   1870.34197400
_cell_formula_units_Z   4
loop_
 _symmetry_equiv_pos_site_id
 _symmetry_equiv_pos_as_xyz
  1  'x, y, z'
loop_
 _atom_site_type_symbol
 _atom_site_label
 _atom_site_symmetry_multiplicity
 _atom_site_fract_x
 _atom_site_fract_y
 _atom_site_fract_z
 _atom_site_occupancy
  Zn  Zn0  1  0.83187000  0.55163000  0.52056000  1.0
  Zn  Zn1  1  0.83187000  0.94837000  0.97945000  1.0
  Zn  Zn2  1  0.16813000  0.44837000  0.47945000  1.0
  Zn  Zn3  1  0.16813000  0.05163000  0.02056000  1.0
  H  H4  1  0.02073000  0.86441000  0.79109000  1.0
  H  H5  1  0.02074000  0.63559000  0.70891000  1.0
  H  H6  1  0.97927000  0.13559000  0.20891000  1.0
  H  H7  1  0.97927000  0.36441000  0.29109000  1.0
  H  H8  1  0.16951000  0.84538000  0.68647000  1.0
  H  H9  1  0.16951000  0.65462000  0.81353000  1.0
  H  H10  1  0.83049000  0.15462000  0.31353000  1.0
  H  H11  1  0.83049000  0.34538000  0.18647000  1.0
  H  H12  1  0.66100000  0.02411000  0.74241000  1.0
  H  H13  1  0.66100000  0.47590000  0.75759000  1.0
  H  H14  1  0.33900000  0.97590000  0.25759000  1.0
  H  H15  1  0.33900000  0.52411000  0.24241000  1.0
  H  H16  1  0.51485000  0.03765000  0.84800000  1.0
  H  H17  1  0.51485000  0.46235000  0.65200000  1.0
  H  H18  1  0.48515000  0.96235000  0.15200000  1.0
  H  H19  1  0.48515000  0.53765000  0.34800000  1.0
  H  H20  1  0.37408000  0.11748000  0.64326000  1.0
  H  H21  1  0.37407000  0.38252000  0.85674000  1.0
  H  H22  1  0.62592000  0.88252000  0.35674000  1.0
  H  H23  1  0.62593000  0.61748000  0.14326000  1.0
  H  H24  1  0.51086000  0.28810000  0.60314000  1.0
  H  H25  1  0.51086000  0.21189000  0.89686000  1.0
  H  H26  1  0.48913000  0.71190000  0.39686000  1.0
  H  H27  1  0.48914000  0.78811000  0.10314000  1.0
  H  H28  1  0.03226000  0.13592000  0.54986000  1.0
  H  H29  1  0.03226000  0.36408000  0.95014000  1.0
  H  H30  1  0.96773000  0.86408000  0.45014000  1.0
  H  H31  1  0.96774000  0.63592000  0.04986000  1.0
  H  H32  1  0.89530000  0.96488000  0.58633000  1.0
  H  H33  1  0.89529000  0.53511000  0.91367000  1.0
  H  H34  1  0.10470000  0.03512000  0.41367000  1.0
  H  H35  1  0.10470000  0.46488000  0.08633000  1.0
  H  H36  1  0.46565000  0.57334000  0.55154000  1.0
  H  H37  1  0.46565000  0.92666000  0.94846000  1.0
  H  H38  1  0.53435000  0.42666000  0.44846000  1.0
  H  H39  1  0.53435000  0.07334000  0.05154000  1.0
  H  H40  1  0.58641000  0.67209000  0.57084000  1.0
  H  H41  1  0.58641000  0.82792000  0.92916000  1.0
  H  H42  1  0.41359000  0.32792000  0.42916000  1.0
  H  H43  1  0.41359000  0.17208000  0.07084000  1.0
  C  C44  1  0.86535000  0.32633000  0.55177000  1.0
  C  C45  1  0.86536000  0.17367000  0.94823000  1.0
  C  C46  1  0.13463000  0.67367000  0.44823000  1.0
  C  C47  1  0.13465000  0.82633000  0.05177000  1.0
  C  C48  1  0.78229000  0.22293000  0.57535000  1.0
  C  C49  1  0.78228000  0.27707000  0.92465000  1.0
  C  C50  1  0.21771000  0.77707000  0.42465000  1.0
  C  C51  1  0.21771000  0.72293000  0.07535000  1.0
  C  C52  1  0.16345000  0.95983000  0.88971000  1.0
  C  C53  1  0.16344000  0.54017000  0.61029000  1.0
  C  C54  1  0.83657000  0.04017000  0.11029000  1.0
  C  C55  1  0.83655000  0.45983000  0.38971000  1.0
  C  C56  1  0.25713000  0.95144000  0.82633000  1.0
  C  C57  1  0.25714000  0.54857000  0.67367000  1.0
  C  C58  1  0.74286000  0.04856000  0.17367000  1.0
  C  C59  1  0.74286000  0.45143000  0.32633000  1.0
  C  C60  1  0.16188000  0.89839000  0.77998000  1.0
  C  C61  1  0.16188000  0.60161000  0.72002000  1.0
  C  C62  1  0.83813000  0.10161000  0.22002000  1.0
  C  C63  1  0.83813000  0.39839000  0.27998000  1.0
  C  C64  1  0.24593000  0.88895000  0.72076000  1.0
  C  C65  1  0.24594000  0.61105000  0.77924000  1.0
  C  C66  1  0.75407000  0.11105000  0.27924000  1.0
  C  C67  1  0.75407000  0.38895000  0.22076000  1.0
  C  C68  1  0.42574000  0.93452000  0.70622000  1.0
  C  C69  1  0.42574000  0.56548000  0.79378000  1.0
  C  C70  1  0.57426000  0.06548000  0.29378000  1.0
  C  C71  1  0.57426000  0.43452000  0.20622000  1.0
  C  C72  1  0.52089000  0.98816000  0.75275000  1.0
  C  C73  1  0.52090000  0.51184000  0.74725000  1.0
  C  C74  1  0.47911000  0.01184000  0.24725000  1.0
  C  C75  1  0.47911000  0.48816000  0.25275000  1.0
  C  C76  1  0.43848000  0.99616000  0.81234000  1.0
  C  C77  1  0.43847000  0.50384000  0.68766000  1.0
  C  C78  1  0.56153000  0.00384000  0.18766000  1.0
  C  C79  1  0.56153000  0.49616000  0.31234000  1.0
  C  C80  1  0.52894000  0.92450000  0.64224000  1.0
  C  C81  1  0.52893000  0.57550000  0.85776000  1.0
  C  C82  1  0.47106000  0.07550000  0.35776000  1.0
  C  C83  1  0.47107000  0.42451000  0.14224000  1.0
  C  C84  1  0.38996000  0.89554000  0.58800000  1.0
  C  C85  1  0.38995000  0.60446000  0.91199000  1.0
  C  C86  1  0.61004000  0.10446000  0.41200000  1.0
  C  C87  1  0.61005000  0.39554000  0.08800000  1.0
  C  C88  1  0.67603000  0.83334000  0.65385000  1.0
  C  C89  1  0.67602000  0.66666667  0.84615000  1.0
  C  C90  1  0.32397000  0.16666000  0.34615000  1.0
  C  C91  1  0.32398000  0.33333333  0.15385000  1.0
  C  C92  1  0.62553000  0.02849000  0.61885000  1.0
  C  C93  1  0.62553000  0.47151000  0.88115000  1.0
  C  C94  1  0.37446000  0.97151000  0.38115000  1.0
  C  C95  1  0.37447000  0.52849000  0.11885000  1.0
  C  C96  1  0.51882000  0.12081000  0.62293000  1.0
  C  C97  1  0.51881000  0.37919000  0.87707000  1.0
  C  C98  1  0.48118000  0.87919000  0.37707000  1.0
  C  C99  1  0.48119000  0.62081000  0.12293000  1.0
  C  C100  1  0.59560000  0.21694000  0.60111000  1.0
  C  C101  1  0.59560000  0.28306000  0.89889000  1.0
  C  C102  1  0.40439000  0.78306000  0.39889000  1.0
  C  C103  1  0.40440000  0.71694000  0.10111000  1.0
  C  C104  1  0.88826000  0.13111000  0.57070000  1.0
  C  C105  1  0.88826000  0.36889000  0.92930000  1.0
  C  C106  1  0.11173000  0.86889000  0.42930000  1.0
  C  C107  1  0.11174000  0.63111000  0.07070000  1.0
  C  C108  1  0.81021000  0.03461000  0.59178000  1.0
  C  C109  1  0.81021000  0.46539000  0.90822000  1.0
  C  C110  1  0.18979000  0.96539000  0.40822000  1.0
  C  C111  1  0.18979000  0.53461000  0.09178000  1.0
  O  O112  1  0.76410000  0.40691000  0.56002000  1.0
  O  O113  1  0.76409000  0.09308000  0.93998000  1.0
  O  O114  1  0.23591000  0.59308000  0.43998000  1.0
  O  O115  1  0.23590000  0.90691000  0.06002000  1.0
  O  O116  1  0.57794000  0.62061000  0.53948000  1.0
  O  O117  1  0.57794000  0.87939000  0.96052000  1.0
  O  O118  1  0.42206000  0.37939000  0.46052000  1.0
  O  O119  1  0.42206000  0.12061000  0.03948000  1.0
  O  O120  1  0.26784000  0.99632000  0.93358000  1.0
  O  O121  1  0.26784000  0.50368000  0.56642000  1.0
  O  O122  1  0.73216000  0.00368000  0.06642000  1.0
  O  O123  1  0.73217000  0.49632000  0.43358000  1.0
  O  O124  1  0.98968000  0.93066000  0.89632000  1.0
  O  O125  1  0.98969000  0.56934000  0.60369000  1.0
  O  O126  1  0.01031000  0.06934000  0.10369000  1.0
  O  O127  1  0.01033000  0.43065000  0.39632000  1.0
  O  O128  1  0.03080000  0.32593000  0.52493000  1.0
  O  O129  1  0.03078000  0.17406000  0.97506000  1.0
  O  O130  1  0.96922000  0.67407000  0.47506000  1.0
  O  O131  1  0.96920000  0.82593000  0.02493000  1.0
  F  F132  1  0.23876000  0.96319000  0.58199000  1.0
  F  F133  1  0.23875000  0.53681000  0.91801000  1.0
  F  F134  1  0.76124000  0.03681000  0.41801000  1.0
  F  F135  1  0.76125000  0.46319000  0.08199000  1.0
  F  F136  1  0.48212000  0.89915000  0.53131000  1.0
  F  F137  1  0.48212000  0.60085000  0.96869000  1.0
  F  F138  1  0.51787000  0.10084000  0.46869000  1.0
  F  F139  1  0.51788000  0.39916000  0.03131000  1.0
  F  F140  1  0.31301000  0.79714000  0.59732000  1.0
  F  F141  1  0.31300000  0.70286000  0.90268000  1.0
  F  F142  1  0.68699000  0.20286000  0.40269000  1.0
  F  F143  1  0.68700000  0.29714000  0.09731000  1.0
  F  F144  1  0.76107000  0.80335000  0.59932000  1.0
  F  F145  1  0.76107000  0.69665000  0.90068000  1.0
  F  F146  1  0.23893000  0.19665000  0.40068000  1.0
  F  F147  1  0.23893000  0.30336000  0.09932000  1.0
  F  F148  1  0.82081000  0.85964000  0.69296000  1.0
  F  F149  1  0.82081000  0.64036000  0.80704000  1.0
  F  F150  1  0.17919000  0.14036000  0.30704000  1.0
  F  F151  1  0.17919000  0.35964000  0.19296000  1.0
  F  F152  1  0.59101000  0.74585000  0.68144000  1.0
  F  F153  1  0.59100000  0.75415000  0.81856000  1.0
  F  F154  1  0.40900000  0.25415000  0.31856000  1.0
  F  F155  1  0.40900000  0.24585000  0.18144000  1.0
