# generated using pymatgen
data_ZnH10C13BrNO5
_symmetry_space_group_name_H-M   'P 1'
_cell_length_a   9.59817000
_cell_length_b   11.02020000
_cell_length_c   11.08360000
_cell_angle_alpha   91.44780000
_cell_angle_beta   93.05460000
_cell_angle_gamma   90.78630000
_symmetry_Int_Tables_number   1
_chemical_formula_structural   ZnH10C13BrNO5
_chemical_formula_sum   'Zn2 H20 C26 Br2 N2 O10'
_cell_volume   1170.18121213
_cell_formula_units_Z   2
loop_
 _symmetry_equiv_pos_site_id
 _symmetry_equiv_pos_as_xyz
  1  'x, y, z'
loop_
 _atom_site_type_symbol
 _atom_site_label
 _atom_site_symmetry_multiplicity
 _atom_site_fract_x
 _atom_site_fract_y
 _atom_site_fract_z
 _atom_site_occupancy
  Zn  Zn0  1  0.35571000  0.49882000  0.49157000  1.0
  Zn  Zn1  1  0.64219000  0.50196000  0.50443000  1.0
  H  H2  1  0.28399000  0.70425000  0.11181000  1.0
  H  H3  1  0.18031000  0.58313000  0.87092000  1.0
  H  H4  1  0.71985000  0.88737000  0.55020000  1.0
  H  H5  1  0.72090000  0.11576000  0.55881000  1.0
  H  H6  1  0.28493000  0.11249000  0.45035000  1.0
  H  H7  1  0.28356000  0.88396000  0.44279000  1.0
  H  H8  1  0.84865000  0.38953000  0.34846000  1.0
  H  H9  1  0.88209000  0.62827000  0.64459000  1.0
  H  H10  1  0.11556000  0.38322000  0.34565000  1.0
  H  H11  1  0.14893000  0.62667000  0.63826000  1.0
  H  H12  1  0.87360000  0.38065000  0.97105000  1.0
  H  H13  1  0.82791000  0.48037000  0.85040000  1.0
  H  H14  1  0.85619000  0.31027000  0.69927000  1.0
  H  H15  1  0.01455000  0.33741000  0.78938000  1.0
  H  H16  1  0.90501000  0.21110000  0.81842000  1.0
  H  H17  1  0.56936000  0.16510000  0.08751000  1.0
  H  H18  1  0.53847000  0.24195000  0.22743000  1.0
  H  H19  1  0.77801000  0.19571000  0.30799000  1.0
  H  H20  1  0.69114000  0.05973000  0.25712000  1.0
  H  H21  1  0.81762000  0.12678000  0.16597000  1.0
  C  C22  1  0.50147000  0.73713000  0.49169000  1.0
  C  C23  1  0.50419000  0.26271000  0.50629000  1.0
  C  C24  1  0.91720000  0.43966000  0.41426000  1.0
  C  C25  1  0.93581000  0.57407000  0.57838000  1.0
  C  C26  1  0.06203000  0.43692000  0.41230000  1.0
  C  C27  1  0.08045000  0.57264000  0.57544000  1.0
  C  C28  1  0.50578000  0.50348000  0.73400000  1.0
  C  C29  1  0.48626000  0.47385000  0.26197000  1.0
  C  C30  1  0.39850000  0.54241000  0.93265000  1.0
  C  C31  1  0.39109000  0.53312000  0.05707000  1.0
  C  C32  1  0.50143000  0.48773000  0.86722000  1.0
  C  C33  1  0.48637000  0.46643000  0.12704000  1.0
  C  C34  1  0.59372000  0.41298000  0.93414000  1.0
  C  C35  1  0.58618000  0.40253000  0.06179000  1.0
  C  C36  1  0.26931000  0.61776000  0.06185000  1.0
  C  C37  1  0.27289000  0.62157000  0.92043000  1.0
  C  C38  1  0.62542000  0.93781000  0.52826000  1.0
  C  C39  1  0.62605000  0.06400000  0.53283000  1.0
  C  C40  1  0.50314000  0.12685000  0.50422000  1.0
  C  C41  1  0.50186000  0.87297000  0.49560000  1.0
  C  C42  1  0.37945000  0.06204000  0.47193000  1.0
  C  C43  1  0.37871000  0.93579000  0.46774000  1.0
  C  C44  1  0.82803000  0.38502000  0.87795000  1.0
  C  C45  1  0.90533000  0.30614000  0.79087000  1.0
  C  C46  1  0.61931000  0.21758000  0.16447000  1.0
  C  C47  1  0.73399000  0.14625000  0.22725000  1.0
  Br  Br48  1  0.08968000  0.55111000  0.11390000  1.0
  Br  Br49  1  0.29930000  0.78374000  0.85265000  1.0
  N  N50  1  0.14176000  0.50274000  0.49329000  1.0
  N  N51  1  0.85602000  0.50692000  0.49829000  1.0
  O  O52  1  0.38309000  0.68286000  0.48275000  1.0
  O  O53  1  0.38635000  0.31474000  0.49843000  1.0
  O  O54  1  0.61964000  0.68552000  0.49761000  1.0
  O  O55  1  0.62310000  0.31631000  0.51432000  1.0
  O  O56  1  0.38699000  0.50794000  0.67726000  1.0
  O  O57  1  0.36725000  0.48051000  0.30681000  1.0
  O  O58  1  0.62405000  0.51269000  0.68872000  1.0
  O  O59  1  0.60416000  0.47931000  0.31991000  1.0
  O  O60  1  0.68428000  0.34148000  0.87456000  1.0
  O  O61  1  0.68052000  0.32732000  0.11796000  1.0
