# generated using pymatgen
data_CoH20C22O7
_symmetry_space_group_name_H-M   'P 1'
_cell_length_a   5.98317000
_cell_length_b   8.20875000
_cell_length_c   19.70450427
_cell_angle_alpha   100.78744623
_cell_angle_beta   89.99588861
_cell_angle_gamma   89.97500000
_symmetry_Int_Tables_number   1
_chemical_formula_structural   CoH20C22O7
_chemical_formula_sum   'Co2 H40 C44 O14'
_cell_volume   950.67152771
_cell_formula_units_Z   2
loop_
 _symmetry_equiv_pos_site_id
 _symmetry_equiv_pos_as_xyz
  1  'x, y, z'
loop_
 _atom_site_type_symbol
 _atom_site_label
 _atom_site_symmetry_multiplicity
 _atom_site_fract_x
 _atom_site_fract_y
 _atom_site_fract_z
 _atom_site_occupancy
  Co  Co0  1  0.50000000  0.50000000  0.50000000  1.0
  Co  Co1  1  0.50000000  0.00000000  0.50000000  1.0
  H  H2  1  0.68186000  0.30055000  0.56578000  1.0
  H  H3  1  0.68091000  0.19958000  0.43387000  1.0
  H  H4  1  0.31813000  0.69945000  0.43422000  1.0
  H  H5  1  0.31909000  0.80041000  0.56613000  1.0
  H  H6  1  0.86647000  0.44476000  0.57325000  1.0
  H  H7  1  0.86697000  0.05603000  0.42672000  1.0
  H  H8  1  0.13353000  0.55524000  0.42675000  1.0
  H  H9  1  0.13303000  0.94396000  0.57328000  1.0
  H  H10  1  0.77592000  0.79988000  0.54014000  1.0
  H  H11  1  0.77596000  0.69990000  0.45982000  1.0
  H  H12  1  0.22408000  0.20011000  0.45986000  1.0
  H  H13  1  0.22405000  0.30009000  0.54018000  1.0
  H  H14  1  0.47429000  0.20858000  0.30106000  1.0
  H  H15  1  0.47441000  0.29151000  0.69890000  1.0
  H  H16  1  0.52571000  0.79142000  0.69894000  1.0
  H  H17  1  0.52559000  0.70849000  0.30111000  1.0
  H  H18  1  0.33661000  0.00952000  0.19827000  1.0
  H  H19  1  0.33653000  0.49054000  0.80174000  1.0
  H  H20  1  0.66338000  0.99048000  0.80173000  1.0
  H  H21  1  0.66347000  0.50946000  0.19827000  1.0
  H  H22  1  0.38900000  0.86478000  0.07740000  1.0
  H  H23  1  0.38881000  0.63522000  0.92260000  1.0
  H  H24  1  0.61098000  0.13522000  0.92260000  1.0
  H  H25  1  0.61120000  0.36478000  0.07740000  1.0
  H  H26  1  0.73335000  0.91178000  0.01266000  1.0
  H  H27  1  0.73316000  0.58815000  0.98733000  1.0
  H  H28  1  0.26663000  0.08821000  0.98734000  1.0
  H  H29  1  0.26687000  0.41186000  0.01267000  1.0
  H  H30  1  0.03164000  0.10035000  0.07025000  1.0
  H  H31  1  0.03163000  0.39950000  0.92969000  1.0
  H  H32  1  0.96834000  0.89964000  0.92974000  1.0
  H  H33  1  0.96838000  0.60050000  0.07030000  1.0
  H  H34  1  0.17135000  0.29407000  0.17262000  1.0
  H  H35  1  0.17146000  0.20579000  0.82732000  1.0
  H  H36  1  0.82863000  0.70592000  0.82738000  1.0
  H  H37  1  0.82856000  0.79421000  0.17267000  1.0
  H  H38  1  0.11274000  0.44642000  0.29229000  1.0
  H  H39  1  0.11307000  0.05354000  0.70764000  1.0
  H  H40  1  0.88725000  0.55359000  0.70771000  1.0
  H  H41  1  0.88695000  0.94647000  0.29236000  1.0
  C  C42  1  0.79040000  0.33483000  0.30388000  1.0
  C  C43  1  0.79063000  0.16520000  0.69604000  1.0
  C  C44  1  0.20958000  0.66517000  0.69612000  1.0
  C  C45  1  0.20937000  0.83481000  0.30396000  1.0
  C  C46  1  0.62725000  0.22556000  0.27298000  1.0
  C  C47  1  0.62739000  0.27452000  0.72697000  1.0
  C  C48  1  0.37274000  0.77444000  0.72703000  1.0
  C  C49  1  0.37261000  0.72549000  0.27303000  1.0
  C  C50  1  0.65371000  0.13944000  0.20400000  1.0
  C  C51  1  0.65374000  0.36053000  0.79596000  1.0
  C  C52  1  0.34627000  0.86055000  0.79600000  1.0
  C  C53  1  0.34628000  0.63947000  0.20404000  1.0
  C  C54  1  0.48785000  0.02964000  0.17010000  1.0
  C  C55  1  0.48777000  0.47034000  0.82988000  1.0
  C  C56  1  0.51214000  0.97036000  0.82990000  1.0
  C  C57  1  0.51225000  0.52967000  0.17012000  1.0
  C  C58  1  0.51703000  0.94964000  0.10257000  1.0
  C  C59  1  0.51692000  0.55031000  0.89742000  1.0
  C  C60  1  0.48296000  0.05035000  0.89743000  1.0
  C  C61  1  0.48311000  0.44969000  0.10258000  1.0
  C  C62  1  0.71360000  0.97567000  0.06605000  1.0
  C  C63  1  0.71349000  0.52429000  0.93393000  1.0
  C  C64  1  0.28638000  0.02432000  0.93395000  1.0
  C  C65  1  0.28653000  0.47572000  0.06607000  1.0
  C  C66  1  0.87873000  0.08056000  0.09771000  1.0
  C  C67  1  0.87870000  0.41934000  0.90226000  1.0
  C  C68  1  0.12125000  0.91944000  0.90229000  1.0
  C  C69  1  0.12132000  0.58068000  0.09774000  1.0
  C  C70  1  0.85368000  0.16496000  0.16698000  1.0
  C  C71  1  0.85368000  0.33496000  0.83298000  1.0
  C  C72  1  0.14630000  0.83504000  0.83302000  1.0
  C  C73  1  0.14633000  0.66505000  0.16702000  1.0
  C  C74  1  0.01939000  0.27511000  0.20059000  1.0
  C  C75  1  0.01947000  0.22478000  0.79935000  1.0
  C  C76  1  0.98060000  0.72488000  0.79940000  1.0
  C  C77  1  0.98054000  0.77523000  0.20065000  1.0
  C  C78  1  0.98804000  0.35890000  0.26709000  1.0
  C  C79  1  0.98825000  0.14104000  0.73285000  1.0
  C  C80  1  0.01194000  0.64109000  0.73290000  1.0
  C  C81  1  0.01177000  0.85898000  0.26715000  1.0
  C  C82  1  0.75804000  0.43700000  0.37408000  1.0
  C  C83  1  0.75852000  0.06322000  0.62580000  1.0
  C  C84  1  0.24195000  0.56300000  0.62592000  1.0
  C  C85  1  0.24148000  0.93679000  0.37421000  1.0
  O  O86  1  0.60948000  0.38502000  0.41265000  1.0
  O  O87  1  0.61076000  0.11566000  0.58709000  1.0
  O  O88  1  0.39053000  0.61497000  0.58735000  1.0
  O  O89  1  0.38925000  0.88434000  0.41291000  1.0
  O  O90  1  0.87296000  0.56793000  0.39158000  1.0
  O  O91  1  0.87299000  0.93195000  0.60835000  1.0
  O  O92  1  0.12705000  0.43206000  0.60841000  1.0
  O  O93  1  0.12701000  0.06806000  0.39166000  1.0
  O  O94  1  0.72963000  0.40070000  0.54819000  1.0
  O  O95  1  0.72748000  0.09821000  0.45070000  1.0
  O  O96  1  0.27037000  0.59929000  0.45181000  1.0
  O  O97  1  0.27252000  0.90178000  0.54930000  1.0
  O  O98  1  0.67982000  0.74997000  0.49998000  1.0
  O  O99  1  0.32019000  0.25003000  0.50002000  1.0
