# generated using pymatgen
data_UH10C11N2O9
_symmetry_space_group_name_H-M   'P 1'
_cell_length_a   6.50161000
_cell_length_b   10.85710000
_cell_length_c   11.01490000
_cell_angle_alpha   94.10190000
_cell_angle_beta   106.17600000
_cell_angle_gamma   103.63300000
_symmetry_Int_Tables_number   1
_chemical_formula_structural   UH10C11N2O9
_chemical_formula_sum   'U2 H20 C22 N4 O18'
_cell_volume   717.82278947
_cell_formula_units_Z   2
loop_
 _symmetry_equiv_pos_site_id
 _symmetry_equiv_pos_as_xyz
  1  'x, y, z'
loop_
 _atom_site_type_symbol
 _atom_site_label
 _atom_site_symmetry_multiplicity
 _atom_site_fract_x
 _atom_site_fract_y
 _atom_site_fract_z
 _atom_site_occupancy
  U  U0  1  0.21080000  0.64059000  0.88322000  1.0
  U  U1  1  0.78916000  0.35938000  0.11679000  1.0
  H  H2  1  0.20071000  0.44140000  0.59034000  1.0
  H  H3  1  0.79927000  0.55859000  0.40966000  1.0
  H  H4  1  0.77462000  0.74135000  0.00793000  1.0
  H  H5  1  0.22536000  0.25866000  0.99207000  1.0
  H  H6  1  0.75401000  0.28633000  0.75161000  1.0
  H  H7  1  0.24597000  0.71366000  0.24840000  1.0
  H  H8  1  0.44715000  0.22853000  0.34299000  1.0
  H  H9  1  0.55285000  0.77148000  0.65701000  1.0
  H  H10  1  0.76307000  0.03009000  0.13157000  1.0
  H  H11  1  0.23696000  0.96993000  0.86842000  1.0
  H  H12  1  0.63289000  0.86230000  0.11397000  1.0
  H  H13  1  0.36711000  0.13772000  0.88602000  1.0
  H  H14  1  0.82018000  0.94582000  0.26487000  1.0
  H  H15  1  0.17982000  0.05420000  0.73512000  1.0
  H  H16  1  0.16968000  0.09602000  0.18729000  1.0
  H  H17  1  0.83034000  0.90398000  0.81269000  1.0
  H  H18  1  0.26553000  0.98025000  0.27868000  1.0
  H  H19  1  0.73448000  0.01976000  0.72132000  1.0
  H  H20  1  0.29667000  0.98807000  0.12335000  1.0
  H  H21  1  0.70334000  0.01193000  0.87664000  1.0
  C  C22  1  0.49439000  0.42560000  0.81559000  1.0
  C  C23  1  0.50561000  0.57441000  0.18441000  1.0
  C  C24  1  0.47925000  0.36944000  0.68451000  1.0
  C  C25  1  0.52076000  0.63057000  0.31549000  1.0
  C  C26  1  0.31643000  0.38689000  0.57819000  1.0
  C  C27  1  0.68357000  0.61311000  0.42181000  1.0
  C  C28  1  0.94510000  0.80253000  0.04925000  1.0
  C  C29  1  0.05489000  0.19748000  0.95075000  1.0
  C  C30  1  0.11771000  0.34054000  0.34197000  1.0
  C  C31  1  0.88232000  0.65947000  0.65802000  1.0
  C  C32  1  0.62815000  0.29993000  0.66903000  1.0
  C  C33  1  0.37184000  0.70007000  0.33098000  1.0
  C  C34  1  0.29979000  0.33244000  0.45567000  1.0
  C  C35  1  0.70020000  0.66755000  0.54434000  1.0
  C  C36  1  0.45244000  0.26647000  0.43823000  1.0
  C  C37  1  0.54757000  0.73354000  0.56177000  1.0
  C  C38  1  0.61349000  0.25164000  0.54536000  1.0
  C  C39  1  0.38653000  0.74837000  0.45465000  1.0
  C  C40  1  0.78502000  0.93828000  0.16078000  1.0
  C  C41  1  0.21499000  0.06174000  0.83921000  1.0
  C  C42  1  0.18907000  0.99845000  0.18179000  1.0
  C  C43  1  0.81093000  0.00155000  0.81820000  1.0
  N  N44  1  0.97020000  0.90878000  0.12530000  1.0
  N  N45  1  0.02981000  0.09122000  0.87470000  1.0
  N  N46  1  0.77116000  0.18031000  0.52696000  1.0
  N  N47  1  0.22886000  0.81969000  0.47305000  1.0
  O  O48  1  0.56222000  0.36894000  0.90947000  1.0
  O  O49  1  0.43781000  0.63107000  0.09054000  1.0
  O  O50  1  0.10750000  0.77290000  0.02415000  1.0
  O  O51  1  0.89248000  0.22709000  0.97584000  1.0
  O  O52  1  0.96504000  0.39256000  0.35253000  1.0
  O  O53  1  0.03497000  0.60743000  0.64746000  1.0
  O  O54  1  0.40737000  0.78659000  0.87450000  1.0
  O  O55  1  0.59262000  0.21337000  0.12551000  1.0
  O  O56  1  0.11344000  0.29227000  0.23142000  1.0
  O  O57  1  0.88657000  0.70771000  0.76858000  1.0
  O  O58  1  0.43594000  0.52902000  0.82501000  1.0
  O  O59  1  0.56404000  0.47098000  0.17499000  1.0
  O  O60  1  0.02194000  0.48790000  0.87885000  1.0
  O  O61  1  0.97798000  0.51208000  0.12112000  1.0
  O  O62  1  0.94215000  0.19239000  0.61760000  1.0
  O  O63  1  0.05788000  0.80763000  0.38241000  1.0
  O  O64  1  0.72418000  0.11152000  0.42289000  1.0
  O  O65  1  0.27583000  0.88848000  0.57713000  1.0
