# generated using pymatgen
data_AgH11C10S(NO)3
_symmetry_space_group_name_H-M   'P 1'
_cell_length_a   4.60628000
_cell_length_b   10.19350000
_cell_length_c   12.54100000
_cell_angle_alpha   84.56480000
_cell_angle_beta   84.16840000
_cell_angle_gamma   85.32940000
_symmetry_Int_Tables_number   1
_chemical_formula_structural   AgH11C10S(NO)3
_chemical_formula_sum   'Ag2 H22 C20 S2 N6 O6'
_cell_volume   581.63557541
_cell_formula_units_Z   2
loop_
 _symmetry_equiv_pos_site_id
 _symmetry_equiv_pos_as_xyz
  1  'x, y, z'
loop_
 _atom_site_type_symbol
 _atom_site_label
 _atom_site_symmetry_multiplicity
 _atom_site_fract_x
 _atom_site_fract_y
 _atom_site_fract_z
 _atom_site_occupancy
  Ag  Ag0  1  0.22363000  0.35789000  0.06881000  1.0
  Ag  Ag1  1  0.77635000  0.64209000  0.93119000  1.0
  H  H2  1  0.79157000  0.81334000  0.39428000  1.0
  H  H3  1  0.20846000  0.18666000  0.60573000  1.0
  H  H4  1  0.70878000  0.93352000  0.48881000  1.0
  H  H5  1  0.29124000  0.06650000  0.51120000  1.0
  H  H6  1  0.04833000  0.93103000  0.40985000  1.0
  H  H7  1  0.95171000  0.06898000  0.59016000  1.0
  H  H8  1  0.45511000  0.86682000  0.25448000  1.0
  H  H9  1  0.54494000  0.13317000  0.74552000  1.0
  H  H10  1  0.18042000  0.10753000  0.03133000  1.0
  H  H11  1  0.81958000  0.89245000  0.96867000  1.0
  H  H12  1  0.99287000  0.00351000  0.13429000  1.0
  H  H13  1  0.00715000  0.99648000  0.86572000  1.0
  H  H14  1  0.30241000  0.93680000  0.05884000  1.0
  H  H15  1  0.69760000  0.06318000  0.94117000  1.0
  H  H16  1  0.04989000  0.31120000  0.36036000  1.0
  H  H17  1  0.95007000  0.68881000  0.63965000  1.0
  H  H18  1  0.09246000  0.47915000  0.30735000  1.0
  H  H19  1  0.90751000  0.52086000  0.69266000  1.0
  H  H20  1  0.60492000  0.63808000  0.32829000  1.0
  H  H21  1  0.39502000  0.36192000  0.67171000  1.0
  H  H22  1  0.76298000  0.27917000  0.52937000  1.0
  H  H23  1  0.23699000  0.72082000  0.47063000  1.0
  C  C24  1  0.65893000  0.21838000  0.23843000  1.0
  C  C25  1  0.34108000  0.78162000  0.76157000  1.0
  C  C26  1  0.68932000  0.01014000  0.32365000  1.0
  C  C27  1  0.31069000  0.98986000  0.67635000  1.0
  C  C28  1  0.81587000  0.91597000  0.40848000  1.0
  C  C29  1  0.18413000  0.08404000  0.59152000  1.0
  C  C30  1  0.50751000  0.96937000  0.25261000  1.0
  C  C31  1  0.49253000  0.03063000  0.74739000  1.0
  C  C32  1  0.40044000  0.06292000  0.17424000  1.0
  C  C33  1  0.59960000  0.93707000  0.82576000  1.0
  C  C34  1  0.20818000  0.02679000  0.09454000  1.0
  C  C35  1  0.79185000  0.97320000  0.90546000  1.0
  C  C36  1  0.93436000  0.40532000  0.33458000  1.0
  C  C37  1  0.06561000  0.59469000  0.66541000  1.0
  C  C38  1  0.71047000  0.45367000  0.42002000  1.0
  C  C39  1  0.28947000  0.54635000  0.57998000  1.0
  C  C40  1  0.56042000  0.57814000  0.40419000  1.0
  C  C41  1  0.43952000  0.42188000  0.59581000  1.0
  C  C42  1  0.64697000  0.37600000  0.51652000  1.0
  C  C43  1  0.35298000  0.62401000  0.48348000  1.0
  S  S44  1  0.76708000  0.38157000  0.21235000  1.0
  S  S45  1  0.23291000  0.61843000  0.78765000  1.0
  N  N46  1  0.47506000  0.18863000  0.16821000  1.0
  N  N47  1  0.52495000  0.81137000  0.83179000  1.0
  N  N48  1  0.76617000  0.13645000  0.31623000  1.0
  N  N49  1  0.23385000  0.86356000  0.68377000  1.0
  N  N50  1  0.29491000  0.66756000  0.11939000  1.0
  N  N51  1  0.70510000  0.33243000  0.88060000  1.0
  O  O52  1  0.22720000  0.59850000  0.04525000  1.0
  O  O53  1  0.77284000  0.40150000  0.95474000  1.0
  O  O54  1  0.12724000  0.68168000  0.20290000  1.0
  O  O55  1  0.87275000  0.31830000  0.79710000  1.0
  O  O56  1  0.53798000  0.72079000  0.10443000  1.0
  O  O57  1  0.46202000  0.27921000  0.89557000  1.0
