# generated using pymatgen
data_V2ZnH14C14(NO2)4
_symmetry_space_group_name_H-M   'P 1'
_cell_length_a   8.31631000
_cell_length_b   8.86219000
_cell_length_c   13.62930000
_cell_angle_alpha   80.05980000
_cell_angle_beta   76.88970000
_cell_angle_gamma   68.32850000
_symmetry_Int_Tables_number   1
_chemical_formula_structural   V2ZnH14C14(NO2)4
_chemical_formula_sum   'V4 Zn2 H28 C28 N8 O16'
_cell_volume   904.76519355
_cell_formula_units_Z   2
loop_
 _symmetry_equiv_pos_site_id
 _symmetry_equiv_pos_as_xyz
  1  'x, y, z'
loop_
 _atom_site_type_symbol
 _atom_site_label
 _atom_site_symmetry_multiplicity
 _atom_site_fract_x
 _atom_site_fract_y
 _atom_site_fract_z
 _atom_site_occupancy
  V  V0  1  0.77705000  0.23986000  0.47016000  1.0
  V  V1  1  0.22295000  0.76014000  0.52984000  1.0
  V  V2  1  0.05507000  0.08526000  0.64951000  1.0
  V  V3  1  0.94494000  0.91474000  0.35049000  1.0
  Zn  Zn4  1  0.34881000  0.31383000  0.58777000  1.0
  Zn  Zn5  1  0.65120000  0.68617000  0.41223000  1.0
  H  H6  1  0.02610000  0.55424000  0.28025000  1.0
  H  H7  1  0.97390000  0.44576000  0.71975000  1.0
  H  H8  1  0.76911000  0.22304000  0.14764000  1.0
  H  H9  1  0.23089000  0.77696000  0.85236000  1.0
  H  H10  1  0.81038000  0.41042000  0.10794000  1.0
  H  H11  1  0.18962000  0.58958000  0.89206000  1.0
  H  H12  1  0.77110000  0.39522000  0.94039000  1.0
  H  H13  1  0.22891000  0.60478000  0.05961000  1.0
  H  H14  1  0.38363000  0.05740000  0.26429000  1.0
  H  H15  1  0.61637000  0.94260000  0.73571000  1.0
  H  H16  1  0.12061000  0.08671000  0.19098000  1.0
  H  H17  1  0.87939000  0.91329000  0.80902000  1.0
  H  H18  1  0.41316000  0.10472000  0.96048000  1.0
  H  H19  1  0.58684000  0.89528000  0.03952000  1.0
  H  H20  1  0.29841000  0.14077000  0.80041000  1.0
  H  H21  1  0.70159000  0.85923000  0.19959000  1.0
  H  H22  1  0.05257000  0.07718000  0.03668000  1.0
  H  H23  1  0.94743000  0.92282000  0.96332000  1.0
  H  H24  1  0.08103000  0.26866000  0.98940000  1.0
  H  H25  1  0.91897000  0.73134000  0.01060000  1.0
  H  H26  1  0.11100000  0.54937000  0.44543000  1.0
  H  H27  1  0.88900000  0.45063000  0.55457000  1.0
  H  H28  1  0.46076000  0.07543000  0.42695000  1.0
  H  H29  1  0.53924000  0.92458000  0.57305000  1.0
  H  H30  1  0.63406000  0.48062000  0.82862000  1.0
  H  H31  1  0.36594000  0.51938000  0.17138000  1.0
  H  H32  1  0.50872000  0.50235000  0.67613000  1.0
  H  H33  1  0.49128000  0.49765000  0.32387000  1.0
  C  C34  1  0.11970000  0.44458000  0.31196000  1.0
  C  C35  1  0.88029000  0.55542000  0.68804000  1.0
  C  C36  1  0.82807000  0.29192000  0.08452000  1.0
  C  C37  1  0.17193000  0.70808000  0.91548000  1.0
  C  C38  1  0.31834000  0.16811000  0.30250000  1.0
  C  C39  1  0.68166000  0.83189000  0.69750000  1.0
  C  C40  1  0.53628000  0.28725000  0.90795000  1.0
  C  C41  1  0.46371000  0.71275000  0.09205000  1.0
  C  C42  1  0.43653000  0.19482000  0.89947000  1.0
  C  C43  1  0.56347000  0.80519000  0.10053000  1.0
  C  C44  1  0.37223000  0.21418000  0.81079000  1.0
  C  C45  1  0.62777000  0.78582000  0.18921000  1.0
  C  C46  1  0.19561000  0.30457000  0.26025000  1.0
  C  C47  1  0.80438000  0.69543000  0.73975000  1.0
  C  C48  1  0.02656000  0.20068000  0.05518000  1.0
  C  C49  1  0.97344000  0.79932000  0.94482000  1.0
  C  C50  1  0.61438000  0.25281000  0.00256000  1.0
  C  C51  1  0.38562000  0.74719000  0.99744000  1.0
  C  C52  1  0.14362000  0.31559000  0.16030000  1.0
  C  C53  1  0.85638000  0.68441000  0.83970000  1.0
  C  C54  1  0.16761000  0.44281000  0.40323000  1.0
  C  C55  1  0.83239000  0.55719000  0.59677000  1.0
  C  C56  1  0.36225000  0.17794000  0.39335000  1.0
  C  C57  1  0.63775000  0.82206000  0.60665000  1.0
  C  C58  1  0.56080000  0.40196000  0.82693000  1.0
  C  C59  1  0.43920000  0.59804000  0.17307000  1.0
  C  C60  1  0.49119000  0.41538000  0.74099000  1.0
  C  C61  1  0.50881000  0.58462000  0.25901000  1.0
  N  N62  1  0.40048000  0.32163000  0.73195000  1.0
  N  N63  1  0.59952000  0.67837000  0.26805000  1.0
  N  N64  1  0.73785000  0.31879000  0.00058000  1.0
  N  N65  1  0.26215000  0.68121000  0.99942000  1.0
  N  N66  1  0.28814000  0.31239000  0.44334000  1.0
  N  N67  1  0.71186000  0.68761000  0.55666000  1.0
  N  N68  1  0.11376000  0.18683000  0.13912000  1.0
  N  N69  1  0.88624000  0.81316000  0.86088000  1.0
  O  O70  1  0.28185000  0.56025000  0.56389000  1.0
  O  O71  1  0.71816000  0.43975000  0.43611000  1.0
  O  O72  1  0.21150000  0.16395000  0.64774000  1.0
  O  O73  1  0.78850000  0.83605000  0.35226000  1.0
  O  O74  1  0.91398000  0.11454000  0.75571000  1.0
  O  O75  1  0.08602000  0.88546000  0.24429000  1.0
  O  O76  1  0.85476000  0.13249000  0.35971000  1.0
  O  O77  1  0.14524000  0.86751000  0.64029000  1.0
  O  O78  1  0.60579000  0.19294000  0.53966000  1.0
  O  O79  1  0.39421000  0.80706000  0.46033000  1.0
  O  O80  1  0.94868000  0.18141000  0.54216000  1.0
  O  O81  1  0.05132000  0.81859000  0.45784000  1.0
  O  O82  1  0.12275000  0.44518000  0.10296000  1.0
  O  O83  1  0.87725000  0.55481000  0.89704000  1.0
  O  O84  1  0.56738000  0.16432000  0.07637000  1.0
  O  O85  1  0.43262000  0.83568000  0.92363000  1.0
