# generated using pymatgen
data_CdH12C12(NO3)2
_symmetry_space_group_name_H-M   'P 1'
_cell_length_a   9.87790000
_cell_length_b   10.14318491
_cell_length_c   17.00380000
_cell_angle_alpha   90.00008810
_cell_angle_beta   90.00030000
_cell_angle_gamma   62.23108351
_symmetry_Int_Tables_number   1
_chemical_formula_structural   CdH12C12(NO3)2
_chemical_formula_sum   'Cd4 H48 C48 N8 O24'
_cell_volume   1507.46310493
_cell_formula_units_Z   4
loop_
 _symmetry_equiv_pos_site_id
 _symmetry_equiv_pos_as_xyz
  1  'x, y, z'
loop_
 _atom_site_type_symbol
 _atom_site_label
 _atom_site_symmetry_multiplicity
 _atom_site_fract_x
 _atom_site_fract_y
 _atom_site_fract_z
 _atom_site_occupancy
  Cd  Cd0  1  0.18263000  0.59873000  0.01736000  1.0
  Cd  Cd1  1  0.81737000  0.90127000  0.51737000  1.0
  Cd  Cd2  1  0.81737000  0.40127000  0.98264000  1.0
  Cd  Cd3  1  0.18263000  0.09873000  0.48263000  1.0
  H  H4  1  0.22538000  0.79841000  0.91592000  1.0
  H  H5  1  0.77462000  0.70160000  0.41592000  1.0
  H  H6  1  0.77461000  0.20160000  0.08408000  1.0
  H  H7  1  0.22539000  0.29840000  0.58408000  1.0
  H  H8  1  0.39363000  0.68805000  0.94661000  1.0
  H  H9  1  0.60638000  0.81195000  0.44660000  1.0
  H  H10  1  0.60636000  0.31196000  0.05339000  1.0
  H  H11  1  0.39362000  0.18805000  0.55340000  1.0
  H  H12  1  0.05600000  0.42484000  0.09171000  1.0
  H  H13  1  0.94401000  0.07516000  0.59171000  1.0
  H  H14  1  0.94400000  0.57516000  0.90829000  1.0
  H  H15  1  0.05599000  0.92484000  0.40829000  1.0
  H  H16  1  0.93967000  0.59017000  0.10122000  1.0
  H  H17  1  0.06033000  0.90983000  0.60122000  1.0
  H  H18  1  0.06033000  0.40983000  0.89878000  1.0
  H  H19  1  0.93966000  0.09017000  0.39878000  1.0
  H  H20  1  0.24725000  0.74354000  0.35586000  1.0
  H  H21  1  0.75275000  0.75645000  0.85587000  1.0
  H  H22  1  0.75276000  0.25645000  0.64414000  1.0
  H  H23  1  0.24725000  0.24354000  0.14414000  1.0
  H  H24  1  0.33355000  0.39137000  0.51712000  1.0
  H  H25  1  0.66644000  0.10864000  0.01712000  1.0
  H  H26  1  0.66645000  0.60863000  0.48288000  1.0
  H  H27  1  0.33357000  0.89136000  0.98288000  1.0
  H  H28  1  0.67918000  0.34165000  0.34882000  1.0
  H  H29  1  0.32080000  0.15835000  0.84881000  1.0
  H  H30  1  0.32080000  0.65836000  0.65118000  1.0
  H  H31  1  0.67920000  0.84165000  0.15118000  1.0
  H  H32  1  0.54195000  0.71152000  0.30538000  1.0
  H  H33  1  0.45806000  0.78847000  0.80538000  1.0
  H  H34  1  0.45805000  0.28848000  0.69463000  1.0
  H  H35  1  0.54195000  0.21152000  0.19463000  1.0
  H  H36  1  0.63056000  0.53799000  0.25537000  1.0
  H  H37  1  0.36944000  0.96201000  0.75537000  1.0
  H  H38  1  0.36943000  0.46202000  0.74463000  1.0
  H  H39  1  0.63057000  0.03798000  0.24463000  1.0
  H  H40  1  0.48721000  0.49079000  0.14331000  1.0
  H  H41  1  0.51279000  0.00921000  0.64331000  1.0
  H  H42  1  0.51279000  0.50920000  0.85669000  1.0
  H  H43  1  0.48721000  0.99079000  0.35669000  1.0
  H  H44  1  0.08497000  0.90213000  0.13313000  1.0
  H  H45  1  0.91505000  0.59788000  0.63314000  1.0
  H  H46  1  0.91505000  0.09788000  0.86686000  1.0
  H  H47  1  0.08496000  0.40213000  0.36686000  1.0
  H  H48  1  0.25969000  0.90490000  0.26184000  1.0
  H  H49  1  0.74032000  0.59511000  0.76184000  1.0
  H  H50  1  0.74032000  0.09511000  0.73816000  1.0
  H  H51  1  0.25969000  0.40489000  0.23816000  1.0
  C  C52  1  0.47019000  0.55127000  0.34577000  1.0
  C  C53  1  0.52981000  0.94872000  0.84577000  1.0
  C  C54  1  0.52981000  0.44873000  0.65423000  1.0
  C  C55  1  0.47020000  0.05127000  0.15423000  1.0
  C  C56  1  0.32410000  0.63313000  0.37834000  1.0
  C  C57  1  0.67590000  0.86686000  0.87835000  1.0
  C  C58  1  0.67591000  0.36686000  0.62166000  1.0
  C  C59  1  0.32410000  0.13313000  0.12166000  1.0
  C  C60  1  0.27472000  0.57458000  0.43951000  1.0
  C  C61  1  0.72528000  0.92542000  0.93952000  1.0
  C  C62  1  0.72528000  0.42542000  0.56049000  1.0
  C  C63  1  0.27472000  0.07458000  0.06048000  1.0
  C  C64  1  0.37255000  0.43275000  0.46802000  1.0
  C  C65  1  0.62746000  0.06724000  0.96802000  1.0
  C  C66  1  0.62745000  0.56724000  0.53198000  1.0
  C  C67  1  0.37255000  0.93276000  0.03198000  1.0
  C  C68  1  0.51651000  0.34750000  0.43511000  1.0
  C  C69  1  0.48348000  0.15250000  0.93511000  1.0
  C  C70  1  0.48349000  0.65250000  0.56489000  1.0
  C  C71  1  0.51652000  0.84750000  0.06489000  1.0
  C  C72  1  0.56522000  0.40776000  0.37350000  1.0
  C  C73  1  0.43477000  0.09223000  0.87351000  1.0
  C  C74  1  0.43477000  0.59224000  0.62649000  1.0
  C  C75  1  0.56523000  0.90776000  0.12649000  1.0
  C  C76  1  0.52275000  0.62075000  0.28161000  1.0
  C  C77  1  0.47725000  0.87925000  0.78161000  1.0
  C  C78  1  0.47724000  0.37926000  0.71839000  1.0
  C  C79  1  0.52276000  0.12074000  0.21839000  1.0
  C  C80  1  0.39903000  0.60218000  0.15740000  1.0
  C  C81  1  0.60097000  0.89782000  0.65741000  1.0
  C  C82  1  0.60096000  0.39782000  0.84260000  1.0
  C  C83  1  0.39903000  0.10218000  0.34260000  1.0
  C  C84  1  0.19401000  0.81767000  0.15503000  1.0
  C  C85  1  0.80599000  0.68234000  0.65504000  1.0
  C  C86  1  0.80599000  0.18235000  0.84496000  1.0
  C  C87  1  0.19401000  0.31766000  0.34496000  1.0
  C  C88  1  0.27957000  0.81987000  0.21823000  1.0
  C  C89  1  0.72044000  0.68013000  0.71823000  1.0
  C  C90  1  0.72044000  0.18014000  0.78177000  1.0
  C  C91  1  0.27956000  0.31987000  0.28177000  1.0
  C  C92  1  0.11988000  0.66067000  0.47630000  1.0
  C  C93  1  0.88012000  0.83933000  0.97630000  1.0
  C  C94  1  0.88012000  0.33933000  0.52370000  1.0
  C  C95  1  0.11988000  0.16067000  0.02370000  1.0
  C  C96  1  0.61686000  0.19477000  0.46615000  1.0
  C  C97  1  0.38313000  0.30523000  0.96615000  1.0
  C  C98  1  0.38314000  0.80523000  0.53384000  1.0
  C  C99  1  0.61687000  0.69477000  0.03385000  1.0
  N  N100  1  0.40914000  0.68256000  0.21880000  1.0
  N  N101  1  0.59086000  0.81745000  0.71881000  1.0
  N  N102  1  0.59086000  0.31745000  0.78120000  1.0
  N  N103  1  0.40914000  0.18255000  0.28120000  1.0
  N  N104  1  0.27016000  0.68164000  0.11768000  1.0
  N  N105  1  0.72984000  0.81837000  0.61768000  1.0
  N  N106  1  0.72984000  0.31837000  0.88232000  1.0
  N  N107  1  0.27016000  0.18163000  0.38232000  1.0
  O  O108  1  0.02773000  0.78447000  0.44155000  1.0
  O  O109  1  0.97227000  0.71553000  0.94156000  1.0
  O  O110  1  0.97227000  0.21553000  0.55845000  1.0
  O  O111  1  0.02772000  0.28447000  0.05845000  1.0
  O  O112  1  0.08497000  0.61239000  0.53668000  1.0
  O  O113  1  0.91502000  0.88762000  0.03668000  1.0
  O  O114  1  0.91503000  0.38761000  0.46332000  1.0
  O  O115  1  0.08498000  0.11238000  0.96332000  1.0
  O  O116  1  0.56713000  0.14129000  0.52071000  1.0
  O  O117  1  0.43287000  0.35871000  0.02070000  1.0
  O  O118  1  0.43287000  0.85871000  0.47929000  1.0
  O  O119  1  0.56713000  0.64129000  0.97930000  1.0
  O  O120  1  0.75071000  0.11937000  0.43778000  1.0
  O  O121  1  0.24929000  0.38063000  0.93778000  1.0
  O  O122  1  0.24930000  0.88062000  0.56222000  1.0
  O  O123  1  0.75072000  0.61937000  0.06222000  1.0
  O  O124  1  0.29949000  0.69332000  0.92037000  1.0
  O  O125  1  0.70051000  0.80669000  0.42037000  1.0
  O  O126  1  0.70050000  0.30669000  0.07963000  1.0
  O  O127  1  0.29949000  0.19331000  0.57963000  1.0
  O  O128  1  0.04992000  0.52259000  0.10758000  1.0
  O  O129  1  0.95008000  0.97741000  0.60758000  1.0
  O  O130  1  0.95008000  0.47741000  0.89242000  1.0
  O  O131  1  0.04992000  0.02259000  0.39242000  1.0
