# generated using pymatgen
data_AlH2C11Cl5O5F3
_symmetry_space_group_name_H-M   'P 1'
_cell_length_a   7.17459000
_cell_length_b   16.52120000
_cell_length_c   16.62220000
_cell_angle_alpha   79.22900000
_cell_angle_beta   89.99990000
_cell_angle_gamma   89.99980000
_symmetry_Int_Tables_number   1
_chemical_formula_structural   AlH2C11Cl5O5F3
_chemical_formula_sum   'Al4 H8 C44 Cl20 O20 F12'
_cell_volume   1935.56411528
_cell_formula_units_Z   4
loop_
 _symmetry_equiv_pos_site_id
 _symmetry_equiv_pos_as_xyz
  1  'x, y, z'
loop_
 _atom_site_type_symbol
 _atom_site_label
 _atom_site_symmetry_multiplicity
 _atom_site_fract_x
 _atom_site_fract_y
 _atom_site_fract_z
 _atom_site_occupancy
  Al  Al0  1  0.83877000  0.49856000  0.49453000  1.0
  Al  Al1  1  0.33877000  0.50144000  0.50547000  1.0
  Al  Al2  1  0.39507000  0.00506000  0.99808000  1.0
  Al  Al3  1  0.89507000  0.99494000  0.00192000  1.0
  H  H4  1  0.81317000  0.16557000  0.31320000  1.0
  H  H5  1  0.31317000  0.83443000  0.68679000  1.0
  H  H6  1  0.00816000  0.37676000  0.76912000  1.0
  H  H7  1  0.50816000  0.62324000  0.23088000  1.0
  H  H8  1  0.58048000  0.39444000  0.49311000  1.0
  H  H9  1  0.08048000  0.60555000  0.50691000  1.0
  H  H10  1  0.65727000  0.10677000  0.00593000  1.0
  H  H11  1  0.15727000  0.89323000  0.99407000  1.0
  C  C12  1  0.58354000  0.61460000  0.39065000  1.0
  C  C13  1  0.08354000  0.38540000  0.60935000  1.0
  C  C14  1  0.60076000  0.57946000  0.60376000  1.0
  C  C15  1  0.10077000  0.42054000  0.39624000  1.0
  C  C16  1  0.11904000  0.13574000  0.16378000  1.0
  C  C17  1  0.61904000  0.86425000  0.83622000  1.0
  C  C18  1  0.12615000  0.36878000  0.33106000  1.0
  C  C19  1  0.62614000  0.63121000  0.66894000  1.0
  C  C20  1  0.32587000  0.32870000  0.22386000  1.0
  C  C21  1  0.82588000  0.67130000  0.77614000  1.0
  C  C22  1  0.28484000  0.38135000  0.27795000  1.0
  C  C23  1  0.78484000  0.61865000  0.72205000  1.0
  C  C24  1  0.00876000  0.30291000  0.32605000  1.0
  C  C25  1  0.50875000  0.69709000  0.67395000  1.0
  C  C26  1  0.04716000  0.24660000  0.27246000  1.0
  C  C27  1  0.54716000  0.75340000  0.72754000  1.0
  C  C28  1  0.20741000  0.26014000  0.21948000  1.0
  C  C29  1  0.70741000  0.73986000  0.78052000  1.0
  C  C30  1  0.23362000  0.20319000  0.16551000  1.0
  C  C31  1  0.73362000  0.79680000  0.83449000  1.0
  C  C32  1  0.96838000  0.12436000  0.22012000  1.0
  C  C33  1  0.46839000  0.87564000  0.77988000  1.0
  C  C34  1  0.93151000  0.17756000  0.27199000  1.0
  C  C35  1  0.43151000  0.82244000  0.72801000  1.0
  C  C36  1  0.27850000  0.18583000  0.74719000  1.0
  C  C37  1  0.77849000  0.81417000  0.25281000  1.0
  C  C38  1  0.23644000  0.24118000  0.66193000  1.0
  C  C39  1  0.73644000  0.75882000  0.33806000  1.0
  C  C40  1  0.11586000  0.26374000  0.84024000  1.0
  C  C41  1  0.61586000  0.73627000  0.15976000  1.0
  C  C42  1  0.92835000  0.17024000  0.75867000  1.0
  C  C43  1  0.42834000  0.82976000  0.24134000  1.0
  C  C44  1  0.11098000  0.17908000  0.80893000  1.0
  C  C45  1  0.61097000  0.82092000  0.19107000  1.0
  C  C46  1  0.09056000  0.30628000  0.67885000  1.0
  C  C47  1  0.59055000  0.69372000  0.32115000  1.0
  C  C48  1  0.12625000  0.33662000  0.76337000  1.0
  C  C49  1  0.62625000  0.66338000  0.23663000  1.0
  C  C50  1  0.90213000  0.25696000  0.69102000  1.0
  C  C51  1  0.40213000  0.74304000  0.30898000  1.0
  C  C52  1  0.63775000  0.91761000  0.89948000  1.0
  C  C53  1  0.13773000  0.08239000  0.10052000  1.0
  C  C54  1  0.64028000  0.89256000  0.11586000  1.0
  C  C55  1  0.14028000  0.10744000  0.88414000  1.0
  Cl  Cl56  1  0.44237000  0.27699000  0.61374000  1.0
  Cl  Cl57  1  0.94236000  0.72301000  0.38626000  1.0
  Cl  Cl58  1  0.32341000  0.40013000  0.76806000  1.0
  Cl  Cl59  1  0.82341000  0.59987000  0.23194000  1.0
  Cl  Cl60  1  0.72543000  0.14918000  0.81584000  1.0
  Cl  Cl61  1  0.22541000  0.85082000  0.18416000  1.0
  Cl  Cl62  1  0.95533000  0.07936000  0.71418000  1.0
  Cl  Cl63  1  0.45532000  0.92064000  0.28582000  1.0
  Cl  Cl64  1  0.82211000  0.23453000  0.59625000  1.0
  Cl  Cl65  1  0.32210000  0.76547000  0.40375000  1.0
  Cl  Cl66  1  0.73759000  0.32200000  0.72694000  1.0
  Cl  Cl67  1  0.23759000  0.67800000  0.27306000  1.0
  Cl  Cl68  1  0.92547000  0.27899000  0.90526000  1.0
  Cl  Cl69  1  0.42547000  0.72101000  0.09474000  1.0
  Cl  Cl70  1  0.52413000  0.34777000  0.16533000  1.0
  Cl  Cl71  1  0.02413000  0.65222000  0.83466000  1.0
  Cl  Cl72  1  0.42941000  0.46421000  0.27758000  1.0
  Cl  Cl73  1  0.92942000  0.53579000  0.72242000  1.0
  Cl  Cl74  1  0.81316000  0.28351000  0.38707000  1.0
  Cl  Cl75  1  0.31315000  0.71649000  0.61293000  1.0
  O  O76  1  0.43733000  0.55677000  0.58860000  1.0
  O  O77  1  0.93734000  0.44323000  0.41140000  1.0
  O  O78  1  0.73994000  0.58069000  0.40715000  1.0
  O  O79  1  0.23995000  0.41930000  0.59285000  1.0
  O  O80  1  0.75086000  0.56590000  0.56779000  1.0
  O  O81  1  0.25087000  0.43410000  0.43221000  1.0
  O  O82  1  0.92725000  0.40895000  0.57799000  1.0
  O  O83  1  0.42725000  0.59105000  0.42201000  1.0
  O  O84  1  0.58777000  0.45079000  0.50194000  1.0
  O  O85  1  0.08777000  0.54921000  0.49806000  1.0
  O  O86  1  0.80612000  0.91136000  0.09313000  1.0
  O  O87  1  0.30614000  0.08865000  0.90688000  1.0
  O  O88  1  0.48168000  0.94110000  0.92303000  1.0
  O  O89  1  0.98169000  0.05890000  0.07697000  1.0
  O  O90  1  0.49168000  0.92168000  0.08258000  1.0
  O  O91  1  0.99170000  0.07832000  0.91742000  1.0
  O  O92  1  0.29949000  0.06702000  0.07562000  1.0
  O  O93  1  0.79948000  0.93298000  0.92438000  1.0
  O  O94  1  0.64794000  0.05043000  0.99718000  1.0
  O  O95  1  0.14794000  0.94957000  0.00282000  1.0
  F  F96  1  0.37209000  0.21671000  0.10979000  1.0
  F  F97  1  0.87209000  0.78328000  0.89021000  1.0
  F  F98  1  0.26691000  0.26418000  0.89165000  1.0
  F  F99  1  0.76691000  0.73582000  0.10835000  1.0
  F  F100  1  0.85654000  0.05811000  0.22438000  1.0
  F  F101  1  0.35654000  0.94190000  0.77562000  1.0
  F  F102  1  0.41848000  0.22524000  0.77933000  1.0
  F  F103  1  0.91847000  0.77476000  0.22067000  1.0
  F  F104  1  0.34361000  0.11125000  0.73672000  1.0
  F  F105  1  0.84359000  0.88875000  0.26328000  1.0
  F  F106  1  0.16753000  0.19114000  0.61043000  1.0
  F  F107  1  0.66752000  0.80886000  0.38957000  1.0
