# generated using pymatgen
data_Zn2H17C22N5O8
_symmetry_space_group_name_H-M   'P 1'
_cell_length_a   9.76615000
_cell_length_b   11.22060000
_cell_length_c   16.04590000
_cell_angle_alpha   87.33500000
_cell_angle_beta   89.62140000
_cell_angle_gamma   89.65650000
_symmetry_Int_Tables_number   1
_chemical_formula_structural   Zn2H17C22N5O8
_chemical_formula_sum   'Zn2 H17 C22 N5 O8'
_cell_volume   1756.37428822
_cell_formula_units_Z   1
loop_
 _symmetry_equiv_pos_site_id
 _symmetry_equiv_pos_as_xyz
  1  'x, y, z'
loop_
 _atom_site_type_symbol
 _atom_site_label
 _atom_site_symmetry_multiplicity
 _atom_site_fract_x
 _atom_site_fract_y
 _atom_site_fract_z
 _atom_site_occupancy
  Zn  Zn0  1  0.36721000  0.50223000  0.49647000  1.0
  Zn  Zn1  1  0.64709000  0.50004000  0.50144000  1.0
  H  H2  1  0.62910000  0.65454000  0.92219000  1.0
  H  H3  1  0.69063000  0.11310000  0.50755000  1.0
  H  H4  1  0.70202000  0.89551000  0.49795000  1.0
  H  H5  1  0.33136000  0.74776000  0.99161000  1.0
  H  H6  1  0.43732000  0.75794000  0.07183000  1.0
  H  H7  1  0.30977000  0.25871000  0.05083000  1.0
  H  H8  1  0.41325000  0.27376000  0.13181000  1.0
  H  H9  1  0.34453000  0.01122000  0.44466000  1.0
  H  H10  1  0.29054000  0.15988000  0.44051000  1.0
  H  H11  1  0.38969000  0.89138000  0.52540000  1.0
  H  H12  1  0.13207000  0.40904000  0.39078000  1.0
  H  H13  1  0.10706000  0.56544000  0.53122000  1.0
  H  H14  1  0.87743000  0.47184000  0.37642000  1.0
  H  H15  1  0.90843000  0.48002000  0.55750000  1.0
  H  H16  1  0.74614000  0.48966000  0.04135000  1.0
  H  H17  1  0.61114000  0.30106000  0.96344000  1.0
  H  H18  1  0.26448000  0.49512000  0.95534000  1.0
  C  C19  1  0.50561000  0.73024000  0.51193000  1.0
  C  C20  1  0.48310000  0.13514000  0.48171000  1.0
  C  C21  1  0.60070000  0.93707000  0.50247000  1.0
  C  C22  1  0.50171000  0.46525000  0.66036000  1.0
  C  C23  1  0.49321000  0.86057000  0.51232000  1.0
  C  C24  1  0.08176000  0.46208000  0.43797000  1.0
  C  C25  1  0.93052000  0.47323000  0.43646000  1.0
  C  C26  1  0.49281000  0.26919000  0.48267000  1.0
  C  C27  1  0.52328000  0.52420000  0.33533000  1.0
  C  C28  1  0.44612000  0.59852000  0.01617000  1.0
  C  C29  1  0.57495000  0.58267000  0.95678000  1.0
  C  C30  1  0.49809000  0.47824000  0.91354000  1.0
  C  C31  1  0.49556000  0.46066000  0.75041000  1.0
  C  C32  1  0.52407000  0.52480000  0.24537000  1.0
  C  C33  1  0.37200000  0.49399000  0.97413000  1.0
  C  C34  1  0.43631000  0.40228000  0.03903000  1.0
  C  C35  1  0.51492000  0.50680000  0.08262000  1.0
  C  C36  1  0.56504000  0.38620000  0.97956000  1.0
  C  C37  1  0.63950000  0.49065000  0.02111000  1.0
  C  C38  1  0.49397000  0.46620000  0.82613000  1.0
  C  C39  1  0.52069000  0.51827000  0.16970000  1.0
  C  C40  1  0.59601000  0.06460000  0.49873000  1.0
  N  N41  1  0.15770000  0.51245000  0.49032000  1.0
  N  N42  1  0.85658000  0.48334000  0.50184000  1.0
  N  N43  1  0.37592000  0.70185000  0.04077000  1.0
  N  N44  1  0.35728000  0.31848000  0.08674000  1.0
  N  N45  1  0.35527000  0.09560000  0.46363000  1.0
  O  O46  1  0.39282000  0.67316000  0.52458000  1.0
  O  O47  1  0.62183000  0.68112000  0.49839000  1.0
  O  O48  1  0.39054000  0.44911000  0.62130000  1.0
  O  O49  1  0.61921000  0.48724000  0.62787000  1.0
  O  O50  1  0.38133000  0.32603000  0.46604000  1.0
  O  O51  1  0.60640000  0.31550000  0.50011000  1.0
  O  O52  1  0.40846000  0.54353000  0.37054000  1.0
  O  O53  1  0.63713000  0.50234000  0.37207000  1.0
