# generated using pymatgen
data_NiTeMo3H8C10(NO6)2
_symmetry_space_group_name_H-M   'P 1'
_cell_length_a   7.74180000
_cell_length_b   9.74877000
_cell_length_c   12.32340000
_cell_angle_alpha   99.00890000
_cell_angle_beta   107.26800000
_cell_angle_gamma   101.48000000
_symmetry_Int_Tables_number   1
_chemical_formula_structural   NiTeMo3H8C10(NO6)2
_chemical_formula_sum   'Ni2 Te2 Mo6 H16 C20 N4 O24'
_cell_volume   846.96515268
_cell_formula_units_Z   2
loop_
 _symmetry_equiv_pos_site_id
 _symmetry_equiv_pos_as_xyz
  1  'x, y, z'
loop_
 _atom_site_type_symbol
 _atom_site_label
 _atom_site_symmetry_multiplicity
 _atom_site_fract_x
 _atom_site_fract_y
 _atom_site_fract_z
 _atom_site_occupancy
  Ni  Ni0  1  0.53914000  0.68205000  0.68727000  1.0
  Ni  Ni1  1  0.46086000  0.31795000  0.31273000  1.0
  Te  Te2  1  0.23734000  0.20695000  0.01614000  1.0
  Te  Te3  1  0.76265000  0.79305000  0.98386000  1.0
  Mo  Mo4  1  0.35494000  0.95059000  0.84147000  1.0
  Mo  Mo5  1  0.64506000  0.04942000  0.15853000  1.0
  Mo  Mo6  1  0.28701000  0.74950000  0.03318000  1.0
  Mo  Mo7  1  0.71299000  0.25050000  0.96682000  1.0
  Mo  Mo8  1  0.36894000  0.44957000  0.84804000  1.0
  Mo  Mo9  1  0.63106000  0.55043000  0.15196000  1.0
  H  H10  1  0.83579000  0.95412000  0.76131000  1.0
  H  H11  1  0.16421000  0.04587000  0.23869000  1.0
  H  H12  1  0.95242000  0.12771000  0.65328000  1.0
  H  H13  1  0.04758000  0.87228000  0.34672000  1.0
  H  H14  1  0.20828000  0.42955000  0.58264000  1.0
  H  H15  1  0.79172000  0.57045000  0.41735000  1.0
  H  H16  1  0.54265000  0.85020000  0.33346000  1.0
  H  H17  1  0.45735000  0.14981000  0.66654000  1.0
  H  H18  1  0.80462000  0.07107000  0.43272000  1.0
  H  H19  1  0.19538000  0.92893000  0.56729000  1.0
  H  H20  1  0.29558000  0.66290000  0.26881000  1.0
  H  H21  1  0.70443000  0.33711000  0.73119000  1.0
  H  H22  1  0.98485000  0.32496000  0.37726000  1.0
  H  H23  1  0.01515000  0.67505000  0.62274000  1.0
  H  H24  1  0.03129000  0.44363000  0.21826000  1.0
  H  H25  1  0.96872000  0.55638000  0.78174000  1.0
  C  C26  1  0.77439000  0.93786000  0.66731000  1.0
  C  C27  1  0.22562000  0.06214000  0.33270000  1.0
  C  C28  1  0.83814000  0.03239000  0.60528000  1.0
  C  C29  1  0.16186000  0.96761000  0.39472000  1.0
  C  C30  1  0.39073000  0.66149000  0.45145000  1.0
  C  C31  1  0.60927000  0.33851000  0.54856000  1.0
  C  C32  1  0.54779000  0.78922000  0.49504000  1.0
  C  C33  1  0.45221000  0.21078000  0.50497000  1.0
  C  C34  1  0.22268000  0.47703000  0.51048000  1.0
  C  C35  1  0.77732000  0.52297000  0.48951000  1.0
  C  C36  1  0.60924000  0.87743000  0.42802000  1.0
  C  C37  1  0.39076000  0.12256000  0.57198000  1.0
  C  C38  1  0.75626000  0.00060000  0.48406000  1.0
  C  C39  1  0.24374000  0.99940000  0.51595000  1.0
  C  C40  1  0.27224000  0.60900000  0.33602000  1.0
  C  C41  1  0.72776000  0.39101000  0.66398000  1.0
  C  C42  1  0.10042000  0.41976000  0.39645000  1.0
  C  C43  1  0.89958000  0.58025000  0.60355000  1.0
  C  C44  1  0.12563000  0.48614000  0.30791000  1.0
  C  C45  1  0.87437000  0.51386000  0.69209000  1.0
  N  N46  1  0.63360000  0.81869000  0.61334000  1.0
  N  N47  1  0.36641000  0.18131000  0.38666000  1.0
  N  N48  1  0.36523000  0.59518000  0.53736000  1.0
  N  N49  1  0.63477000  0.40482000  0.46264000  1.0
  O  O50  1  0.26720000  0.59947000  0.91124000  1.0
  O  O51  1  0.73279000  0.40053000  0.08876000  1.0
  O  O52  1  0.53541000  0.32749000  0.86261000  1.0
  O  O53  1  0.46458000  0.67251000  0.13739000  1.0
  O  O54  1  0.35849000  0.39525000  0.00792000  1.0
  O  O55  1  0.64151000  0.60475000  0.99208000  1.0
  O  O56  1  0.45418000  0.13160000  0.02039000  1.0
  O  O57  1  0.54582000  0.86840000  0.97961000  1.0
  O  O58  1  0.08863000  0.69588000  0.06743000  1.0
  O  O59  1  0.91137000  0.30413000  0.93257000  1.0
  O  O60  1  0.31040000  0.81201000  0.72280000  1.0
  O  O61  1  0.68959000  0.18799000  0.27720000  1.0
  O  O62  1  0.41189000  0.93086000  0.15050000  1.0
  O  O63  1  0.58811000  0.06915000  0.84950000  1.0
  O  O64  1  0.19942000  0.85972000  0.92423000  1.0
  O  O65  1  0.80057000  0.14028000  0.07577000  1.0
  O  O66  1  0.20860000  0.05689000  0.79160000  1.0
  O  O67  1  0.79139000  0.94311000  0.20840000  1.0
  O  O68  1  0.44359000  0.54213000  0.74979000  1.0
  O  O69  1  0.55641000  0.45787000  0.25021000  1.0
  O  O70  1  0.16116000  0.33255000  0.75946000  1.0
  O  O71  1  0.83884000  0.66745000  0.24054000  1.0
  O  O72  1  0.26126000  0.23496000  0.17411000  1.0
  O  O73  1  0.73874000  0.76504000  0.82589000  1.0
