# generated using pymatgen
data_Zr3H33C44N7O16
_symmetry_space_group_name_H-M   'P 1'
_cell_length_a   19.02955879
_cell_length_b   19.06802589
_cell_length_c   19.06820000
_cell_angle_alpha   89.90583696
_cell_angle_beta   60.05832699
_cell_angle_gamma   119.93916208
_symmetry_Int_Tables_number   1
_chemical_formula_structural   Zr3H33C44N7O16
_chemical_formula_sum   'Zr6 H66 C88 N14 O32'
_cell_volume   4897.26661231
_cell_formula_units_Z   2
loop_
 _symmetry_equiv_pos_site_id
 _symmetry_equiv_pos_as_xyz
  1  'x, y, z'
loop_
 _atom_site_type_symbol
 _atom_site_label
 _atom_site_symmetry_multiplicity
 _atom_site_fract_x
 _atom_site_fract_y
 _atom_site_fract_z
 _atom_site_occupancy
  Zr  Zr0  1  0.31415000  0.90783000  0.09307000  1.0
  Zr  Zr1  1  0.68531000  0.09304000  0.90781000  1.0
  Zr  Zr2  1  0.49957000  0.09293000  0.90751000  1.0
  Zr  Zr3  1  0.49987000  0.90749000  0.09295000  1.0
  Zr  Zr4  1  0.49973000  0.90769000  0.90772000  1.0
  Zr  Zr5  1  0.49976000  0.09302000  0.09300000  1.0
  H  H6  1  0.35319000  0.92788000  0.92768000  1.0
  H  H7  1  0.64625000  0.92764000  0.92790000  1.0
  H  H8  1  0.64563000  0.21901000  0.92724000  1.0
  H  H9  1  0.35387000  0.92723000  0.21904000  1.0
  H  H10  1  0.92190000  0.28909000  0.93092000  1.0
  H  H11  1  0.07845000  0.64354000  0.13392000  1.0
  H  H12  1  0.28183000  0.71958000  0.86070000  1.0
  H  H13  1  0.14843000  0.59314000  0.85844000  1.0
  H  H14  1  0.71967000  0.35972000  0.06232000  1.0
  H  H15  1  0.85541000  0.49563000  0.05256000  1.0
  H  H16  1  0.92112000  0.13374000  0.64370000  1.0
  H  H17  1  0.07758000  0.93082000  0.28930000  1.0
  H  H18  1  0.27990000  0.06208000  0.35986000  1.0
  H  H19  1  0.14418000  0.05221000  0.49588000  1.0
  H  H20  1  0.71766000  0.86051000  0.71978000  1.0
  H  H21  1  0.85110000  0.85817000  0.59348000  1.0
  H  H22  1  0.42900000  0.28641000  0.13424000  1.0
  H  H23  1  0.42877000  0.64355000  0.93689000  1.0
  H  H24  1  0.58092000  0.72046000  0.05915000  1.0
  H  H25  1  0.59165000  0.59496000  0.04960000  1.0
  H  H26  1  0.57924000  0.35993000  0.86041000  1.0
  H  H27  1  0.59019000  0.49633000  0.85881000  1.0
  H  H28  1  0.57096000  0.93701000  0.64349000  1.0
  H  H29  1  0.57099000  0.13448000  0.28608000  1.0
  H  H30  1  0.42069000  0.86064000  0.35977000  1.0
  H  H31  1  0.40994000  0.85917000  0.49608000  1.0
  H  H32  1  0.41889000  0.05934000  0.72025000  1.0
  H  H33  1  0.40844000  0.04999000  0.59461000  1.0
  H  H34  1  0.93170000  0.11430000  0.89055000  1.0
  H  H35  1  0.70831000  0.89397000  0.11542000  1.0
  H  H36  1  0.06770000  0.89054000  0.11428000  1.0
  H  H37  1  0.29108000  0.11548000  0.89406000  1.0
  H  H38  1  0.71984000  0.29096000  0.64796000  1.0
  H  H39  1  0.27963000  0.64802000  0.29108000  1.0
  H  H40  1  0.07720000  0.71775000  0.35760000  1.0
  H  H41  1  0.94989000  0.59252000  0.49390000  1.0
  H  H42  1  0.92215000  0.35763000  0.71785000  1.0
  H  H43  1  0.04943000  0.49390000  0.59262000  1.0
  H  H44  1  0.12114000  0.46695000  0.93239000  1.0
  H  H45  1  0.07817000  0.37193000  0.91329000  1.0
  H  H46  1  0.87267000  0.45321000  0.14997000  1.0
  H  H47  1  0.91129000  0.51841000  0.20275000  1.0
  H  H48  1  0.12692000  0.14964000  0.45350000  1.0
  H  H49  1  0.08834000  0.20248000  0.51865000  1.0
  H  H50  1  0.87826000  0.93201000  0.46742000  1.0
  H  H51  1  0.92126000  0.91303000  0.37233000  1.0
  H  H52  1  0.43169000  0.47772000  0.15011000  1.0
  H  H53  1  0.40376000  0.38552000  0.20329000  1.0
  H  H54  1  0.42856000  0.45317000  0.92044000  1.0
  H  H55  1  0.40194000  0.51826000  0.89393000  1.0
  H  H56  1  0.57165000  0.92087000  0.45287000  1.0
  H  H57  1  0.59811000  0.89428000  0.51805000  1.0
  H  H58  1  0.56852000  0.15045000  0.47730000  1.0
  H  H59  1  0.59637000  0.20363000  0.38515000  1.0
  H  H60  1  0.90058000  0.46976000  0.44824000  1.0
  H  H61  1  0.78763000  0.37371000  0.50865000  1.0
  H  H62  1  0.09878000  0.44819000  0.46976000  1.0
  H  H63  1  0.21172000  0.50859000  0.37373000  1.0
  H  H64  1  0.31497000  0.20349000  0.81996000  1.0
  H  H65  1  0.27852000  0.25595000  0.79307000  1.0
  H  H66  1  0.07001000  0.18165000  0.79771000  1.0
  H  H67  1  0.18623000  0.21059000  0.74826000  1.0
  H  H68  1  0.92945000  0.79792000  0.18185000  1.0
  H  H69  1  0.81332000  0.74824000  0.21053000  1.0
  H  H70  1  0.68445000  0.82012000  0.20369000  1.0
  H  H71  1  0.72097000  0.79296000  0.25590000  1.0
  C  C72  1  0.26471000  0.76396000  0.00070000  1.0
  C  C73  1  0.73477000  0.00059000  0.76401000  1.0
  C  C74  1  0.73469000  0.23535000  0.00167000  1.0
  C  C75  1  0.26486000  0.00164000  0.23541000  1.0
  C  C76  1  0.26265000  0.00283000  0.00405000  1.0
  C  C77  1  0.26313000  0.76375000  0.23486000  1.0
  C  C78  1  0.73678000  0.00403000  0.00281000  1.0
  C  C79  1  0.73627000  0.23477000  0.76377000  1.0
  C  C80  1  0.50163000  0.00203000  0.76369000  1.0
  C  C81  1  0.49722000  0.23460000  0.00049000  1.0
  C  C82  1  0.50244000  0.00058000  0.23448000  1.0
  C  C83  1  0.49789000  0.76369000  0.00203000  1.0
  C  C84  1  0.81338000  0.31611000  0.99823000  1.0
  C  C85  1  0.18698000  0.68818000  0.99801000  1.0
  C  C86  1  0.90784000  0.33440000  0.95882000  1.0
  C  C87  1  0.98342000  0.40839000  0.95647000  1.0
  C  C88  1  0.09296000  0.63128000  0.07386000  1.0
  C  C89  1  0.01893000  0.55763000  0.07423000  1.0
  C  C90  1  0.20843000  0.67430000  0.91968000  1.0
  C  C91  1  0.13412000  0.60339000  0.91913000  1.0
  C  C92  1  0.79310000  0.37365000  0.03336000  1.0
  C  C93  1  0.86869000  0.44848000  0.02860000  1.0
  C  C94  1  0.96340000  0.46676000  0.99257000  1.0
  C  C95  1  0.03952000  0.54375000  0.99487000  1.0
  C  C96  1  0.81254000  0.99783000  0.68834000  1.0
  C  C97  1  0.18615000  0.99806000  0.31628000  1.0
  C  C98  1  0.90660000  0.07365000  0.63149000  1.0
  C  C99  1  0.98064000  0.07396000  0.55792000  1.0
  C  C100  1  0.09165000  0.95865000  0.33464000  1.0
  C  C101  1  0.01607000  0.95621000  0.40871000  1.0
  C  C102  1  0.20644000  0.03311000  0.37386000  1.0
  C  C103  1  0.13085000  0.02827000  0.44875000  1.0
  C  C104  1  0.79112000  0.91948000  0.67452000  1.0
  C  C105  1  0.86545000  0.91888000  0.60368000  1.0
  C  C106  1  0.96004000  0.99459000  0.54407000  1.0
  C  C107  1  0.03613000  0.99226000  0.46709000  1.0
  C  C108  1  0.50244000  0.31529000  0.99806000  1.0
  C  C109  1  0.50311000  0.68822000  0.99901000  1.0
  C  C110  1  0.46310000  0.33268000  0.07424000  1.0
  C  C111  1  0.46378000  0.40666000  0.07488000  1.0
  C  C112  1  0.46315000  0.63136000  0.96255000  1.0
  C  C113  1  0.46342000  0.55782000  0.96138000  1.0
  C  C114  1  0.54840000  0.67488000  0.03214000  1.0
  C  C115  1  0.55275000  0.60418000  0.02764000  1.0
  C  C116  1  0.54726000  0.37347000  0.91971000  1.0
  C  C117  1  0.55181000  0.44860000  0.91962000  1.0
  C  C118  1  0.50968000  0.46632000  0.99572000  1.0
  C  C119  1  0.50983000  0.54413000  0.99421000  1.0
  C  C120  1  0.49663000  0.99914000  0.68810000  1.0
  C  C121  1  0.49747000  0.99828000  0.31505000  1.0
  C  C122  1  0.53666000  0.96272000  0.63124000  1.0
  C  C123  1  0.53660000  0.96170000  0.55759000  1.0
  C  C124  1  0.53691000  0.07450000  0.33236000  1.0
  C  C125  1  0.53633000  0.07521000  0.40629000  1.0
  C  C126  1  0.45272000  0.91997000  0.37324000  1.0
  C  C127  1  0.44826000  0.91994000  0.44833000  1.0
  C  C128  1  0.45147000  0.03237000  0.67466000  1.0
  C  C129  1  0.44728000  0.02798000  0.60388000  1.0
  C  C130  1  0.49027000  0.99459000  0.54381000  1.0
  C  C131  1  0.49044000  0.99608000  0.46598000  1.0
  C  C132  1  0.91523000  0.06655000  0.93841000  1.0
  C  C133  1  0.99017000  0.06738000  0.93681000  1.0
  C  C134  1  0.09362000  0.13101000  0.87125000  1.0
  C  C135  1  0.78758000  0.94092000  0.06731000  1.0
  C  C136  1  0.85960000  0.93861000  0.06836000  1.0
  C  C137  1  0.83318000  0.87372000  0.13321000  1.0
  C  C138  1  0.08417000  0.93840000  0.06654000  1.0
  C  C139  1  0.00924000  0.93680000  0.06736000  1.0
  C  C140  1  0.90578000  0.87126000  0.13102000  1.0
  C  C141  1  0.21180000  0.06734000  0.94098000  1.0
  C  C142  1  0.13981000  0.06839000  0.93862000  1.0
  C  C143  1  0.16624000  0.13322000  0.87369000  1.0
  C  C144  1  0.81512000  0.00411000  0.00304000  1.0
  C  C145  1  0.96260000  0.00281000  0.00261000  1.0
  C  C146  1  0.18429000  0.00307000  0.00414000  1.0
  C  C147  1  0.03681000  0.00262000  0.00279000  1.0
  C  C148  1  0.81401000  0.31604000  0.68897000  1.0
  C  C149  1  0.18540000  0.68896000  0.31611000  1.0
  C  C150  1  0.79321000  0.33566000  0.63427000  1.0
  C  C151  1  0.86534000  0.41017000  0.56165000  1.0
  C  C152  1  0.20622000  0.63429000  0.33575000  1.0
  C  C153  1  0.13406000  0.56163000  0.41023000  1.0
  C  C154  1  0.09234000  0.67397000  0.37279000  1.0
  C  C155  1  0.02169000  0.60376000  0.44817000  1.0
  C  C156  1  0.90702000  0.37276000  0.67404000  1.0
  C  C157  1  0.97766000  0.44815000  0.60382000  1.0
  C  C158  1  0.96000000  0.46808000  0.54579000  1.0
  C  C159  1  0.03937000  0.54575000  0.46812000  1.0
  N  N160  1  0.07618000  0.42397000  0.91743000  1.0
  N  N161  1  0.93006000  0.49786000  0.15166000  1.0
  N  N162  1  0.06955000  0.15137000  0.49815000  1.0
  N  N163  1  0.92328000  0.91714000  0.42436000  1.0
  N  N164  1  0.41555000  0.41811000  0.15228000  1.0
  N  N165  1  0.41442000  0.49801000  0.93287000  1.0
  N  N166  1  0.58571000  0.93327000  0.49776000  1.0
  N  N167  1  0.58461000  0.15261000  0.41771000  1.0
  N  N168  1  0.84210000  0.42630000  0.50785000  1.0
  N  N169  1  0.15730000  0.50782000  0.42634000  1.0
  N  N170  1  0.26594000  0.19779000  0.80859000  1.0
  N  N171  1  0.12405000  0.19523000  0.80541000  1.0
  N  N172  1  0.87534000  0.80546000  0.19529000  1.0
  N  N173  1  0.73346000  0.80863000  0.19781000  1.0
  O  O174  1  0.23556000  0.79209000  0.06260000  1.0
  O  O175  1  0.76388000  0.06251000  0.79214000  1.0
  O  O176  1  0.76326000  0.20182000  0.94507000  1.0
  O  O177  1  0.23625000  0.94509000  0.20185000  1.0
  O  O178  1  0.35309000  0.06265000  0.94482000  1.0
  O  O179  1  0.35343000  0.79155000  0.20117000  1.0
  O  O180  1  0.64633000  0.94484000  0.06269000  1.0
  O  O181  1  0.64599000  0.20106000  0.79153000  1.0
  O  O182  1  0.50721000  0.94544000  0.79182000  1.0
  O  O183  1  0.49141000  0.20096000  0.06286000  1.0
  O  O184  1  0.50819000  0.06291000  0.20086000  1.0
  O  O185  1  0.49223000  0.79179000  0.94548000  1.0
  O  O186  1  0.50024000  0.20576000  0.93923000  1.0
  O  O187  1  0.49928000  0.93925000  0.20573000  1.0
  O  O188  1  0.50065000  0.79526000  0.06050000  1.0
  O  O189  1  0.49878000  0.06046000  0.79529000  1.0
  O  O190  1  0.23373000  0.94186000  0.06242000  1.0
  O  O191  1  0.76583000  0.20551000  0.79522000  1.0
  O  O192  1  0.76570000  0.06237000  0.94182000  1.0
  O  O193  1  0.23361000  0.79523000  0.20555000  1.0
  O  O194  1  0.35508000  0.06039000  0.20624000  1.0
  O  O195  1  0.35508000  0.79568000  0.93991000  1.0
  O  O196  1  0.64441000  0.93983000  0.79568000  1.0
  O  O197  1  0.64446000  0.20623000  0.06039000  1.0
  O  O198  1  0.39540000  0.94803000  0.15679000  1.0
  O  O199  1  0.60409000  0.15678000  0.94803000  1.0
  O  O200  1  0.60461000  0.94833000  0.94830000  1.0
  O  O201  1  0.39481000  0.94827000  0.94838000  1.0
  O  O202  1  0.57662000  0.03874000  0.88507000  1.0
  O  O203  1  0.42282000  0.88506000  0.03877000  1.0
  O  O204  1  0.57677000  0.03873000  0.03891000  1.0
  O  O205  1  0.42272000  0.03892000  0.03874000  1.0
