# generated using pymatgen
data_Zn2H20C31N4O9
_symmetry_space_group_name_H-M   'P 1'
_cell_length_a   4.76843000
_cell_length_b   11.70390000
_cell_length_c   26.42390000
_cell_angle_alpha   83.47350000
_cell_angle_beta   89.99990000
_cell_angle_gamma   89.99980000
_symmetry_Int_Tables_number   1
_chemical_formula_structural   Zn2H20C31N4O9
_chemical_formula_sum   'Zn4 H40 C62 N8 O18'
_cell_volume   1465.14051967
_cell_formula_units_Z   2
loop_
 _symmetry_equiv_pos_site_id
 _symmetry_equiv_pos_as_xyz
  1  'x, y, z'
loop_
 _atom_site_type_symbol
 _atom_site_label
 _atom_site_symmetry_multiplicity
 _atom_site_fract_x
 _atom_site_fract_y
 _atom_site_fract_z
 _atom_site_occupancy
  Zn  Zn0  1  0.71021000  0.09848000  0.44996000  1.0
  Zn  Zn1  1  0.21022000  0.90151000  0.55004000  1.0
  Zn  Zn2  1  0.72634000  0.82286000  0.02904000  1.0
  Zn  Zn3  1  0.22633000  0.17714000  0.97096000  1.0
  H  H4  1  0.19064000  0.26424000  0.57525000  1.0
  H  H5  1  0.69063000  0.73576000  0.42475000  1.0
  H  H6  1  0.06523000  0.29657000  0.66433000  1.0
  H  H7  1  0.56521000  0.70343000  0.33567000  1.0
  H  H8  1  0.65577000  0.03317000  0.72055000  1.0
  H  H9  1  0.15576000  0.96683000  0.27944000  1.0
  H  H10  1  0.21212000  0.95551000  0.76154000  1.0
  H  H11  1  0.71212000  0.04449000  0.23846000  1.0
  H  H12  1  0.36866000  0.81767000  0.83550000  1.0
  H  H13  1  0.86866000  0.18233000  0.16450000  1.0
  H  H14  1  0.54136000  0.23481000  0.83653000  1.0
  H  H15  1  0.04135000  0.76518000  0.16347000  1.0
  H  H16  1  0.64521000  0.23077000  0.33973000  1.0
  H  H17  1  0.14520000  0.76924000  0.66027000  1.0
  H  H18  1  0.19699000  0.28890000  0.45908000  1.0
  H  H19  1  0.69700000  0.71109000  0.54092000  1.0
  H  H20  1  0.24568000  0.47181000  0.38209000  1.0
  H  H21  1  0.74568000  0.52818000  0.61791000  1.0
  H  H22  1  0.87077000  0.53632000  0.30663000  1.0
  H  H23  1  0.37078000  0.46368000  0.69338000  1.0
  H  H24  1  0.67004000  0.42375000  0.28593000  1.0
  H  H25  1  0.17004000  0.57625000  0.71407000  1.0
  H  H26  1  0.09837000  0.24420000  0.26954000  1.0
  H  H27  1  0.59837000  0.75580000  0.73047000  1.0
  H  H28  1  0.41500000  0.22562000  0.19734000  1.0
  H  H29  1  0.91500000  0.77438000  0.80266000  1.0
  H  H30  1  0.47751000  0.59519000  0.16915000  1.0
  H  H31  1  0.97751000  0.40481000  0.83085000  1.0
  H  H32  1  0.14986000  0.61360000  0.23947000  1.0
  H  H33  1  0.64986000  0.38641000  0.76053000  1.0
  H  H34  1  0.88519000  0.39838000  0.14634000  1.0
  H  H35  1  0.38519000  0.60162000  0.85366000  1.0
  H  H36  1  0.63290000  0.31284000  0.11920000  1.0
  H  H37  1  0.13289000  0.68716000  0.88080000  1.0
  H  H38  1  0.94105000  0.60903000  0.10724000  1.0
  H  H39  1  0.44105000  0.39097000  0.89276000  1.0
  H  H40  1  0.30142000  0.63027000  0.99631000  1.0
  H  H41  1  0.80141000  0.36973000  0.00369000  1.0
  H  H42  1  0.27653000  0.41384000  0.05494000  1.0
  H  H43  1  0.77653000  0.58616000  0.94506000  1.0
  C  C44  1  0.55968000  0.11666000  0.54429000  1.0
  C  C45  1  0.05969000  0.88334000  0.45571000  1.0
  C  C46  1  0.49678000  0.13248000  0.59861000  1.0
  C  C47  1  0.99680000  0.86752000  0.40138000  1.0
  C  C48  1  0.29558000  0.21577000  0.60755000  1.0
  C  C49  1  0.79559000  0.78423000  0.39245000  1.0
  C  C50  1  0.22347000  0.23316000  0.65702000  1.0
  C  C51  1  0.72347000  0.76685000  0.34297000  1.0
  C  C52  1  0.35061000  0.16744000  0.69871000  1.0
  C  C53  1  0.85061000  0.83256000  0.30129000  1.0
  C  C54  1  0.54940000  0.08458000  0.68942000  1.0
  C  C55  1  0.04940000  0.91542000  0.31058000  1.0
  C  C56  1  0.62341000  0.06577000  0.64001000  1.0
  C  C57  1  0.12342000  0.93423000  0.35998000  1.0
  C  C58  1  0.83908000  0.97433000  0.63327000  1.0
  C  C59  1  0.33908000  0.02566000  0.36673000  1.0
  C  C60  1  0.28377000  0.19094000  0.75151000  1.0
  C  C61  1  0.78377000  0.80906000  0.24850000  1.0
  C  C62  1  0.36858000  0.10439000  0.79458000  1.0
  C  C63  1  0.86858000  0.89560000  0.20542000  1.0
  C  C64  1  0.31917000  0.98626000  0.79394000  1.0
  C  C65  1  0.81917000  0.01374000  0.20606000  1.0
  C  C66  1  0.40418000  0.90954000  0.83516000  1.0
  C  C67  1  0.90419000  0.09046000  0.16484000  1.0
  C  C68  1  0.54044000  0.94735000  0.87710000  1.0
  C  C69  1  0.04044000  0.05266000  0.12290000  1.0
  C  C70  1  0.59216000  0.06547000  0.87744000  1.0
  C  C71  1  0.09217000  0.93453000  0.12256000  1.0
  C  C72  1  0.50284000  0.14295000  0.83659000  1.0
  C  C73  1  0.00284000  0.85705000  0.16340000  1.0
  C  C74  1  0.75201000  0.11240000  0.91956000  1.0
  C  C75  1  0.25201000  0.88760000  0.08044000  1.0
  C  C76  1  0.61577000  0.86153000  0.92196000  1.0
  C  C77  1  0.11577000  0.13847000  0.07804000  1.0
  C  C78  1  0.80032000  0.27275000  0.36176000  1.0
  C  C79  1  0.30032000  0.72725000  0.63824000  1.0
  C  C80  1  0.09138000  0.30457000  0.42265000  1.0
  C  C81  1  0.59140000  0.69542000  0.57735000  1.0
  C  C82  1  0.11674000  0.39518000  0.38512000  1.0
  C  C83  1  0.61675000  0.60482000  0.61488000  1.0
  C  C84  1  0.87961000  0.44604000  0.29914000  1.0
  C  C85  1  0.37960000  0.55396000  0.70086000  1.0
  C  C86  1  0.09487000  0.43100000  0.25858000  1.0
  C  C87  1  0.59486000  0.56901000  0.74142000  1.0
  C  C88  1  0.17653000  0.32179000  0.24714000  1.0
  C  C89  1  0.67652000  0.67821000  0.75286000  1.0
  C  C90  1  0.35959000  0.31110000  0.20676000  1.0
  C  C91  1  0.85959000  0.68890000  0.79324000  1.0
  C  C92  1  0.46646000  0.40879000  0.17749000  1.0
  C  C93  1  0.96646000  0.59122000  0.82251000  1.0
  C  C94  1  0.39019000  0.51749000  0.18994000  1.0
  C  C95  1  0.89019000  0.48251000  0.81006000  1.0
  C  C96  1  0.20622000  0.52834000  0.23009000  1.0
  C  C97  1  0.70622000  0.47166000  0.76991000  1.0
  C  C98  1  0.66542000  0.39558000  0.13396000  1.0
  C  C99  1  0.16541000  0.60442000  0.86604000  1.0
  C  C100  1  0.76284000  0.58762000  0.08468000  1.0
  C  C101  1  0.26283000  0.41238000  0.91532000  1.0
  C  C102  1  0.42876000  0.59363000  0.02794000  1.0
  C  C103  1  0.92875000  0.40637000  0.97206000  1.0
  C  C104  1  0.41228000  0.48798000  0.05623000  1.0
  C  C105  1  0.91227000  0.51202000  0.94377000  1.0
  N  N106  1  0.89385000  0.22904000  0.40751000  1.0
  N  N107  1  0.39386000  0.77096000  0.59249000  1.0
  N  N108  1  0.92965000  0.37391000  0.34717000  1.0
  N  N109  1  0.42965000  0.62609000  0.65283000  1.0
  N  N110  1  0.62599000  0.48578000  0.09179000  1.0
  N  N111  1  0.12598000  0.51422000  0.90821000  1.0
  N  N112  1  0.64795000  0.65477000  0.04600000  1.0
  N  N113  1  0.14794000  0.34523000  0.95400000  1.0
  O  O114  1  0.71620000  0.18703000  0.51746000  1.0
  O  O115  1  0.21623000  0.81297000  0.48254000  1.0
  O  O116  1  0.43218000  0.03820000  0.52307000  1.0
  O  O117  1  0.93217000  0.96180000  0.47693000  1.0
  O  O118  1  0.90657000  0.96956000  0.58617000  1.0
  O  O119  1  0.40656000  0.03044000  0.41383000  1.0
  O  O120  1  0.93045000  0.91275000  0.67139000  1.0
  O  O121  1  0.43046000  0.08725000  0.32861000  1.0
  O  O122  1  0.17142000  0.28269000  0.75963000  1.0
  O  O123  1  0.67142000  0.71732000  0.24037000  1.0
  O  O124  1  0.01656000  0.10044000  0.91856000  1.0
  O  O125  1  0.51657000  0.89956000  0.08144000  1.0
  O  O126  1  0.62835000  0.17097000  0.95079000  1.0
  O  O127  1  0.12836000  0.82903000  0.04920000  1.0
  O  O128  1  0.62213000  0.75641000  0.91743000  1.0
  O  O129  1  0.12214000  0.24358000  0.08257000  1.0
  O  O130  1  0.66290000  0.90836000  0.96328000  1.0
  O  O131  1  0.16290000  0.09164000  0.03672000  1.0
