# generated using pymatgen
data_Hf3H13C13NO16
_symmetry_space_group_name_H-M   'P 1'
_cell_length_a   14.48200000
_cell_length_b   19.43540000
_cell_length_c   20.02120000
_cell_angle_alpha   87.52040000
_cell_angle_beta   84.20910000
_cell_angle_gamma   71.31890000
_symmetry_Int_Tables_number   1
_chemical_formula_structural   Hf3H13C13NO16
_chemical_formula_sum   'Hf12 H52 C52 N4 O64'
_cell_volume   5310.74826248
_cell_formula_units_Z   4
loop_
 _symmetry_equiv_pos_site_id
 _symmetry_equiv_pos_as_xyz
  1  'x, y, z'
loop_
 _atom_site_type_symbol
 _atom_site_label
 _atom_site_symmetry_multiplicity
 _atom_site_fract_x
 _atom_site_fract_y
 _atom_site_fract_z
 _atom_site_occupancy
  Hf  Hf0  1  0.38028000  0.45488000  0.43543000  1.0
  Hf  Hf1  1  0.69193000  0.37162000  0.54837000  1.0
  Hf  Hf2  1  0.51003000  0.29697000  0.51810000  1.0
  Hf  Hf3  1  0.56428000  0.52887000  0.46303000  1.0
  Hf  Hf4  1  0.44298000  0.46452000  0.59931000  1.0
  Hf  Hf5  1  0.63231000  0.36073000  0.38169000  1.0
  Hf  Hf6  1  0.82813000  0.88787000  0.92913000  1.0
  Hf  Hf7  1  0.47918000  0.98268000  0.00880000  1.0
  Hf  Hf8  1  0.60857000  0.90426000  0.86143000  1.0
  Hf  Hf9  1  0.69739000  0.97047000  0.07790000  1.0
  Hf  Hf10  1  0.64550000  0.06124000  0.92082000  1.0
  Hf  Hf11  1  0.65500000  0.81315000  0.01951000  1.0
  H  H12  1  0.10601000  0.72191000  0.32199000  1.0
  H  H13  1  0.98159000  0.81086000  0.23723000  1.0
  H  H14  1  0.12114000  0.18855000  0.61921000  1.0
  H  H15  1  0.27985000  0.10297000  0.67880000  1.0
  H  H16  1  0.36369000  0.57919000  0.50967000  1.0
  H  H17  1  0.57513000  0.31592000  0.64065000  1.0
  H  H18  1  0.74944000  0.43670000  0.42519000  1.0
  H  H19  1  0.47517000  0.31267000  0.37747000  1.0
  H  H20  1  0.40341000  0.40874000  0.71311000  1.0
  H  H21  1  0.55248000  0.16917000  0.44353000  1.0
  H  H22  1  0.72587000  0.22686000  0.34224000  1.0
  H  H23  1  0.34999000  0.60451000  0.63846000  1.0
  H  H24  1  0.46754000  0.60854000  0.57806000  1.0
  H  H25  1  0.60701000  0.58125000  0.33599000  1.0
  H  H26  1  0.76415000  0.40031000  0.29577000  1.0
  H  H27  1  0.48701000  0.50406000  0.70978000  1.0
  H  H28  1  0.71328000  0.44526000  0.65714000  1.0
  H  H29  1  0.32059000  0.41942000  0.32364000  1.0
  H  H30  1  0.57390000  0.41265000  0.26046000  1.0
  H  H31  1  0.46775000  0.66883000  0.51615000  1.0
  H  H32  1  0.61221000  0.42616000  0.67755000  1.0
  H  H33  1  0.48365000  0.18606000  0.59750000  1.0
  H  H34  1  0.29784000  0.42819000  0.68622000  1.0
  H  H35  1  0.66933000  0.49416000  0.33474000  1.0
  H  H36  1  0.62162000  0.21747000  0.40858000  1.0
  H  H37  1  0.46993000  0.41170000  0.30084000  1.0
  H  H38  1  0.76461000  0.82522000  0.58000000  1.0
  H  H39  1  0.74975000  0.72634000  0.49247000  1.0
  H  H40  1  0.20142000  0.10195000  0.19488000  1.0
  H  H41  1  0.02286000  0.16547000  0.26415000  1.0
  H  H42  1  0.81764000  0.02216000  0.98641000  1.0
  H  H43  1  0.46958000  0.05176000  0.87956000  1.0
  H  H44  1  0.55151000  0.91025000  0.12545000  1.0
  H  H45  1  0.75071000  0.76987000  0.89192000  1.0
  H  H46  1  0.65872000  0.09703000  0.77976000  1.0
  H  H47  1  0.52415000  0.82068000  0.79838000  1.0
  H  H48  1  0.58226000  0.70978000  0.99541000  1.0
  H  H49  1  0.62427000  0.17938000  0.98783000  1.0
  H  H50  1  0.78145000  0.06672000  0.11336000  1.0
  H  H51  1  0.78536000  0.88457000  0.17373000  1.0
  H  H52  1  0.63110000  0.77793000  0.15502000  1.0
  H  H53  1  0.50783000  0.17719000  0.87949000  1.0
  H  H54  1  0.29804000  0.07047000  0.98352000  1.0
  H  H55  1  0.95939000  0.75609000  0.90502000  1.0
  H  H56  1  0.79590000  0.68579000  0.00144000  1.0
  H  H57  1  0.69386000  0.11631000  0.03728000  1.0
  H  H58  1  0.32762000  0.10300000  0.04800000  1.0
  H  H59  1  0.51234000  0.97842000  0.76153000  1.0
  H  H60  1  0.60433000  0.03454000  0.78676000  1.0
  H  H61  1  0.70257000  0.83232000  0.14636000  1.0
  H  H62  1  0.63700000  0.79977000  0.77101000  1.0
  H  H63  1  0.85954000  0.74298000  0.98668000  1.0
  C  C64  1  0.21919000  0.75154000  0.25738000  1.0
  C  C65  1  0.12394000  0.75257000  0.27890000  1.0
  C  C66  1  0.06022000  0.79870000  0.23599000  1.0
  C  C67  1  0.11604000  0.82515000  0.18682000  1.0
  C  C68  1  0.03715000  0.14793000  0.69985000  1.0
  C  C69  1  0.12140000  0.15431000  0.66347000  1.0
  C  C70  1  0.20352000  0.10952000  0.69403000  1.0
  C  C71  1  0.17124000  0.07498000  0.74996000  1.0
  C  C72  1  0.21713000  0.53194000  0.55649000  1.0
  C  C73  1  0.38942000  0.61509000  0.37778000  1.0
  C  C74  1  0.31807000  0.30703000  0.44516000  1.0
  C  C75  1  0.75586000  0.24459000  0.65685000  1.0
  C  C76  1  0.85374000  0.30151000  0.42827000  1.0
  C  C77  1  0.77050000  0.50870000  0.51953000  1.0
  C  C78  1  0.89834000  0.73966000  0.60401000  1.0
  C  C79  1  0.81638000  0.77187000  0.56868000  1.0
  C  C80  1  0.80921000  0.72146000  0.52317000  1.0
  C  C81  1  0.88645000  0.65741000  0.53033000  1.0
  C  C82  1  0.25575000  0.15483000  0.26962000  1.0
  C  C83  1  0.18459000  0.13647000  0.23853000  1.0
  C  C84  1  0.09368000  0.16878000  0.27376000  1.0
  C  C85  1  0.10811000  0.20735000  0.32688000  1.0
  C  C86  1  0.86636000  0.02775000  0.85497000  1.0
  C  C87  1  0.93614000  0.91172000  0.05301000  1.0
  C  C88  1  0.83087000  0.83382000  0.77850000  1.0
  C  C89  1  0.36527000  0.95970000  0.87699000  1.0
  C  C90  1  0.42216000  0.85277000  0.08528000  1.0
  C  C91  1  0.48293000  0.05395000  0.15252000  1.0
  C  C92  1  0.35451000  0.13122000  0.24604000  1.0
  C  C93  1  0.42197000  0.09814000  0.20591000  1.0
  C  C94  1  0.88490000  0.80025000  0.71703000  1.0
  C  C95  1  0.91229000  0.76667000  0.66450000  1.0
  C  C96  1  0.11783000  0.57904000  0.57376000  1.0
  C  C97  1  0.03722000  0.62466000  0.58264000  1.0
  C  C98  1  0.88353000  0.58859000  0.51747000  1.0
  C  C99  1  0.84856000  0.53968000  0.51236000  1.0
  C  C100  1  0.27508000  0.26568000  0.40577000  1.0
  C  C101  1  0.24730000  0.23222000  0.36646000  1.0
  C  C102  1  0.95457000  0.27147000  0.40418000  1.0
  C  C103  1  0.03543000  0.24515000  0.37458000  1.0
  C  C104  1  0.00653000  0.07346000  0.79314000  1.0
  C  C105  1  0.94003000  0.05601000  0.82282000  1.0
  C  C106  1  0.22731000  0.02988000  0.79762000  1.0
  C  C107  1  0.28546000  0.99272000  0.83563000  1.0
  C  C108  1  0.93830000  0.17869000  0.68919000  1.0
  C  C109  1  0.85319000  0.20684000  0.67703000  1.0
  C  C110  1  0.02263000  0.89252000  0.08859000  1.0
  C  C111  1  0.08054000  0.86353000  0.12956000  1.0
  C  C112  1  0.28846000  0.81185000  0.16338000  1.0
  C  C113  1  0.34923000  0.83003000  0.12694000  1.0
  C  C114  1  0.34909000  0.67109000  0.33021000  1.0
  C  C115  1  0.30086000  0.71318000  0.29005000  1.0
  N  N116  1  0.21453000  0.79685000  0.20031000  1.0
  N  N117  1  0.06834000  0.09891000  0.75350000  1.0
  N  N118  1  0.94599000  0.67000000  0.57730000  1.0
  N  N119  1  0.20840000  0.19875000  0.32470000  1.0
  O  O120  1  0.36349000  0.44563000  0.33524000  1.0
  O  O121  1  0.23841000  0.51162000  0.49559000  1.0
  O  O122  1  0.29153000  0.37537000  0.43545000  1.0
  O  O123  1  0.46812000  0.61485000  0.40313000  1.0
  O  O124  1  0.38274000  0.26996000  0.48296000  1.0
  O  O125  1  0.34147000  0.57118000  0.39133000  1.0
  O  O126  1  0.27527000  0.51696000  0.60309000  1.0
  O  O127  1  0.41630000  0.40087000  0.52668000  1.0
  O  O128  1  0.41257000  0.53165000  0.50530000  1.0
  O  O129  1  0.48984000  0.34076000  0.41149000  1.0
  O  O130  1  0.51989000  0.45898000  0.41048000  1.0
  O  O131  1  0.64836000  0.54266000  0.36258000  1.0
  O  O132  1  0.36702000  0.40131000  0.67626000  1.0
  O  O133  1  0.57220000  0.46753000  0.54973000  1.0
  O  O134  1  0.55711000  0.34891000  0.60159000  1.0
  O  O135  1  0.63369000  0.32277000  0.48231000  1.0
  O  O136  1  0.68910000  0.42916000  0.44423000  1.0
  O  O137  1  0.50151000  0.22991000  0.59273000  1.0
  O  O138  1  0.67986000  0.24593000  0.69220000  1.0
  O  O139  1  0.76036000  0.27558000  0.59779000  1.0
  O  O140  1  0.54284000  0.38324000  0.28955000  1.0
  O  O141  1  0.83266000  0.32138000  0.48890000  1.0
  O  O142  1  0.58935000  0.20041000  0.45436000  1.0
  O  O143  1  0.65685000  0.25325000  0.35269000  1.0
  O  O144  1  0.69406000  0.42024000  0.30746000  1.0
  O  O145  1  0.79438000  0.30583000  0.38362000  1.0
  O  O146  1  0.68482000  0.40625000  0.65679000  1.0
  O  O147  1  0.50850000  0.62375000  0.53502000  1.0
  O  O148  1  0.77954000  0.44868000  0.55084000  1.0
  O  O149  1  0.69422000  0.54864000  0.49288000  1.0
  O  O150  1  0.41826000  0.57561000  0.62924000  1.0
  O  O151  1  0.50287000  0.45433000  0.69441000  1.0
  O  O152  1  0.91749000  0.78145000  0.94305000  1.0
  O  O153  1  0.89672000  0.96128000  0.87264000  1.0
  O  O154  1  0.87770000  0.84438000  0.82500000  1.0
  O  O155  1  0.85760000  0.93810000  0.09179000  1.0
  O  O156  1  0.73822000  0.84841000  0.77935000  1.0
  O  O157  1  0.94343000  0.89873000  0.99100000  1.0
  O  O158  1  0.77879000  0.07135000  0.86280000  1.0
  O  O159  1  0.70277000  0.95248000  0.88464000  1.0
  O  O160  1  0.77017000  0.99794000  0.98013000  1.0
  O  O161  1  0.72171000  0.81770000  0.91144000  1.0
  O  O162  1  0.74762000  0.87783000  0.01613000  1.0
  O  O163  1  0.71902000  0.89616000  0.16100000  1.0
  O  O164  1  0.61224000  0.07947000  0.80823000  1.0
  O  O165  1  0.59096000  0.02398000  0.01119000  1.0
  O  O166  1  0.51833000  0.01778000  0.90518000  1.0
  O  O167  1  0.55653000  0.88993000  0.96034000  1.0
  O  O168  1  0.57860000  0.91599000  0.08004000  1.0
  O  O169  1  0.57933000  0.96511000  0.77321000  1.0
  O  O170  1  0.44428000  0.91838000  0.84651000  1.0
  O  O171  1  0.35436000  0.97775000  0.93838000  1.0
  O  O172  1  0.80618000  0.72901000  0.01789000  1.0
  O  O173  1  0.39457000  0.91860000  0.06374000  1.0
  O  O174  1  0.59113000  0.80460000  0.81142000  1.0
  O  O175  1  0.64353000  0.72012000  0.98617000  1.0
  O  O176  1  0.68481000  0.78658000  0.12657000  1.0
  O  O177  1  0.50681000  0.80632000  0.07487000  1.0
  O  O178  1  0.34792000  0.08687000  0.00162000  1.0
  O  O179  1  0.71882000  0.06867000  0.09875000  1.0
  O  O180  1  0.43254000  0.04291000  0.10654000  1.0
  O  O181  1  0.57405000  0.02882000  0.15478000  1.0
  O  O182  1  0.68260000  0.13665000  0.98863000  1.0
  O  O183  1  0.54166000  0.15957000  0.91925000  1.0
