# generated using pymatgen
data_MgH12C12N2O7
_symmetry_space_group_name_H-M   'P 1'
_cell_length_a   7.43567000
_cell_length_b   11.97370000
_cell_length_c   14.86170000
_cell_angle_alpha   90.00000000
_cell_angle_beta   97.10570000
_cell_angle_gamma   90.00000000
_symmetry_Int_Tables_number   1
_chemical_formula_structural   MgH12C12N2O7
_chemical_formula_sum   'Mg4 H48 C48 N8 O28'
_cell_volume   1313.01157855
_cell_formula_units_Z   4
loop_
 _symmetry_equiv_pos_site_id
 _symmetry_equiv_pos_as_xyz
  1  'x, y, z'
loop_
 _atom_site_type_symbol
 _atom_site_label
 _atom_site_symmetry_multiplicity
 _atom_site_fract_x
 _atom_site_fract_y
 _atom_site_fract_z
 _atom_site_occupancy
  Mg  Mg0  1  0.77913000  0.94523000  0.78660000  1.0
  Mg  Mg1  1  0.72087000  0.44523000  0.21340000  1.0
  Mg  Mg2  1  0.22088000  0.05477000  0.21340000  1.0
  Mg  Mg3  1  0.27912000  0.55477000  0.78660000  1.0
  H  H4  1  0.09766000  0.93132000  0.73422000  1.0
  H  H5  1  0.40234000  0.43132000  0.26578000  1.0
  H  H6  1  0.90234000  0.06868000  0.26578000  1.0
  H  H7  1  0.59766000  0.56868000  0.73422000  1.0
  H  H8  1  0.13522000  0.91210000  0.83852000  1.0
  H  H9  1  0.36478000  0.41210000  0.16148000  1.0
  H  H10  1  0.86478000  0.08790000  0.16149000  1.0
  H  H11  1  0.63522000  0.58790000  0.83852000  1.0
  H  H12  1  0.43033000  0.94972000  0.71349000  1.0
  H  H13  1  0.06967000  0.44972000  0.28651000  1.0
  H  H14  1  0.56967000  0.05028000  0.28651000  1.0
  H  H15  1  0.93033000  0.55028000  0.71349000  1.0
  H  H16  1  0.43392000  0.88422000  0.80957000  1.0
  H  H17  1  0.06608000  0.38422000  0.19043000  1.0
  H  H18  1  0.56608000  0.11578000  0.19043000  1.0
  H  H19  1  0.93392000  0.61578000  0.80957000  1.0
  H  H20  1  0.90201000  0.82228000  0.65714000  1.0
  H  H21  1  0.59798000  0.32228000  0.34286000  1.0
  H  H22  1  0.09798000  0.17772000  0.34286000  1.0
  H  H23  1  0.40202000  0.67772000  0.65714000  1.0
  H  H24  1  0.72278000  0.75499000  0.67427000  1.0
  H  H25  1  0.77723000  0.25498000  0.32573000  1.0
  H  H26  1  0.27722000  0.24502000  0.32573000  1.0
  H  H27  1  0.22278000  0.74502000  0.67427000  1.0
  H  H28  1  0.73553000  0.06286000  0.97626000  1.0
  H  H29  1  0.76446000  0.56286000  0.02374000  1.0
  H  H30  1  0.26447000  0.93714000  0.02374000  1.0
  H  H31  1  0.23553000  0.43714000  0.97626000  1.0
  H  H32  1  0.78045000  0.41778000  0.93996000  1.0
  H  H33  1  0.71955000  0.91778000  0.06004000  1.0
  H  H34  1  0.21955000  0.58222000  0.06004000  1.0
  H  H35  1  0.28045000  0.08222000  0.93996000  1.0
  H  H36  1  0.83073000  0.38233000  0.78095000  1.0
  H  H37  1  0.66927000  0.88233000  0.21905000  1.0
  H  H38  1  0.16928000  0.61767000  0.21905000  1.0
  H  H39  1  0.33073000  0.11767000  0.78095000  1.0
  H  H40  1  0.92079000  0.33738000  0.65868000  1.0
  H  H41  1  0.57921000  0.83738000  0.34132000  1.0
  H  H42  1  0.07921000  0.66262000  0.34132000  1.0
  H  H43  1  0.42079000  0.16262000  0.65868000  1.0
  H  H44  1  0.92092000  0.28308000  0.49782000  1.0
  H  H45  1  0.57908000  0.78308000  0.50219000  1.0
  H  H46  1  0.07908000  0.71692000  0.50218000  1.0
  H  H47  1  0.42092000  0.21692000  0.49782000  1.0
  H  H48  1  0.71600000  0.96082000  0.56458000  1.0
  H  H49  1  0.78400000  0.46082000  0.43542000  1.0
  H  H50  1  0.28400000  0.03918000  0.43542000  1.0
  H  H51  1  0.21600000  0.53918000  0.56458000  1.0
  C  C52  1  0.75700000  0.13538000  0.93467000  1.0
  C  C53  1  0.74299000  0.63538000  0.06533000  1.0
  C  C54  1  0.24300000  0.86462000  0.06533000  1.0
  C  C55  1  0.25700000  0.36461000  0.93467000  1.0
  C  C56  1  0.75408000  0.24323000  0.97115000  1.0
  C  C57  1  0.74591000  0.74323000  0.02885000  1.0
  C  C58  1  0.24591000  0.75677000  0.02885000  1.0
  C  C59  1  0.25409000  0.25677000  0.97115000  1.0
  C  C60  1  0.78298000  0.33269000  0.91453000  1.0
  C  C61  1  0.71701000  0.83269000  0.08547000  1.0
  C  C62  1  0.21702000  0.66731000  0.08547000  1.0
  C  C63  1  0.28298000  0.16731000  0.91453000  1.0
  C  C64  1  0.81179000  0.31233000  0.82536000  1.0
  C  C65  1  0.68821000  0.81233000  0.17464000  1.0
  C  C66  1  0.18821000  0.68767000  0.17464000  1.0
  C  C67  1  0.31179000  0.18767000  0.82536000  1.0
  C  C68  1  0.80999000  0.20217000  0.79402000  1.0
  C  C69  1  0.69001000  0.70217000  0.20598000  1.0
  C  C70  1  0.19002000  0.79783000  0.20598000  1.0
  C  C71  1  0.30999000  0.29783000  0.79402000  1.0
  C  C72  1  0.82523000  0.17512000  0.69812000  1.0
  C  C73  1  0.67477000  0.67512000  0.30188000  1.0
  C  C74  1  0.17477000  0.82488000  0.30188000  1.0
  C  C75  1  0.32523000  0.32488000  0.69812000  1.0
  C  C76  1  0.88004000  0.25348000  0.63707000  1.0
  C  C77  1  0.61996000  0.75348000  0.36293000  1.0
  C  C78  1  0.11996000  0.74652000  0.36293000  1.0
  C  C79  1  0.38004000  0.24652000  0.63707000  1.0
  C  C80  1  0.87798000  0.22373000  0.54654000  1.0
  C  C81  1  0.62202000  0.72373000  0.45346000  1.0
  C  C82  1  0.12202000  0.77627000  0.45346000  1.0
  C  C83  1  0.37798000  0.27627000  0.54654000  1.0
  C  C84  1  0.81327000  0.11831000  0.51780000  1.0
  C  C85  1  0.68673000  0.61831000  0.48220000  1.0
  C  C86  1  0.18672000  0.88169000  0.48220000  1.0
  C  C87  1  0.31328000  0.38169000  0.51780000  1.0
  C  C88  1  0.76444000  0.04432000  0.58353000  1.0
  C  C89  1  0.73556000  0.54432000  0.41647000  1.0
  C  C90  1  0.23556000  0.95568000  0.41647000  1.0
  C  C91  1  0.26444000  0.45568000  0.58353000  1.0
  C  C92  1  0.71615000  0.26093000  0.06743000  1.0
  C  C93  1  0.78385000  0.76093000  0.93257000  1.0
  C  C94  1  0.28385000  0.73907000  0.93257000  1.0
  C  C95  1  0.21615000  0.23907000  0.06743000  1.0
  C  C96  1  0.78612000  0.08622000  0.41958000  1.0
  C  C97  1  0.71388000  0.58622000  0.58042000  1.0
  C  C98  1  0.21388000  0.91378000  0.58042000  1.0
  C  C99  1  0.28613000  0.41378000  0.41958000  1.0
  N  N100  1  0.78284000  0.11470000  0.84883000  1.0
  N  N101  1  0.71716000  0.61470000  0.15117000  1.0
  N  N102  1  0.21717000  0.88530000  0.15117000  1.0
  N  N103  1  0.28284000  0.38530000  0.84883000  1.0
  N  N104  1  0.77521000  0.07022000  0.67150000  1.0
  N  N105  1  0.72479000  0.57021000  0.32850000  1.0
  N  N106  1  0.22479000  0.92979000  0.32850000  1.0
  N  N107  1  0.27521000  0.42978000  0.67150000  1.0
  O  O108  1  0.70506000  0.36141000  0.09361000  1.0
  O  O109  1  0.79494000  0.86141000  0.90639000  1.0
  O  O110  1  0.29494000  0.63859000  0.90639000  1.0
  O  O111  1  0.20506000  0.13859000  0.09361000  1.0
  O  O112  1  0.69639000  0.17406000  0.11432000  1.0
  O  O113  1  0.80360000  0.67406000  0.88568000  1.0
  O  O114  1  0.30361000  0.82594000  0.88568000  1.0
  O  O115  1  0.19639000  0.32593000  0.11432000  1.0
  O  O116  1  0.88309000  0.13724000  0.36603000  1.0
  O  O117  1  0.61691000  0.63724000  0.63397000  1.0
  O  O118  1  0.11691000  0.86276000  0.63397000  1.0
  O  O119  1  0.38309000  0.36276000  0.36603000  1.0
  O  O120  1  0.66531000  0.01576000  0.39368000  1.0
  O  O121  1  0.83469000  0.51576000  0.60632000  1.0
  O  O122  1  0.33469000  0.98424000  0.60632000  1.0
  O  O123  1  0.16532000  0.48425000  0.39368000  1.0
  O  O124  1  0.06009000  0.95818000  0.79261000  1.0
  O  O125  1  0.43991000  0.45818000  0.20739000  1.0
  O  O126  1  0.93991000  0.04182000  0.20739000  1.0
  O  O127  1  0.56009000  0.54182000  0.79261000  1.0
  O  O128  1  0.50336000  0.93386000  0.77298000  1.0
  O  O129  1  0.99664000  0.43386000  0.22702000  1.0
  O  O130  1  0.49664000  0.06614000  0.22702000  1.0
  O  O131  1  0.00336000  0.56614000  0.77298000  1.0
  O  O132  1  0.79129000  0.82520000  0.68742000  1.0
  O  O133  1  0.70870000  0.32520000  0.31258000  1.0
  O  O134  1  0.20870000  0.17480000  0.31258000  1.0
  O  O135  1  0.29130000  0.67480000  0.68742000  1.0
