# generated using pymatgen
data_Zn2H46C57(NO3)4
_symmetry_space_group_name_H-M   'P 1'
_cell_length_a   9.58609000
_cell_length_b   10.83590000
_cell_length_c   28.13830000
_cell_angle_alpha   90.23230000
_cell_angle_beta   89.91900000
_cell_angle_gamma   89.80710000
_symmetry_Int_Tables_number   1
_chemical_formula_structural   Zn2H46C57(NO3)4
_chemical_formula_sum   'Zn2 H46 C57 N4 O12'
_cell_volume   2922.79175038
_cell_formula_units_Z   1
loop_
 _symmetry_equiv_pos_site_id
 _symmetry_equiv_pos_as_xyz
  1  'x, y, z'
loop_
 _atom_site_type_symbol
 _atom_site_label
 _atom_site_symmetry_multiplicity
 _atom_site_fract_x
 _atom_site_fract_y
 _atom_site_fract_z
 _atom_site_occupancy
  Zn  Zn0  1  0.64713000  0.49971000  0.49997000  1.0
  Zn  Zn1  1  0.35290000  0.50061000  0.49988000  1.0
  H  H2  1  0.72379000  0.49642000  0.34674000  1.0
  H  H3  1  0.72343000  0.49912000  0.25742000  1.0
  H  H4  1  0.27589000  0.50946000  0.65214000  1.0
  H  H5  1  0.27278000  0.50553000  0.74152000  1.0
  H  H6  1  0.48983000  0.79995000  0.87614000  1.0
  H  H7  1  0.48190000  0.80868000  0.96420000  1.0
  H  H8  1  0.42270000  0.80493000  0.03158000  1.0
  H  H9  1  0.27704000  0.50962000  0.34764000  1.0
  H  H10  1  0.27542000  0.51313000  0.25833000  1.0
  H  H11  1  0.57181000  0.20312000  0.12365000  1.0
  H  H12  1  0.49562000  0.18451000  0.96847000  1.0
  H  H13  1  0.72192000  0.48336000  0.65323000  1.0
  H  H14  1  0.71993000  0.47808000  0.74257000  1.0
  H  H15  1  0.56300000  0.19272000  0.03551000  1.0
  H  H16  1  0.70723000  0.89133000  0.46798000  1.0
  H  H17  1  0.32097000  0.89255000  0.54542000  1.0
  H  H18  1  0.70870000  0.89206000  0.53047000  1.0
  H  H19  1  0.48085000  0.89298000  0.57646000  1.0
  H  H20  1  0.70898000  0.10783000  0.53034000  1.0
  H  H21  1  0.48093000  0.10809000  0.57664000  1.0
  H  H22  1  0.70658000  0.10709000  0.46787000  1.0
  H  H23  1  0.32094000  0.10917000  0.54567000  1.0
  H  H24  1  0.47729000  0.89221000  0.42350000  1.0
  H  H25  1  0.31886000  0.89180000  0.45551000  1.0
  H  H26  1  0.47672000  0.10732000  0.42367000  1.0
  H  H27  1  0.31841000  0.10843000  0.45578000  1.0
  H  H28  1  0.12340000  0.62526000  0.44232000  1.0
  H  H29  1  0.87515000  0.62517000  0.44249000  1.0
  H  H30  1  0.12293000  0.69349000  0.49941000  1.0
  H  H31  1  0.87526000  0.69350000  0.49958000  1.0
  H  H32  1  0.12453000  0.40467000  0.43393000  1.0
  H  H33  1  0.87602000  0.40492000  0.43405000  1.0
  H  H34  1  0.12420000  0.40203000  0.56288000  1.0
  H  H35  1  0.87673000  0.40186000  0.56300000  1.0
  H  H36  1  0.12328000  0.56430000  0.56913000  1.0
  H  H37  1  0.87608000  0.56403000  0.56933000  1.0
  H  H38  1  0.12461000  0.30986000  0.48495000  1.0
  H  H39  1  0.87663000  0.30977000  0.48499000  1.0
  H  H40  1  0.68382000  0.14736000  0.83885000  1.0
  H  H41  1  0.69941000  0.07495000  0.89548000  1.0
  H  H42  1  0.62223000  0.99490000  0.84674000  1.0
  H  H43  1  0.44046000  0.07419000  0.90442000  1.0
  H  H44  1  0.42091000  0.13538000  0.84628000  1.0
  H  H45  1  0.38594000  0.91802000  0.09510000  1.0
  H  H46  1  0.31642000  0.84394000  0.14661000  1.0
  H  H47  1  0.49261000  0.88253000  0.14548000  1.0
  C  C48  1  0.49878000  0.73948000  0.50012000  1.0
  C  C49  1  0.50182000  0.50089000  0.40569000  1.0
  C  C50  1  0.49876000  0.26077000  0.50025000  1.0
  C  C51  1  0.50108000  0.49954000  0.59420000  1.0
  C  C52  1  0.47083000  0.61952000  0.17904000  1.0
  C  C53  1  0.52614000  0.39306000  0.17945000  1.0
  C  C54  1  0.37317000  0.50962000  0.27802000  1.0
  C  C55  1  0.37408000  0.50771000  0.32748000  1.0
  C  C56  1  0.62638000  0.50030000  0.32694000  1.0
  C  C57  1  0.62618000  0.50223000  0.27749000  1.0
  C  C58  1  0.49940000  0.50694000  0.25336000  1.0
  C  C59  1  0.49456000  0.50512000  0.10167000  1.0
  C  C60  1  0.46860000  0.61803000  0.12641000  1.0
  C  C61  1  0.44047000  0.72644000  0.10069000  1.0
  C  C62  1  0.52269000  0.39492000  0.12703000  1.0
  C  C63  1  0.50055000  0.50301000  0.35229000  1.0
  C  C64  1  0.49906000  0.49656000  0.64761000  1.0
  C  C65  1  0.48291000  0.61066000  0.97327000  1.0
  C  C66  1  0.50062000  0.38201000  0.97476000  1.0
  C  C67  1  0.49235000  0.49489000  0.94902000  1.0
  C  C68  1  0.48390000  0.71918000  0.94651000  1.0
  C  C69  1  0.48888000  0.71544000  0.89704000  1.0
  C  C70  1  0.49167000  0.60340000  0.87286000  1.0
  C  C71  1  0.49328000  0.49036000  0.89817000  1.0
  C  C72  1  0.49498000  0.37501000  0.87339000  1.0
  C  C73  1  0.49677000  0.37481000  0.82064000  1.0
  C  C74  1  0.49333000  0.60625000  0.82047000  1.0
  C  C75  1  0.37057000  0.49991000  0.72182000  1.0
  C  C76  1  0.37236000  0.50246000  0.67237000  1.0
  C  C77  1  0.62427000  0.48776000  0.67300000  1.0
  C  C78  1  0.62317000  0.48480000  0.72244000  1.0
  C  C79  1  0.49614000  0.49092000  0.74651000  1.0
  C  C80  1  0.47265000  0.61219000  0.02516000  1.0
  C  C81  1  0.49309000  0.50046000  0.05084000  1.0
  C  C82  1  0.51230000  0.38566000  0.02659000  1.0
  C  C83  1  0.44433000  0.71981000  0.05072000  1.0
  C  C84  1  0.54812000  0.28511000  0.10279000  1.0
  C  C85  1  0.49678000  0.27165000  0.94925000  1.0
  C  C86  1  0.49247000  0.26402000  0.89929000  1.0
  C  C87  1  0.54232000  0.28028000  0.05330000  1.0
  C  C88  1  0.65296000  0.92840000  0.49940000  1.0
  C  C89  1  0.42767000  0.92916000  0.54479000  1.0
  C  C90  1  0.65285000  0.07097000  0.49939000  1.0
  C  C91  1  0.42767000  0.07199000  0.54491000  1.0
  C  C92  1  0.42552000  0.92852000  0.45559000  1.0
  C  C93  1  0.50260000  0.87983000  0.49991000  1.0
  C  C94  1  0.50245000  0.12036000  0.50006000  1.0
  C  C95  1  0.42523000  0.07144000  0.45571000  1.0
  C  C96  1  0.08004000  0.61733000  0.47831000  1.0
  C  C97  1  0.91863000  0.61731000  0.47842000  1.0
  C  C98  1  0.08109000  0.39475000  0.46982000  1.0
  C  C99  1  0.91952000  0.39478000  0.46988000  1.0
  C  C100  1  0.08061000  0.48757000  0.54826000  1.0
  C  C101  1  0.91949000  0.48749000  0.54836000  1.0
  C  C102  1  0.48755000  0.13597000  0.87786000  1.0
  C  C103  1  0.63229000  0.08551000  0.86408000  1.0
  C  C104  1  0.40711000  0.84950000  0.12287000  1.0
  N  N105  1  0.49878000  0.50637000  0.20206000  1.0
  N  N106  1  0.49455000  0.49075000  0.79786000  1.0
  N  N107  1  0.13394000  0.49999000  0.49882000  1.0
  N  N108  1  0.86588000  0.49988000  0.49899000  1.0
  O  O109  1  0.61542000  0.68311000  0.50030000  1.0
  O  O110  1  0.37948000  0.68831000  0.50016000  1.0
  O  O111  1  0.62060000  0.49972000  0.42585000  1.0
  O  O112  1  0.38373000  0.50052000  0.42663000  1.0
  O  O113  1  0.61548000  0.31639000  0.50014000  1.0
  O  O114  1  0.37945000  0.31275000  0.50049000  1.0
  O  O115  1  0.62003000  0.49952000  0.57413000  1.0
  O  O116  1  0.38342000  0.50162000  0.57322000  1.0
  O  O117  1  0.45021000  0.71296000  0.20316000  1.0
  O  O118  1  0.49382000  0.70262000  0.79739000  1.0
  O  O119  1  0.55047000  0.29913000  0.20253000  1.0
  O  O120  1  0.50071000  0.28058000  0.79603000  1.0
