# generated using pymatgen
data_CdH10C16N2ClO2
_symmetry_space_group_name_H-M   'P 1'
_cell_length_a   10.55810000
_cell_length_b   12.61200000
_cell_length_c   12.84986076
_cell_angle_alpha   77.54670075
_cell_angle_beta   65.73877220
_cell_angle_gamma   65.25040000
_symmetry_Int_Tables_number   1
_chemical_formula_structural   CdH10C16N2ClO2
_chemical_formula_sum   'Cd4 H40 C64 N8 Cl4 O8'
_cell_volume   1414.69708235
_cell_formula_units_Z   4
loop_
 _symmetry_equiv_pos_site_id
 _symmetry_equiv_pos_as_xyz
  1  'x, y, z'
loop_
 _atom_site_type_symbol
 _atom_site_label
 _atom_site_symmetry_multiplicity
 _atom_site_fract_x
 _atom_site_fract_y
 _atom_site_fract_z
 _atom_site_occupancy
  Cd  Cd0  1  0.45479000  0.37422000  0.11106000  1.0
  Cd  Cd1  1  0.55996000  0.87424000  0.61098000  1.0
  Cd  Cd2  1  0.54521000  0.62578000  0.88894000  1.0
  Cd  Cd3  1  0.44004000  0.12576000  0.38902000  1.0
  H  H4  1  0.50643000  0.59635000  0.30877000  1.0
  H  H5  1  0.08808000  0.09638000  0.80872000  1.0
  H  H6  1  0.49357000  0.40365000  0.69123000  1.0
  H  H7  1  0.91193000  0.90362000  0.19128000  1.0
  H  H8  1  0.46526000  0.30958000  0.55237000  1.0
  H  H9  1  0.17287000  0.80939000  0.05199000  1.0
  H  H10  1  0.53473000  0.69042000  0.44763000  1.0
  H  H11  1  0.82714000  0.19061000  0.94801000  1.0
  H  H12  1  0.16441000  0.43848000  0.36527000  1.0
  H  H13  1  0.53173000  0.93832000  0.86511000  1.0
  H  H14  1  0.83559000  0.56152000  0.63473000  1.0
  H  H15  1  0.46827000  0.06168000  0.13489000  1.0
  H  H16  1  0.88622000  0.48394000  0.44654000  1.0
  H  H17  1  0.68303000  0.98384000  0.94645000  1.0
  H  H18  1  0.11378000  0.51605000  0.55346000  1.0
  H  H19  1  0.31697000  0.01616000  0.05355000  1.0
  H  H20  1  0.79837000  0.39474000  0.14131000  1.0
  H  H21  1  0.16557000  0.89466000  0.64125000  1.0
  H  H22  1  0.20163000  0.60526000  0.85869000  1.0
  H  H23  1  0.83444000  0.10534000  0.35874000  1.0
  H  H24  1  0.77016000  0.45106000  0.32740000  1.0
  H  H25  1  0.95112000  0.95110000  0.82740000  1.0
  H  H26  1  0.22984000  0.54893000  0.67260000  1.0
  H  H27  1  0.04888000  0.04890000  0.17260000  1.0
  H  H28  1  0.96279000  0.31768000  0.95092000  1.0
  H  H29  1  0.26871000  0.81753000  0.45091000  1.0
  H  H30  1  0.03721000  0.68232000  0.04908000  1.0
  H  H31  1  0.73129000  0.18247000  0.54909000  1.0
  H  H32  1  0.22575000  0.23102000  0.80670000  1.0
  H  H33  1  0.23660000  0.73101000  0.30659000  1.0
  H  H34  1  0.77425000  0.76898000  0.19330000  1.0
  H  H35  1  0.76340000  0.26899000  0.69341000  1.0
  H  H36  1  0.49720000  0.18664000  0.74692000  1.0
  H  H37  1  0.06937000  0.68656000  0.24683000  1.0
  H  H38  1  0.50280000  0.81336000  0.25308000  1.0
  H  H39  1  0.93063000  0.31344000  0.75317000  1.0
  H  H40  1  0.58685000  0.24621000  0.87329000  1.0
  H  H41  1  0.79373000  0.74612000  0.37324000  1.0
  H  H42  1  0.41315000  0.75379000  0.12671000  1.0
  H  H43  1  0.20627000  0.25388000  0.62676000  1.0
  C  C44  1  0.46628000  0.39286000  0.33955000  1.0
  C  C45  1  0.30109000  0.89268000  0.83929000  1.0
  C  C46  1  0.53371000  0.60714000  0.66045000  1.0
  C  C47  1  0.69891000  0.10732000  0.16071000  1.0
  C  C48  1  0.48364000  0.44806000  0.42275000  1.0
  C  C49  1  0.14535000  0.94794000  0.92251000  1.0
  C  C50  1  0.51635000  0.55195000  0.57725000  1.0
  C  C51  1  0.85465000  0.05206000  0.07749000  1.0
  C  C52  1  0.50290000  0.55536000  0.39320000  1.0
  C  C53  1  0.04837000  0.05540000  0.89317000  1.0
  C  C54  1  0.49709000  0.44464000  0.60680000  1.0
  C  C55  1  0.95163000  0.94460000  0.10683000  1.0
  C  C56  1  0.48017000  0.39309000  0.53038000  1.0
  C  C57  1  0.09633000  0.89293000  0.03016000  1.0
  C  C58  1  0.51982000  0.60691000  0.46962000  1.0
  C  C59  1  0.90368000  0.10707000  0.96984000  1.0
  C  C60  1  0.10794000  0.42907000  0.31530000  1.0
  C  C61  1  0.64756000  0.92899000  0.81516000  1.0
  C  C62  1  0.89206000  0.57093000  0.68470000  1.0
  C  C63  1  0.35244000  0.07101000  0.18484000  1.0
  C  C64  1  0.95338000  0.45275000  0.36053000  1.0
  C  C65  1  0.73318000  0.95267000  0.86041000  1.0
  C  C66  1  0.04662000  0.54725000  0.63947000  1.0
  C  C67  1  0.26682000  0.04733000  0.13959000  1.0
  C  C68  1  0.88913000  0.43497000  0.29459000  1.0
  C  C69  1  0.88112000  0.93498000  0.79453000  1.0
  C  C70  1  0.11087000  0.56503000  0.70541000  1.0
  C  C71  1  0.11888000  0.06502000  0.20547000  1.0
  C  C72  1  0.97862000  0.39521000  0.18326000  1.0
  C  C73  1  0.94285000  0.89524000  0.68316000  1.0
  C  C74  1  0.02138000  0.60478000  0.81674000  1.0
  C  C75  1  0.05716000  0.10476000  0.31684000  1.0
  C  C76  1  0.13376000  0.37412000  0.14467000  1.0
  C  C77  1  0.84744000  0.87414000  0.64453000  1.0
  C  C78  1  0.86624000  0.62587000  0.85533000  1.0
  C  C79  1  0.15256000  0.12586000  0.35547000  1.0
  C  C80  1  0.91844000  0.37560000  0.11064000  1.0
  C  C81  1  0.09526000  0.87560000  0.61056000  1.0
  C  C82  1  0.08156000  0.62440000  0.88936000  1.0
  C  C83  1  0.90474000  0.12440000  0.38944000  1.0
  C  C84  1  0.00995000  0.33260000  0.00517000  1.0
  C  C85  1  0.15232000  0.83255000  0.50509000  1.0
  C  C86  1  0.99006000  0.66740000  0.99482000  1.0
  C  C87  1  0.84768000  0.16745000  0.49491000  1.0
  C  C88  1  0.22981000  0.33004000  0.03232000  1.0
  C  C89  1  0.90788000  0.83010000  0.53214000  1.0
  C  C90  1  0.77019000  0.66996000  0.96768000  1.0
  C  C91  1  0.09212000  0.16990000  0.46786000  1.0
  C  C92  1  0.16750000  0.30608000  0.96469000  1.0
  C  C93  1  0.06178000  0.80612000  0.46455000  1.0
  C  C94  1  0.83249000  0.69392000  0.03531000  1.0
  C  C95  1  0.93822000  0.19388000  0.53545000  1.0
  C  C96  1  0.26776000  0.25377000  0.86000000  1.0
  C  C97  1  0.11853000  0.75378000  0.35987000  1.0
  C  C98  1  0.73224000  0.74623000  0.14000000  1.0
  C  C99  1  0.88147000  0.24622000  0.64013000  1.0
  C  C100  1  0.41909000  0.22912000  0.82663000  1.0
  C  C101  1  0.02522000  0.72910000  0.32653000  1.0
  C  C102  1  0.58091000  0.77088000  0.17337000  1.0
  C  C103  1  0.97478000  0.27090000  0.67348000  1.0
  C  C104  1  0.46933000  0.26056000  0.89682000  1.0
  C  C105  1  0.87334000  0.76054000  0.39674000  1.0
  C  C106  1  0.53067000  0.73944000  0.10318000  1.0
  C  C107  1  0.12666000  0.23947000  0.60326000  1.0
  N  N108  1  0.19527000  0.39066000  0.21107000  1.0
  N  N109  1  0.70299000  0.89062000  0.71090000  1.0
  N  N110  1  0.80473000  0.60934000  0.78893000  1.0
  N  N111  1  0.29701000  0.10938000  0.28910000  1.0
  N  N112  1  0.37737000  0.30972000  0.99582000  1.0
  N  N113  1  0.81713000  0.80978000  0.49567000  1.0
  N  N114  1  0.62263000  0.69028000  0.00418000  1.0
  N  N115  1  0.18287000  0.19022000  0.50433000  1.0
  Cl  Cl116  1  0.68415000  0.39779000  0.93093000  1.0
  Cl  Cl117  1  0.48726000  0.89774000  0.43083000  1.0
  Cl  Cl118  1  0.31585000  0.60221000  0.06907000  1.0
  Cl  Cl119  1  0.51274000  0.10226000  0.56917000  1.0
  O  O120  1  0.52591000  0.41908000  0.23364000  1.0
  O  O121  1  0.32124000  0.91881000  0.73336000  1.0
  O  O122  1  0.47410000  0.58092000  0.76635000  1.0
  O  O123  1  0.67877000  0.08119000  0.26664000  1.0
  O  O124  1  0.39047000  0.32767000  0.37954000  1.0
  O  O125  1  0.40207000  0.82754000  0.87934000  1.0
  O  O126  1  0.60953000  0.67233000  0.62046000  1.0
  O  O127  1  0.59794000  0.17246000  0.12066000  1.0
