# generated using pymatgen
data_DyCoH16C16(N5O3)2
_symmetry_space_group_name_H-M   'P 1'
_cell_length_a   10.12190000
_cell_length_b   10.58340000
_cell_length_c   12.32300000
_cell_angle_alpha   73.70840000
_cell_angle_beta   75.16760000
_cell_angle_gamma   70.29210000
_symmetry_Int_Tables_number   1
_chemical_formula_structural   DyCoH16C16(N5O3)2
_chemical_formula_sum   'Dy2 Co2 H32 C32 N20 O12'
_cell_volume   1173.68313913
_cell_formula_units_Z   2
loop_
 _symmetry_equiv_pos_site_id
 _symmetry_equiv_pos_as_xyz
  1  'x, y, z'
loop_
 _atom_site_type_symbol
 _atom_site_label
 _atom_site_symmetry_multiplicity
 _atom_site_fract_x
 _atom_site_fract_y
 _atom_site_fract_z
 _atom_site_occupancy
  Dy  Dy0  1  0.40970000  0.30806000  0.28762000  1.0
  Dy  Dy1  1  0.59033000  0.69190000  0.71237000  1.0
  Co  Co2  1  0.33467000  0.30185000  0.73932000  1.0
  Co  Co3  1  0.66532000  0.69817000  0.26067000  1.0
  H  H4  1  0.29209000  0.75760000  0.53586000  1.0
  H  H5  1  0.70791000  0.24241000  0.46413000  1.0
  H  H6  1  0.32571000  0.90169000  0.03543000  1.0
  H  H7  1  0.67429000  0.09831000  0.96458000  1.0
  H  H8  1  0.13454000  0.51422000  0.08341000  1.0
  H  H9  1  0.86548000  0.48578000  0.91659000  1.0
  H  H10  1  0.47454000  0.65196000  0.07554000  1.0
  H  H11  1  0.52547000  0.34804000  0.92446000  1.0
  H  H12  1  0.01037000  0.67246000  0.30606000  1.0
  H  H13  1  0.98964000  0.32752000  0.69394000  1.0
  H  H14  1  0.37145000  0.54552000  0.45208000  1.0
  H  H15  1  0.62856000  0.45448000  0.54791000  1.0
  H  H16  1  0.97289000  0.75830000  0.03641000  1.0
  H  H17  1  0.02713000  0.24169000  0.96360000  1.0
  H  H18  1  0.91438000  0.89021000  0.38306000  1.0
  H  H19  1  0.08561000  0.10977000  0.61694000  1.0
  H  H20  1  0.42410000  0.08495000  0.17370000  1.0
  H  H21  1  0.57592000  0.91506000  0.82627000  1.0
  H  H22  1  0.36314000  0.22868000  0.09440000  1.0
  H  H23  1  0.63687000  0.77133000  0.90559000  1.0
  H  H24  1  0.72368000  0.25207000  0.24893000  1.0
  H  H25  1  0.27636000  0.74788000  0.75101000  1.0
  H  H26  1  0.71164000  0.10409000  0.24537000  1.0
  H  H27  1  0.28835000  0.89585000  0.75467000  1.0
  H  H28  1  0.53396000  0.01167000  0.40833000  1.0
  H  H29  1  0.46565000  0.98837000  0.59231000  1.0
  H  H30  1  0.40983000  0.00682000  0.35786000  1.0
  H  H31  1  0.59035000  0.99315000  0.64205000  1.0
  H  H32  1  0.17749000  0.20365000  0.27821000  1.0
  H  H33  1  0.82249000  0.79633000  0.72179000  1.0
  H  H34  1  0.09200000  0.34728000  0.31304000  1.0
  H  H35  1  0.90798000  0.65276000  0.68689000  1.0
  C  C36  1  0.38420000  0.30073000  0.58339000  1.0
  C  C37  1  0.61583000  0.69930000  0.41661000  1.0
  C  C38  1  0.58764000  0.55791000  0.27360000  1.0
  C  C39  1  0.41234000  0.44211000  0.72640000  1.0
  C  C40  1  0.28343000  0.29303000  0.89722000  1.0
  C  C41  1  0.71654000  0.70698000  0.10277000  1.0
  C  C42  1  0.36321000  0.68398000  0.06753000  1.0
  C  C43  1  0.63680000  0.31601000  0.93246000  1.0
  C  C44  1  0.50843000  0.16826000  0.75522000  1.0
  C  C45  1  0.49156000  0.83176000  0.24477000  1.0
  C  C46  1  0.27290000  0.62588000  0.44084000  1.0
  C  C47  1  0.72711000  0.37412000  0.55916000  1.0
  C  C48  1  0.26115000  0.15617000  0.75618000  1.0
  C  C49  1  0.73886000  0.84385000  0.24379000  1.0
  C  C50  1  0.16360000  0.43906000  0.71751000  1.0
  C  C51  1  0.83638000  0.56096000  0.28248000  1.0
  C  C52  1  0.22651000  0.74211000  0.48593000  1.0
  C  C53  1  0.77349000  0.25789000  0.51406000  1.0
  C  C54  1  0.13815000  0.84849000  0.03343000  1.0
  C  C55  1  0.86186000  0.15150000  0.96656000  1.0
  C  C56  1  0.09705000  0.83993000  0.46587000  1.0
  C  C57  1  0.90295000  0.16006000  0.53412000  1.0
  C  C58  1  0.16809000  0.60563000  0.07013000  1.0
  C  C59  1  0.83193000  0.39436000  0.92987000  1.0
  C  C60  1  0.28027000  0.81881000  0.04475000  1.0
  C  C61  1  0.71974000  0.18118000  0.95525000  1.0
  C  C62  1  0.08295000  0.73876000  0.04482000  1.0
  C  C63  1  0.91707000  0.26123000  0.95518000  1.0
  C  C64  1  0.06532000  0.70044000  0.35665000  1.0
  C  C65  1  0.93469000  0.29955000  0.64334000  1.0
  C  C66  1  0.01577000  0.81690000  0.40012000  1.0
  C  C67  1  0.98423000  0.18309000  0.59987000  1.0
  N  N68  1  0.30598000  0.57976000  0.08237000  1.0
  N  N69  1  0.69405000  0.42024000  0.91762000  1.0
  N  N70  1  0.19271000  0.60630000  0.37697000  1.0
  N  N71  1  0.80730000  0.39369000  0.62303000  1.0
  N  N72  1  0.41599000  0.29091000  0.48709000  1.0
  N  N73  1  0.58405000  0.70911000  0.51290000  1.0
  N  N74  1  0.54034000  0.46925000  0.27802000  1.0
  N  N75  1  0.45966000  0.53075000  0.72199000  1.0
  N  N76  1  0.05663000  0.95513000  0.51412000  1.0
  N  N77  1  0.94337000  0.04486000  0.48587000  1.0
  N  N78  1  0.05992000  0.52944000  0.70294000  1.0
  N  N79  1  0.94005000  0.47058000  0.29704000  1.0
  N  N80  1  0.61505000  0.07776000  0.75730000  1.0
  N  N81  1  0.38495000  0.92225000  0.24267000  1.0
  N  N82  1  0.22821000  0.05793000  0.76235000  1.0
  N  N83  1  0.77186000  0.94206000  0.23760000  1.0
  N  N84  1  0.25228000  0.28825000  0.99648000  1.0
  N  N85  1  0.74768000  0.71176000  0.00351000  1.0
  N  N86  1  0.05897000  0.98791000  0.01538000  1.0
  N  N87  1  0.94104000  0.01208000  0.98461000  1.0
  O  O88  1  0.43060000  0.18038000  0.15032000  1.0
  O  O89  1  0.56944000  0.81962000  0.84964000  1.0
  O  O90  1  0.38384000  0.45126000  0.10907000  1.0
  O  O91  1  0.61619000  0.54873000  0.89091000  1.0
  O  O92  1  0.23265000  0.49712000  0.33333333  1.0
  O  O93  1  0.76737000  0.50286000  0.66666667  1.0
  O  O94  1  0.65714000  0.20011000  0.25868000  1.0
  O  O95  1  0.34287000  0.79984000  0.74135000  1.0
  O  O96  1  0.18361000  0.26901000  0.31732000  1.0
  O  O97  1  0.81638000  0.73104000  0.68260000  1.0
  O  O98  1  0.43842000  0.06469000  0.39273000  1.0
  O  O99  1  0.56145000  0.93542000  0.60722000  1.0
