# generated using pymatgen
data_Mn3Zn6H94C128(N4O21)2
_symmetry_space_group_name_H-M   'P 1'
_cell_length_a   10.37360000
_cell_length_b   14.90510000
_cell_length_c   21.06100000
_cell_angle_alpha   99.91030000
_cell_angle_beta   93.56800000
_cell_angle_gamma   106.88700000
_symmetry_Int_Tables_number   1
_chemical_formula_structural   Mn3Zn6H94C128(N4O21)2
_chemical_formula_sum   'Mn3 Zn6 H94 C128 N8 O42'
_cell_volume   3047.69299265
_cell_formula_units_Z   1
loop_
 _symmetry_equiv_pos_site_id
 _symmetry_equiv_pos_as_xyz
  1  'x, y, z'
loop_
 _atom_site_type_symbol
 _atom_site_label
 _atom_site_symmetry_multiplicity
 _atom_site_fract_x
 _atom_site_fract_y
 _atom_site_fract_z
 _atom_site_occupancy
  Mn  Mn0  1  0.76375000  0.01412000  0.80257000  1.0
  Mn  Mn1  1  0.23625000  0.98588000  0.19743000  1.0
  Mn  Mn2  1  0.00001000  0.50001000  0.50000000  1.0
  Zn  Zn3  1  0.59004000  0.01688000  0.26156000  1.0
  Zn  Zn4  1  0.40996000  0.98312000  0.73844000  1.0
  Zn  Zn5  1  0.82776000  0.67874000  0.49884000  1.0
  Zn  Zn6  1  0.17224000  0.32126000  0.50116000  1.0
  Zn  Zn7  1  0.01748000  0.05484000  0.94051000  1.0
  Zn  Zn8  1  0.98251000  0.94516000  0.05949000  1.0
  H  H9  1  0.10054000  0.22125000  0.02435000  1.0
  H  H10  1  0.89946000  0.77875000  0.97565000  1.0
  H  H11  1  0.98527000  0.14432000  0.05062000  1.0
  H  H12  1  0.01473000  0.85568000  0.94938000  1.0
  H  H13  1  0.13016000  0.84518000  0.37671000  1.0
  H  H14  1  0.86984000  0.15482000  0.62329000  1.0
  H  H15  1  0.90340000  0.80610000  0.69469000  1.0
  H  H16  1  0.09660000  0.19390000  0.30531000  1.0
  H  H17  1  0.70052000  0.96554000  0.07635000  1.0
  H  H18  1  0.29947000  0.03446000  0.92365000  1.0
  H  H19  1  0.51202000  0.84645000  0.87997000  1.0
  H  H20  1  0.48798000  0.15356000  0.12003000  1.0
  H  H21  1  0.66410000  0.35625000  0.85178000  1.0
  H  H22  1  0.33590000  0.64375000  0.14822000  1.0
  H  H23  1  0.12383000  0.60273000  0.69607000  1.0
  H  H24  1  0.87616000  0.39727000  0.30393000  1.0
  H  H25  1  0.29012000  0.78053000  0.92208000  1.0
  H  H26  1  0.70987000  0.21947000  0.07792000  1.0
  H  H27  1  0.32753000  0.23536000  0.85174000  1.0
  H  H28  1  0.67247000  0.76464000  0.14826000  1.0
  H  H29  1  0.71701000  0.78593000  0.60312000  1.0
  H  H30  1  0.28299000  0.21407000  0.39688000  1.0
  H  H31  1  0.27235000  0.81919000  0.04035000  1.0
  H  H32  1  0.72765000  0.18080000  0.95965000  1.0
  H  H33  1  0.15878000  0.82112000  0.86645000  1.0
  H  H34  1  0.84122000  0.17888000  0.13355000  1.0
  H  H35  1  0.95982000  0.25607000  0.75861000  1.0
  H  H36  1  0.04018000  0.74393000  0.24139000  1.0
  H  H37  1  0.77039000  0.15378000  0.37016000  1.0
  H  H38  1  0.22961000  0.84622000  0.62984000  1.0
  H  H39  1  0.17486000  0.57164000  0.39452000  1.0
  H  H40  1  0.82513000  0.42836000  0.60548000  1.0
  H  H41  1  0.09606000  0.37749000  0.70069000  1.0
  H  H42  1  0.90394000  0.62251000  0.29930000  1.0
  H  H43  1  0.43475000  0.74917000  0.28263000  1.0
  H  H44  1  0.56525000  0.25083000  0.71737000  1.0
  H  H45  1  0.05076000  0.92624000  0.45668000  1.0
  H  H46  1  0.94924000  0.07376000  0.54332000  1.0
  H  H47  1  0.13146000  0.05164000  0.47491000  1.0
  H  H48  1  0.86854000  0.94836000  0.52509000  1.0
  H  H49  1  0.36731000  0.91854000  0.47564000  1.0
  H  H50  1  0.63269000  0.08146000  0.52436000  1.0
  H  H51  1  0.43104000  0.96766000  0.55842000  1.0
  H  H52  1  0.56896000  0.03234000  0.44158000  1.0
  H  H53  1  0.93359000  0.14555000  0.45984000  1.0
  H  H54  1  0.06641000  0.85445000  0.54016000  1.0
  H  H55  1  0.57106000  0.89459000  0.61140000  1.0
  H  H56  1  0.42894000  0.10541000  0.38860000  1.0
  H  H57  1  0.22731000  0.68297000  0.80992000  1.0
  H  H58  1  0.77269000  0.31703000  0.19008000  1.0
  H  H59  1  0.54774000  0.86382000  0.40272000  1.0
  H  H60  1  0.45226000  0.13618000  0.59728000  1.0
  H  H61  1  0.76910000  0.89191000  0.26479000  1.0
  H  H62  1  0.23090000  0.10809000  0.73521000  1.0
  H  H63  1  0.92973000  0.87142000  0.35029000  1.0
  H  H64  1  0.07027000  0.12858000  0.64971000  1.0
  H  H65  1  0.35817000  0.59556000  0.32087000  1.0
  H  H66  1  0.64183000  0.40444000  0.67913000  1.0
  H  H67  1  0.69263000  0.75602000  0.40314000  1.0
  H  H68  1  0.30737000  0.24398000  0.59686000  1.0
  H  H69  1  0.34993000  0.43189000  0.72229000  1.0
  H  H70  1  0.65007000  0.56811000  0.27770000  1.0
  H  H71  1  0.66901000  0.29929000  0.36915000  1.0
  H  H72  1  0.33099000  0.70071000  0.63085000  1.0
  H  H73  1  0.47529000  0.51905000  0.38882000  1.0
  H  H74  1  0.52472000  0.48095000  0.61118000  1.0
  H  H75  1  0.29153000  0.41834000  0.30079000  1.0
  H  H76  1  0.70847000  0.58167000  0.69921000  1.0
  H  H77  1  0.29968000  0.25637000  0.24719000  1.0
  H  H78  1  0.70032000  0.74363000  0.75281000  1.0
  H  H79  1  0.16052000  0.72680000  0.10644000  1.0
  H  H80  1  0.83948000  0.27320000  0.89356000  1.0
  H  H81  1  0.92229000  0.64689000  0.05338000  1.0
  H  H82  1  0.07771000  0.35311000  0.94662000  1.0
  H  H83  1  0.19613000  0.47422000  0.14979000  1.0
  H  H84  1  0.80387000  0.52577000  0.85021000  1.0
  H  H85  1  0.48625000  0.39783000  0.17658000  1.0
  H  H86  1  0.51375000  0.60217000  0.82342000  1.0
  H  H87  1  0.53486000  0.38078000  0.97245000  1.0
  H  H88  1  0.46514000  0.61922000  0.02755000  1.0
  H  H89  1  0.95701000  0.38281000  0.10003000  1.0
  H  H90  1  0.04299000  0.61719000  0.89997000  1.0
  H  H91  1  0.74478000  0.49207000  0.00639000  1.0
  H  H92  1  0.25522000  0.50793000  0.99361000  1.0
  H  H93  1  0.76368000  0.38261000  0.02081000  1.0
  H  H94  1  0.23632000  0.61739000  0.97919000  1.0
  H  H95  1  0.29126000  0.28662000  0.94844000  1.0
  H  H96  1  0.70874000  0.71338000  0.05156000  1.0
  H  H97  1  0.24406000  0.30314000  0.14324000  1.0
  H  H98  1  0.75594000  0.69686000  0.85676000  1.0
  H  H99  1  0.68542000  0.53071000  0.11819000  1.0
  H  H100  1  0.31459000  0.46929000  0.88181000  1.0
  H  H101  1  0.71869000  0.43017000  0.13821000  1.0
  H  H102  1  0.28131000  0.56983000  0.86179000  1.0
  C  C103  1  0.61985000  0.90849000  0.97554000  1.0
  C  C104  1  0.38015000  0.09151000  0.02446000  1.0
  C  C105  1  0.98124000  0.90271000  0.81939000  1.0
  C  C106  1  0.01876000  0.09729000  0.18061000  1.0
  C  C107  1  0.18148000  0.79124000  0.36560000  1.0
  C  C108  1  0.81852000  0.20876000  0.63440000  1.0
  C  C109  1  0.97128000  0.77741000  0.72051000  1.0
  C  C110  1  0.02872000  0.22259000  0.27949000  1.0
  C  C111  1  0.74868000  0.95371000  0.95043000  1.0
  C  C112  1  0.25132000  0.04629000  0.04957000  1.0
  C  C113  1  0.61135000  0.92465000  0.04219000  1.0
  C  C114  1  0.38864000  0.07535000  0.95781000  1.0
  C  C115  1  0.47700000  0.92087000  0.13632000  1.0
  C  C116  1  0.52300000  0.07913000  0.86368000  1.0
  C  C117  1  0.95077000  0.65430000  0.61936000  1.0
  C  C118  1  0.04923000  0.34570000  0.38064000  1.0
  C  C119  1  0.00625000  0.69859000  0.68883000  1.0
  C  C120  1  0.99375000  0.30141000  0.31116000  1.0
  C  C121  1  0.28838000  0.80665000  0.32781000  1.0
  C  C122  1  0.71162000  0.19334000  0.67219000  1.0
  C  C123  1  0.50371000  0.85674000  0.93190000  1.0
  C  C124  1  0.49629000  0.14326000  0.06810000  1.0
  C  C125  1  0.48611000  0.89296000  0.06559000  1.0
  C  C126  1  0.51389000  0.10704000  0.93441000  1.0
  C  C127  1  0.02286000  0.81994000  0.78507000  1.0
  C  C128  1  0.97714000  0.18006000  0.21493000  1.0
  C  C129  1  0.13504000  0.23932000  0.80936000  1.0
  C  C130  1  0.86496000  0.76067000  0.19064000  1.0
  C  C131  1  0.34172000  0.89913000  0.30554000  1.0
  C  C132  1  0.65827000  0.10087000  0.69446000  1.0
  C  C133  1  0.48674000  0.17160000  0.27368000  1.0
  C  C134  1  0.51325000  0.82840000  0.72632000  1.0
  C  C135  1  0.69706000  0.47867000  0.43449000  1.0
  C  C136  1  0.30294000  0.52133000  0.56551000  1.0
  C  C137  1  0.05356000  0.16912000  0.84588000  1.0
  C  C138  1  0.94644000  0.83088000  0.15412000  1.0
  C  C139  1  0.09669000  0.66344000  0.72166000  1.0
  C  C140  1  0.90331000  0.33656000  0.27834000  1.0
  C  C141  1  0.38036000  0.82151000  0.95563000  1.0
  C  C142  1  0.61964000  0.17849000  0.04437000  1.0
  C  C143  1  0.27695000  0.26783000  0.81958000  1.0
  C  C144  1  0.72305000  0.73217000  0.18041000  1.0
  C  C145  1  0.67609000  0.80500000  0.56024000  1.0
  C  C146  1  0.32391000  0.19500000  0.43976000  1.0
  C  C147  1  0.37030000  0.84115000  0.02204000  1.0
  C  C148  1  0.62970000  0.15884000  0.97797000  1.0
  C  C149  1  0.11541000  0.78523000  0.81697000  1.0
  C  C150  1  0.88459000  0.21477000  0.18303000  1.0
  C  C151  1  0.94405000  0.00675000  0.41290000  1.0
  C  C152  1  0.05596000  0.99325000  0.58710000  1.0
  C  C153  1  0.07028000  0.27920000  0.76636000  1.0
  C  C154  1  0.92971000  0.72080000  0.23364000  1.0
  C  C155  1  0.50512000  0.37501000  0.80468000  1.0
  C  C156  1  0.49488000  0.62499000  0.19532000  1.0
  C  C157  1  0.14314000  0.70746000  0.39068000  1.0
  C  C158  1  0.85686000  0.29254000  0.60932000  1.0
  C  C159  1  0.80981000  0.09319000  0.36798000  1.0
  C  C160  1  0.19019000  0.90680000  0.63202000  1.0
  C  C161  1  0.58366000  0.41556000  0.38396000  1.0
  C  C162  1  0.41634000  0.58444000  0.61605000  1.0
  C  C163  1  0.20749000  0.63699000  0.37539000  1.0
  C  C164  1  0.79251000  0.36301000  0.62461000  1.0
  C  C165  1  0.35406000  0.33795000  0.78901000  1.0
  C  C166  1  0.64594000  0.66205000  0.21099000  1.0
  C  C167  1  0.14713000  0.34724000  0.73433000  1.0
  C  C168  1  0.85287000  0.65276000  0.26566000  1.0
  C  C169  1  0.35203000  0.73583000  0.31253000  1.0
  C  C170  1  0.64797000  0.26417000  0.68747000  1.0
  C  C171  1  0.03264000  0.99583000  0.46814000  1.0
  C  C172  1  0.96737000  0.00417000  0.53186000  1.0
  C  C173  1  0.54569000  0.88666000  0.50746000  1.0
  C  C174  1  0.45431000  0.11334000  0.49254000  1.0
  C  C175  1  0.46084000  0.95272000  0.50953000  1.0
  C  C176  1  0.53916000  0.04728000  0.49047000  1.0
  C  C177  1  0.89981000  0.08767000  0.41741000  1.0
  C  C178  1  0.10019000  0.91233000  0.58259000  1.0
  C  C179  1  0.59510000  0.86491000  0.56428000  1.0
  C  C180  1  0.40491000  0.13509000  0.43572000  1.0
  C  C181  1  0.15284000  0.70808000  0.78526000  1.0
  C  C182  1  0.84716000  0.29192000  0.21474000  1.0
  C  C183  1  0.58190000  0.84776000  0.44829000  1.0
  C  C184  1  0.41810000  0.15224000  0.55171000  1.0
  C  C185  1  0.80869000  0.94647000  0.30878000  1.0
  C  C186  1  0.19131000  0.05353000  0.69122000  1.0
  C  C187  1  0.89850000  0.93585000  0.35651000  1.0
  C  C188  1  0.10150000  0.06415000  0.64349000  1.0
  C  C189  1  0.30998000  0.65062000  0.33505000  1.0
  C  C190  1  0.69002000  0.34938000  0.66495000  1.0
  C  C191  1  0.66261000  0.78824000  0.44807000  1.0
  C  C192  1  0.33739000  0.21176000  0.55193000  1.0
  C  C193  1  0.28851000  0.37735000  0.74586000  1.0
  C  C194  1  0.71149000  0.62265000  0.25414000  1.0
  C  C195  1  0.58660000  0.32528000  0.35404000  1.0
  C  C196  1  0.41340000  0.67472000  0.64596000  1.0
  C  C197  1  0.47633000  0.44854000  0.36474000  1.0
  C  C198  1  0.52367000  0.55147000  0.63526000  1.0
  C  C199  1  0.37404000  0.39208000  0.31576000  1.0
  C  C200  1  0.62596000  0.60792000  0.68424000  1.0
  C  C201  1  0.48439000  0.26866000  0.30462000  1.0
  C  C202  1  0.51561000  0.73134000  0.69538000  1.0
  C  C203  1  0.37825000  0.30232000  0.28545000  1.0
  C  C204  1  0.62175000  0.69769000  0.71455000  1.0
  C  C205  1  0.03426000  0.69287000  0.43352000  1.0
  C  C206  1  0.96575000  0.30713000  0.56648000  1.0
  C  C207  1  0.11180000  0.65031000  0.10296000  1.0
  C  C208  1  0.88820000  0.34969000  0.89704000  1.0
  C  C209  1  0.97855000  0.60548000  0.07441000  1.0
  C  C210  1  0.02145000  0.39452000  0.92559000  1.0
  C  C211  1  0.91901000  0.50765000  0.07237000  1.0
  C  C212  1  0.08100000  0.49235000  0.92763000  1.0
  C  C213  1  0.13030000  0.50866000  0.12771000  1.0
  C  C214  1  0.86970000  0.49134000  0.87229000  1.0
  C  C215  1  0.53296000  0.39887000  0.07740000  1.0
  C  C216  1  0.46704000  0.60113000  0.92260000  1.0
  C  C217  1  0.44782000  0.37505000  0.12518000  1.0
  C  C218  1  0.55218000  0.62495000  0.87482000  1.0
  C  C219  1  0.47527000  0.36713000  0.01254000  1.0
  C  C220  1  0.52473000  0.63287000  0.98746000  1.0
  C  C221  1  0.99784000  0.45912000  0.10027000  1.0
  C  C222  1  0.00216000  0.54088000  0.89973000  1.0
  C  C223  1  0.77407000  0.45670000  0.04412000  1.0
  C  C224  1  0.22593000  0.54329000  0.95588000  1.0
  C  C225  1  0.33832000  0.31452000  0.99848000  1.0
  C  C226  1  0.66168000  0.68548000  0.00152000  1.0
  C  C227  1  0.31208000  0.32278000  0.10683000  1.0
  C  C228  1  0.68792000  0.67722000  0.89317000  1.0
  C  C229  1  0.67973000  0.45633000  0.09751000  1.0
  C  C230  1  0.32028000  0.54367000  0.90249000  1.0
  N  N231  1  0.70914000  0.76732000  0.50314000  1.0
  N  N232  1  0.29086000  0.23268000  0.49686000  1.0
  N  N233  1  0.76326000  0.02302000  0.31478000  1.0
  N  N234  1  0.23674000  0.97698000  0.68522000  1.0
  N  N235  1  0.18653000  0.60237000  0.12858000  1.0
  N  N236  1  0.81347000  0.39763000  0.87142000  1.0
  N  N237  1  0.25705000  0.29294000  0.04445000  1.0
  N  N238  1  0.74296000  0.70706000  0.95555000  1.0
  O  O239  1  0.86196000  0.98018000  0.98844000  1.0
  O  O240  1  0.13804000  0.01982000  0.01156000  1.0
  O  O241  1  0.91512000  0.94107000  0.78585000  1.0
  O  O242  1  0.08488000  0.05893000  0.21415000  1.0
  O  O243  1  0.01698000  0.92793000  0.88108000  1.0
  O  O244  1  0.98302000  0.07208000  0.11892000  1.0
  O  O245  1  0.74577000  0.96954000  0.89394000  1.0
  O  O246  1  0.25423000  0.03046000  0.10605000  1.0
  O  O247  1  0.89323000  0.70443000  0.59036000  1.0
  O  O248  1  0.10677000  0.29557000  0.40964000  1.0
  O  O249  1  0.58665000  0.14618000  0.29551000  1.0
  O  O250  1  0.41335000  0.85382000  0.70449000  1.0
  O  O251  1  0.47137000  0.92621000  0.30686000  1.0
  O  O252  1  0.52863000  0.07378000  0.69314000  1.0
  O  O253  1  0.96354000  0.57454000  0.59445000  1.0
  O  O254  1  0.03646000  0.42546000  0.40555000  1.0
  O  O255  1  0.26193000  0.94332000  0.28897000  1.0
  O  O256  1  0.73807000  0.05668000  0.71103000  1.0
  O  O257  1  0.00514000  0.17282000  0.01195000  1.0
  O  O258  1  0.99486000  0.82718000  0.98805000  1.0
  O  O259  1  0.59141000  0.96878000  0.17099000  1.0
  O  O260  1  0.40860000  0.03122000  0.82901000  1.0
  O  O261  1  0.39432000  0.12026000  0.22928000  1.0
  O  O262  1  0.60567000  0.87974000  0.77072000  1.0
  O  O263  1  0.01345000  0.62459000  0.46431000  1.0
  O  O264  1  0.98655000  0.37541000  0.53569000  1.0
  O  O265  1  0.78397000  0.44504000  0.45746000  1.0
  O  O266  1  0.21603000  0.55496000  0.54254000  1.0
  O  O267  1  0.69414000  0.56548000  0.44908000  1.0
  O  O268  1  0.30587000  0.43452000  0.55092000  1.0
  O  O269  1  0.12177000  0.14095000  0.88716000  1.0
  O  O270  1  0.87823000  0.85905000  0.11284000  1.0
  O  O271  1  0.92545000  0.14420000  0.83626000  1.0
  O  O272  1  0.07455000  0.85580000  0.16375000  1.0
  O  O273  1  0.55470000  0.32793000  0.84300000  1.0
  O  O274  1  0.44530000  0.67207000  0.15700000  1.0
  O  O275  1  0.57443000  0.44421000  0.78405000  1.0
  O  O276  1  0.42557000  0.55579000  0.21595000  1.0
  O  O277  1  0.36380000  0.89933000  0.15816000  1.0
  O  O278  1  0.63620000  0.10067000  0.84184000  1.0
  O  O279  1  0.96052000  0.74902000  0.43962000  1.0
  O  O280  1  0.03949000  0.25098000  0.56038000  1.0
