# generated using pymatgen
data_CuH4C3BrN
_symmetry_space_group_name_H-M   'P 1'
_cell_length_a   6.41960000
_cell_length_b   8.66869000
_cell_length_c   16.69310000
_cell_angle_alpha   90.00020000
_cell_angle_beta   90.00010000
_cell_angle_gamma   83.07720000
_symmetry_Int_Tables_number   1
_chemical_formula_structural   CuH4C3BrN
_chemical_formula_sum   'Cu8 H32 C24 Br8 N8'
_cell_volume   922.19039579
_cell_formula_units_Z   8
loop_
 _symmetry_equiv_pos_site_id
 _symmetry_equiv_pos_as_xyz
  1  'x, y, z'
loop_
 _atom_site_type_symbol
 _atom_site_label
 _atom_site_symmetry_multiplicity
 _atom_site_fract_x
 _atom_site_fract_y
 _atom_site_fract_z
 _atom_site_occupancy
  Cu  Cu0  1  0.77982000  0.79103000  0.36573000  1.0
  Cu  Cu1  1  0.22017000  0.70897000  0.86574000  1.0
  Cu  Cu2  1  0.22018000  0.20898000  0.63427000  1.0
  Cu  Cu3  1  0.77983000  0.29103000  0.13426000  1.0
  Cu  Cu4  1  0.75812000  0.98171000  0.49192000  1.0
  Cu  Cu5  1  0.24187000  0.51827000  0.99192000  1.0
  Cu  Cu6  1  0.24188000  0.01829000  0.50808000  1.0
  Cu  Cu7  1  0.75812000  0.48172000  0.00808000  1.0
  H  H8  1  0.42703000  0.57876000  0.15327000  1.0
  H  H9  1  0.57299000  0.92124000  0.65326000  1.0
  H  H10  1  0.57297000  0.42123000  0.84674000  1.0
  H  H11  1  0.42701000  0.07877000  0.34674000  1.0
  H  H12  1  0.42012000  0.47428000  0.40127000  1.0
  H  H13  1  0.57987000  0.02572000  0.90128000  1.0
  H  H14  1  0.57990000  0.52573000  0.59873000  1.0
  H  H15  1  0.42011000  0.97427000  0.09873000  1.0
  H  H16  1  0.72943000  0.27422000  0.32675000  1.0
  H  H17  1  0.27056000  0.22577000  0.82675000  1.0
  H  H18  1  0.27057000  0.72577000  0.67326000  1.0
  H  H19  1  0.72943000  0.77423000  0.17325000  1.0
  H  H20  1  0.26027000  0.77567000  0.33421000  1.0
  H  H21  1  0.73973000  0.72434000  0.83420000  1.0
  H  H22  1  0.73973000  0.22434000  0.66579000  1.0
  H  H23  1  0.26027000  0.27566000  0.16579000  1.0
  H  H24  1  0.16812000  0.74408000  0.23519000  1.0
  H  H25  1  0.83189000  0.75593000  0.73520000  1.0
  H  H26  1  0.83188000  0.25592000  0.76481000  1.0
  H  H27  1  0.16811000  0.24407000  0.26480000  1.0
  H  H28  1  0.93945000  0.54857000  0.28979000  1.0
  H  H29  1  0.06055000  0.95144000  0.78981000  1.0
  H  H30  1  0.06055000  0.45143000  0.71021000  1.0
  H  H31  1  0.93945000  0.04856000  0.21019000  1.0
  H  H32  1  0.08846000  0.67211000  0.45276000  1.0
  H  H33  1  0.91153000  0.82788000  0.95276000  1.0
  H  H34  1  0.91154000  0.32789000  0.54725000  1.0
  H  H35  1  0.08847000  0.17213000  0.04723000  1.0
  H  H36  1  0.88616000  0.53856000  0.43709000  1.0
  H  H37  1  0.11383000  0.96143000  0.93710000  1.0
  H  H38  1  0.11384000  0.46145000  0.56292000  1.0
  H  H39  1  0.88616000  0.03857000  0.06289000  1.0
  C  C40  1  0.47035000  0.52269000  0.20990000  1.0
  C  C41  1  0.52966000  0.97732000  0.70990000  1.0
  C  C42  1  0.52965000  0.47731000  0.79010000  1.0
  C  C43  1  0.47034000  0.02269000  0.29010000  1.0
  C  C44  1  0.46968000  0.46639000  0.33931000  1.0
  C  C45  1  0.53032000  0.03361000  0.83931000  1.0
  C  C46  1  0.53032000  0.53361000  0.66070000  1.0
  C  C47  1  0.46968000  0.96639000  0.16069000  1.0
  C  C48  1  0.62106000  0.36721000  0.30142000  1.0
  C  C49  1  0.37893000  0.13279000  0.80142000  1.0
  C  C50  1  0.37894000  0.63278000  0.69859000  1.0
  C  C51  1  0.62106000  0.86721000  0.19858000  1.0
  C  C52  1  0.20409000  0.68986000  0.29371000  1.0
  C  C53  1  0.79594000  0.81013000  0.79371000  1.0
  C  C54  1  0.79593000  0.31013000  0.70629000  1.0
  C  C55  1  0.20407000  0.18987000  0.20628000  1.0
  C  C56  1  0.01733000  0.62460000  0.32929000  1.0
  C  C57  1  0.98265000  0.87540000  0.82929000  1.0
  C  C58  1  0.98266000  0.37540000  0.67072000  1.0
  C  C59  1  0.01735000  0.12460000  0.17071000  1.0
  C  C60  1  0.98535000  0.61943000  0.41147000  1.0
  C  C61  1  0.01465000  0.88056000  0.91148000  1.0
  C  C62  1  0.01466000  0.38058000  0.58853000  1.0
  C  C63  1  0.98535000  0.11944000  0.08852000  1.0
  Br  Br64  1  0.51638000  0.78631000  0.47901000  1.0
  Br  Br65  1  0.48362000  0.71369000  0.97901000  1.0
  Br  Br66  1  0.48363000  0.21369000  0.52099000  1.0
  Br  Br67  1  0.51637000  0.28631000  0.02100000  1.0
  Br  Br68  1  0.99613000  0.06639000  0.39346000  1.0
  Br  Br69  1  0.00386000  0.43361000  0.89346000  1.0
  Br  Br70  1  0.00387000  0.93361000  0.60654000  1.0
  Br  Br71  1  0.99614000  0.56639000  0.10654000  1.0
  N  N72  1  0.37621000  0.56408000  0.28066000  1.0
  N  N73  1  0.62380000  0.93592000  0.78066000  1.0
  N  N74  1  0.62379000  0.43592000  0.71934000  1.0
  N  N75  1  0.37620000  0.06408000  0.21934000  1.0
  N  N76  1  0.61971000  0.40293000  0.22040000  1.0
  N  N77  1  0.38029000  0.09707000  0.72040000  1.0
  N  N78  1  0.38028000  0.59706000  0.77960000  1.0
  N  N79  1  0.61970000  0.90293000  0.27960000  1.0
