# generated using pymatgen
data_LiH4C5NO
_symmetry_space_group_name_H-M   'P 1'
_cell_length_a   11.01090000
_cell_length_b   11.01090000
_cell_length_c   11.01590000
_cell_angle_alpha   90.00000000
_cell_angle_beta   90.00000000
_cell_angle_gamma   90.00000000
_symmetry_Int_Tables_number   1
_chemical_formula_structural   LiH4C5NO
_chemical_formula_sum   'Li8 H32 C40 N8 O8'
_cell_volume   1335.56682162
_cell_formula_units_Z   8
loop_
 _symmetry_equiv_pos_site_id
 _symmetry_equiv_pos_as_xyz
  1  'x, y, z'
loop_
 _atom_site_type_symbol
 _atom_site_label
 _atom_site_symmetry_multiplicity
 _atom_site_fract_x
 _atom_site_fract_y
 _atom_site_fract_z
 _atom_site_occupancy
  Li  Li0  1  0.91667000  0.58836000  0.83558000  1.0
  Li  Li1  1  0.08333000  0.41164000  0.83558000  1.0
  Li  Li2  1  0.58836000  0.08333000  0.16442000  1.0
  Li  Li3  1  0.41164000  0.91667000  0.16442000  1.0
  Li  Li4  1  0.08333000  0.58836000  0.66442000  1.0
  Li  Li5  1  0.91667000  0.41164000  0.66442000  1.0
  Li  Li6  1  0.41164000  0.08333000  0.33558000  1.0
  Li  Li7  1  0.58836000  0.91667000  0.33558000  1.0
  H  H8  1  0.21074000  0.52388000  0.04416000  1.0
  H  H9  1  0.12805000  0.82598000  0.80691000  1.0
  H  H10  1  0.33141000  0.66727000  0.17076000  1.0
  H  H11  1  0.25225000  0.95684000  0.94349000  1.0
  H  H12  1  0.78926000  0.47612000  0.04416000  1.0
  H  H13  1  0.87195000  0.17402000  0.80691000  1.0
  H  H14  1  0.66859000  0.33274000  0.17076000  1.0
  H  H15  1  0.74775000  0.04316000  0.94349000  1.0
  H  H16  1  0.52388000  0.78926000  0.95584000  1.0
  H  H17  1  0.82598000  0.87195000  0.19309000  1.0
  H  H18  1  0.66726000  0.66859000  0.82924000  1.0
  H  H19  1  0.95684000  0.74775000  0.05651000  1.0
  H  H20  1  0.47612000  0.21074000  0.95584000  1.0
  H  H21  1  0.17402000  0.12805000  0.19309000  1.0
  H  H22  1  0.33273000  0.33141000  0.82924000  1.0
  H  H23  1  0.04316000  0.25225000  0.05651000  1.0
  H  H24  1  0.78926000  0.52388000  0.45584000  1.0
  H  H25  1  0.87195000  0.82598000  0.69309000  1.0
  H  H26  1  0.66859000  0.66726000  0.32924000  1.0
  H  H27  1  0.74775000  0.95684000  0.55651000  1.0
  H  H28  1  0.21074000  0.47612000  0.45584000  1.0
  H  H29  1  0.12805000  0.17402000  0.69309000  1.0
  H  H30  1  0.33141000  0.33273000  0.32923000  1.0
  H  H31  1  0.25225000  0.04316000  0.55651000  1.0
  H  H32  1  0.47612000  0.78926000  0.54416000  1.0
  H  H33  1  0.17402000  0.87195000  0.30691000  1.0
  H  H34  1  0.33273000  0.66859000  0.67076000  1.0
  H  H35  1  0.04316000  0.74775000  0.44349000  1.0
  H  H36  1  0.52388000  0.21074000  0.54416000  1.0
  H  H37  1  0.82598000  0.12805000  0.30691000  1.0
  H  H38  1  0.66726000  0.33141000  0.67076000  1.0
  H  H39  1  0.95684000  0.25225000  0.44349000  1.0
  C  C40  1  0.21807000  0.61939000  0.01897000  1.0
  C  C41  1  0.17202000  0.78758000  0.88694000  1.0
  C  C42  1  0.28516000  0.69941000  0.08895000  1.0
  C  C43  1  0.24130000  0.86006000  0.96291000  1.0
  C  C44  1  0.15893000  0.66185000  0.91258000  1.0
  C  C45  1  0.78193000  0.38061000  0.01897000  1.0
  C  C46  1  0.82798000  0.21242000  0.88694000  1.0
  C  C47  1  0.71484000  0.30059000  0.08895000  1.0
  C  C48  1  0.75870000  0.13994000  0.96291000  1.0
  C  C49  1  0.84107000  0.33815000  0.91258000  1.0
  C  C50  1  0.61939000  0.78193000  0.98103000  1.0
  C  C51  1  0.78758000  0.82798000  0.11306000  1.0
  C  C52  1  0.69941000  0.71484000  0.91105000  1.0
  C  C53  1  0.86006000  0.75870000  0.03709000  1.0
  C  C54  1  0.66185000  0.84107000  0.08742000  1.0
  C  C55  1  0.38061000  0.21807000  0.98103000  1.0
  C  C56  1  0.21242000  0.17202000  0.11306000  1.0
  C  C57  1  0.30059000  0.28516000  0.91105000  1.0
  C  C58  1  0.13994000  0.24130000  0.03709000  1.0
  C  C59  1  0.33815000  0.15893000  0.08742000  1.0
  C  C60  1  0.78193000  0.61939000  0.48103000  1.0
  C  C61  1  0.82798000  0.78758000  0.61306000  1.0
  C  C62  1  0.71484000  0.69941000  0.41105000  1.0
  C  C63  1  0.75870000  0.86006000  0.53709000  1.0
  C  C64  1  0.84107000  0.66185000  0.58742000  1.0
  C  C65  1  0.21807000  0.38061000  0.48103000  1.0
  C  C66  1  0.17202000  0.21242000  0.61306000  1.0
  C  C67  1  0.28516000  0.30059000  0.41105000  1.0
  C  C68  1  0.24130000  0.13994000  0.53709000  1.0
  C  C69  1  0.15893000  0.33815000  0.58742000  1.0
  C  C70  1  0.38061000  0.78193000  0.51897000  1.0
  C  C71  1  0.21242000  0.82798000  0.38694000  1.0
  C  C72  1  0.30059000  0.71484000  0.58895000  1.0
  C  C73  1  0.13994000  0.75870000  0.46291000  1.0
  C  C74  1  0.33815000  0.84107000  0.41258000  1.0
  C  C75  1  0.61939000  0.21807000  0.51897000  1.0
  C  C76  1  0.78758000  0.17202000  0.38694000  1.0
  C  C77  1  0.69941000  0.28516000  0.58895000  1.0
  C  C78  1  0.86006000  0.24130000  0.46291000  1.0
  C  C79  1  0.66185000  0.15893000  0.41258000  1.0
  N  N80  1  0.29879000  0.81874000  0.06323000  1.0
  N  N81  1  0.70121000  0.18126000  0.06323000  1.0
  N  N82  1  0.81874000  0.70121000  0.93677000  1.0
  N  N83  1  0.18126000  0.29879000  0.93677000  1.0
  N  N84  1  0.70121000  0.81874000  0.43677000  1.0
  N  N85  1  0.29879000  0.18126000  0.43677000  1.0
  N  N86  1  0.18126000  0.70121000  0.56323000  1.0
  N  N87  1  0.81874000  0.29879000  0.56323000  1.0
  O  O88  1  0.09546000  0.58915000  0.84237000  1.0
  O  O89  1  0.90455000  0.41085000  0.84238000  1.0
  O  O90  1  0.58915000  0.90454000  0.15762000  1.0
  O  O91  1  0.41085000  0.09546000  0.15762000  1.0
  O  O92  1  0.90454000  0.58915000  0.65762000  1.0
  O  O93  1  0.09546000  0.41085000  0.65762000  1.0
  O  O94  1  0.41085000  0.90454000  0.34237000  1.0
  O  O95  1  0.58915000  0.09546000  0.34238000  1.0
