# generated using pymatgen
data_AgH22C16S2NO3
_symmetry_space_group_name_H-M   'P 1'
_cell_length_a   8.75431000
_cell_length_b   12.31110000
_cell_length_c   19.74450000
_cell_angle_alpha   90.00030000
_cell_angle_beta   90.00020000
_cell_angle_gamma   90.00000000
_symmetry_Int_Tables_number   1
_chemical_formula_structural   AgH22C16S2NO3
_chemical_formula_sum   'Ag4 H88 C64 S8 N4 O12'
_cell_volume   2127.96715680
_cell_formula_units_Z   4
loop_
 _symmetry_equiv_pos_site_id
 _symmetry_equiv_pos_as_xyz
  1  'x, y, z'
loop_
 _atom_site_type_symbol
 _atom_site_label
 _atom_site_symmetry_multiplicity
 _atom_site_fract_x
 _atom_site_fract_y
 _atom_site_fract_z
 _atom_site_occupancy
  Ag  Ag0  1  0.73561000  0.65504000  0.01670000  1.0
  Ag  Ag1  1  0.26439000  0.34496000  0.51670000  1.0
  Ag  Ag2  1  0.76439000  0.15504000  0.51670000  1.0
  Ag  Ag3  1  0.23561000  0.84495000  0.01670000  1.0
  H  H4  1  0.47847000  0.47854000  0.87059000  1.0
  H  H5  1  0.52153000  0.52146000  0.37059000  1.0
  H  H6  1  0.02153000  0.97854000  0.37059000  1.0
  H  H7  1  0.97847000  0.02146000  0.87059000  1.0
  H  H8  1  0.44086000  0.54221000  0.94996000  1.0
  H  H9  1  0.55915000  0.45779000  0.44997000  1.0
  H  H10  1  0.05915000  0.04221000  0.44996000  1.0
  H  H11  1  0.94085000  0.95779000  0.94997000  1.0
  H  H12  1  0.35719000  0.70807000  0.89626000  1.0
  H  H13  1  0.64281000  0.29193000  0.39626000  1.0
  H  H14  1  0.14281000  0.20807000  0.39626000  1.0
  H  H15  1  0.85719000  0.79193000  0.89626000  1.0
  H  H16  1  0.12337000  0.64550000  0.84589000  1.0
  H  H17  1  0.87663000  0.35451000  0.34589000  1.0
  H  H18  1  0.37663000  0.14549000  0.34589000  1.0
  H  H19  1  0.62337000  0.85451000  0.84589000  1.0
  H  H20  1  0.17466000  0.55067000  0.90887000  1.0
  H  H21  1  0.82534000  0.44933000  0.40887000  1.0
  H  H22  1  0.32534000  0.05067000  0.40887000  1.0
  H  H23  1  0.67466000  0.94933000  0.90887000  1.0
  H  H24  1  0.27551000  0.42287000  0.82323000  1.0
  H  H25  1  0.72449000  0.57714000  0.32323000  1.0
  H  H26  1  0.22449000  0.92286000  0.32322000  1.0
  H  H27  1  0.77551000  0.07714000  0.82323000  1.0
  H  H28  1  0.08657000  0.45671000  0.80327000  1.0
  H  H29  1  0.91342000  0.54329000  0.30327000  1.0
  H  H30  1  0.41342000  0.95671000  0.30327000  1.0
  H  H31  1  0.58657000  0.04329000  0.80327000  1.0
  H  H32  1  0.17611000  0.58713000  0.71572000  1.0
  H  H33  1  0.82389000  0.41287000  0.21572000  1.0
  H  H34  1  0.32389000  0.08713000  0.21572000  1.0
  H  H35  1  0.67611000  0.91287000  0.71572000  1.0
  H  H36  1  0.49879000  0.51946000  0.75620000  1.0
  H  H37  1  0.50121000  0.48055000  0.25620000  1.0
  H  H38  1  0.00121000  0.01945000  0.25620000  1.0
  H  H39  1  0.99879000  0.98055000  0.75620000  1.0
  H  H40  1  0.45069000  0.60967000  0.69097000  1.0
  H  H41  1  0.54931000  0.39034000  0.19097000  1.0
  H  H42  1  0.04931000  0.10966000  0.19097000  1.0
  H  H43  1  0.95069000  0.89034000  0.69097000  1.0
  H  H44  1  0.52825000  0.71072000  0.79351000  1.0
  H  H45  1  0.47175000  0.28928000  0.29350000  1.0
  H  H46  1  0.97175000  0.21072000  0.29350000  1.0
  H  H47  1  0.02825000  0.78929000  0.79350000  1.0
  H  H48  1  0.33379000  0.73726000  0.77580000  1.0
  H  H49  1  0.66621000  0.26274000  0.27580000  1.0
  H  H50  1  0.16622000  0.23726000  0.27580000  1.0
  H  H51  1  0.83378000  0.76275000  0.77580000  1.0
  H  H52  1  0.13648000  0.41709000  0.66666667  1.0
  H  H53  1  0.86352000  0.58292000  0.16672000  1.0
  H  H54  1  0.36352000  0.91708000  0.16672000  1.0
  H  H55  1  0.63648000  0.08292000  0.66666667  1.0
  H  H56  1  0.27442000  0.35180000  0.71793000  1.0
  H  H57  1  0.72558000  0.64820000  0.21793000  1.0
  H  H58  1  0.22558000  0.85180000  0.21792000  1.0
  H  H59  1  0.77442000  0.14820000  0.71793000  1.0
  H  H60  1  0.44500000  0.23766000  0.65082000  1.0
  H  H61  1  0.55500000  0.76234000  0.15082000  1.0
  H  H62  1  0.05500000  0.73766000  0.15082000  1.0
  H  H63  1  0.94500000  0.26234000  0.65082000  1.0
  H  H64  1  0.58773000  0.30018000  0.59885000  1.0
  H  H65  1  0.41226000  0.69982000  0.09885000  1.0
  H  H66  1  0.91226000  0.80018000  0.09886000  1.0
  H  H67  1  0.08774000  0.19982000  0.59886000  1.0
  H  H68  1  0.47344000  0.23382000  0.77088000  1.0
  H  H69  1  0.52656000  0.76618000  0.27088000  1.0
  H  H70  1  0.02656000  0.73382000  0.27088000  1.0
  H  H71  1  0.97344000  0.26618000  0.77088000  1.0
  H  H72  1  0.59447000  0.30095000  0.87659000  1.0
  H  H73  1  0.40554000  0.69905000  0.37659000  1.0
  H  H74  1  0.90554000  0.80095000  0.37659000  1.0
  H  H75  1  0.09447000  0.19904000  0.87659000  1.0
  H  H76  1  0.87095000  0.52125000  0.75936000  1.0
  H  H77  1  0.12906000  0.47875000  0.25936000  1.0
  H  H78  1  0.62905000  0.02125000  0.25937000  1.0
  H  H79  1  0.37095000  0.97875000  0.75936000  1.0
  H  H80  1  0.75621000  0.44964000  0.65349000  1.0
  H  H81  1  0.24378000  0.55036000  0.15349000  1.0
  H  H82  1  0.74378000  0.94964000  0.15349000  1.0
  H  H83  1  0.25622000  0.05036000  0.65349000  1.0
  H  H84  1  0.90245000  0.50191000  0.89008000  1.0
  H  H85  1  0.09755000  0.49809000  0.39007000  1.0
  H  H86  1  0.59755000  0.00192000  0.39008000  1.0
  H  H87  1  0.40245000  0.99808000  0.89008000  1.0
  H  H88  1  0.76297000  0.42487000  0.93473000  1.0
  H  H89  1  0.23704000  0.57513000  0.43473000  1.0
  H  H90  1  0.73703000  0.92487000  0.43473000  1.0
  H  H91  1  0.26297000  0.07513000  0.93473000  1.0
  C  C92  1  0.47740000  0.55651000  0.89754000  1.0
  C  C93  1  0.52260000  0.44349000  0.39754000  1.0
  C  C94  1  0.02260000  0.05651000  0.39754000  1.0
  C  C95  1  0.97740000  0.94349000  0.89754000  1.0
  C  C96  1  0.36630000  0.63630000  0.86333000  1.0
  C  C97  1  0.63370000  0.36370000  0.36333000  1.0
  C  C98  1  0.13370000  0.13630000  0.36333000  1.0
  C  C99  1  0.86629000  0.86370000  0.86333000  1.0
  C  C100  1  0.20765000  0.58236000  0.85889000  1.0
  C  C101  1  0.79235000  0.41764000  0.35889000  1.0
  C  C102  1  0.29235000  0.08235000  0.35889000  1.0
  C  C103  1  0.70765000  0.91764000  0.85889000  1.0
  C  C104  1  0.20253000  0.49074000  0.80639000  1.0
  C  C105  1  0.79746000  0.50926000  0.30639000  1.0
  C  C106  1  0.29747000  0.99074000  0.30639000  1.0
  C  C107  1  0.70253000  0.00926000  0.80639000  1.0
  C  C108  1  0.25703000  0.52604000  0.73559000  1.0
  C  C109  1  0.74297000  0.47396000  0.23559000  1.0
  C  C110  1  0.24297000  0.02604000  0.23559000  1.0
  C  C111  1  0.75703000  0.97396000  0.73559000  1.0
  C  C112  1  0.41380000  0.58032000  0.74094000  1.0
  C  C113  1  0.58620000  0.41968000  0.24094000  1.0
  C  C114  1  0.08620000  0.08032000  0.24094000  1.0
  C  C115  1  0.91380000  0.91968000  0.74094000  1.0
  C  C116  1  0.41414000  0.67335000  0.79215000  1.0
  C  C117  1  0.58585000  0.32665000  0.29215000  1.0
  C  C118  1  0.08586000  0.17335000  0.29215000  1.0
  C  C119  1  0.91414000  0.82665000  0.79215000  1.0
  C  C120  1  0.25091000  0.42577000  0.68870000  1.0
  C  C121  1  0.74909000  0.57423000  0.18870000  1.0
  C  C122  1  0.24909000  0.92577000  0.18870000  1.0
  C  C123  1  0.75091000  0.07424000  0.68870000  1.0
  C  C124  1  0.51424000  0.31096000  0.64332000  1.0
  C  C125  1  0.48576000  0.68904000  0.14332000  1.0
  C  C126  1  0.98575000  0.81096000  0.14332000  1.0
  C  C127  1  0.01424000  0.18904000  0.64332000  1.0
  C  C128  1  0.60314000  0.33969000  0.70534000  1.0
  C  C129  1  0.39686000  0.66031000  0.20534000  1.0
  C  C130  1  0.89686000  0.83970000  0.20534000  1.0
  C  C131  1  0.10314000  0.16030000  0.70534000  1.0
  C  C132  1  0.56207000  0.29606000  0.76822000  1.0
  C  C133  1  0.43793000  0.70394000  0.26822000  1.0
  C  C134  1  0.93793000  0.79606000  0.26822000  1.0
  C  C135  1  0.06208000  0.20394000  0.76822000  1.0
  C  C136  1  0.63005000  0.33392000  0.82768000  1.0
  C  C137  1  0.36997000  0.66609000  0.32767000  1.0
  C  C138  1  0.86996000  0.83392000  0.32768000  1.0
  C  C139  1  0.13005000  0.16608000  0.82768000  1.0
  C  C140  1  0.73814000  0.41786000  0.82559000  1.0
  C  C141  1  0.26187000  0.58214000  0.32559000  1.0
  C  C142  1  0.76186000  0.91786000  0.32559000  1.0
  C  C143  1  0.23814000  0.08214000  0.82559000  1.0
  C  C144  1  0.78655000  0.45610000  0.76193000  1.0
  C  C145  1  0.21346000  0.54390000  0.26193000  1.0
  C  C146  1  0.71345000  0.95610000  0.26194000  1.0
  C  C147  1  0.28655000  0.04390000  0.76193000  1.0
  C  C148  1  0.72157000  0.41674000  0.70251000  1.0
  C  C149  1  0.27843000  0.58325000  0.20251000  1.0
  C  C150  1  0.77843000  0.91674000  0.20251000  1.0
  C  C151  1  0.22157000  0.08326000  0.70251000  1.0
  C  C152  1  0.78295000  0.47477000  0.88953000  1.0
  C  C153  1  0.21705000  0.52523000  0.38953000  1.0
  C  C154  1  0.71705000  0.97477000  0.38953000  1.0
  C  C155  1  0.28296000  0.02523000  0.88953000  1.0
  S  S156  1  0.67530000  0.60319000  0.89738000  1.0
  S  S157  1  0.32470000  0.39681000  0.39738000  1.0
  S  S158  1  0.82470000  0.10319000  0.39738000  1.0
  S  S159  1  0.17530000  0.89681000  0.89738000  1.0
  S  S160  1  0.38532000  0.42169000  0.61742000  1.0
  S  S161  1  0.61467000  0.57831000  0.11742000  1.0
  S  S162  1  0.11467000  0.92169000  0.11742000  1.0
  S  S163  1  0.88532000  0.07831000  0.61742000  1.0
  N  N164  1  0.08427000  0.61714000  0.02864000  1.0
  N  N165  1  0.91573000  0.38286000  0.52865000  1.0
  N  N166  1  0.41573000  0.11715000  0.52865000  1.0
  N  N167  1  0.58427000  0.88285000  0.02865000  1.0
  O  O168  1  0.00244000  0.69061000  0.99949000  1.0
  O  O169  1  0.99756000  0.30939000  0.49949000  1.0
  O  O170  1  0.49756000  0.19062000  0.49948000  1.0
  O  O171  1  0.50244000  0.80938000  0.99948000  1.0
  O  O172  1  0.22702000  0.63393000  0.03395000  1.0
  O  O173  1  0.77298000  0.36607000  0.53395000  1.0
  O  O174  1  0.27298000  0.13393000  0.53396000  1.0
  O  O175  1  0.72701000  0.86607000  0.03396000  1.0
  O  O176  1  0.02351000  0.53224000  0.05123000  1.0
  O  O177  1  0.97649000  0.46776000  0.55124000  1.0
  O  O178  1  0.47650000  0.03225000  0.55125000  1.0
  O  O179  1  0.52350000  0.96775000  0.05125000  1.0
