# generated using pymatgen
data_Zn3Mo2H10C4(N4O5)2
_symmetry_space_group_name_H-M   'P 1'
_cell_length_a   8.89954000
_cell_length_b   9.50555000
_cell_length_c   9.56829000
_cell_angle_alpha   102.12700000
_cell_angle_beta   90.00000000
_cell_angle_gamma   90.00000000
_symmetry_Int_Tables_number   1
_chemical_formula_structural   Zn3Mo2H10C4(N4O5)2
_chemical_formula_sum   'Zn6 Mo4 H20 C8 N16 O20'
_cell_volume   791.36675548
_cell_formula_units_Z   2
loop_
 _symmetry_equiv_pos_site_id
 _symmetry_equiv_pos_as_xyz
  1  'x, y, z'
loop_
 _atom_site_type_symbol
 _atom_site_label
 _atom_site_symmetry_multiplicity
 _atom_site_fract_x
 _atom_site_fract_y
 _atom_site_fract_z
 _atom_site_occupancy
  Zn  Zn0  1  0.50000000  0.00000000  0.50000000  1.0
  Zn  Zn1  1  0.00000000  0.50000000  0.00000000  1.0
  Zn  Zn2  1  0.29560000  0.40221000  0.19731000  1.0
  Zn  Zn3  1  0.79560000  0.09779000  0.30269000  1.0
  Zn  Zn4  1  0.70440000  0.59779000  0.80269000  1.0
  Zn  Zn5  1  0.20440000  0.90221000  0.69731000  1.0
  Mo  Mo6  1  0.17656000  0.21335000  0.45839000  1.0
  Mo  Mo7  1  0.67656000  0.28665000  0.04161000  1.0
  Mo  Mo8  1  0.82344000  0.78665000  0.54161000  1.0
  Mo  Mo9  1  0.32344000  0.71335000  0.95839000  1.0
  H  H10  1  0.15253000  0.58140000  0.49855000  1.0
  H  H11  1  0.65253000  0.91860000  0.00145000  1.0
  H  H12  1  0.84747000  0.41860000  0.50145000  1.0
  H  H13  1  0.34748000  0.08140000  0.99855000  1.0
  H  H14  1  0.62690000  0.74996000  0.26219000  1.0
  H  H15  1  0.12690000  0.75004000  0.23781000  1.0
  H  H16  1  0.37310000  0.25004000  0.73781000  1.0
  H  H17  1  0.87310000  0.24996000  0.76219000  1.0
  H  H18  1  0.56481000  0.57713000  0.18491000  1.0
  H  H19  1  0.06481000  0.92287000  0.31509000  1.0
  H  H20  1  0.43519000  0.42287000  0.81509000  1.0
  H  H21  1  0.93519000  0.07713000  0.68491000  1.0
  H  H22  1  0.44989000  0.13469000  0.28926000  1.0
  H  H23  1  0.94989000  0.36531000  0.21074000  1.0
  H  H24  1  0.55011000  0.86531000  0.71074000  1.0
  H  H25  1  0.05011000  0.63469000  0.78926000  1.0
  H  H26  1  0.46671000  0.97564000  0.19958000  1.0
  H  H27  1  0.96671000  0.52436000  0.30042000  1.0
  H  H28  1  0.53329000  0.02436000  0.80042000  1.0
  H  H29  1  0.03329000  0.47564000  0.69958000  1.0
  C  C30  1  0.24325000  0.63932000  0.46018000  1.0
  C  C31  1  0.74325000  0.86068000  0.03982000  1.0
  C  C32  1  0.75675000  0.36068000  0.53982000  1.0
  C  C33  1  0.25675000  0.13932000  0.96018000  1.0
  C  C34  1  0.43153000  0.68966000  0.33788000  1.0
  C  C35  1  0.93153000  0.81034000  0.16212000  1.0
  C  C36  1  0.56847000  0.31034000  0.66212000  1.0
  C  C37  1  0.06847000  0.18966000  0.83788000  1.0
  N  N38  1  0.53986000  0.67982000  0.23699000  1.0
  N  N39  1  0.03986000  0.82018000  0.26301000  1.0
  N  N40  1  0.46014000  0.32018000  0.76301000  1.0
  N  N41  1  0.96014000  0.17982000  0.73699000  1.0
  N  N42  1  0.40643000  0.80515000  0.44283000  1.0
  N  N43  1  0.90643000  0.69485000  0.05717000  1.0
  N  N44  1  0.59357000  0.19485000  0.55717000  1.0
  N  N45  1  0.09357000  0.30515000  0.94283000  1.0
  N  N46  1  0.32854000  0.58412000  0.34364000  1.0
  N  N47  1  0.82854000  0.91588000  0.15636000  1.0
  N  N48  1  0.67146000  0.41588000  0.65636000  1.0
  N  N49  1  0.17146000  0.08412000  0.84364000  1.0
  N  N50  1  0.28661000  0.77086000  0.52150000  1.0
  N  N51  1  0.78661000  0.72914000  0.97850000  1.0
  N  N52  1  0.71339000  0.22914000  0.47850000  1.0
  N  N53  1  0.21339000  0.27086000  0.02150000  1.0
  O  O54  1  0.51616000  0.37790000  0.12793000  1.0
  O  O55  1  0.01616000  0.12210000  0.37207000  1.0
  O  O56  1  0.48384000  0.62211000  0.87207000  1.0
  O  O57  1  0.98384000  0.87789000  0.62793000  1.0
  O  O58  1  0.51671000  0.04855000  0.27744000  1.0
  O  O59  1  0.01671000  0.45145000  0.22256000  1.0
  O  O60  1  0.48329000  0.95145000  0.72256000  1.0
  O  O61  1  0.98329000  0.54855000  0.77744000  1.0
  O  O62  1  0.27511000  0.09667000  0.55071000  1.0
  O  O63  1  0.77511000  0.40333000  0.94929000  1.0
  O  O64  1  0.72489000  0.90333000  0.44929000  1.0
  O  O65  1  0.22489000  0.59667000  0.05071000  1.0
  O  O66  1  0.30200000  0.25396000  0.32493000  1.0
  O  O67  1  0.80200000  0.24604000  0.17507000  1.0
  O  O68  1  0.69800000  0.74604000  0.67507000  1.0
  O  O69  1  0.19800000  0.75396000  0.82493000  1.0
  O  O70  1  0.12680000  0.37571000  0.57272000  1.0
  O  O71  1  0.62679000  0.12429000  0.92728000  1.0
  O  O72  1  0.87321000  0.62429000  0.42728000  1.0
  O  O73  1  0.37321000  0.87571000  0.07272000  1.0
