# generated using pymatgen
data_Na5GdH24C12Cl2O29
_symmetry_space_group_name_H-M   'P 1'
_cell_length_a   9.62158000
_cell_length_b   9.62244894
_cell_length_c   10.93182418
_cell_angle_alpha   63.88865401
_cell_angle_beta   90.01262799
_cell_angle_gamma   120.00243748
_symmetry_Int_Tables_number   1
_chemical_formula_structural   Na5GdH24C12Cl2O29
_chemical_formula_sum   'Na5 Gd1 H24 C12 Cl2 O29'
_cell_volume   754.92096361
_cell_formula_units_Z   1
loop_
 _symmetry_equiv_pos_site_id
 _symmetry_equiv_pos_as_xyz
  1  'x, y, z'
loop_
 _atom_site_type_symbol
 _atom_site_label
 _atom_site_symmetry_multiplicity
 _atom_site_fract_x
 _atom_site_fract_y
 _atom_site_fract_z
 _atom_site_occupancy
  Na  Na0  1  0.80536000  0.61077000  0.58384000  1.0
  Na  Na1  1  0.19463000  0.38924000  0.41616000  1.0
  Na  Na2  1  0.50000000  0.30516000  0.50000000  1.0
  Na  Na3  1  0.19490000  0.69489000  0.49996000  1.0
  Na  Na4  1  0.80512000  0.99997000  0.50003000  1.0
  Gd  Gd5  1  0.00000000  0.00004000  0.00000000  1.0
  H  H6  1  0.50416000  0.33378000  0.96251000  1.0
  H  H7  1  0.70357000  0.20789000  0.96235000  1.0
  H  H8  1  0.82961000  0.53321000  0.96263000  1.0
  H  H9  1  0.17039000  0.66622000  0.03738000  1.0
  H  H10  1  0.49585000  0.79213000  0.03749000  1.0
  H  H11  1  0.29642000  0.46666000  0.03765000  1.0
  H  H12  1  0.47031000  0.50559000  0.84168000  1.0
  H  H13  1  0.65259000  0.12298000  0.84158000  1.0
  H  H14  1  0.03514000  0.68801000  0.84161000  1.0
  H  H15  1  0.96485000  0.49448000  0.15839000  1.0
  H  H16  1  0.52968000  0.87696000  0.15832000  1.0
  H  H17  1  0.34740000  0.31196000  0.15842000  1.0
  H  H18  1  0.78077000  0.58569000  0.32126000  1.0
  H  H19  1  0.09344000  0.87402000  0.32117000  1.0
  H  H20  1  0.80500000  0.89805000  0.32133000  1.0
  H  H21  1  0.19499000  0.41437000  0.67868000  1.0
  H  H22  1  0.21924000  0.12618000  0.67874000  1.0
  H  H23  1  0.90657000  0.10176000  0.67882000  1.0
  H  H24  1  0.82711000  0.43917000  0.39537000  1.0
  H  H25  1  0.16561000  0.99268000  0.39536000  1.0
  H  H26  1  0.61215000  0.77753000  0.39545000  1.0
  H  H27  1  0.38784000  0.56084000  0.60455000  1.0
  H  H28  1  0.17289000  0.00743000  0.60463000  1.0
  H  H29  1  0.83441000  0.22245000  0.60464000  1.0
  C  C30  1  0.41731000  0.35512000  0.90333000  1.0
  C  C31  1  0.74143000  0.15886000  0.90323000  1.0
  C  C32  1  0.93767000  0.67926000  0.90335000  1.0
  C  C33  1  0.06233000  0.64494000  0.09665000  1.0
  C  C34  1  0.58268000  0.84113000  0.09668000  1.0
  C  C35  1  0.25857000  0.32066000  0.09677000  1.0
  C  C36  1  0.39686000  0.28196000  0.80171000  1.0
  C  C37  1  0.91615000  0.31324000  0.80164000  1.0
  C  C38  1  0.88462000  0.80102000  0.80186000  1.0
  C  C39  1  0.11538000  0.71826000  0.19814000  1.0
  C  C40  1  0.60313000  0.68680000  0.19830000  1.0
  C  C41  1  0.08384000  0.19873000  0.19836000  1.0
  Cl  Cl42  1  0.57065000  0.14076000  0.28908000  1.0
  Cl  Cl43  1  0.42934000  0.85918000  0.71092000  1.0
  O  O44  1  0.25725000  0.25732000  0.00001000  1.0
  O  O45  1  0.74275000  0.00008000  0.99999000  1.0
  O  O46  1  0.00000000  0.74277000  0.00000000  1.0
  O  O47  1  0.25047000  0.14183000  0.82596000  1.0
  O  O48  1  0.03205000  0.28274000  0.82593000  1.0
  O  O49  1  0.89050000  0.92288000  0.82629000  1.0
  O  O50  1  0.10950000  0.85867000  0.17371000  1.0
  O  O51  1  0.74955000  0.71733000  0.17404000  1.0
  O  O52  1  0.96796000  0.07663000  0.17407000  1.0
  O  O53  1  0.52084000  0.36297000  0.70016000  1.0
  O  O54  1  0.93664000  0.45776000  0.70011000  1.0
  O  O55  1  0.84172000  0.77859000  0.70027000  1.0
  O  O56  1  0.15827000  0.63713000  0.29973000  1.0
  O  O57  1  0.47916000  0.54230000  0.29984000  1.0
  O  O58  1  0.06335000  0.22123000  0.29989000  1.0
  O  O59  1  0.78608000  0.50348000  0.41511000  1.0
  O  O60  1  0.08168000  0.86759000  0.41504000  1.0
  O  O61  1  0.71754000  0.79891000  0.41517000  1.0
  O  O62  1  0.28246000  0.49653000  0.58484000  1.0
  O  O63  1  0.21392000  0.13251000  0.58490000  1.0
  O  O64  1  0.91832000  0.20095000  0.58496000  1.0
  O  O65  1  0.62210000  0.24373000  0.13457000  1.0
  O  O66  1  0.37789000  0.75619000  0.86544000  1.0
  O  O67  1  0.45839000  0.17618000  0.34110000  1.0
  O  O68  1  0.48325000  0.94106000  0.34112000  1.0
  O  O69  1  0.71840000  0.20105000  0.34107000  1.0
  O  O70  1  0.28160000  0.82371000  0.65894000  1.0
  O  O71  1  0.54159000  0.05887000  0.65891000  1.0
  O  O72  1  0.51675000  0.79893000  0.65888000  1.0
