# generated using pymatgen
data_CaH6C6(NO3)2
_symmetry_space_group_name_H-M   'P 1'
_cell_length_a   6.51839000
_cell_length_b   7.89102000
_cell_length_c   9.31624000
_cell_angle_alpha   100.10000000
_cell_angle_beta   93.62040000
_cell_angle_gamma   107.77000000
_symmetry_Int_Tables_number   1
_chemical_formula_structural   CaH6C6(NO3)2
_chemical_formula_sum   'Ca2 H12 C12 N4 O12'
_cell_volume   445.77042129
_cell_formula_units_Z   2
loop_
 _symmetry_equiv_pos_site_id
 _symmetry_equiv_pos_as_xyz
  1  'x, y, z'
loop_
 _atom_site_type_symbol
 _atom_site_label
 _atom_site_symmetry_multiplicity
 _atom_site_fract_x
 _atom_site_fract_y
 _atom_site_fract_z
 _atom_site_occupancy
  Ca  Ca0  1  0.77296000  0.09799000  0.63838000  1.0
  Ca  Ca1  1  0.22703000  0.90201000  0.36163000  1.0
  H  H2  1  0.21543000  0.29952000  0.94522000  1.0
  H  H3  1  0.78457000  0.70050000  0.05479000  1.0
  H  H4  1  0.88538000  0.05104000  0.00071000  1.0
  H  H5  1  0.11461000  0.94893000  0.99928000  1.0
  H  H6  1  0.53895000  0.70679000  0.48727000  1.0
  H  H7  1  0.46105000  0.29321000  0.51273000  1.0
  H  H8  1  0.59560000  0.69524000  0.65625000  1.0
  H  H9  1  0.40441000  0.30477000  0.34375000  1.0
  H  H10  1  0.14724000  0.29650000  0.48339000  1.0
  H  H11  1  0.85276000  0.70348000  0.51659000  1.0
  H  H12  1  0.07270000  0.44661000  0.58215000  1.0
  H  H13  1  0.92730000  0.55337000  0.41784000  1.0
  C  C14  1  0.66253000  0.47676000  0.77893000  1.0
  C  C15  1  0.33747000  0.52324000  0.22106000  1.0
  C  C16  1  0.83805000  0.48615000  0.89743000  1.0
  C  C17  1  0.16195000  0.51386000  0.10257000  1.0
  C  C18  1  0.11861000  0.38926000  0.96887000  1.0
  C  C19  1  0.88139000  0.61075000  0.03113000  1.0
  C  C20  1  0.26071000  0.00650000  0.73257000  1.0
  C  C21  1  0.73928000  0.99350000  0.26744000  1.0
  C  C22  1  0.38752000  0.00380000  0.87421000  1.0
  C  C23  1  0.61249000  0.99620000  0.12580000  1.0
  C  C24  1  0.71192000  0.02687000  0.99983000  1.0
  C  C25  1  0.28811000  0.97310000  0.00017000  1.0
  N  N26  1  0.95669000  0.37452000  0.86705000  1.0
  N  N27  1  0.04331000  0.62549000  0.13294000  1.0
  N  N28  1  0.60144000  0.03065000  0.87536000  1.0
  N  N29  1  0.39856000  0.96934000  0.12464000  1.0
  O  O30  1  0.63446000  0.35303000  0.66445000  1.0
  O  O31  1  0.36553000  0.64698000  0.33557000  1.0
  O  O32  1  0.56605000  0.59352000  0.80073000  1.0
  O  O33  1  0.43395000  0.40650000  0.19926000  1.0
  O  O34  1  0.35572000  0.99319000  0.61845000  1.0
  O  O35  1  0.64428000  0.00682000  0.38155000  1.0
  O  O36  1  0.07445000  0.02236000  0.74073000  1.0
  O  O37  1  0.92557000  0.97763000  0.25928000  1.0
  O  O38  1  0.64943000  0.76132000  0.57670000  1.0
  O  O39  1  0.35057000  0.23869000  0.42330000  1.0
  O  O40  1  0.01910000  0.32185000  0.52657000  1.0
  O  O41  1  0.98089000  0.67814000  0.47343000  1.0
