# generated using pymatgen
data_ZnH4CSNO3
_symmetry_space_group_name_H-M   'P 1'
_cell_length_a   4.83732000
_cell_length_b   6.23158000
_cell_length_c   15.21600000
_cell_angle_alpha   90.00010000
_cell_angle_beta   90.00010000
_cell_angle_gamma   91.21350000
_symmetry_Int_Tables_number   1
_chemical_formula_structural   ZnH4CSNO3
_chemical_formula_sum   'Zn4 H16 C4 S4 N4 O12'
_cell_volume   458.57046347
_cell_formula_units_Z   4
loop_
 _symmetry_equiv_pos_site_id
 _symmetry_equiv_pos_as_xyz
  1  'x, y, z'
loop_
 _atom_site_type_symbol
 _atom_site_label
 _atom_site_symmetry_multiplicity
 _atom_site_fract_x
 _atom_site_fract_y
 _atom_site_fract_z
 _atom_site_occupancy
  Zn  Zn0  1  0.48877000  0.82750000  0.80451000  1.0
  Zn  Zn1  1  0.01123000  0.67250000  0.30451000  1.0
  Zn  Zn2  1  0.51122000  0.17250000  0.19549000  1.0
  Zn  Zn3  1  0.98877000  0.32750000  0.69549000  1.0
  H  H4  1  0.39488000  0.44587000  0.85378000  1.0
  H  H5  1  0.10512000  0.05413000  0.35377000  1.0
  H  H6  1  0.60512000  0.55414000  0.14623000  1.0
  H  H7  1  0.89488000  0.94587000  0.64622000  1.0
  H  H8  1  0.72514000  0.50032000  0.86889000  1.0
  H  H9  1  0.77487000  0.99968000  0.36889000  1.0
  H  H10  1  0.27488000  0.49968000  0.13111000  1.0
  H  H11  1  0.22514000  0.00032000  0.63111000  1.0
  H  H12  1  0.25515000  0.64353000  0.97764000  1.0
  H  H13  1  0.24485000  0.85647000  0.47764000  1.0
  H  H14  1  0.74485000  0.35647000  0.02236000  1.0
  H  H15  1  0.75515000  0.14353000  0.52235000  1.0
  H  H16  1  0.59703000  0.73689000  0.99508000  1.0
  H  H17  1  0.90298000  0.76311000  0.49508000  1.0
  H  H18  1  0.40297000  0.26312000  0.00492000  1.0
  H  H19  1  0.09703000  0.23689000  0.50492000  1.0
  C  C20  1  0.47313000  0.59856000  0.97183000  1.0
  C  C21  1  0.02687000  0.90144000  0.47183000  1.0
  C  C22  1  0.52686000  0.40145000  0.02817000  1.0
  C  C23  1  0.97313000  0.09856000  0.52817000  1.0
  S  S24  1  0.48919000  0.59315000  0.62482000  1.0
  S  S25  1  0.01080000  0.90686000  0.12482000  1.0
  S  S26  1  0.51081000  0.40686000  0.37518000  1.0
  S  S27  1  0.98919000  0.09315000  0.87518000  1.0
  N  N28  1  0.53129000  0.56153000  0.87771000  1.0
  N  N29  1  0.96871000  0.93847000  0.37771000  1.0
  N  N30  1  0.46872000  0.43848000  0.12229000  1.0
  N  N31  1  0.03130000  0.06152000  0.62229000  1.0
  O  O32  1  0.55135000  0.80736000  0.67641000  1.0
  O  O33  1  0.94865000  0.69265000  0.17641000  1.0
  O  O34  1  0.44865000  0.19264000  0.32359000  1.0
  O  O35  1  0.05135000  0.30735000  0.82359000  1.0
  O  O36  1  0.17327000  0.56462000  0.62969000  1.0
  O  O37  1  0.32672000  0.93538000  0.12970000  1.0
  O  O38  1  0.82673000  0.43538000  0.37031000  1.0
  O  O39  1  0.67327000  0.06462000  0.87030000  1.0
  O  O40  1  0.59174000  0.41094000  0.68460000  1.0
  O  O41  1  0.90825000  0.08906000  0.18460000  1.0
  O  O42  1  0.40825000  0.58906000  0.31540000  1.0
  O  O43  1  0.09175000  0.91094000  0.81540000  1.0
