# generated using pymatgen
data_HgH3C5Br4N
_symmetry_space_group_name_H-M   'P 1'
_cell_length_a   4.03553000
_cell_length_b   9.32702000
_cell_length_c   14.00000000
_cell_angle_alpha   81.92290000
_cell_angle_beta   86.73530000
_cell_angle_gamma   88.41870000
_symmetry_Int_Tables_number   1
_chemical_formula_structural   HgH3C5Br4N
_chemical_formula_sum   'Hg2 H6 C10 Br8 N2'
_cell_volume   520.77608722
_cell_formula_units_Z   2
loop_
 _symmetry_equiv_pos_site_id
 _symmetry_equiv_pos_as_xyz
  1  'x, y, z'
loop_
 _atom_site_type_symbol
 _atom_site_label
 _atom_site_symmetry_multiplicity
 _atom_site_fract_x
 _atom_site_fract_y
 _atom_site_fract_z
 _atom_site_occupancy
  Hg  Hg0  1  0.93201000  0.22848000  0.30310000  1.0
  Hg  Hg1  1  0.06800000  0.77151000  0.69691000  1.0
  H  H2  1  0.76043000  0.04534000  0.12472000  1.0
  H  H3  1  0.23956000  0.95466000  0.87528000  1.0
  H  H4  1  0.18010000  0.89651000  0.38577000  1.0
  H  H5  1  0.81990000  0.10349000  0.61423000  1.0
  H  H6  1  0.00915000  0.58848000  0.18974000  1.0
  H  H7  1  0.99084000  0.41152000  0.81026000  1.0
  C  C8  1  0.11072000  0.72793000  0.29588000  1.0
  C  C9  1  0.88927000  0.27208000  0.70412000  1.0
  C  C10  1  0.87145000  0.81351000  0.14595000  1.0
  C  C11  1  0.12854000  0.18649000  0.85405000  1.0
  C  C12  1  0.85916000  0.95285000  0.17180000  1.0
  C  C13  1  0.14084000  0.04715000  0.82820000  1.0
  C  C14  1  0.09453000  0.86937000  0.31812000  1.0
  C  C15  1  0.90547000  0.13063000  0.68188000  1.0
  C  C16  1  0.99941000  0.69808000  0.20838000  1.0
  C  C17  1  0.00059000  0.30192000  0.79162000  1.0
  Br  Br18  1  0.31588000  0.17694000  0.44142000  1.0
  Br  Br19  1  0.68413000  0.82306000  0.55859000  1.0
  Br  Br20  1  0.58261000  0.35025000  0.16940000  1.0
  Br  Br21  1  0.41741000  0.64973000  0.83059000  1.0
  Br  Br22  1  0.27444000  0.57539000  0.38555000  1.0
  Br  Br23  1  0.72557000  0.42462000  0.61444000  1.0
  Br  Br24  1  0.71334000  0.77997000  0.02620000  1.0
  Br  Br25  1  0.28666000  0.22003000  0.97380000  1.0
  N  N26  1  0.97041000  0.97787000  0.25629000  1.0
  N  N27  1  0.02958000  0.02213000  0.74371000  1.0
