# generated using pymatgen
data_ZnH10C12(NO)4
_symmetry_space_group_name_H-M   'P 1'
_cell_length_a   7.90584000
_cell_length_b   7.90584000
_cell_length_c   22.39700000
_cell_angle_alpha   90.00000000
_cell_angle_beta   90.00000000
_cell_angle_gamma   89.99970000
_symmetry_Int_Tables_number   1
_chemical_formula_structural   ZnH10C12(NO)4
_chemical_formula_sum   'Zn4 H40 C48 N16 O16'
_cell_volume   1399.86414983
_cell_formula_units_Z   4
loop_
 _symmetry_equiv_pos_site_id
 _symmetry_equiv_pos_as_xyz
  1  'x, y, z'
loop_
 _atom_site_type_symbol
 _atom_site_label
 _atom_site_symmetry_multiplicity
 _atom_site_fract_x
 _atom_site_fract_y
 _atom_site_fract_z
 _atom_site_occupancy
  Zn  Zn0  1  0.38431000  0.38431000  1.00000000  1.0
  Zn  Zn1  1  0.61569000  0.61569000  0.50000000  1.0
  Zn  Zn2  1  0.88431000  0.11569000  0.75000000  1.0
  Zn  Zn3  1  0.11569000  0.88431000  0.25000000  1.0
  H  H4  1  0.52319000  0.72543000  0.80457000  1.0
  H  H5  1  0.47682000  0.27456000  0.30457000  1.0
  H  H6  1  0.22546000  0.97680000  0.55457000  1.0
  H  H7  1  0.77454000  0.02320000  0.05457000  1.0
  H  H8  1  0.02319000  0.77454000  0.94543000  1.0
  H  H9  1  0.97681000  0.22546000  0.44543000  1.0
  H  H10  1  0.72544000  0.52319000  0.19543000  1.0
  H  H11  1  0.27456000  0.47681000  0.69543000  1.0
  H  H12  1  0.49366000  0.00367000  0.85516000  1.0
  H  H13  1  0.50634000  0.99633000  0.35516000  1.0
  H  H14  1  0.50369000  0.00633000  0.60517000  1.0
  H  H15  1  0.49632000  0.99366000  0.10517000  1.0
  H  H16  1  0.99367000  0.49632000  0.89483000  1.0
  H  H17  1  0.00633000  0.50369000  0.39483000  1.0
  H  H18  1  0.00367000  0.49366000  0.14484000  1.0
  H  H19  1  0.99632000  0.50634000  0.64484000  1.0
  H  H20  1  0.35507000  0.73756000  0.01573000  1.0
  H  H21  1  0.64492000  0.26244000  0.51573000  1.0
  H  H22  1  0.23756000  0.14492000  0.76573000  1.0
  H  H23  1  0.76244000  0.85508000  0.26573000  1.0
  H  H24  1  0.85508000  0.76244000  0.73427000  1.0
  H  H25  1  0.14491000  0.23756000  0.23427000  1.0
  H  H26  1  0.73756000  0.35507000  0.98427000  1.0
  H  H27  1  0.26244000  0.64493000  0.48427000  1.0
  H  H28  1  0.46145000  0.32011000  0.88355000  1.0
  H  H29  1  0.53855000  0.67989000  0.38355000  1.0
  H  H30  1  0.82012000  0.03854000  0.63355000  1.0
  H  H31  1  0.17988000  0.96147000  0.13355000  1.0
  H  H32  1  0.96146000  0.17988000  0.86645000  1.0
  H  H33  1  0.03854000  0.82012000  0.36645000  1.0
  H  H34  1  0.32011000  0.46144000  0.11645000  1.0
  H  H35  1  0.67989000  0.53855000  0.61645000  1.0
  H  H36  1  0.51337000  0.40984000  0.81574000  1.0
  H  H37  1  0.48663000  0.59016000  0.31574000  1.0
  H  H38  1  0.90986000  0.98662000  0.56574000  1.0
  H  H39  1  0.09014000  0.01338000  0.06574000  1.0
  H  H40  1  0.01338000  0.09014000  0.93425000  1.0
  H  H41  1  0.98662000  0.90986000  0.43425000  1.0
  H  H42  1  0.40984000  0.51337000  0.18426000  1.0
  H  H43  1  0.59016000  0.48663000  0.68426000  1.0
  C  C44  1  0.45941000  0.58042000  0.88371000  1.0
  C  C45  1  0.54058000  0.41958000  0.38371000  1.0
  C  C46  1  0.08044000  0.04057000  0.63371000  1.0
  C  C47  1  0.91956000  0.95943000  0.13371000  1.0
  C  C48  1  0.95943000  0.91956000  0.86629000  1.0
  C  C49  1  0.04057000  0.08044000  0.36629000  1.0
  C  C50  1  0.58042000  0.45941000  0.11629000  1.0
  C  C51  1  0.41958000  0.54058000  0.61629000  1.0
  C  C52  1  0.48693000  0.73295000  0.85143000  1.0
  C  C53  1  0.51307000  0.26705000  0.35143000  1.0
  C  C54  1  0.23297000  0.01305000  0.60143000  1.0
  C  C55  1  0.76703000  0.98694000  0.10143000  1.0
  C  C56  1  0.98695000  0.76703000  0.89857000  1.0
  C  C57  1  0.01305000  0.23297000  0.39857000  1.0
  C  C58  1  0.73295000  0.48694000  0.14857000  1.0
  C  C59  1  0.26704000  0.51307000  0.64857000  1.0
  C  C60  1  0.46968000  0.88664000  0.87957000  1.0
  C  C61  1  0.53032000  0.11335000  0.37958000  1.0
  C  C62  1  0.38665000  0.03031000  0.62958000  1.0
  C  C63  1  0.61335000  0.96969000  0.12958000  1.0
  C  C64  1  0.96969000  0.61335000  0.87042000  1.0
  C  C65  1  0.03031000  0.38665000  0.37042000  1.0
  C  C66  1  0.88665000  0.46968000  0.12042000  1.0
  C  C67  1  0.11335000  0.53033000  0.62043000  1.0
  C  C68  1  0.41925000  0.89175000  0.94012000  1.0
  C  C69  1  0.58074000  0.10825000  0.44012000  1.0
  C  C70  1  0.39176000  0.08073000  0.69012000  1.0
  C  C71  1  0.60824000  0.91927000  0.19012000  1.0
  C  C72  1  0.91927000  0.60824000  0.80988000  1.0
  C  C73  1  0.08073000  0.39176000  0.30988000  1.0
  C  C74  1  0.89175000  0.41926000  0.05988000  1.0
  C  C75  1  0.10825000  0.58075000  0.55989000  1.0
  C  C76  1  0.39370000  0.73854000  0.96893000  1.0
  C  C77  1  0.60630000  0.26146000  0.46893000  1.0
  C  C78  1  0.23854000  0.10629000  0.71893000  1.0
  C  C79  1  0.76146000  0.89371000  0.21893000  1.0
  C  C80  1  0.89371000  0.76146000  0.78107000  1.0
  C  C81  1  0.10628000  0.23854000  0.28106000  1.0
  C  C82  1  0.73854000  0.39370000  0.03107000  1.0
  C  C83  1  0.26146000  0.60630000  0.53107000  1.0
  C  C84  1  0.39233000  0.05066000  0.97375000  1.0
  C  C85  1  0.60767000  0.94934000  0.47375000  1.0
  C  C86  1  0.55067000  0.10765000  0.72376000  1.0
  C  C87  1  0.44933000  0.89234000  0.22376000  1.0
  C  C88  1  0.89235000  0.44933000  0.77625000  1.0
  C  C89  1  0.10765000  0.55067000  0.27624000  1.0
  C  C90  1  0.05066000  0.39233000  0.02625000  1.0
  C  C91  1  0.94934000  0.60767000  0.52625000  1.0
  N  N92  1  0.41461000  0.58692000  0.94274000  1.0
  N  N93  1  0.58539000  0.41308000  0.44274000  1.0
  N  N94  1  0.08693000  0.08538000  0.69274000  1.0
  N  N95  1  0.91307000  0.91462000  0.19274000  1.0
  N  N96  1  0.91463000  0.91307000  0.80726000  1.0
  N  N97  1  0.08537000  0.08693000  0.30726000  1.0
  N  N98  1  0.58692000  0.41461000  0.05726000  1.0
  N  N99  1  0.41307000  0.58539000  0.55726000  1.0
  N  N100  1  0.47595000  0.42775000  0.85858000  1.0
  N  N101  1  0.52405000  0.57225000  0.35858000  1.0
  N  N102  1  0.92777000  0.02404000  0.60858000  1.0
  N  N103  1  0.07223000  0.97597000  0.10858000  1.0
  N  N104  1  0.97596000  0.07223000  0.89142000  1.0
  N  N105  1  0.02404000  0.92777000  0.39142000  1.0
  N  N106  1  0.42775000  0.47595000  0.14142000  1.0
  N  N107  1  0.57224000  0.52405000  0.64142000  1.0
  O  O108  1  0.44517000  0.18946000  0.94847000  1.0
  O  O109  1  0.55483000  0.81054000  0.44848000  1.0
  O  O110  1  0.68947000  0.05482000  0.69848000  1.0
  O  O111  1  0.31053000  0.94518000  0.19848000  1.0
  O  O112  1  0.94518000  0.31053000  0.80152000  1.0
  O  O113  1  0.05482000  0.68947000  0.30152000  1.0
  O  O114  1  0.18946000  0.44517000  0.05152000  1.0
  O  O115  1  0.81054000  0.55483000  0.55152000  1.0
  O  O116  1  0.32320000  0.04997000  0.02421000  1.0
  O  O117  1  0.67680000  0.95003000  0.52421000  1.0
  O  O118  1  0.54998000  0.17679000  0.77422000  1.0
  O  O119  1  0.45002000  0.82321000  0.27422000  1.0
  O  O120  1  0.82321000  0.45002000  0.72578000  1.0
  O  O121  1  0.17679000  0.54998000  0.22578000  1.0
  O  O122  1  0.04997000  0.32320000  0.97579000  1.0
  O  O123  1  0.95003000  0.67680000  0.47579000  1.0
