# generated using pymatgen
data_CdH12C18(NO2)2
_symmetry_space_group_name_H-M   'P 1'
_cell_length_a   11.80780000
_cell_length_b   13.13360000
_cell_length_c   21.53080000
_cell_angle_alpha   89.99990000
_cell_angle_beta   90.00010000
_cell_angle_gamma   89.99990000
_symmetry_Int_Tables_number   1
_chemical_formula_structural   CdH12C18(NO2)2
_chemical_formula_sum   'Cd4 H48 C72 N8 O16'
_cell_volume   3338.97325550
_cell_formula_units_Z   4
loop_
 _symmetry_equiv_pos_site_id
 _symmetry_equiv_pos_as_xyz
  1  'x, y, z'
loop_
 _atom_site_type_symbol
 _atom_site_label
 _atom_site_symmetry_multiplicity
 _atom_site_fract_x
 _atom_site_fract_y
 _atom_site_fract_z
 _atom_site_occupancy
  Cd  Cd0  1  1.00000000  0.61342000  0.93949000  1.0
  Cd  Cd1  1  0.00000000  0.38658000  0.06050000  1.0
  Cd  Cd2  1  0.00001000  0.11341000  0.56050000  1.0
  Cd  Cd3  1  0.00001000  0.88658000  0.43950000  1.0
  H  H4  1  0.00000000  0.86723000  0.10667000  1.0
  H  H5  1  0.00000000  0.13277000  0.89333000  1.0
  H  H6  1  0.00000000  0.36723000  0.39333000  1.0
  H  H7  1  0.00000000  0.63277000  0.60667000  1.0
  H  H8  1  0.00000000  0.92541000  0.21796000  1.0
  H  H9  1  0.00000000  0.07459000  0.78203000  1.0
  H  H10  1  0.00000000  0.42541000  0.28204000  1.0
  H  H11  1  0.00000000  0.57459000  0.71796000  1.0
  H  H12  1  0.00000000  0.61466000  0.27904000  1.0
  H  H13  1  0.00000000  0.38534000  0.72096000  1.0
  H  H14  1  0.00000000  0.11466000  0.22096000  1.0
  H  H15  1  0.00000000  0.88534000  0.77904000  1.0
  H  H16  1  1.00000000  0.55545000  0.16909000  1.0
  H  H17  1  0.00000000  0.44455000  0.83091000  1.0
  H  H18  1  0.00000000  0.05545000  0.33091000  1.0
  H  H19  1  1.00000000  0.94455000  0.66909000  1.0
  H  H20  1  0.20537000  0.46948000  0.89112000  1.0
  H  H21  1  0.20537000  0.53052000  0.10888000  1.0
  H  H22  1  0.79463000  0.96948000  0.60888000  1.0
  H  H23  1  0.79463000  0.03052000  0.39112000  1.0
  H  H24  1  0.79463000  0.53052000  0.10888000  1.0
  H  H25  1  0.79463000  0.46948000  0.89112000  1.0
  H  H26  1  0.20537000  0.03052000  0.39112000  1.0
  H  H27  1  0.20537000  0.96948000  0.60888000  1.0
  H  H28  1  0.41500000  0.46384000  0.88656000  1.0
  H  H29  1  0.41500000  0.53616000  0.11344000  1.0
  H  H30  1  0.58500000  0.96383000  0.61344000  1.0
  H  H31  1  0.58500000  0.03616000  0.38656000  1.0
  H  H32  1  0.58500000  0.53616000  0.11344000  1.0
  H  H33  1  0.58500000  0.46383000  0.88656000  1.0
  H  H34  1  0.41500000  0.03616000  0.38656000  1.0
  H  H35  1  0.41500000  0.96383000  0.61344000  1.0
  H  H36  1  0.41660000  0.74807000  0.98905000  1.0
  H  H37  1  0.41660000  0.25193000  0.01095000  1.0
  H  H38  1  0.58339000  0.24807000  0.51095000  1.0
  H  H39  1  0.58339000  0.75193000  0.48905000  1.0
  H  H40  1  0.58339000  0.25193000  0.01095000  1.0
  H  H41  1  0.58339000  0.74807000  0.98905000  1.0
  H  H42  1  0.41660000  0.75193000  0.48905000  1.0
  H  H43  1  0.41660000  0.24807000  0.51095000  1.0
  H  H44  1  0.20686000  0.74035000  0.98881000  1.0
  H  H45  1  0.20686000  0.25965000  0.01119000  1.0
  H  H46  1  0.79314000  0.24035000  0.51119000  1.0
  H  H47  1  0.79314000  0.75965000  0.48881000  1.0
  H  H48  1  0.79314000  0.25965000  0.01119000  1.0
  H  H49  1  0.79314000  0.74035000  0.98881000  1.0
  H  H50  1  0.20686000  0.75965000  0.48881000  1.0
  H  H51  1  0.20686000  0.24035000  0.51119000  1.0
  C  C52  1  0.99999000  0.67225000  0.06478000  1.0
  C  C53  1  0.00000000  0.32775000  0.93522000  1.0
  C  C54  1  0.00001000  0.17225000  0.43522000  1.0
  C  C55  1  0.00001000  0.82775000  0.56478000  1.0
  C  C56  1  0.00000000  0.70779000  0.13079000  1.0
  C  C57  1  0.00000000  0.29221000  0.86920000  1.0
  C  C58  1  0.00001000  0.20779000  0.36920000  1.0
  C  C59  1  1.00000000  0.79221000  0.63080000  1.0
  C  C60  1  0.00000000  0.81238000  0.14469000  1.0
  C  C61  1  0.00000000  0.18762000  0.85531000  1.0
  C  C62  1  0.00000000  0.31238000  0.35531000  1.0
  C  C63  1  0.00000000  0.68762000  0.64469000  1.0
  C  C64  1  0.00000000  0.84464000  0.20631000  1.0
  C  C65  1  0.00000000  0.15537000  0.79369000  1.0
  C  C66  1  0.00000000  0.34463000  0.29369000  1.0
  C  C67  1  1.00000000  0.65537000  0.70631000  1.0
  C  C68  1  0.00000000  0.77319000  0.25486000  1.0
  C  C69  1  0.00000000  0.22681000  0.74514000  1.0
  C  C70  1  0.00001000  0.27319000  0.24514000  1.0
  C  C71  1  0.00001000  0.72681000  0.75486000  1.0
  C  C72  1  1.00000000  0.66912000  0.24083000  1.0
  C  C73  1  1.00000000  0.33088000  0.75917000  1.0
  C  C74  1  0.00001000  0.16912000  0.25917000  1.0
  C  C75  1  0.00000000  0.83088000  0.74083000  1.0
  C  C76  1  0.00000000  0.63655000  0.17933000  1.0
  C  C77  1  0.00000000  0.36345000  0.82067000  1.0
  C  C78  1  0.00001000  0.13655000  0.32067000  1.0
  C  C79  1  1.00000000  0.86345000  0.67933000  1.0
  C  C80  1  1.00000000  0.80721000  0.32142000  1.0
  C  C81  1  0.00001000  0.19280000  0.67858000  1.0
  C  C82  1  0.00001000  0.30721000  0.17858000  1.0
  C  C83  1  0.00001000  0.69279000  0.82142000  1.0
  C  C84  1  0.25642000  0.52938000  0.91240000  1.0
  C  C85  1  0.25642000  0.47062000  0.08760000  1.0
  C  C86  1  0.74358000  0.02938000  0.58760000  1.0
  C  C87  1  0.74358000  0.97062000  0.41240000  1.0
  C  C88  1  0.74358000  0.47062000  0.08760000  1.0
  C  C89  1  0.74358000  0.52938000  0.91240000  1.0
  C  C90  1  0.25642000  0.97062000  0.41240000  1.0
  C  C91  1  0.25642000  0.02938000  0.58760000  1.0
  C  C92  1  0.37409000  0.52724000  0.91014000  1.0
  C  C93  1  0.37409000  0.47276000  0.08986000  1.0
  C  C94  1  0.62591000  0.02724000  0.58986000  1.0
  C  C95  1  0.62591000  0.97276000  0.41014000  1.0
  C  C96  1  0.62591000  0.47276000  0.08986000  1.0
  C  C97  1  0.62591000  0.52724000  0.91014000  1.0
  C  C98  1  0.37409000  0.97276000  0.41014000  1.0
  C  C99  1  0.37409000  0.02724000  0.58986000  1.0
  C  C100  1  0.43721000  0.60564000  0.93803000  1.0
  C  C101  1  0.43721000  0.39436000  0.06197000  1.0
  C  C102  1  0.56279000  0.10564000  0.56197000  1.0
  C  C103  1  0.56279000  0.89436000  0.43803000  1.0
  C  C104  1  0.56279000  0.39436000  0.06197000  1.0
  C  C105  1  0.56279000  0.60564000  0.93803000  1.0
  C  C106  1  0.43721000  0.89436000  0.43803000  1.0
  C  C107  1  0.43721000  0.10564000  0.56197000  1.0
  C  C108  1  0.37503000  0.68394000  0.96661000  1.0
  C  C109  1  0.37503000  0.31606000  0.03339000  1.0
  C  C110  1  0.62496000  0.18394000  0.53339000  1.0
  C  C111  1  0.62496000  0.81606000  0.46661000  1.0
  C  C112  1  0.62496000  0.31606000  0.03339000  1.0
  C  C113  1  0.62496000  0.68394000  0.96661000  1.0
  C  C114  1  0.37503000  0.81606000  0.46661000  1.0
  C  C115  1  0.37503000  0.18394000  0.53339000  1.0
  C  C116  1  0.25744000  0.68066000  0.96691000  1.0
  C  C117  1  0.25744000  0.31934000  0.03309000  1.0
  C  C118  1  0.74255000  0.18066000  0.53308000  1.0
  C  C119  1  0.74255000  0.81934000  0.46692000  1.0
  C  C120  1  0.74256000  0.31934000  0.03308000  1.0
  C  C121  1  0.74255000  0.68066000  0.96692000  1.0
  C  C122  1  0.25744000  0.81934000  0.46692000  1.0
  C  C123  1  0.25744000  0.18066000  0.53308000  1.0
  N  N124  1  0.19887000  0.60436000  0.94064000  1.0
  N  N125  1  0.19887000  0.39564000  0.05936000  1.0
  N  N126  1  0.80113000  0.10435000  0.55935000  1.0
  N  N127  1  0.80113000  0.89565000  0.44065000  1.0
  N  N128  1  0.80113000  0.39564000  0.05936000  1.0
  N  N129  1  0.80113000  0.60435000  0.94065000  1.0
  N  N130  1  0.19887000  0.89565000  0.44065000  1.0
  N  N131  1  0.19887000  0.10435000  0.55935000  1.0
  O  O132  1  0.99999000  0.73800000  0.02125000  1.0
  O  O133  1  0.00000000  0.26200000  0.97875000  1.0
  O  O134  1  0.00001000  0.23800000  0.47875000  1.0
  O  O135  1  0.00001000  0.76200000  0.52124000  1.0
  O  O136  1  0.99999000  0.57621000  0.05283000  1.0
  O  O137  1  0.00000000  0.42379000  0.94717000  1.0
  O  O138  1  0.00001000  0.07621000  0.44717000  1.0
  O  O139  1  0.00001000  0.92379000  0.55283000  1.0
  O  O140  1  1.00000000  0.90363000  0.33178000  1.0
  O  O141  1  0.00001000  0.09637000  0.66821000  1.0
  O  O142  1  0.00001000  0.40363000  0.16822000  1.0
  O  O143  1  0.00001000  0.59637000  0.83178000  1.0
  O  O144  1  0.00000000  0.74177000  0.36471000  1.0
  O  O145  1  0.00001000  0.25824000  0.63529000  1.0
  O  O146  1  0.00001000  0.24177000  0.13529000  1.0
  O  O147  1  0.00000000  0.75823000  0.86471000  1.0
