# generated using pymatgen
data_CuH16C27(NO3)2
_symmetry_space_group_name_H-M   'P 1'
_cell_length_a   9.13030000
_cell_length_b   10.45160000
_cell_length_c   12.16490000
_cell_angle_alpha   94.38350000
_cell_angle_beta   93.14780000
_cell_angle_gamma   91.16240000
_symmetry_Int_Tables_number   1
_chemical_formula_structural   CuH16C27(NO3)2
_chemical_formula_sum   'Cu2 H32 C54 N4 O12'
_cell_volume   1155.35910620
_cell_formula_units_Z   2
loop_
 _symmetry_equiv_pos_site_id
 _symmetry_equiv_pos_as_xyz
  1  'x, y, z'
loop_
 _atom_site_type_symbol
 _atom_site_label
 _atom_site_symmetry_multiplicity
 _atom_site_fract_x
 _atom_site_fract_y
 _atom_site_fract_z
 _atom_site_occupancy
  Cu  Cu0  1  0.13496000  0.69282000  0.22317000  1.0
  Cu  Cu1  1  0.86504000  0.30718000  0.77683000  1.0
  H  H2  1  0.28722000  0.58080000  0.40450000  1.0
  H  H3  1  0.71278000  0.41920000  0.59550000  1.0
  H  H4  1  0.55579000  0.85358000  0.50489000  1.0
  H  H5  1  0.44421000  0.14642000  0.49511000  1.0
  H  H6  1  0.77528000  0.00288000  0.52563000  1.0
  H  H7  1  0.22472000  0.99712000  0.47437000  1.0
  H  H8  1  0.78733000  0.99372000  0.17201000  1.0
  H  H9  1  0.21268000  0.00628000  0.82799000  1.0
  H  H10  1  0.55772000  0.85699000  0.15218000  1.0
  H  H11  1  0.44228000  0.14301000  0.84782000  1.0
  H  H12  1  0.25716000  0.15864000  0.26141000  1.0
  H  H13  1  0.74284000  0.84136000  0.73859000  1.0
  H  H14  1  0.00270000  0.40011000  0.47706000  1.0
  H  H15  1  0.99730000  0.59989000  0.52294000  1.0
  H  H16  1  0.81007000  0.23002000  0.47117000  1.0
  H  H17  1  0.18993000  0.76997000  0.52883000  1.0
  H  H18  1  0.37974000  0.56656000  0.08558000  1.0
  H  H19  1  0.62026000  0.43344000  0.91442000  1.0
  H  H20  1  0.39643000  0.35301000  0.97485000  1.0
  H  H21  1  0.60357000  0.64698000  0.02515000  1.0
  H  H22  1  0.18264000  0.19683000  0.96630000  1.0
  H  H23  1  0.81736000  0.80317000  0.03370000  1.0
  H  H24  1  0.92598000  0.14738000  0.02566000  1.0
  H  H25  1  0.07402000  0.85262000  0.97434000  1.0
  H  H26  1  0.71401000  0.21534000  0.13425000  1.0
  H  H27  1  0.28599000  0.78466000  0.86575000  1.0
  H  H28  1  0.59801000  0.38465000  0.26661000  1.0
  H  H29  1  0.40199000  0.61535000  0.73339000  1.0
  H  H30  1  0.62454000  0.59765000  0.37032000  1.0
  H  H31  1  0.37546000  0.40235000  0.62968000  1.0
  H  H32  1  0.84858000  0.73769000  0.34944000  1.0
  H  H33  1  0.15142000  0.26231000  0.65056000  1.0
  C  C34  1  0.40992000  0.76172000  0.31722000  1.0
  C  C35  1  0.59008000  0.23828000  0.68278000  1.0
  C  C36  1  0.54403000  0.84677000  0.32741000  1.0
  C  C37  1  0.45596000  0.15323000  0.67259000  1.0
  C  C38  1  0.60623000  0.88669000  0.43269000  1.0
  C  C39  1  0.39377000  0.11331000  0.56731000  1.0
  C  C40  1  0.72892000  0.96866000  0.44400000  1.0
  C  C41  1  0.27108000  0.03134000  0.55600000  1.0
  C  C42  1  0.79615000  0.00661000  0.35035000  1.0
  C  C43  1  0.20385000  0.99338000  0.64965000  1.0
  C  C44  1  0.73564000  0.96357000  0.24484000  1.0
  C  C45  1  0.26436000  0.03643000  0.75516000  1.0
  C  C46  1  0.60874000  0.88677000  0.23350000  1.0
  C  C47  1  0.39126000  0.11323000  0.76650000  1.0
  C  C48  1  0.92235000  0.09791000  0.36197000  1.0
  C  C49  1  0.07765000  0.90209000  0.63803000  1.0
  C  C50  1  0.05063000  0.07670000  0.30421000  1.0
  C  C51  1  0.94937000  0.92330000  0.69579000  1.0
  C  C52  1  0.07536000  0.95041000  0.24010000  1.0
  C  C53  1  0.92464000  0.04959000  0.75991000  1.0
  C  C54  1  0.15888000  0.17336000  0.30739000  1.0
  C  C55  1  0.84112000  0.82664000  0.69261000  1.0
  C  C56  1  0.14214000  0.29058000  0.36869000  1.0
  C  C57  1  0.85786000  0.70942000  0.63131000  1.0
  C  C58  1  0.25465000  0.39501000  0.36405000  1.0
  C  C59  1  0.74535000  0.60499000  0.63595000  1.0
  C  C60  1  0.01717000  0.30945000  0.42941000  1.0
  C  C61  1  0.98283000  0.69055000  0.57059000  1.0
  C  C62  1  0.90896000  0.21380000  0.42628000  1.0
  C  C63  1  0.09104000  0.78620000  0.57372000  1.0
  C  C64  1  0.28929000  0.49620000  0.07772000  1.0
  C  C65  1  0.71071000  0.50380000  0.92228000  1.0
  C  C66  1  0.29731000  0.37657000  0.01727000  1.0
  C  C67  1  0.70270000  0.62342000  0.98274000  1.0
  C  C68  1  0.17962000  0.29019000  0.01251000  1.0
  C  C69  1  0.82038000  0.70980000  0.98749000  1.0
  C  C70  1  0.05296000  0.32337000  0.06899000  1.0
  C  C71  1  0.94704000  0.67663000  0.93100000  1.0
  C  C72  1  0.05422000  0.44618000  0.12674000  1.0
  C  C73  1  0.94578000  0.55382000  0.87326000  1.0
  C  C74  1  0.92637000  0.24068000  0.07211000  1.0
  C  C75  1  0.07364000  0.75932000  0.92790000  1.0
  C  C76  1  0.80947000  0.27915000  0.13109000  1.0
  C  C77  1  0.19053000  0.72085000  0.86891000  1.0
  C  C78  1  0.80923000  0.40192000  0.19201000  1.0
  C  C79  1  0.19077000  0.59808000  0.80799000  1.0
  C  C80  1  0.93189000  0.48577000  0.18795000  1.0
  C  C81  1  0.06812000  0.51423000  0.81205000  1.0
  C  C82  1  0.69553000  0.44471000  0.25899000  1.0
  C  C83  1  0.30447000  0.55529000  0.74101000  1.0
  C  C84  1  0.70956000  0.56401000  0.31663000  1.0
  C  C85  1  0.29044000  0.43599000  0.68337000  1.0
  C  C86  1  0.83439000  0.64267000  0.30616000  1.0
  C  C87  1  0.16561000  0.35733000  0.69384000  1.0
  N  N88  1  0.17018000  0.53021000  0.12999000  1.0
  N  N89  1  0.82982000  0.46979000  0.87001000  1.0
  N  N90  1  0.94235000  0.60409000  0.24301000  1.0
  N  N91  1  0.05765000  0.39591000  0.75699000  1.0
  O  O92  1  0.34012000  0.75047000  0.22151000  1.0
  O  O93  1  0.65987000  0.24953000  0.77849000  1.0
  O  O94  1  0.37334000  0.70744000  0.40125000  1.0
  O  O95  1  0.62666000  0.29257000  0.59875000  1.0
  O  O96  1  0.09093000  0.94558000  0.13887000  1.0
  O  O97  1  0.90907000  0.05441000  0.86113000  1.0
  O  O98  1  0.08083000  0.85325000  0.30125000  1.0
  O  O99  1  0.91917000  0.14675000  0.69875000  1.0
  O  O100  1  0.36901000  0.38107000  0.31536000  1.0
  O  O101  1  0.63099000  0.61893000  0.68464000  1.0
  O  O102  1  0.21543000  0.50589000  0.41519000  1.0
  O  O103  1  0.78457000  0.49411000  0.58481000  1.0
