# generated using pymatgen
data_InHC8O5F4
_symmetry_space_group_name_H-M   'P 1'
_cell_length_a   13.90590000
_cell_length_b   17.16760000
_cell_length_c   21.76230000
_cell_angle_alpha   89.99970000
_cell_angle_beta   90.00010000
_cell_angle_gamma   89.99990000
_symmetry_Int_Tables_number   1
_chemical_formula_structural   InHC8O5F4
_chemical_formula_sum   'In12 H12 C96 O60 F48'
_cell_volume   5195.33409261
_cell_formula_units_Z   12
loop_
 _symmetry_equiv_pos_site_id
 _symmetry_equiv_pos_as_xyz
  1  'x, y, z'
loop_
 _atom_site_type_symbol
 _atom_site_label
 _atom_site_symmetry_multiplicity
 _atom_site_fract_x
 _atom_site_fract_y
 _atom_site_fract_z
 _atom_site_occupancy
  In  In0  1  0.74999000  0.25082000  0.25000000  1.0
  In  In1  1  0.75000000  0.24918000  0.75000000  1.0
  In  In2  1  0.25001000  0.74918000  0.75000000  1.0
  In  In3  1  0.25001000  0.75082000  0.25000000  1.0
  In  In4  1  0.75132000  0.24911000  0.08372000  1.0
  In  In5  1  0.75133000  0.25089000  0.91628000  1.0
  In  In6  1  0.74868000  0.24910000  0.41628000  1.0
  In  In7  1  0.74868000  0.25089000  0.58371000  1.0
  In  In8  1  0.24868000  0.75090000  0.91628000  1.0
  In  In9  1  0.24868000  0.74911000  0.08372000  1.0
  In  In10  1  0.25133000  0.75089000  0.58371000  1.0
  In  In11  1  0.25132000  0.74911000  0.41629000  1.0
  H  H12  1  0.87570000  0.29871000  0.16734000  1.0
  H  H13  1  0.87570000  0.20129000  0.83266000  1.0
  H  H14  1  0.62430000  0.29871000  0.33267000  1.0
  H  H15  1  0.62430000  0.20128000  0.66733000  1.0
  H  H16  1  0.12430000  0.70129000  0.83266000  1.0
  H  H17  1  0.12430000  0.79871000  0.16734000  1.0
  H  H18  1  0.37570000  0.70128000  0.66733000  1.0
  H  H19  1  0.37570000  0.79872000  0.33267000  1.0
  H  H20  1  0.60572000  0.24999000  0.00000000  1.0
  H  H21  1  0.89429000  0.25001000  0.50000000  1.0
  H  H22  1  0.39428000  0.74999000  0.00000000  1.0
  H  H23  1  0.10571000  0.75001000  0.50000000  1.0
  C  C24  1  0.61435000  0.35638000  0.16792000  1.0
  C  C25  1  0.61434000  0.14362000  0.83208000  1.0
  C  C26  1  0.88566000  0.35638000  0.33208000  1.0
  C  C27  1  0.88566000  0.14362000  0.66792000  1.0
  C  C28  1  0.38566000  0.64362000  0.83208000  1.0
  C  C29  1  0.38566000  0.85638000  0.16792000  1.0
  C  C30  1  0.11435000  0.64362000  0.66792000  1.0
  C  C31  1  0.11434000  0.85638000  0.33208000  1.0
  C  C32  1  0.54473000  0.42328000  0.16513000  1.0
  C  C33  1  0.54473000  0.07672000  0.83487000  1.0
  C  C34  1  0.95527000  0.42328000  0.33488000  1.0
  C  C35  1  0.95527000  0.07673000  0.66513000  1.0
  C  C36  1  0.45527000  0.57673000  0.83487000  1.0
  C  C37  1  0.45527000  0.92328000  0.16513000  1.0
  C  C38  1  0.04473000  0.57673000  0.66512000  1.0
  C  C39  1  0.04473000  0.92327000  0.33488000  1.0
  C  C40  1  0.47923000  0.43658000  0.21286000  1.0
  C  C41  1  0.47923000  0.06342000  0.78714000  1.0
  C  C42  1  0.02076000  0.43658000  0.28714000  1.0
  C  C43  1  0.02077000  0.06342000  0.71286000  1.0
  C  C44  1  0.52076000  0.56342000  0.78714000  1.0
  C  C45  1  0.52077000  0.93658000  0.21286000  1.0
  C  C46  1  0.97923000  0.56342000  0.71286000  1.0
  C  C47  1  0.97923000  0.93658000  0.28714000  1.0
  C  C48  1  0.41842000  0.50104000  0.21257000  1.0
  C  C49  1  0.41842000  0.99896000  0.78743000  1.0
  C  C50  1  0.08158000  0.50104000  0.28742000  1.0
  C  C51  1  0.08158000  0.99896000  0.71257000  1.0
  C  C52  1  0.58158000  0.49896000  0.78742000  1.0
  C  C53  1  0.58158000  0.00104000  0.21257000  1.0
  C  C54  1  0.91842000  0.49896000  0.71257000  1.0
  C  C55  1  0.91842000  0.00104000  0.28743000  1.0
  C  C56  1  0.42018000  0.55475000  0.16410000  1.0
  C  C57  1  0.42018000  0.94525000  0.83590000  1.0
  C  C58  1  0.07982000  0.55475000  0.33590000  1.0
  C  C59  1  0.07982000  0.94525000  0.66410000  1.0
  C  C60  1  0.57982000  0.44525000  0.83590000  1.0
  C  C61  1  0.57982000  0.05475000  0.16410000  1.0
  C  C62  1  0.92018000  0.44525000  0.66410000  1.0
  C  C63  1  0.92018000  0.05475000  0.33590000  1.0
  C  C64  1  0.48502000  0.54107000  0.11600000  1.0
  C  C65  1  0.48502000  0.95893000  0.88400000  1.0
  C  C66  1  0.01498000  0.54107000  0.38400000  1.0
  C  C67  1  0.01498000  0.95893000  0.61600000  1.0
  C  C68  1  0.51498000  0.45893000  0.88400000  1.0
  C  C69  1  0.51498000  0.04107000  0.11600000  1.0
  C  C70  1  0.98502000  0.45893000  0.61600000  1.0
  C  C71  1  0.98502000  0.04107000  0.38400000  1.0
  C  C72  1  0.54609000  0.47662000  0.11647000  1.0
  C  C73  1  0.54609000  0.02338000  0.88353000  1.0
  C  C74  1  0.95391000  0.47662000  0.38354000  1.0
  C  C75  1  0.95390000  0.02338000  0.61647000  1.0
  C  C76  1  0.45391000  0.52338000  0.88353000  1.0
  C  C77  1  0.45391000  0.97662000  0.11647000  1.0
  C  C78  1  0.04609000  0.52338000  0.61647000  1.0
  C  C79  1  0.04609000  0.97662000  0.38354000  1.0
  C  C80  1  0.35530000  0.62465000  0.16381000  1.0
  C  C81  1  0.35529000  0.87535000  0.83619000  1.0
  C  C82  1  0.14470000  0.62465000  0.33619000  1.0
  C  C83  1  0.14470000  0.87535000  0.66381000  1.0
  C  C84  1  0.64471000  0.37535000  0.83619000  1.0
  C  C85  1  0.64471000  0.12465000  0.16381000  1.0
  C  C86  1  0.85530000  0.37535000  0.66381000  1.0
  C  C87  1  0.85530000  0.12465000  0.33619000  1.0
  C  C88  1  0.87042000  0.13393000  0.99420000  1.0
  C  C89  1  0.87042000  0.36607000  0.00580000  1.0
  C  C90  1  0.62958000  0.13393000  0.50580000  1.0
  C  C91  1  0.62959000  0.36607000  0.49420000  1.0
  C  C92  1  0.12958000  0.86607000  0.00580000  1.0
  C  C93  1  0.12959000  0.63393000  0.99420000  1.0
  C  C94  1  0.37041000  0.86607000  0.49421000  1.0
  C  C95  1  0.37041000  0.63393000  0.50580000  1.0
  C  C96  1  0.93691000  0.06507000  0.99714000  1.0
  C  C97  1  0.93692000  0.43493000  0.00286000  1.0
  C  C98  1  0.56309000  0.06507000  0.50286000  1.0
  C  C99  1  0.56309000  0.43493000  0.49715000  1.0
  C  C100  1  0.06308000  0.93493000  0.00286000  1.0
  C  C101  1  0.06309000  0.56507000  0.99714000  1.0
  C  C102  1  0.43691000  0.93493000  0.49714000  1.0
  C  C103  1  0.43692000  0.56507000  0.50286000  1.0
  C  C104  1  0.93705000  0.01509000  0.04801000  1.0
  C  C105  1  0.93705000  0.48491000  0.95199000  1.0
  C  C106  1  0.56295000  0.01509000  0.45199000  1.0
  C  C107  1  0.56295000  0.48491000  0.54802000  1.0
  C  C108  1  0.06295000  0.98491000  0.95199000  1.0
  C  C109  1  0.06295000  0.51509000  0.04801000  1.0
  C  C110  1  0.43705000  0.98491000  0.54801000  1.0
  C  C111  1  0.43705000  0.51509000  0.45199000  1.0
  C  C112  1  0.99897000  0.95136000  0.05073000  1.0
  C  C113  1  0.99898000  0.54864000  0.94927000  1.0
  C  C114  1  0.50102000  0.95135000  0.44927000  1.0
  C  C115  1  0.50102000  0.54865000  0.55073000  1.0
  C  C116  1  0.00102000  0.04864000  0.94927000  1.0
  C  C117  1  0.00102000  0.45136000  0.05074000  1.0
  C  C118  1  0.49898000  0.04864000  0.55073000  1.0
  C  C119  1  0.49898000  0.45136000  0.44927000  1.0
  O  O120  1  0.65446000  0.34602000  0.21968000  1.0
  O  O121  1  0.65446000  0.15398000  0.78031000  1.0
  O  O122  1  0.84554000  0.34602000  0.28032000  1.0
  O  O123  1  0.84554000  0.15398000  0.71968000  1.0
  O  O124  1  0.34554000  0.65398000  0.78031000  1.0
  O  O125  1  0.34554000  0.84602000  0.21968000  1.0
  O  O126  1  0.15446000  0.65397000  0.71968000  1.0
  O  O127  1  0.15446000  0.84602000  0.28032000  1.0
  O  O128  1  0.62696000  0.31751000  0.11903000  1.0
  O  O129  1  0.62695000  0.18249000  0.88097000  1.0
  O  O130  1  0.87305000  0.31751000  0.38097000  1.0
  O  O131  1  0.87305000  0.18249000  0.61903000  1.0
  O  O132  1  0.37304000  0.68249000  0.88097000  1.0
  O  O133  1  0.37304000  0.81752000  0.11903000  1.0
  O  O134  1  0.12695000  0.68248000  0.61903000  1.0
  O  O135  1  0.12695000  0.81751000  0.38097000  1.0
  O  O136  1  0.34664000  0.66064000  0.21443000  1.0
  O  O137  1  0.34664000  0.83936000  0.78556000  1.0
  O  O138  1  0.15336000  0.66064000  0.28556000  1.0
  O  O139  1  0.15336000  0.83936000  0.71444000  1.0
  O  O140  1  0.65336000  0.33936000  0.78556000  1.0
  O  O141  1  0.65337000  0.16064000  0.21443000  1.0
  O  O142  1  0.84664000  0.33936000  0.71444000  1.0
  O  O143  1  0.84664000  0.16064000  0.28556000  1.0
  O  O144  1  0.31644000  0.64086000  0.11266000  1.0
  O  O145  1  0.31644000  0.85915000  0.88734000  1.0
  O  O146  1  0.18355000  0.64086000  0.38735000  1.0
  O  O147  1  0.18355000  0.85914000  0.61265000  1.0
  O  O148  1  0.68356000  0.35914000  0.88734000  1.0
  O  O149  1  0.68355000  0.14086000  0.11265000  1.0
  O  O150  1  0.81645000  0.35914000  0.61265000  1.0
  O  O151  1  0.81645000  0.14086000  0.38734000  1.0
  O  O152  1  0.86383000  0.17474000  0.04247000  1.0
  O  O153  1  0.86383000  0.32527000  0.95754000  1.0
  O  O154  1  0.63617000  0.17473000  0.45753000  1.0
  O  O155  1  0.63617000  0.32527000  0.54247000  1.0
  O  O156  1  0.13617000  0.82527000  0.95753000  1.0
  O  O157  1  0.13617000  0.67473000  0.04247000  1.0
  O  O158  1  0.36383000  0.82527000  0.54247000  1.0
  O  O159  1  0.36383000  0.67473000  0.45753000  1.0
  O  O160  1  0.82814000  0.14463000  0.94304000  1.0
  O  O161  1  0.82814000  0.35537000  0.05696000  1.0
  O  O162  1  0.67186000  0.14463000  0.55696000  1.0
  O  O163  1  0.67186000  0.35537000  0.44304000  1.0
  O  O164  1  0.17186000  0.85537000  0.05696000  1.0
  O  O165  1  0.17187000  0.64463000  0.94304000  1.0
  O  O166  1  0.32814000  0.85537000  0.44304000  1.0
  O  O167  1  0.32814000  0.64463000  0.55696000  1.0
  O  O168  1  0.83053000  0.25526000  0.16695000  1.0
  O  O169  1  0.83053000  0.24475000  0.83305000  1.0
  O  O170  1  0.66946000  0.25525000  0.33305000  1.0
  O  O171  1  0.66946000  0.24475000  0.66695000  1.0
  O  O172  1  0.16947000  0.74475000  0.83305000  1.0
  O  O173  1  0.16946000  0.75525000  0.16695000  1.0
  O  O174  1  0.33054000  0.74475000  0.66695000  1.0
  O  O175  1  0.33054000  0.75525000  0.33305000  1.0
  O  O176  1  0.67548000  0.25001000  0.00000000  1.0
  O  O177  1  0.82453000  0.24999000  0.50000000  1.0
  O  O178  1  0.32453000  0.75001000  0.00000000  1.0
  O  O179  1  0.17547000  0.74999000  0.50000000  1.0
  F  F180  1  0.47200000  0.38584000  0.26005000  1.0
  F  F181  1  0.47200000  0.11416000  0.73995000  1.0
  F  F182  1  0.02800000  0.38584000  0.23995000  1.0
  F  F183  1  0.02800000  0.11416000  0.76005000  1.0
  F  F184  1  0.52800000  0.61416000  0.73995000  1.0
  F  F185  1  0.52801000  0.88584000  0.26005000  1.0
  F  F186  1  0.97200000  0.61416000  0.76005000  1.0
  F  F187  1  0.97200000  0.88584000  0.23995000  1.0
  F  F188  1  0.35608000  0.50940000  0.25943000  1.0
  F  F189  1  0.35608000  0.99060000  0.74057000  1.0
  F  F190  1  0.14391000  0.50941000  0.24056000  1.0
  F  F191  1  0.14392000  0.99060000  0.75943000  1.0
  F  F192  1  0.64391000  0.49059000  0.74057000  1.0
  F  F193  1  0.64392000  0.00941000  0.25943000  1.0
  F  F194  1  0.85609000  0.49059000  0.75943000  1.0
  F  F195  1  0.85608000  0.00940000  0.24057000  1.0
  F  F196  1  0.49289000  0.59181000  0.06888000  1.0
  F  F197  1  0.49288000  0.90819000  0.93111000  1.0
  F  F198  1  0.00711000  0.59182000  0.43111000  1.0
  F  F199  1  0.00711000  0.90818000  0.56889000  1.0
  F  F200  1  0.50711000  0.40819000  0.93111000  1.0
  F  F201  1  0.50712000  0.09182000  0.06889000  1.0
  F  F202  1  0.99289000  0.40819000  0.56889000  1.0
  F  F203  1  0.99288000  0.09181000  0.43111000  1.0
  F  F204  1  0.60951000  0.46866000  0.06999000  1.0
  F  F205  1  0.60951000  0.03133000  0.93001000  1.0
  F  F206  1  0.89049000  0.46867000  0.43001000  1.0
  F  F207  1  0.89048000  0.03134000  0.56999000  1.0
  F  F208  1  0.39049000  0.53133000  0.93001000  1.0
  F  F209  1  0.39049000  0.96867000  0.06999000  1.0
  F  F210  1  0.10951000  0.53134000  0.56999000  1.0
  F  F211  1  0.10951000  0.96866000  0.43001000  1.0
  F  F212  1  0.87506000  0.02604000  0.09480000  1.0
  F  F213  1  0.87506000  0.47396000  0.90520000  1.0
  F  F214  1  0.62494000  0.02604000  0.40520000  1.0
  F  F215  1  0.62494000  0.47396000  0.59480000  1.0
  F  F216  1  0.12494000  0.97396000  0.90520000  1.0
  F  F217  1  0.12494000  0.52604000  0.09480000  1.0
  F  F218  1  0.37506000  0.97396000  0.59480000  1.0
  F  F219  1  0.37506000  0.52604000  0.40520000  1.0
  F  F220  1  0.99345000  0.90405000  0.10022000  1.0
  F  F221  1  0.99345000  0.59595000  0.89978000  1.0
  F  F222  1  0.50655000  0.90405000  0.39978000  1.0
  F  F223  1  0.50655000  0.59595000  0.60022000  1.0
  F  F224  1  0.00655000  0.09595000  0.89978000  1.0
  F  F225  1  0.00655000  0.40405000  0.10022000  1.0
  F  F226  1  0.49345000  0.09595000  0.60022000  1.0
  F  F227  1  0.49344000  0.40405000  0.39978000  1.0
