# generated using pymatgen
data_Ag2H6C5(NO3)2
_symmetry_space_group_name_H-M   'P 1'
_cell_length_a   8.20274000
_cell_length_b   10.17320000
_cell_length_c   12.85120000
_cell_angle_alpha   108.97100000
_cell_angle_beta   90.00100000
_cell_angle_gamma   113.76700000
_symmetry_Int_Tables_number   1
_chemical_formula_structural   Ag2H6C5(NO3)2
_chemical_formula_sum   'Ag8 H24 C20 N8 O24'
_cell_volume   917.45056885
_cell_formula_units_Z   4
loop_
 _symmetry_equiv_pos_site_id
 _symmetry_equiv_pos_as_xyz
  1  'x, y, z'
loop_
 _atom_site_type_symbol
 _atom_site_label
 _atom_site_symmetry_multiplicity
 _atom_site_fract_x
 _atom_site_fract_y
 _atom_site_fract_z
 _atom_site_occupancy
  Ag  Ag0  1  0.93678000  0.11534000  0.19617000  1.0
  Ag  Ag1  1  0.82143000  0.88486000  0.30381000  1.0
  Ag  Ag2  1  0.06322000  0.88467000  0.80383000  1.0
  Ag  Ag3  1  0.17856000  0.11514000  0.69619000  1.0
  Ag  Ag4  1  0.40356000  0.40889000  0.66967000  1.0
  Ag  Ag5  1  0.99487000  0.59107000  0.83039000  1.0
  Ag  Ag6  1  0.59644000  0.59111000  0.33033000  1.0
  Ag  Ag7  1  0.00513000  0.40893000  0.16961000  1.0
  H  H8  1  0.62434000  0.23858000  0.29139000  1.0
  H  H9  1  0.38581000  0.76170000  0.20883000  1.0
  H  H10  1  0.37567000  0.76142000  0.70861000  1.0
  H  H11  1  0.61418000  0.23830000  0.79117000  1.0
  H  H12  1  0.70944000  0.97234000  0.00124000  1.0
  H  H13  1  0.73712000  0.02750000  0.49881000  1.0
  H  H14  1  0.29056000  0.02767000  0.99876000  1.0
  H  H15  1  0.26286000  0.97249000  0.50118000  1.0
  H  H16  1  0.61793000  0.05829000  0.10177000  1.0
  H  H17  1  0.55974000  0.94197000  0.39830000  1.0
  H  H18  1  0.38208000  0.94172000  0.89823000  1.0
  H  H19  1  0.44025000  0.05803000  0.60169000  1.0
  H  H20  1  0.43200000  0.55685000  0.88798000  1.0
  H  H21  1  0.87531000  0.44311000  0.61210000  1.0
  H  H22  1  0.56800000  0.44316000  0.11202000  1.0
  H  H23  1  0.12470000  0.55689000  0.38790000  1.0
  H  H24  1  0.53577000  0.44601000  0.86716000  1.0
  H  H25  1  0.08982000  0.55406000  0.63277000  1.0
  H  H26  1  0.46423000  0.55399000  0.13284000  1.0
  H  H27  1  0.91018000  0.44594000  0.36723000  1.0
  H  H28  1  0.03389000  0.27174000  0.47726000  1.0
  H  H29  1  0.76223000  0.72835000  0.02276000  1.0
  H  H30  1  0.96612000  0.72827000  0.52274000  1.0
  H  H31  1  0.23777000  0.27165000  0.97723000  1.0
  C  C32  1  0.36058000  0.15675000  0.20166000  1.0
  C  C33  1  0.20400000  0.84372000  0.29840000  1.0
  C  C34  1  0.63942000  0.84326000  0.79834000  1.0
  C  C35  1  0.79599000  0.15627000  0.70160000  1.0
  C  C36  1  0.31790000  0.21979000  0.31374000  1.0
  C  C37  1  0.09822000  0.78050000  0.18634000  1.0
  C  C38  1  0.68211000  0.78022000  0.68627000  1.0
  C  C39  1  0.90177000  0.21950000  0.81366000  1.0
  C  C40  1  0.42055000  0.28338000  0.41999000  1.0
  C  C41  1  0.13720000  0.71666000  0.08012000  1.0
  C  C42  1  0.57945000  0.71662000  0.58002000  1.0
  C  C43  1  0.86280000  0.28334000  0.91988000  1.0
  C  C44  1  0.61068000  0.32646000  0.45537000  1.0
  C  C45  1  0.28414000  0.67341000  0.04481000  1.0
  C  C46  1  0.38933000  0.67353000  0.54464000  1.0
  C  C47  1  0.71586000  0.32659000  0.95519000  1.0
  C  C48  1  0.15006000  0.26588000  0.43916000  1.0
  C  C49  1  0.88427000  0.73426000  0.06088000  1.0
  C  C50  1  0.84995000  0.73412000  0.56085000  1.0
  C  C51  1  0.11572000  0.26575000  0.93911000  1.0
  N  N52  1  0.14897000  0.21139000  0.32838000  1.0
  N  N53  1  0.93776000  0.78898000  0.17166000  1.0
  N  N54  1  0.85104000  0.78862000  0.67162000  1.0
  N  N55  1  0.06223000  0.21102000  0.82834000  1.0
  N  N56  1  0.31105000  0.31094000  0.49742000  1.0
  N  N57  1  0.00015000  0.68903000  0.00267000  1.0
  N  N58  1  0.68895000  0.68906000  0.50259000  1.0
  N  N59  1  0.99985000  0.31098000  0.99733000  1.0
  O  O60  1  0.23950000  0.09312000  0.11854000  1.0
  O  O61  1  0.14654000  0.90738000  0.38150000  1.0
  O  O62  1  0.76051000  0.90689000  0.88146000  1.0
  O  O63  1  0.85344000  0.09259000  0.61850000  1.0
  O  O64  1  0.52315000  0.16732000  0.19536000  1.0
  O  O65  1  0.35606000  0.83324000  0.30472000  1.0
  O  O66  1  0.47686000  0.83269000  0.80464000  1.0
  O  O67  1  0.64393000  0.16676000  0.69528000  1.0
  O  O68  1  0.67494000  0.38695000  0.55626000  1.0
  O  O69  1  0.28783000  0.61271000  0.94392000  1.0
  O  O70  1  0.32506000  0.61304000  0.44374000  1.0
  O  O71  1  0.71217000  0.38729000  0.05608000  1.0
  O  O72  1  0.71021000  0.30272000  0.37713000  1.0
  O  O73  1  0.40743000  0.69725000  0.12308000  1.0
  O  O74  1  0.28980000  0.69728000  0.62287000  1.0
  O  O75  1  0.59256000  0.30275000  0.87692000  1.0
  O  O76  1  0.69307000  0.00081000  0.08247000  1.0
  O  O77  1  0.69234000  0.99931000  0.41762000  1.0
  O  O78  1  0.30694000  0.99919000  0.91753000  1.0
  O  O79  1  0.30764000  0.00068000  0.58237000  1.0
  O  O80  1  0.51699000  0.52192000  0.84205000  1.0
  O  O81  1  0.99532000  0.47818000  0.65797000  1.0
  O  O82  1  0.48301000  0.47808000  0.15795000  1.0
  O  O83  1  0.00469000  0.52181000  0.34203000  1.0
