# generated using pymatgen
data_CuH3C2NO4
_symmetry_space_group_name_H-M   'P 1'
_cell_length_a   8.52233000
_cell_length_b   9.62520000
_cell_length_c   10.79160000
_cell_angle_alpha   89.99970000
_cell_angle_beta   90.00000000
_cell_angle_gamma   89.99980000
_symmetry_Int_Tables_number   1
_chemical_formula_structural   CuH3C2NO4
_chemical_formula_sum   'Cu8 H24 C16 N8 O32'
_cell_volume   885.22556702
_cell_formula_units_Z   8
loop_
 _symmetry_equiv_pos_site_id
 _symmetry_equiv_pos_as_xyz
  1  'x, y, z'
loop_
 _atom_site_type_symbol
 _atom_site_label
 _atom_site_symmetry_multiplicity
 _atom_site_fract_x
 _atom_site_fract_y
 _atom_site_fract_z
 _atom_site_occupancy
  Cu  Cu0  1  0.11780000  0.76148000  0.07827000  1.0
  Cu  Cu1  1  0.61781000  0.23852000  0.42173000  1.0
  Cu  Cu2  1  0.88220000  0.73853000  0.57827000  1.0
  Cu  Cu3  1  0.38220000  0.26148000  0.92172000  1.0
  Cu  Cu4  1  0.88220000  0.23851000  0.92172000  1.0
  Cu  Cu5  1  0.38220000  0.76148000  0.57828000  1.0
  Cu  Cu6  1  0.11781000  0.26150000  0.42172000  1.0
  Cu  Cu7  1  0.61780000  0.73851000  0.07827000  1.0
  H  H8  1  0.27854000  0.77385000  0.27291000  1.0
  H  H9  1  0.77854000  0.22614000  0.22709000  1.0
  H  H10  1  0.72146000  0.72614000  0.77290000  1.0
  H  H11  1  0.22145000  0.27386000  0.72709000  1.0
  H  H12  1  0.72146000  0.22614000  0.72709000  1.0
  H  H13  1  0.22146000  0.77385000  0.77291000  1.0
  H  H14  1  0.27855000  0.27386000  0.22708000  1.0
  H  H15  1  0.77853000  0.72615000  0.27291000  1.0
  H  H16  1  0.10714000  0.70051000  0.30600000  1.0
  H  H17  1  0.60712000  0.29950000  0.19400000  1.0
  H  H18  1  0.89287000  0.79949000  0.80600000  1.0
  H  H19  1  0.39288000  0.20050000  0.69399000  1.0
  H  H20  1  0.89288000  0.29950000  0.69400000  1.0
  H  H21  1  0.39286000  0.70050000  0.80600000  1.0
  H  H22  1  0.10712000  0.20051000  0.19399000  1.0
  H  H23  1  0.60714000  0.79949000  0.30599000  1.0
  H  H24  1  0.24885000  0.60915000  0.24028000  1.0
  H  H25  1  0.74886000  0.39085000  0.25972000  1.0
  H  H26  1  0.75114000  0.89085000  0.74028000  1.0
  H  H27  1  0.25114000  0.10914000  0.75972000  1.0
  H  H28  1  0.75114000  0.39085000  0.75972000  1.0
  H  H29  1  0.25114000  0.60916000  0.74028000  1.0
  H  H30  1  0.24885000  0.10915000  0.25972000  1.0
  H  H31  1  0.74884000  0.89083000  0.24028000  1.0
  C  C32  1  0.91390000  0.51282000  0.02124000  1.0
  C  C33  1  0.41390000  0.48718000  0.47876000  1.0
  C  C34  1  0.08610000  0.98719000  0.52125000  1.0
  C  C35  1  0.58611000  0.01282000  0.97876000  1.0
  C  C36  1  0.08610000  0.48718000  0.97875000  1.0
  C  C37  1  0.58610000  0.51282000  0.52125000  1.0
  C  C38  1  0.91390000  0.01283000  0.47876000  1.0
  C  C39  1  0.41390000  0.98717000  0.02124000  1.0
  C  C40  1  0.01450000  0.97784000  0.93302000  1.0
  C  C41  1  0.51452000  0.02216000  0.56698000  1.0
  C  C42  1  0.98550000  0.52217000  0.43302000  1.0
  C  C43  1  0.48548000  0.47784000  0.06698000  1.0
  C  C44  1  0.98550000  0.02216000  0.06698000  1.0
  C  C45  1  0.48550000  0.97784000  0.43302000  1.0
  C  C46  1  0.01450000  0.47785000  0.56698000  1.0
  C  C47  1  0.51450000  0.52215000  0.93302000  1.0
  N  N48  1  0.19607000  0.70441000  0.24210000  1.0
  N  N49  1  0.69606000  0.29558000  0.25792000  1.0
  N  N50  1  0.80394000  0.79559000  0.74208000  1.0
  N  N51  1  0.30394000  0.20441000  0.75792000  1.0
  N  N52  1  0.80394000  0.29559000  0.75791000  1.0
  N  N53  1  0.30393000  0.70441000  0.74210000  1.0
  N  N54  1  0.19606000  0.20442000  0.25792000  1.0
  N  N55  1  0.69607000  0.79558000  0.24210000  1.0
  O  O56  1  0.06888000  0.85597000  0.91578000  1.0
  O  O57  1  0.56891000  0.14402000  0.58422000  1.0
  O  O58  1  0.93111000  0.64404000  0.41578000  1.0
  O  O59  1  0.43110000  0.35598000  0.08421000  1.0
  O  O60  1  0.93111000  0.14402000  0.08422000  1.0
  O  O61  1  0.43111000  0.85598000  0.41579000  1.0
  O  O62  1  0.06889000  0.35599000  0.58421000  1.0
  O  O63  1  0.56890000  0.64401000  0.91578000  1.0
  O  O64  1  0.88198000  0.62813000  0.06930000  1.0
  O  O65  1  0.38198000  0.37187000  0.43071000  1.0
  O  O66  1  0.11802000  0.87188000  0.56931000  1.0
  O  O67  1  0.61803000  0.12813000  0.93070000  1.0
  O  O68  1  0.11802000  0.37187000  0.93069000  1.0
  O  O69  1  0.61802000  0.62813000  0.56931000  1.0
  O  O70  1  0.88198000  0.12814000  0.43070000  1.0
  O  O71  1  0.38198000  0.87186000  0.06930000  1.0
  O  O72  1  0.98073000  0.06280000  0.84786000  1.0
  O  O73  1  0.48076000  0.93719000  0.65215000  1.0
  O  O74  1  0.01927000  0.43722000  0.34785000  1.0
  O  O75  1  0.51924000  0.56281000  0.15214000  1.0
  O  O76  1  0.01927000  0.93720000  0.15214000  1.0
  O  O77  1  0.51927000  0.06280000  0.34786000  1.0
  O  O78  1  0.98073000  0.56280000  0.65215000  1.0
  O  O79  1  0.48074000  0.43719000  0.84785000  1.0
  O  O80  1  0.81471000  0.41456000  0.00448000  1.0
  O  O81  1  0.31472000  0.58544000  0.49553000  1.0
  O  O82  1  0.18530000  0.08545000  0.50449000  1.0
  O  O83  1  0.68529000  0.91455000  0.99552000  1.0
  O  O84  1  0.18529000  0.58544000  0.99552000  1.0
  O  O85  1  0.68529000  0.41455000  0.50448000  1.0
  O  O86  1  0.81471000  0.91456000  0.49551000  1.0
  O  O87  1  0.31471000  0.08544000  0.00448000  1.0
