# generated using pymatgen
data_Cu2H7C10SBrN2
_symmetry_space_group_name_H-M   'P 1'
_cell_length_a   8.09744000
_cell_length_b   9.34834000
_cell_length_c   14.65000000
_cell_angle_alpha   89.31720000
_cell_angle_beta   77.58610000
_cell_angle_gamma   86.96990000
_symmetry_Int_Tables_number   1
_chemical_formula_structural   Cu2H7C10SBrN2
_chemical_formula_sum   'Cu8 H28 C40 S4 Br4 N8'
_cell_volume   1081.52824183
_cell_formula_units_Z   4
loop_
 _symmetry_equiv_pos_site_id
 _symmetry_equiv_pos_as_xyz
  1  'x, y, z'
loop_
 _atom_site_type_symbol
 _atom_site_label
 _atom_site_symmetry_multiplicity
 _atom_site_fract_x
 _atom_site_fract_y
 _atom_site_fract_z
 _atom_site_occupancy
  Cu  Cu0  1  0.96376000  0.58579000  0.44186000  1.0
  Cu  Cu1  1  0.03624000  0.41421000  0.55815000  1.0
  Cu  Cu2  1  0.29096000  0.30174000  0.43441000  1.0
  Cu  Cu3  1  0.70904000  0.69826000  0.56559000  1.0
  Cu  Cu4  1  0.99263000  0.18216000  0.40176000  1.0
  Cu  Cu5  1  0.00737000  0.81785000  0.59824000  1.0
  Cu  Cu6  1  0.68037000  0.09035000  0.48329000  1.0
  Cu  Cu7  1  0.31962000  0.90965000  0.51670000  1.0
  H  H8  1  0.58376000  0.85619000  0.34482000  1.0
  H  H9  1  0.41625000  0.14381000  0.65518000  1.0
  H  H10  1  0.57570000  0.39767000  0.30648000  1.0
  H  H11  1  0.42431000  0.60233000  0.69352000  1.0
  H  H12  1  0.68247000  0.85993000  0.19911000  1.0
  H  H13  1  0.31753000  0.14007000  0.80088000  1.0
  H  H14  1  0.91555000  0.87633000  0.06006000  1.0
  H  H15  1  0.08446000  0.12367000  0.93994000  1.0
  H  H16  1  0.11048000  0.66428000  0.00766000  1.0
  H  H17  1  0.88952000  0.33571000  0.99234000  1.0
  H  H18  1  0.07163000  0.43588000  0.09732000  1.0
  H  H19  1  0.92837000  0.56412000  0.90268000  1.0
  H  H20  1  0.84034000  0.41808000  0.23591000  1.0
  H  H21  1  0.15966000  0.58192000  0.76409000  1.0
  H  H22  1  0.81227000  0.38566000  0.75059000  1.0
  H  H23  1  0.18772000  0.61434000  0.24941000  1.0
  H  H24  1  0.82724000  0.92350000  0.78388000  1.0
  H  H25  1  0.17277000  0.07650000  0.21612000  1.0
  H  H26  1  0.55694000  0.36492000  0.84925000  1.0
  H  H27  1  0.44306000  0.63508000  0.15075000  1.0
  H  H28  1  0.39335000  0.39948000  0.01088000  1.0
  H  H29  1  0.60665000  0.60052000  0.98912000  1.0
  H  H30  1  0.44622000  0.23487000  0.13783000  1.0
  H  H31  1  0.55378000  0.76512000  0.86217000  1.0
  H  H32  1  0.65469000  0.02776000  0.09932000  1.0
  H  H33  1  0.34532000  0.97223000  0.90068000  1.0
  H  H34  1  0.81374000  0.98802000  0.93632000  1.0
  H  H35  1  0.18626000  0.01198000  0.06368000  1.0
  C  C36  1  0.33543000  0.61705000  0.45809000  1.0
  C  C37  1  0.66457000  0.38295000  0.54191000  1.0
  C  C38  1  0.53467000  0.75033000  0.36093000  1.0
  C  C39  1  0.46533000  0.24967000  0.63907000  1.0
  C  C40  1  0.60393000  0.62855000  0.30936000  1.0
  C  C41  1  0.39607000  0.37145000  0.69064000  1.0
  C  C42  1  0.53113000  0.49961000  0.34092000  1.0
  C  C43  1  0.46887000  0.50039000  0.65908000  1.0
  C  C44  1  0.74308000  0.63731000  0.22701000  1.0
  C  C45  1  0.25693000  0.36269000  0.77299000  1.0
  C  C46  1  0.76775000  0.76664000  0.17697000  1.0
  C  C47  1  0.23226000  0.23336000  0.82303000  1.0
  C  C48  1  0.89784000  0.77549000  0.09819000  1.0
  C  C49  1  0.10216000  0.22451000  0.90181000  1.0
  C  C50  1  0.00691000  0.65647000  0.06842000  1.0
  C  C51  1  0.99309000  0.34353000  0.93158000  1.0
  C  C52  1  0.98464000  0.52836000  0.11831000  1.0
  C  C53  1  0.01536000  0.47164000  0.88169000  1.0
  C  C54  1  0.85309000  0.51810000  0.19658000  1.0
  C  C55  1  0.14691000  0.48190000  0.80342000  1.0
  C  C56  1  0.02603000  0.12864000  0.61751000  1.0
  C  C57  1  0.97396000  0.87137000  0.38249000  1.0
  C  C58  1  0.85486000  0.27578000  0.72983000  1.0
  C  C59  1  0.14513000  0.72422000  0.27017000  1.0
  C  C60  1  0.80400000  0.15741000  0.78641000  1.0
  C  C61  1  0.19599000  0.84258000  0.21359000  1.0
  C  C62  1  0.86664000  0.02344000  0.74850000  1.0
  C  C63  1  0.13336000  0.97656000  0.25150000  1.0
  C  C64  1  0.69772000  0.17410000  0.88103000  1.0
  C  C65  1  0.30228000  0.82590000  0.11897000  1.0
  C  C66  1  0.57906000  0.29027000  0.90363000  1.0
  C  C67  1  0.42093000  0.70973000  0.09638000  1.0
  C  C68  1  0.48760000  0.31048000  0.99510000  1.0
  C  C69  1  0.51240000  0.68951000  0.00490000  1.0
  C  C70  1  0.51626000  0.21759000  0.06610000  1.0
  C  C71  1  0.48374000  0.78240000  0.93391000  1.0
  C  C72  1  0.63352000  0.10136000  0.04423000  1.0
  C  C73  1  0.36649000  0.89864000  0.95577000  1.0
  C  C74  1  0.72163000  0.07850000  0.95253000  1.0
  C  C75  1  0.27837000  0.92149000  0.04747000  1.0
  S  S76  1  0.16311000  0.61590000  0.55190000  1.0
  S  S77  1  0.83689000  0.38411000  0.44810000  1.0
  S  S78  1  0.17198000  0.11248000  0.51159000  1.0
  S  S79  1  0.82801000  0.88753000  0.48841000  1.0
  Br  Br80  1  0.18278000  0.33545000  0.27886000  1.0
  Br  Br81  1  0.81722000  0.66456000  0.72113000  1.0
  Br  Br82  1  0.54608000  0.12610000  0.35012000  1.0
  Br  Br83  1  0.45391000  0.87388000  0.64988000  1.0
  N  N84  1  0.40210000  0.74555000  0.43363000  1.0
  N  N85  1  0.59790000  0.25445000  0.56637000  1.0
  N  N86  1  0.39890000  0.49273000  0.41426000  1.0
  N  N87  1  0.60110000  0.50728000  0.58574000  1.0
  N  N88  1  0.96468000  0.26151000  0.64721000  1.0
  N  N89  1  0.03531000  0.73849000  0.35279000  1.0
  N  N90  1  0.97407000  0.00806000  0.66500000  1.0
  N  N91  1  0.02593000  0.99194000  0.33500000  1.0
