# generated using pymatgen
data_HgH24C28N4Cl2O3
_symmetry_space_group_name_H-M   'P 1'
_cell_length_a   8.50388000
_cell_length_b   12.81720000
_cell_length_c   13.06160000
_cell_angle_alpha   94.30660000
_cell_angle_beta   98.33290000
_cell_angle_gamma   98.11780000
_symmetry_Int_Tables_number   1
_chemical_formula_structural   HgH24C28N4Cl2O3
_chemical_formula_sum   'Hg2 H48 C56 N8 Cl4 O6'
_cell_volume   1387.86486588
_cell_formula_units_Z   2
loop_
 _symmetry_equiv_pos_site_id
 _symmetry_equiv_pos_as_xyz
  1  'x, y, z'
loop_
 _atom_site_type_symbol
 _atom_site_label
 _atom_site_symmetry_multiplicity
 _atom_site_fract_x
 _atom_site_fract_y
 _atom_site_fract_z
 _atom_site_occupancy
  Hg  Hg0  1  0.44146000  0.37705000  0.35774000  1.0
  Hg  Hg1  1  0.55854000  0.62295000  0.64225000  1.0
  H  H2  1  0.82217000  0.42247000  0.43036000  1.0
  H  H3  1  0.17783000  0.57754000  0.56964000  1.0
  H  H4  1  0.04800000  0.41317000  0.57350000  1.0
  H  H5  1  0.95201000  0.58683000  0.42650000  1.0
  H  H6  1  0.69304000  0.28530000  0.75428000  1.0
  H  H7  1  0.30696000  0.71470000  0.24572000  1.0
  H  H8  1  0.48012000  0.30377000  0.60413000  1.0
  H  H9  1  0.51988000  0.69623000  0.39586000  1.0
  H  H10  1  0.13855000  0.37231000  0.74844000  1.0
  H  H11  1  0.86145000  0.62769000  0.25157000  1.0
  H  H12  1  0.00082000  0.38900000  0.83587000  1.0
  H  H13  1  0.99916000  0.61100000  0.16413000  1.0
  H  H14  1  0.17464000  0.26464000  0.63232000  1.0
  H  H15  1  0.82536000  0.73536000  0.36769000  1.0
  H  H16  1  0.24927000  0.12187000  0.52509000  1.0
  H  H17  1  0.75073000  0.87814000  0.47491000  1.0
  H  H18  1  0.02585000  0.89189000  0.70309000  1.0
  H  H19  1  0.97414000  0.10812000  0.29691000  1.0
  H  H20  1  0.18163000  0.92476000  0.45823000  1.0
  H  H21  1  0.81836000  0.07525000  0.54177000  1.0
  H  H22  1  0.11146000  0.83229000  0.54219000  1.0
  H  H23  1  0.88853000  0.16771000  0.45781000  1.0
  H  H24  1  0.31471000  0.89496000  0.56596000  1.0
  H  H25  1  0.68529000  0.10504000  0.43404000  1.0
  H  H26  1  0.87221000  0.73413000  0.85395000  1.0
  H  H27  1  0.12780000  0.26586000  0.14606000  1.0
  H  H28  1  0.62102000  0.53840000  0.05027000  1.0
  H  H29  1  0.37900000  0.46160000  0.94974000  1.0
  H  H30  1  0.53847000  0.69430000  0.13418000  1.0
  H  H31  1  0.46153000  0.30570000  0.86582000  1.0
  H  H32  1  0.81382000  0.53863000  0.81141000  1.0
  H  H33  1  0.18620000  0.46136000  0.18860000  1.0
  H  H34  1  0.71622000  0.45706000  0.89495000  1.0
  H  H35  1  0.28380000  0.54294000  0.10507000  1.0
  H  H36  1  0.92090000  0.51544000  0.93214000  1.0
  H  H37  1  0.07912000  0.48455000  0.06787000  1.0
  H  H38  1  0.58107000  0.84740000  0.23029000  1.0
  H  H39  1  0.41893000  0.15260000  0.76970000  1.0
  H  H40  1  0.40304000  0.84854000  0.13726000  1.0
  H  H41  1  0.59695000  0.15145000  0.86274000  1.0
  H  H42  1  0.66705000  0.08056000  0.11038000  1.0
  H  H43  1  0.33295000  0.91943000  0.88961000  1.0
  H  H44  1  0.63436000  0.26158000  0.18741000  1.0
  H  H45  1  0.36564000  0.73842000  0.81259000  1.0
  H  H46  1  0.33266000  0.13266000  0.38204000  1.0
  H  H47  1  0.66734000  0.86733000  0.61796000  1.0
  H  H48  1  0.36129000  0.94769000  0.32011000  1.0
  H  H49  1  0.63871000  0.05231000  0.67988000  1.0
  C  C50  1  0.79890000  0.39387000  0.50413000  1.0
  C  C51  1  0.20111000  0.60613000  0.49587000  1.0
  C  C52  1  0.92396000  0.38870000  0.58431000  1.0
  C  C53  1  0.07604000  0.61130000  0.41569000  1.0
  C  C54  1  0.88810000  0.34977000  0.67652000  1.0
  C  C55  1  0.11189000  0.65024000  0.32348000  1.0
  C  C56  1  0.72601000  0.31694000  0.68378000  1.0
  C  C57  1  0.27398000  0.68306000  0.31622000  1.0
  C  C58  1  0.60787000  0.32587000  0.60069000  1.0
  C  C59  1  0.39213000  0.67413000  0.39931000  1.0
  C  C60  1  0.01875000  0.34223000  0.76583000  1.0
  C  C61  1  0.98124000  0.65777000  0.23417000  1.0
  C  C62  1  0.05735000  0.16148000  0.73215000  1.0
  C  C63  1  0.94265000  0.83852000  0.26785000  1.0
  C  C64  1  0.14293000  0.18363000  0.65050000  1.0
  C  C65  1  0.85706000  0.81637000  0.34949000  1.0
  C  C66  1  0.18578000  0.10154000  0.58938000  1.0
  C  C67  1  0.81421000  0.89847000  0.41062000  1.0
  C  C68  1  0.14503000  0.99523000  0.60645000  1.0
  C  C69  1  0.85496000  0.00477000  0.39355000  1.0
  C  C70  1  0.06044000  0.97390000  0.68829000  1.0
  C  C71  1  0.93956000  0.02611000  0.31171000  1.0
  C  C72  1  0.01639000  0.05468000  0.75228000  1.0
  C  C73  1  0.98361000  0.94532000  0.24772000  1.0
  C  C74  1  0.19046000  0.90715000  0.53967000  1.0
  C  C75  1  0.80954000  0.09285000  0.46033000  1.0
  C  C76  1  0.92874000  0.02653000  0.83596000  1.0
  C  C77  1  0.07124000  0.97347000  0.16404000  1.0
  C  C78  1  0.81174000  0.91904000  0.93138000  1.0
  C  C79  1  0.18825000  0.08096000  0.06863000  1.0
  C  C80  1  0.75682000  0.81653000  0.96402000  1.0
  C  C81  1  0.24318000  0.18347000  0.03599000  1.0
  C  C82  1  0.79928000  0.72519000  0.91575000  1.0
  C  C83  1  0.20073000  0.27480000  0.08426000  1.0
  C  C84  1  0.75163000  0.62444000  0.94462000  1.0
  C  C85  1  0.24839000  0.37556000  0.05539000  1.0
  C  C86  1  0.65798000  0.61576000  0.02428000  1.0
  C  C87  1  0.34203000  0.38424000  0.97572000  1.0
  C  C88  1  0.61115000  0.70447000  0.07256000  1.0
  C  C89  1  0.38884000  0.29552000  0.92744000  1.0
  C  C90  1  0.65987000  0.80531000  0.04325000  1.0
  C  C91  1  0.34012000  0.19468000  0.95675000  1.0
  C  C92  1  0.80273000  0.52876000  0.89296000  1.0
  C  C93  1  0.19729000  0.47124000  0.10705000  1.0
  C  C94  1  0.52601000  0.88996000  0.16738000  1.0
  C  C95  1  0.47398000  0.11004000  0.83262000  1.0
  C  C96  1  0.51639000  0.00036000  0.20964000  1.0
  C  C97  1  0.48360000  0.99964000  0.79035000  1.0
  C  C98  1  0.59471000  0.08964000  0.17213000  1.0
  C  C99  1  0.40529000  0.91035000  0.82787000  1.0
  C  C100  1  0.57616000  0.18940000  0.21415000  1.0
  C  C101  1  0.42384000  0.81060000  0.78585000  1.0
  C  C102  1  0.40921000  0.11743000  0.32414000  1.0
  C  C103  1  0.59079000  0.88257000  0.67585000  1.0
  C  C104  1  0.42394000  0.01506000  0.28833000  1.0
  C  C105  1  0.57605000  0.98493000  0.71166000  1.0
  N  N106  1  0.86836000  0.08453000  0.90337000  1.0
  N  N107  1  0.13163000  0.91546000  0.09663000  1.0
  N  N108  1  0.79342000  0.01544000  0.96488000  1.0
  N  N109  1  0.20657000  0.98456000  0.03512000  1.0
  N  N110  1  0.48403000  0.20315000  0.28800000  1.0
  N  N111  1  0.51597000  0.79684000  0.71200000  1.0
  N  N112  1  0.64398000  0.36394000  0.51227000  1.0
  N  N113  1  0.35603000  0.63606000  0.48772000  1.0
  Cl  Cl114  1  0.61175000  0.49557000  0.27114000  1.0
  Cl  Cl115  1  0.38825000  0.50443000  0.72886000  1.0
  Cl  Cl116  1  0.18610000  0.32171000  0.41101000  1.0
  Cl  Cl117  1  0.81391000  0.67829000  0.58899000  1.0
  O  O118  1  0.89773000  0.92079000  0.84996000  1.0
  O  O119  1  0.10226000  0.07921000  0.15005000  1.0
  O  O120  1  0.62130000  0.89586000  0.08655000  1.0
  O  O121  1  0.37871000  0.10413000  0.91345000  1.0
  O  O122  1  0.00974000  0.23622000  0.79553000  1.0
  O  O123  1  0.99026000  0.76379000  0.20447000  1.0
