# generated using pymatgen
data_CuSiH16C24N4(O4F3)2
_symmetry_space_group_name_H-M   'P 1'
_cell_length_a   8.14866000
_cell_length_b   13.71120000
_cell_length_c   13.71130000
_cell_angle_alpha   90.00110000
_cell_angle_beta   89.99890000
_cell_angle_gamma   89.99900000
_symmetry_Int_Tables_number   1
_chemical_formula_structural   CuSiH16C24N4(O4F3)2
_chemical_formula_sum   'Cu1 Si1 H16 C24 N4 O8 F6'
_cell_volume   1531.93485034
_cell_formula_units_Z   1
loop_
 _symmetry_equiv_pos_site_id
 _symmetry_equiv_pos_as_xyz
  1  'x, y, z'
loop_
 _atom_site_type_symbol
 _atom_site_label
 _atom_site_symmetry_multiplicity
 _atom_site_fract_x
 _atom_site_fract_y
 _atom_site_fract_z
 _atom_site_occupancy
  Cu  Cu0  1  0.50002000  0.49999000  0.50000000  1.0
  Si  Si1  1  0.00003000  0.49999000  0.50000000  1.0
  H  H2  1  0.24260000  0.65480000  0.49999000  1.0
  H  H3  1  0.75742000  0.65480000  0.49999000  1.0
  H  H4  1  0.24261000  0.34518000  0.49996000  1.0
  H  H5  1  0.75743000  0.34516000  0.50010000  1.0
  H  H6  1  0.24260000  0.50001000  0.65481000  1.0
  H  H7  1  0.75743000  0.50002000  0.65481000  1.0
  H  H8  1  0.24261000  0.50003000  0.34519000  1.0
  H  H9  1  0.75743000  0.49991000  0.34518000  1.0
  H  H10  1  0.77798000  0.91387000  0.49999000  1.0
  H  H11  1  0.22199000  0.91386000  0.50005000  1.0
  H  H12  1  0.77799000  0.08610000  0.50014000  1.0
  H  H13  1  0.22203000  0.08612000  0.49993000  1.0
  H  H14  1  0.77799000  0.50003000  0.91388000  1.0
  H  H15  1  0.22202000  0.49997000  0.91388000  1.0
  H  H16  1  0.77799000  0.49988000  0.08611000  1.0
  H  H17  1  0.22202000  0.50007000  0.08613000  1.0
  C  C18  1  0.35582000  0.69701000  0.50000000  1.0
  C  C19  1  0.35151000  0.79869000  0.50001000  1.0
  C  C20  1  0.50000000  0.85227000  0.50001000  1.0
  C  C21  1  0.64849000  0.79870000  0.50000000  1.0
  C  C22  1  0.64419000  0.69702000  0.49999000  1.0
  C  C23  1  0.49999000  0.95514000  0.50002000  1.0
  C  C24  1  0.50000000  0.04483000  0.50003000  1.0
  C  C25  1  0.50002000  0.14770000  0.50003000  1.0
  C  C26  1  0.35153000  0.20128000  0.49999000  1.0
  C  C27  1  0.35584000  0.30296000  0.49999000  1.0
  C  C28  1  0.64421000  0.30295000  0.50006000  1.0
  C  C29  1  0.64850000  0.20127000  0.50006000  1.0
  C  C30  1  0.35583000  0.50001000  0.69704000  1.0
  C  C31  1  0.35153000  0.50001000  0.79871000  1.0
  C  C32  1  0.50001000  0.50000000  0.85228000  1.0
  C  C33  1  0.64849000  0.50001000  0.79871000  1.0
  C  C34  1  0.64420000  0.50001000  0.69703000  1.0
  C  C35  1  0.50001000  0.50000000  0.95515000  1.0
  C  C36  1  0.50000000  0.49999000  0.04485000  1.0
  C  C37  1  0.50001000  0.49998000  0.14771000  1.0
  C  C38  1  0.35153000  0.50001000  0.20130000  1.0
  C  C39  1  0.35583000  0.50001000  0.30297000  1.0
  C  C40  1  0.64420000  0.49995000  0.30296000  1.0
  C  C41  1  0.64849000  0.49995000  0.20128000  1.0
  N  N42  1  0.50001000  0.64928000  0.49999000  1.0
  N  N43  1  0.50002000  0.35070000  0.50003000  1.0
  N  N44  1  0.50001000  0.50002000  0.64929000  1.0
  N  N45  1  0.50002000  0.49997000  0.35071000  1.0
  O  O46  1  0.79683000  0.84356000  0.50001000  1.0
  O  O47  1  0.20316000  0.84355000  0.50002000  1.0
  O  O48  1  0.79684000  0.15641000  0.50011000  1.0
  O  O49  1  0.20318000  0.15643000  0.49995000  1.0
  O  O50  1  0.79684000  0.50001000  0.84357000  1.0
  O  O51  1  0.20317000  0.50000000  0.84357000  1.0
  O  O52  1  0.79684000  0.49990000  0.15642000  1.0
  O  O53  1  0.20317000  0.50005000  0.15644000  1.0
  F  F54  1  0.21534000  0.49997000  0.50001000  1.0
  F  F55  1  0.78472000  0.49999000  0.49998000  1.0
  F  F56  1  0.00006000  0.58790000  0.41211000  1.0
  F  F57  1  0.00000000  0.41211000  0.58791000  1.0
  F  F58  1  0.00003000  0.58790000  0.58790000  1.0
  F  F59  1  0.00004000  0.41210000  0.41210000  1.0
