# generated using pymatgen
data_SrH14(C3O4)2
_symmetry_space_group_name_H-M   'P 1'
_cell_length_a   6.83365000
_cell_length_b   7.08960000
_cell_length_c   12.35070000
_cell_angle_alpha   88.22480000
_cell_angle_beta   83.80790000
_cell_angle_gamma   73.26840000
_symmetry_Int_Tables_number   1
_chemical_formula_structural   SrH14(C3O4)2
_chemical_formula_sum   'Sr2 H28 C12 O16'
_cell_volume   569.68918464
_cell_formula_units_Z   2
loop_
 _symmetry_equiv_pos_site_id
 _symmetry_equiv_pos_as_xyz
  1  'x, y, z'
loop_
 _atom_site_type_symbol
 _atom_site_label
 _atom_site_symmetry_multiplicity
 _atom_site_fract_x
 _atom_site_fract_y
 _atom_site_fract_z
 _atom_site_occupancy
  Sr  Sr0  1  0.93787000  0.27354000  0.92005000  1.0
  Sr  Sr1  1  0.06213000  0.72646000  0.07995000  1.0
  H  H2  1  0.37949000  0.57418000  0.59113000  1.0
  H  H3  1  0.62051000  0.42582000  0.40887000  1.0
  H  H4  1  0.36441000  0.74745000  0.69632000  1.0
  H  H5  1  0.63559000  0.25255000  0.30368000  1.0
  H  H6  1  0.26694000  0.54315000  0.72679000  1.0
  H  H7  1  0.73306000  0.45685000  0.27321000  1.0
  H  H8  1  0.29652000  0.13834000  0.26291000  1.0
  H  H9  1  0.70348000  0.86166000  0.73709000  1.0
  H  H10  1  0.06501000  0.08864000  0.31045000  1.0
  H  H11  1  0.93499000  0.91136000  0.68955000  1.0
  H  H12  1  0.08073000  0.33808000  0.31032000  1.0
  H  H13  1  0.91927000  0.66193000  0.68969000  1.0
  H  H14  1  0.05601000  0.15388000  0.51199000  1.0
  H  H15  1  0.94399000  0.84612000  0.48801000  1.0
  H  H16  1  0.32754000  0.03736000  0.48720000  1.0
  H  H17  1  0.67246000  0.96264000  0.51280000  1.0
  H  H18  1  0.23066000  0.29764000  0.49365000  1.0
  H  H19  1  0.76934000  0.70236000  0.50635000  1.0
  H  H20  1  0.87533000  0.31681000  0.66649000  1.0
  H  H21  1  0.12467000  0.68319000  0.33351000  1.0
  H  H22  1  0.38015000  0.12523000  0.81543000  1.0
  H  H23  1  0.61985000  0.87477000  0.18457000  1.0
  H  H24  1  0.43126000  0.18789000  0.93406000  1.0
  H  H25  1  0.56874000  0.81211000  0.06594000  1.0
  H  H26  1  0.61525000  0.11440000  0.06468000  1.0
  H  H27  1  0.38475000  0.88560000  0.93532000  1.0
  H  H28  1  0.52120000  0.34627000  0.08979000  1.0
  H  H29  1  0.47880000  0.65373000  0.91021000  1.0
  C  C30  1  0.59123000  0.47502000  0.71286000  1.0
  C  C31  1  0.40878000  0.52499000  0.28714000  1.0
  C  C32  1  0.38796000  0.59108000  0.67814000  1.0
  C  C33  1  0.61204000  0.40892000  0.32186000  1.0
  C  C34  1  0.06454000  0.22199000  0.15282000  1.0
  C  C35  1  0.93546000  0.77801000  0.84718000  1.0
  C  C36  1  0.12863000  0.19794000  0.26646000  1.0
  C  C37  1  0.87136000  0.80207000  0.73354000  1.0
  C  C38  1  0.22601000  0.16059000  0.64912000  1.0
  C  C39  1  0.77399000  0.83941000  0.35088000  1.0
  C  C40  1  0.20874000  0.15936000  0.52842000  1.0
  C  C41  1  0.79126000  0.84064000  0.47158000  1.0
  O  O42  1  0.73058000  0.38951000  0.63444000  1.0
  O  O43  1  0.26942000  0.61048000  0.36556000  1.0
  O  O44  1  0.62438000  0.46427000  0.81122000  1.0
  O  O45  1  0.37562000  0.53573000  0.18878000  1.0
  O  O46  1  0.01539000  0.39229000  0.10847000  1.0
  O  O47  1  0.98461000  0.60771000  0.89153000  1.0
  O  O48  1  0.06062000  0.07006000  0.10211000  1.0
  O  O49  1  0.93938000  0.92994000  0.89789000  1.0
  O  O50  1  0.05842000  0.23354000  0.71253000  1.0
  O  O51  1  0.94158000  0.76646000  0.28747000  1.0
  O  O52  1  0.39919000  0.09616000  0.68433000  1.0
  O  O53  1  0.60081000  0.90384000  0.31567000  1.0
  O  O54  1  0.59068000  0.24933000  0.03161000  1.0
  O  O55  1  0.40932000  0.75067000  0.96839000  1.0
  O  O56  1  0.34232000  0.12743000  0.89717000  1.0
  O  O57  1  0.65768000  0.87257000  0.10283000  1.0
