# generated using pymatgen
data_Zn4H12C27N12O13
_symmetry_space_group_name_H-M   'P 1'
_cell_length_a   15.65600000
_cell_length_b   16.34010000
_cell_length_c   16.51280000
_cell_angle_alpha   64.94860000
_cell_angle_beta   63.89700000
_cell_angle_gamma   62.13940000
_symmetry_Int_Tables_number   1
_chemical_formula_structural   Zn4H12C27N12O13
_chemical_formula_sum   'Zn8 H24 C54 N24 O26'
_cell_volume   3225.05362829
_cell_formula_units_Z   2
loop_
 _symmetry_equiv_pos_site_id
 _symmetry_equiv_pos_as_xyz
  1  'x, y, z'
loop_
 _atom_site_type_symbol
 _atom_site_label
 _atom_site_symmetry_multiplicity
 _atom_site_fract_x
 _atom_site_fract_y
 _atom_site_fract_z
 _atom_site_occupancy
  Zn  Zn0  1  0.11555000  0.97123000  0.98808000  1.0
  Zn  Zn1  1  0.91556000  0.92397000  0.01455000  1.0
  Zn  Zn2  1  0.90818000  0.13567000  0.98393000  1.0
  Zn  Zn3  1  0.92243000  0.97594000  0.17296000  1.0
  Zn  Zn4  1  0.31878000  0.53786000  0.59743000  1.0
  Zn  Zn5  1  0.53545000  0.49493000  0.61509000  1.0
  Zn  Zn6  1  0.51278000  0.56165000  0.41567000  1.0
  Zn  Zn7  1  0.51355000  0.34942000  0.55422000  1.0
  H  H8  1  0.19089000  0.74072000  0.79222000  1.0
  H  H9  1  0.37600000  0.45502000  0.90872000  1.0
  H  H10  1  0.18820000  0.65209000  0.07973000  1.0
  H  H11  1  0.33503000  0.34064000  0.04967000  1.0
  H  H12  1  0.25224000  0.21295000  0.76796000  1.0
  H  H13  1  0.20862000  0.38942000  0.49769000  1.0
  H  H14  1  0.02602000  0.21224000  0.68637000  1.0
  H  H15  1  0.16250000  0.37428000  0.37887000  1.0
  H  H16  1  0.24028000  0.73890000  0.27305000  1.0
  H  H17  1  0.24579000  0.85646000  0.45957000  1.0
  H  H18  1  0.11380000  0.04656000  0.23594000  1.0
  H  H19  1  0.28467000  0.00717000  0.41955000  1.0
  H  H20  1  0.71673000  0.23688000  0.79954000  1.0
  H  H21  1  0.42095000  0.23804000  0.85561000  1.0
  H  H22  1  0.57178000  0.07549000  0.06960000  1.0
  H  H23  1  0.27462000  0.23138000  0.97399000  1.0
  H  H24  1  0.69638000  0.74384000  0.28413000  1.0
  H  H25  1  0.78940000  0.55083000  0.52851000  1.0
  H  H26  1  0.95254000  0.74208000  0.32436000  1.0
  H  H27  1  0.87295000  0.53958000  0.62498000  1.0
  H  H28  1  0.73463000  0.22153000  0.31062000  1.0
  H  H29  1  0.81898000  0.44799000  0.28874000  1.0
  H  H30  1  0.00314000  0.27374000  0.09531000  1.0
  H  H31  1  0.98849000  0.44982000  0.26342000  1.0
  C  C32  1  0.12348000  0.80800000  0.94468000  1.0
  C  C33  1  0.18679000  0.70788000  0.93522000  1.0
  C  C34  1  0.21764000  0.68634000  0.85101000  1.0
  C  C35  1  0.28794000  0.59564000  0.84173000  1.0
  C  C36  1  0.32016000  0.52487000  0.91775000  1.0
  C  C37  1  0.27919000  0.54449000  0.00417000  1.0
  C  C38  1  0.21605000  0.63701000  0.01266000  1.0
  C  C39  1  0.32104000  0.37315000  0.10140000  1.0
  C  C40  1  0.33548000  0.57198000  0.74982000  1.0
  C  C41  1  0.09646000  0.14359000  0.83097000  1.0
  C  C42  1  0.13773000  0.20387000  0.73578000  1.0
  C  C43  1  0.21488000  0.23684000  0.71558000  1.0
  C  C44  1  0.23895000  0.30452000  0.62998000  1.0
  C  C45  1  0.19139000  0.33465000  0.56284000  1.0
  C  C46  1  0.11665000  0.29902000  0.58319000  1.0
  C  C47  1  0.08810000  0.23533000  0.66962000  1.0
  C  C48  1  0.08719000  0.37345000  0.42472000  1.0
  C  C49  1  0.31077000  0.35299000  0.60895000  1.0
  C  C50  1  0.12563000  0.91056000  0.17666000  1.0
  C  C51  1  0.17044000  0.89379000  0.24850000  1.0
  C  C52  1  0.22324000  0.80108000  0.29407000  1.0
  C  C53  1  0.25180000  0.78862000  0.36880000  1.0
  C  C54  1  0.22718000  0.86754000  0.39857000  1.0
  C  C55  1  0.17899000  0.95969000  0.34910000  1.0
  C  C56  1  0.15042000  0.97377000  0.27389000  1.0
  C  C57  1  0.21310000  0.05785000  0.40723000  1.0
  C  C58  1  0.31020000  0.69099000  0.41873000  1.0
  C  C59  1  0.75086000  0.10746000  0.96175000  1.0
  C  C60  1  0.65505000  0.14967000  0.93631000  1.0
  C  C61  1  0.65280000  0.21296000  0.84741000  1.0
  C  C62  1  0.56919000  0.24158000  0.81851000  1.0
  C  C63  1  0.48470000  0.21507000  0.88044000  1.0
  C  C64  1  0.48443000  0.16001000  0.97213000  1.0
  C  C65  1  0.57109000  0.12312000  0.99959000  1.0
  C  C66  1  0.29893000  0.17910000  0.03421000  1.0
  C  C67  1  0.56887000  0.30077000  0.72056000  1.0
  C  C68  1  0.84072000  0.83369000  0.21059000  1.0
  C  C69  1  0.82653000  0.75025000  0.29452000  1.0
  C  C70  1  0.74819000  0.71552000  0.32473000  1.0
  C  C71  1  0.73356000  0.64622000  0.41137000  1.0
  C  C72  1  0.80049000  0.60748000  0.46368000  1.0
  C  C73  1  0.88063000  0.64039000  0.43015000  1.0
  C  C74  1  0.89261000  0.71363000  0.34720000  1.0
  C  C75  1  0.93995000  0.55577000  0.57388000  1.0
  C  C76  1  0.64598000  0.61213000  0.45140000  1.0
  C  C77  1  0.88202000  0.17128000  0.15515000  1.0
  C  C78  1  0.86944000  0.24147000  0.19814000  1.0
  C  C79  1  0.78685000  0.26114000  0.27702000  1.0
  C  C80  1  0.76782000  0.33762000  0.30719000  1.0
  C  C81  1  0.83566000  0.38750000  0.26543000  1.0
  C  C82  1  0.92262000  0.36027000  0.19269000  1.0
  C  C83  1  0.93814000  0.29014000  0.15581000  1.0
  C  C84  1  0.01736000  0.45083000  0.18971000  1.0
  C  C85  1  0.66867000  0.37538000  0.37615000  1.0
  N  N86  1  0.29862000  0.46849000  0.08479000  1.0
  N  N87  1  0.31842000  0.32914000  0.18997000  1.0
  N  N88  1  0.29264000  0.40025000  0.22836000  1.0
  N  N89  1  0.28007000  0.48394000  0.16659000  1.0
  N  N90  1  0.06138000  0.33573000  0.51897000  1.0
  N  N91  1  0.00581000  0.40691000  0.39807000  1.0
  N  N92  1  0.92966000  0.38833000  0.47750000  1.0
  N  N93  1  0.96106000  0.34596000  0.55078000  1.0
  N  N94  1  0.15881000  0.04114000  0.37455000  1.0
  N  N95  1  0.16649000  0.14578000  0.41788000  1.0
  N  N96  1  0.08190000  0.18347000  0.39024000  1.0
  N  N97  1  0.07624000  0.12230000  0.36374000  1.0
  N  N98  1  0.39523000  0.14111000  0.03857000  1.0
  N  N99  1  0.24009000  0.14319000  0.11543000  1.0
  N  N100  1  0.30227000  0.08203000  0.17046000  1.0
  N  N101  1  0.39479000  0.07993000  0.12605000  1.0
  N  N102  1  0.94994000  0.60160000  0.48162000  1.0
  N  N103  1  0.02414000  0.53506000  0.59035000  1.0
  N  N104  1  0.08701000  0.56901000  0.50571000  1.0
  N  N105  1  0.04404000  0.60911000  0.44000000  1.0
  N  N106  1  0.99400000  0.40757000  0.15199000  1.0
  N  N107  1  0.08842000  0.48594000  0.12425000  1.0
  N  N108  1  0.10861000  0.46305000  0.04548000  1.0
  N  N109  1  0.05306000  0.41594000  0.06064000  1.0
  O  O110  1  0.96796000  0.99760000  0.03748000  1.0
  O  O111  1  0.03496000  0.84467000  0.93567000  1.0
  O  O112  1  0.16586000  0.84671000  0.96165000  1.0
  O  O113  1  0.43224000  0.54232000  0.72265000  1.0
  O  O114  1  0.27795000  0.58186000  0.70841000  1.0
  O  O115  1  0.00007000  0.16839000  0.85824000  1.0
  O  O116  1  0.15629000  0.07499000  0.87705000  1.0
  O  O117  1  0.40383000  0.31179000  0.56963000  1.0
  O  O118  1  0.27075000  0.43179000  0.63091000  1.0
  O  O119  1  0.04692000  0.88705000  0.21002000  1.0
  O  O120  1  0.16488000  0.94938000  0.09092000  1.0
  O  O121  1  0.39652000  0.64718000  0.36848000  1.0
  O  O122  1  0.27041000  0.66181000  0.50657000  1.0
  O  O123  1  0.78131000  0.16670000  0.96297000  1.0
  O  O124  1  0.79269000  0.01644000  0.97764000  1.0
  O  O125  1  0.52571000  0.28266000  0.68335000  1.0
  O  O126  1  0.61013000  0.36476000  0.68263000  1.0
  O  O127  1  0.82875000  0.90653000  0.23079000  1.0
  O  O128  1  0.86601000  0.82649000  0.12884000  1.0
  O  O129  1  0.59179000  0.63713000  0.39993000  1.0
  O  O130  1  0.63242000  0.56014000  0.53649000  1.0
  O  O131  1  0.90563000  0.19648000  0.06581000  1.0
  O  O132  1  0.86717000  0.09293000  0.21092000  1.0
  O  O133  1  0.63370000  0.31534000  0.44883000  1.0
  O  O134  1  0.62722000  0.46663000  0.35268000  1.0
  O  O135  1  0.46746000  0.48688000  0.54519000  1.0
