# generated using pymatgen
data_Zn3H6C10(N2O5)2
_symmetry_space_group_name_H-M   'P 1'
_cell_length_a   11.71320000
_cell_length_b   12.98520000
_cell_length_c   19.16980000
_cell_angle_alpha   89.99970000
_cell_angle_beta   90.00000000
_cell_angle_gamma   113.42600000
_symmetry_Int_Tables_number   1
_chemical_formula_structural   Zn3H6C10(N2O5)2
_chemical_formula_sum   'Zn12 H24 C40 N16 O40'
_cell_volume   2675.36493197
_cell_formula_units_Z   4
loop_
 _symmetry_equiv_pos_site_id
 _symmetry_equiv_pos_as_xyz
  1  'x, y, z'
loop_
 _atom_site_type_symbol
 _atom_site_label
 _atom_site_symmetry_multiplicity
 _atom_site_fract_x
 _atom_site_fract_y
 _atom_site_fract_z
 _atom_site_occupancy
  Zn  Zn0  1  0.18823000  0.69474000  0.61818000  1.0
  Zn  Zn1  1  0.31177000  0.80526000  0.11818000  1.0
  Zn  Zn2  1  0.81178000  0.30525000  0.38182000  1.0
  Zn  Zn3  1  0.68822000  0.19475000  0.88182000  1.0
  Zn  Zn4  1  0.64339000  0.60068000  0.58807000  1.0
  Zn  Zn5  1  0.85661000  0.89932000  0.08807000  1.0
  Zn  Zn6  1  0.35662000  0.39932000  0.41193000  1.0
  Zn  Zn7  1  0.14339000  0.10068000  0.91193000  1.0
  Zn  Zn8  1  0.56411000  0.87312000  0.83247000  1.0
  Zn  Zn9  1  0.93589000  0.62688000  0.33247000  1.0
  Zn  Zn10  1  0.43588000  0.12687000  0.16753000  1.0
  Zn  Zn11  1  0.06411000  0.37312000  0.66753000  1.0
  H  H12  1  0.18771000  0.67190000  0.44265000  1.0
  H  H13  1  0.31229000  0.82810000  0.94265000  1.0
  H  H14  1  0.81230000  0.32810000  0.55735000  1.0
  H  H15  1  0.68770000  0.17189000  0.05735000  1.0
  H  H16  1  0.18216000  0.56859000  0.74295000  1.0
  H  H17  1  0.31784000  0.93141000  0.24295000  1.0
  H  H18  1  0.81784000  0.43142000  0.25706000  1.0
  H  H19  1  0.68215000  0.06858000  0.75706000  1.0
  H  H20  1  0.05943000  0.56773000  0.70599000  1.0
  H  H21  1  0.44057000  0.93227000  0.20599000  1.0
  H  H22  1  0.94058000  0.43228000  0.29401000  1.0
  H  H23  1  0.55942000  0.06772000  0.79401000  1.0
  H  H24  1  0.71267000  0.72497000  0.74843000  1.0
  H  H25  1  0.78733000  0.77503000  0.24843000  1.0
  H  H26  1  0.28733000  0.27503000  0.25157000  1.0
  H  H27  1  0.21267000  0.22497000  0.75157000  1.0
  H  H28  1  0.53889000  0.40380000  0.54349000  1.0
  H  H29  1  0.96111000  0.09620000  0.04349000  1.0
  H  H30  1  0.46111000  0.59620000  0.45651000  1.0
  H  H31  1  0.03889000  0.90380000  0.95651000  1.0
  H  H32  1  0.45143000  0.41807000  0.60009000  1.0
  H  H33  1  0.04857000  0.08194000  0.10009000  1.0
  H  H34  1  0.54857000  0.58194000  0.39990000  1.0
  H  H35  1  0.95143000  0.91806000  0.89990000  1.0
  C  C36  1  0.09956000  0.66231000  0.46592000  1.0
  C  C37  1  0.40044000  0.83769000  0.96592000  1.0
  C  C38  1  0.90044000  0.33769000  0.53408000  1.0
  C  C39  1  0.59956000  0.16231000  0.03408000  1.0
  C  C40  1  0.42167000  0.66350000  0.57969000  1.0
  C  C41  1  0.07833000  0.83650000  0.07969000  1.0
  C  C42  1  0.57834000  0.33649000  0.42031000  1.0
  C  C43  1  0.92166000  0.16351000  0.92031000  1.0
  C  C44  1  0.63028000  0.72753000  0.72387000  1.0
  C  C45  1  0.86972000  0.77247000  0.22387000  1.0
  C  C46  1  0.36972000  0.27247000  0.27613000  1.0
  C  C47  1  0.13028000  0.22753000  0.77613000  1.0
  C  C48  1  0.46342000  0.76097000  0.70520000  1.0
  C  C49  1  0.03658000  0.73904000  0.20520000  1.0
  C  C50  1  0.53658000  0.23903000  0.29480000  1.0
  C  C51  1  0.96342000  0.26097000  0.79480000  1.0
  C  C52  1  0.37582000  0.81405000  0.72463000  1.0
  C  C53  1  0.12418000  0.68595000  0.22463000  1.0
  C  C54  1  0.62418000  0.18594000  0.27537000  1.0
  C  C55  1  0.87582000  0.31405000  0.77537000  1.0
  C  C56  1  0.48168000  0.70150000  0.64844000  1.0
  C  C57  1  0.01832000  0.79850000  0.14844000  1.0
  C  C58  1  0.51832000  0.29850000  0.35156000  1.0
  C  C59  1  0.98168000  0.20150000  0.85156000  1.0
  C  C60  1  0.90355000  0.63389000  0.47841000  1.0
  C  C61  1  0.59645000  0.86611000  0.97841000  1.0
  C  C62  1  0.09645000  0.36611000  0.52159000  1.0
  C  C63  1  0.40355000  0.13389000  0.02159000  1.0
  C  C64  1  0.91696000  0.64252000  0.61860000  1.0
  C  C65  1  0.58304000  0.85748000  0.11860000  1.0
  C  C66  1  0.08304000  0.35748000  0.38140000  1.0
  C  C67  1  0.41696000  0.14253000  0.88140000  1.0
  C  C68  1  0.95816000  0.64881000  0.54454000  1.0
  C  C69  1  0.54183000  0.85119000  0.04454000  1.0
  C  C70  1  0.04184000  0.35118000  0.45546000  1.0
  C  C71  1  0.45817000  0.14882000  0.95546000  1.0
  C  C72  1  0.78042000  0.61741000  0.44931000  1.0
  C  C73  1  0.71957000  0.88259000  0.94931000  1.0
  C  C74  1  0.21958000  0.38259000  0.55069000  1.0
  C  C75  1  0.28042000  0.11741000  0.05069000  1.0
  N  N76  1  0.08139000  0.66756000  0.53468000  1.0
  N  N77  1  0.41860000  0.83244000  0.03468000  1.0
  N  N78  1  0.91861000  0.33244000  0.46532000  1.0
  N  N79  1  0.58139000  0.16757000  0.96532000  1.0
  N  N80  1  0.58713000  0.68198000  0.66148000  1.0
  N  N81  1  0.91287000  0.81803000  0.16148000  1.0
  N  N82  1  0.41288000  0.31803000  0.33852000  1.0
  N  N83  1  0.08712000  0.18197000  0.83852000  1.0
  N  N84  1  0.55917000  0.77642000  0.75180000  1.0
  N  N85  1  0.94083000  0.72358000  0.25180000  1.0
  N  N86  1  0.44083000  0.22358000  0.24820000  1.0
  N  N87  1  0.05917000  0.27643000  0.74820000  1.0
  N  N88  1  0.99439000  0.64223000  0.43025000  1.0
  N  N89  1  0.50561000  0.85777000  0.93025000  1.0
  N  N90  1  0.00562000  0.35778000  0.56975000  1.0
  N  N91  1  0.49439000  0.14222000  0.06976000  1.0
  O  O92  1  0.31625000  0.66366000  0.56406000  1.0
  O  O93  1  0.18375000  0.83634000  0.06406000  1.0
  O  O94  1  0.68376000  0.33633000  0.43594000  1.0
  O  O95  1  0.81624000  0.16367000  0.93594000  1.0
  O  O96  1  0.48424000  0.63128000  0.53742000  1.0
  O  O97  1  0.01576000  0.86873000  0.03742000  1.0
  O  O98  1  0.51577000  0.36873000  0.46258000  1.0
  O  O99  1  0.98423000  0.13127000  0.96258000  1.0
  O  O100  1  0.40009000  0.87003000  0.78098000  1.0
  O  O101  1  0.09992000  0.62997000  0.28098000  1.0
  O  O102  1  0.59990000  0.12996000  0.21902000  1.0
  O  O103  1  0.90009000  0.37004000  0.71902000  1.0
  O  O104  1  0.53947000  0.43269000  0.59268000  1.0
  O  O105  1  0.96053000  0.06731000  0.09268000  1.0
  O  O106  1  0.46052000  0.56731000  0.40732000  1.0
  O  O107  1  0.03948000  0.93269000  0.90732000  1.0
  O  O108  1  0.28192000  0.80476000  0.68686000  1.0
  O  O109  1  0.21808000  0.69524000  0.18686000  1.0
  O  O110  1  0.71809000  0.19525000  0.31313000  1.0
  O  O111  1  0.78191000  0.30475000  0.81313000  1.0
  O  O112  1  0.13354000  0.54805000  0.70011000  1.0
  O  O113  1  0.36646000  0.95194000  0.20011000  1.0
  O  O114  1  0.86647000  0.45195000  0.29989000  1.0
  O  O115  1  0.63353000  0.04805000  0.79989000  1.0
  O  O116  1  0.00238000  0.65652000  0.66409000  1.0
  O  O117  1  0.49762000  0.84347000  0.16409000  1.0
  O  O118  1  0.99763000  0.34347000  0.33591000  1.0
  O  O119  1  0.50237000  0.15653000  0.83591000  1.0
  O  O120  1  0.80607000  0.62422000  0.63527000  1.0
  O  O121  1  0.69392000  0.87578000  0.13527000  1.0
  O  O122  1  0.19392000  0.37578000  0.36473000  1.0
  O  O123  1  0.30608000  0.12422000  0.86473000  1.0
  O  O124  1  0.69296000  0.61898000  0.48772000  1.0
  O  O125  1  0.80704000  0.88102000  0.98773000  1.0
  O  O126  1  0.30705000  0.38103000  0.51227000  1.0
  O  O127  1  0.19295000  0.11897000  0.01227000  1.0
  O  O128  1  0.76743000  0.60526000  0.38304000  1.0
  O  O129  1  0.73257000  0.89474000  0.88304000  1.0
  O  O130  1  0.23258000  0.39474000  0.61696000  1.0
  O  O131  1  0.26742000  0.10526000  0.11696000  1.0
