# generated using pymatgen
data_CdH10C12N4O7
_symmetry_space_group_name_H-M   'P 1'
_cell_length_a   7.45829000
_cell_length_b   9.95920000
_cell_length_c   10.26370000
_cell_angle_alpha   71.09300000
_cell_angle_beta   90.00040000
_cell_angle_gamma   90.00010000
_symmetry_Int_Tables_number   1
_chemical_formula_structural   CdH10C12N4O7
_chemical_formula_sum   'Cd2 H20 C24 N8 O14'
_cell_volume   721.24002732
_cell_formula_units_Z   2
loop_
 _symmetry_equiv_pos_site_id
 _symmetry_equiv_pos_as_xyz
  1  'x, y, z'
loop_
 _atom_site_type_symbol
 _atom_site_label
 _atom_site_symmetry_multiplicity
 _atom_site_fract_x
 _atom_site_fract_y
 _atom_site_fract_z
 _atom_site_occupancy
  Cd  Cd0  1  0.41442000  0.68499000  0.92109000  1.0
  Cd  Cd1  1  0.91442000  0.31501000  0.07891000  1.0
  H  H2  1  0.44595000  0.03755000  0.77137000  1.0
  H  H3  1  0.94595000  0.96246000  0.22863000  1.0
  H  H4  1  0.40726000  0.13076000  0.33101000  1.0
  H  H5  1  0.90726000  0.86924000  0.66899000  1.0
  H  H6  1  0.44807000  0.21557000  0.53295000  1.0
  H  H7  1  0.94807000  0.78444000  0.46705000  1.0
  H  H8  1  0.23994000  0.27128000  0.70517000  1.0
  H  H9  1  0.73995000  0.72872000  0.29483000  1.0
  H  H10  1  0.29517000  0.67218000  0.28800000  1.0
  H  H11  1  0.79518000  0.32782000  0.71200000  1.0
  H  H12  1  0.35394000  0.92734000  0.24189000  1.0
  H  H13  1  0.85394000  0.07266000  0.75811000  1.0
  H  H14  1  0.30672000  0.37739000  0.88920000  1.0
  H  H15  1  0.80671000  0.62262000  0.11080000  1.0
  H  H16  1  0.24746000  0.42976000  0.45668000  1.0
  H  H17  1  0.74747000  0.57024000  0.54332000  1.0
  H  H18  1  0.53501000  0.92266000  0.00541000  1.0
  H  H19  1  0.03501000  0.07734000  0.99459000  1.0
  H  H20  1  0.72109000  0.86179000  0.97795000  1.0
  H  H21  1  0.22109000  0.13821000  0.02205000  1.0
  C  C22  1  0.42460000  0.00452000  0.68092000  1.0
  C  C23  1  0.92461000  0.99548000  0.31907000  1.0
  C  C24  1  0.40446000  0.05645000  0.43584000  1.0
  C  C25  1  0.90446000  0.94355000  0.56416000  1.0
  C  C26  1  0.30815000  0.61768000  0.51108000  1.0
  C  C27  1  0.80816000  0.38232000  0.48892000  1.0
  C  C28  1  0.42641000  0.10361000  0.54747000  1.0
  C  C29  1  0.92642000  0.89639000  0.45254000  1.0
  C  C30  1  0.33964000  0.66845000  0.62356000  1.0
  C  C31  1  0.83964000  0.33155000  0.37644000  1.0
  C  C32  1  0.27100000  0.38392000  0.67685000  1.0
  C  C33  1  0.77100000  0.61609000  0.32314000  1.0
  C  C34  1  0.37682000  0.91043000  0.45815000  1.0
  C  C35  1  0.87682000  0.08957000  0.54185000  1.0
  C  C36  1  0.31477000  0.71388000  0.37291000  1.0
  C  C37  1  0.81478000  0.28611000  0.62710000  1.0
  C  C38  1  0.37320000  0.81803000  0.59671000  1.0
  C  C39  1  0.87320000  0.18198000  0.40329000  1.0
  C  C40  1  0.34900000  0.85476000  0.34740000  1.0
  C  C41  1  0.84900000  0.14525000  0.65259000  1.0
  C  C42  1  0.30701000  0.44267000  0.78135000  1.0
  C  C43  1  0.80701000  0.55732000  0.21865000  1.0
  C  C44  1  0.27241000  0.47127000  0.54135000  1.0
  C  C45  1  0.77242000  0.52872000  0.45866000  1.0
  N  N46  1  0.77691000  0.55356000  0.83392000  1.0
  N  N47  1  0.27692000  0.44644000  0.16608000  1.0
  N  N48  1  0.39935000  0.86634000  0.70451000  1.0
  N  N49  1  0.89935000  0.13367000  0.29549000  1.0
  N  N50  1  0.33968000  0.58006000  0.75549000  1.0
  N  N51  1  0.83968000  0.41995000  0.24451000  1.0
  N  N52  1  0.06202000  0.83239000  0.95903000  1.0
  N  N53  1  0.56203000  0.16761000  0.04097000  1.0
  O  O54  1  0.90456000  0.46519000  0.84390000  1.0
  O  O55  1  0.40457000  0.53481000  0.15610000  1.0
  O  O56  1  0.74102000  0.64588000  0.72224000  1.0
  O  O57  1  0.24102000  0.35412000  0.27775000  1.0
  O  O58  1  0.68623000  0.54232000  0.94335000  1.0
  O  O59  1  0.18623000  0.45768000  0.05665000  1.0
  O  O60  1  0.59426000  0.83516000  0.00157000  1.0
  O  O61  1  0.09426000  0.16484000  0.99843000  1.0
  O  O62  1  0.21652000  0.82860000  0.01286000  1.0
  O  O63  1  0.71652000  0.17140000  0.98714000  1.0
  O  O64  1  0.94353000  0.91538000  0.98252000  1.0
  O  O65  1  0.44353000  0.08462000  0.01747000  1.0
  O  O66  1  0.02582000  0.75782000  0.88540000  1.0
  O  O67  1  0.52583000  0.24218000  0.11460000  1.0
