# generated using pymatgen
data_Zn2H20C45(N2O15)2
_symmetry_space_group_name_H-M   'P 1'
_cell_length_a   10.18060000
_cell_length_b   11.11290000
_cell_length_c   23.45540000
_cell_angle_alpha   87.01870000
_cell_angle_beta   89.32940000
_cell_angle_gamma   88.35700000
_symmetry_Int_Tables_number   1
_chemical_formula_structural   Zn2H20C45(N2O15)2
_chemical_formula_sum   'Zn2 H20 C45 N4 O30'
_cell_volume   2648.83021481
_cell_formula_units_Z   1
loop_
 _symmetry_equiv_pos_site_id
 _symmetry_equiv_pos_as_xyz
  1  'x, y, z'
loop_
 _atom_site_type_symbol
 _atom_site_label
 _atom_site_symmetry_multiplicity
 _atom_site_fract_x
 _atom_site_fract_y
 _atom_site_fract_z
 _atom_site_occupancy
  Zn  Zn0  1  0.62808000  0.53650000  0.49193000  1.0
  Zn  Zn1  1  0.34409000  0.51891000  0.50061000  1.0
  H  H2  1  0.63853000  0.60532000  0.78429000  1.0
  H  H3  1  0.64217000  0.18067000  0.49261000  1.0
  H  H4  1  0.89939000  0.68636000  0.37399000  1.0
  H  H5  1  0.80500000  0.47090000  0.56991000  1.0
  H  H6  1  0.22564000  0.70879000  0.43510000  1.0
  H  H7  1  0.79822000  0.15751000  0.92364000  1.0
  H  H8  1  0.16853000  0.34664000  0.50019000  1.0
  H  H9  1  0.23685000  0.70246000  0.89834000  1.0
  H  H10  1  0.21271000  0.61116000  0.08722000  1.0
  H  H11  1  0.63366000  0.67457000  0.62667000  1.0
  H  H12  1  0.43651000  0.26728000  0.61866000  1.0
  H  H13  1  0.43925000  0.26748000  0.77909000  1.0
  H  H14  1  0.31920000  0.31022000  0.19020000  1.0
  H  H15  1  0.75723000  0.24620000  0.11028000  1.0
  H  H16  1  0.29901000  0.42798000  0.37400000  1.0
  H  H17  1  0.61981000  0.71647000  0.34050000  1.0
  H  H18  1  0.64239000  0.57707000  0.15120000  1.0
  H  H19  1  0.32396000  0.97640000  0.63897000  1.0
  H  H20  1  0.58568000  0.90296000  0.44032000  1.0
  H  H21  1  0.18724000  0.06335000  0.55210000  1.0
  C  C22  1  0.45120000  0.28797000  0.49955000  1.0
  C  C23  1  0.41676000  0.49022000  0.87289000  1.0
  C  C24  1  0.59535000  0.53475000  0.76048000  1.0
  C  C25  1  0.53112000  0.47446000  0.60543000  1.0
  C  C26  1  0.59667000  0.54676000  0.70079000  1.0
  C  C27  1  0.53927000  0.45784000  0.66930000  1.0
  C  C28  1  0.48440000  0.35601000  0.69783000  1.0
  C  C29  1  0.48365000  0.34595000  0.75761000  1.0
  C  C30  1  0.53721000  0.43600000  0.78817000  1.0
  C  C31  1  0.39502000  0.40635000  0.24618000  1.0
  C  C32  1  0.39033000  0.43815000  0.30397000  1.0
  C  C33  1  0.69507000  0.29767000  0.03750000  1.0
  C  C34  1  0.48468000  0.51647000  0.32291000  1.0
  C  C35  1  0.57874000  0.57027000  0.28490000  1.0
  C  C36  1  0.57882000  0.54144000  0.22742000  1.0
  C  C37  1  0.45041000  0.74692000  0.51823000  1.0
  C  C38  1  0.48731000  0.45901000  0.20898000  1.0
  C  C39  1  0.39347000  0.95641000  0.54988000  1.0
  C  C40  1  0.43944000  0.88096000  0.51035000  1.0
  C  C41  1  0.37051000  0.08575000  0.53608000  1.0
  C  C42  1  0.46640000  0.15866000  0.51450000  1.0
  C  C43  1  0.91369000  0.60075000  0.46271000  1.0
  C  C44  1  0.70670000  0.29956000  0.97669000  1.0
  C  C45  1  0.05719000  0.59840000  0.46579000  1.0
  C  C46  1  0.49080000  0.53271000  0.38533000  1.0
  C  C47  1  0.38417000  0.49994000  0.11635000  1.0
  C  C48  1  0.58317000  0.36368000  0.12518000  1.0
  C  C49  1  0.58997000  0.36205000  0.06342000  1.0
  C  C50  1  0.49498000  0.42641000  0.02950000  1.0
  C  C51  1  0.39085000  0.49206000  0.05501000  1.0
  C  C52  1  0.66275000  0.66569000  0.30479000  1.0
  C  C53  1  0.36638000  0.90964000  0.60962000  1.0
  C  C54  1  0.48066000  0.92295000  0.45066000  1.0
  C  C55  1  0.61185000  0.36293000  0.94397000  1.0
  C  C56  1  0.85099000  0.68392000  0.41650000  1.0
  C  C57  1  0.11885000  0.71160000  0.44322000  1.0
  C  C58  1  0.82251000  0.23319000  0.95049000  1.0
  C  C59  1  0.20103000  0.62402000  0.92490000  1.0
  C  C60  1  0.65335000  0.65781000  0.67293000  1.0
  C  C61  1  0.42913000  0.25729000  0.66599000  1.0
  C  C62  1  0.50485000  0.42611000  0.96924000  1.0
  C  C63  1  0.40843000  0.49087000  0.93586000  1.0
  C  C64  1  0.30407000  0.55424000  0.96019000  1.0
  C  C65  1  0.29498000  0.55561000  0.02090000  1.0
  C  C66  1  0.62675000  0.36785000  0.88090000  1.0
  N  N67  1  0.48314000  0.43738000  0.14902000  1.0
  N  N68  1  0.52694000  0.43031000  0.84970000  1.0
  N  N69  1  0.83302000  0.54971000  0.49916000  1.0
  N  N70  1  0.13772000  0.50927000  0.48126000  1.0
  O  O71  1  0.55620000  0.34277000  0.48616000  1.0
  O  O72  1  0.60247000  0.54272000  0.40815000  1.0
  O  O73  1  0.38145000  0.53072000  0.41340000  1.0
  O  O74  1  0.29721000  0.55961000  0.14119000  1.0
  O  O75  1  0.78312000  0.23452000  0.06888000  1.0
  O  O76  1  0.29628000  0.38691000  0.33749000  1.0
  O  O77  1  0.77068000  0.69197000  0.28475000  1.0
  O  O78  1  0.66260000  0.59778000  0.18994000  1.0
  O  O79  1  0.39410000  0.80580000  0.62633000  1.0
  O  O80  1  0.40348000  0.96918000  0.41621000  1.0
  O  O81  1  0.24676000  0.13055000  0.54803000  1.0
  O  O82  1  0.66246000  0.30683000  0.15736000  1.0
  O  O83  1  0.59077000  0.11095000  0.50630000  1.0
  O  O84  1  0.74881000  0.73976000  0.42573000  1.0
  O  O85  1  0.88522000  0.49357000  0.54688000  1.0
  O  O86  1  0.04975000  0.80171000  0.43198000  1.0
  O  O87  1  0.93530000  0.25773000  0.96085000  1.0
  O  O88  1  0.08760000  0.39961000  0.49277000  1.0
  O  O89  1  0.08528000  0.59976000  0.92827000  1.0
  O  O90  1  0.19858000  0.61985000  0.04430000  1.0
  O  O91  1  0.71704000  0.72812000  0.69914000  1.0
  O  O92  1  0.37907000  0.16810000  0.68913000  1.0
  O  O93  1  0.72046000  0.32058000  0.85623000  1.0
  O  O94  1  0.30629000  0.32647000  0.23036000  1.0
  O  O95  1  0.33333333  0.53984000  0.84154000  1.0
  O  O96  1  0.33609000  0.33943000  0.50132000  1.0
  O  O97  1  0.63940000  0.47377000  0.57677000  1.0
  O  O98  1  0.41793000  0.48892000  0.58476000  1.0
  O  O99  1  0.56446000  0.69892000  0.51982000  1.0
  O  O100  1  0.34206000  0.69372000  0.51318000  1.0
