# generated using pymatgen
data_AgH4C6N2O3
_symmetry_space_group_name_H-M   'P 1'
_cell_length_a   4.92010000
_cell_length_b   7.40822000
_cell_length_c   19.28860000
_cell_angle_alpha   90.00010000
_cell_angle_beta   90.00010000
_cell_angle_gamma   76.73000000
_symmetry_Int_Tables_number   1
_chemical_formula_structural   AgH4C6N2O3
_chemical_formula_sum   'Ag4 H16 C24 N8 O12'
_cell_volume   684.28161402
_cell_formula_units_Z   4
loop_
 _symmetry_equiv_pos_site_id
 _symmetry_equiv_pos_as_xyz
  1  'x, y, z'
loop_
 _atom_site_type_symbol
 _atom_site_label
 _atom_site_symmetry_multiplicity
 _atom_site_fract_x
 _atom_site_fract_y
 _atom_site_fract_z
 _atom_site_occupancy
  Ag  Ag0  1  0.72980000  0.21654000  0.66203000  1.0
  Ag  Ag1  1  0.77020000  0.28346000  0.16203000  1.0
  Ag  Ag2  1  0.27020000  0.78344000  0.33797000  1.0
  Ag  Ag3  1  0.22980000  0.71655000  0.83797000  1.0
  H  H4  1  0.66424000  0.73225000  0.66807000  1.0
  H  H5  1  0.83576000  0.76775000  0.16807000  1.0
  H  H6  1  0.33577000  0.26774000  0.33193000  1.0
  H  H7  1  0.16423000  0.23225000  0.83193000  1.0
  H  H8  1  0.21825000  0.97255000  0.67135000  1.0
  H  H9  1  0.28174000  0.52745000  0.17134000  1.0
  H  H10  1  0.78175000  0.02745000  0.32865000  1.0
  H  H11  1  0.71825000  0.47255000  0.82866000  1.0
  H  H12  1  0.42089000  0.33088000  0.55302000  1.0
  H  H13  1  0.07911000  0.16912000  0.05302000  1.0
  H  H14  1  0.57912000  0.66912000  0.44698000  1.0
  H  H15  1  0.92088000  0.83088000  0.94697000  1.0
  H  H16  1  0.84248000  0.58091000  0.55760000  1.0
  H  H17  1  0.65750000  0.91910000  0.05760000  1.0
  H  H18  1  0.15752000  0.41910000  0.44240000  1.0
  H  H19  1  0.34248000  0.08090000  0.94240000  1.0
  C  C20  1  0.54538000  0.77363000  0.62071000  1.0
  C  C21  1  0.95462000  0.72637000  0.12071000  1.0
  C  C22  1  0.45463000  0.22637000  0.37929000  1.0
  C  C23  1  0.04537000  0.27363000  0.87929000  1.0
  C  C24  1  0.29871000  0.90594000  0.62270000  1.0
  C  C25  1  0.20129000  0.59407000  0.12270000  1.0
  C  C26  1  0.70130000  0.09406000  0.37730000  1.0
  C  C27  1  0.79870000  0.40594000  0.87730000  1.0
  C  C28  1  0.14187000  0.95742000  0.56110000  1.0
  C  C29  1  0.35812000  0.54258000  0.06110000  1.0
  C  C30  1  0.85813000  0.04258000  0.43890000  1.0
  C  C31  1  0.64187000  0.45742000  0.93890000  1.0
  C  C32  1  0.75432000  0.13116000  0.50357000  1.0
  C  C33  1  0.74568000  0.36884000  0.00357000  1.0
  C  C34  1  0.24570000  0.86884000  0.49643000  1.0
  C  C35  1  0.25430000  0.63116000  0.99643000  1.0
  C  C36  1  0.49726000  0.26642000  0.50367000  1.0
  C  C37  1  0.00275000  0.23358000  0.00367000  1.0
  C  C38  1  0.50276000  0.73357000  0.49633000  1.0
  C  C39  1  0.99724000  0.76642000  0.99633000  1.0
  C  C40  1  0.64752000  0.68668000  0.55706000  1.0
  C  C41  1  0.85248000  0.81332000  0.05706000  1.0
  C  C42  1  0.35250000  0.31332000  0.44294000  1.0
  C  C43  1  0.14751000  0.18668000  0.94294000  1.0
  N  N44  1  0.89861000  0.08711000  0.56320000  1.0
  N  N45  1  0.60138000  0.41289000  0.06320000  1.0
  N  N46  1  0.10139000  0.91289000  0.43680000  1.0
  N  N47  1  0.39860000  0.58711000  0.93680000  1.0
  N  N48  1  0.20341000  0.48358000  0.70649000  1.0
  N  N49  1  0.29659000  0.01642000  0.20649000  1.0
  N  N50  1  0.79661000  0.51642000  0.29351000  1.0
  N  N51  1  0.70340000  0.98358000  0.79351000  1.0
  O  O52  1  0.45838000  0.47382000  0.72252000  1.0
  O  O53  1  0.04161000  0.02618000  0.22252000  1.0
  O  O54  1  0.54162000  0.52618000  0.27748000  1.0
  O  O55  1  0.95838000  0.97382000  0.77748000  1.0
  O  O56  1  0.14387000  0.39298000  0.65525000  1.0
  O  O57  1  0.35614000  0.10702000  0.15525000  1.0
  O  O58  1  0.85614000  0.60702000  0.34476000  1.0
  O  O59  1  0.64387000  0.89298000  0.84476000  1.0
  O  O60  1  0.51263000  0.08485000  0.75754000  1.0
  O  O61  1  0.98738000  0.41515000  0.25754000  1.0
  O  O62  1  0.48736000  0.91515000  0.24246000  1.0
  O  O63  1  0.01264000  0.58485000  0.74246000  1.0
