# generated using pymatgen
data_CuH8C13(NO3)2
_symmetry_space_group_name_H-M   'P 1'
_cell_length_a   6.82106000
_cell_length_b   17.25450000
_cell_length_c   17.25455000
_cell_angle_alpha   119.99971243
_cell_angle_beta   90.00000000
_cell_angle_gamma   89.99990000
_symmetry_Int_Tables_number   1
_chemical_formula_structural   CuH8C13(NO3)2
_chemical_formula_sum   'Cu6 H48 C78 N12 O36'
_cell_volume   1758.69195158
_cell_formula_units_Z   6
loop_
 _symmetry_equiv_pos_site_id
 _symmetry_equiv_pos_as_xyz
  1  'x, y, z'
loop_
 _atom_site_type_symbol
 _atom_site_label
 _atom_site_symmetry_multiplicity
 _atom_site_fract_x
 _atom_site_fract_y
 _atom_site_fract_z
 _atom_site_occupancy
  Cu  Cu0  1  0.25000000  0.67305000  0.96886000  1.0
  Cu  Cu1  1  0.75000000  0.70419000  0.67305000  1.0
  Cu  Cu2  1  0.25000000  0.03114000  0.70419000  1.0
  Cu  Cu3  1  0.75000000  0.32695000  0.03114000  1.0
  Cu  Cu4  1  0.25000000  0.29581000  0.32695000  1.0
  Cu  Cu5  1  0.75000000  0.96886000  0.29581000  1.0
  H  H6  1  0.25000000  0.87128000  0.84477000  1.0
  H  H7  1  0.75000000  0.02652000  0.87128000  1.0
  H  H8  1  0.25000000  0.15523000  0.02651000  1.0
  H  H9  1  0.75000000  0.12872000  0.15523000  1.0
  H  H10  1  0.25000000  0.97348000  0.12872000  1.0
  H  H11  1  0.75000000  0.84476000  0.97348000  1.0
  H  H12  1  0.25000000  0.29728000  0.78883000  1.0
  H  H13  1  0.75000000  0.50846000  0.29729000  1.0
  H  H14  1  0.25000000  0.21117000  0.50845000  1.0
  H  H15  1  0.75000000  0.70272000  0.21117000  1.0
  H  H16  1  0.25000000  0.49155000  0.70272000  1.0
  H  H17  1  0.75000000  0.78883000  0.49155000  1.0
  H  H18  1  0.93468000  0.65415000  0.84358000  1.0
  H  H19  1  0.43468000  0.81057000  0.65415000  1.0
  H  H20  1  0.93468000  0.15642000  0.81057000  1.0
  H  H21  1  0.43468000  0.34585000  0.15642000  1.0
  H  H22  1  0.93468000  0.18943000  0.34585000  1.0
  H  H23  1  0.43468000  0.84358000  0.18943000  1.0
  H  H24  1  0.06532000  0.34585000  0.15642000  1.0
  H  H25  1  0.56532000  0.18943000  0.34585000  1.0
  H  H26  1  0.06532000  0.84358000  0.18943000  1.0
  H  H27  1  0.56532000  0.65415000  0.84358000  1.0
  H  H28  1  0.06532000  0.81057000  0.65415000  1.0
  H  H29  1  0.56532000  0.15642000  0.81057000  1.0
  H  H30  1  0.93536000  0.69854000  0.10326000  1.0
  H  H31  1  0.43536000  0.59528000  0.69853000  1.0
  H  H32  1  0.93535000  0.89675000  0.59528000  1.0
  H  H33  1  0.43536000  0.30147000  0.89675000  1.0
  H  H34  1  0.93536000  0.40472000  0.30147000  1.0
  H  H35  1  0.43536000  0.10325000  0.40472000  1.0
  H  H36  1  0.06464000  0.30146000  0.89674000  1.0
  H  H37  1  0.56464000  0.40472000  0.30147000  1.0
  H  H38  1  0.06464000  0.10325000  0.40472000  1.0
  H  H39  1  0.56464000  0.69853000  0.10325000  1.0
  H  H40  1  0.06464000  0.59528000  0.69853000  1.0
  H  H41  1  0.56464000  0.89675000  0.59528000  1.0
  H  H42  1  0.25000000  0.51510000  0.02217000  1.0
  H  H43  1  0.75000000  0.49294000  0.51511000  1.0
  H  H44  1  0.25000000  0.97782000  0.49293000  1.0
  H  H45  1  0.75000000  0.48490000  0.97783000  1.0
  H  H46  1  0.25000000  0.50706000  0.48489000  1.0
  H  H47  1  0.75000000  0.02218000  0.50707000  1.0
  H  H48  1  0.25000000  0.78247000  0.28797000  1.0
  H  H49  1  0.75000000  0.49450000  0.78247000  1.0
  H  H50  1  0.25000000  0.71203000  0.49450000  1.0
  H  H51  1  0.75000000  0.21753000  0.71203000  1.0
  H  H52  1  0.25000000  0.50550000  0.21753000  1.0
  H  H53  1  0.75000000  0.28797000  0.50550000  1.0
  C  C54  1  0.25000000  0.92796000  0.91261000  1.0
  C  C55  1  0.75000000  0.01535000  0.92795000  1.0
  C  C56  1  0.25000000  0.08740000  0.01535000  1.0
  C  C57  1  0.75000000  0.07205000  0.08739000  1.0
  C  C58  1  0.25000000  0.98465000  0.07205000  1.0
  C  C59  1  0.75000000  0.91260000  0.98465000  1.0
  C  C60  1  0.25000000  0.91255000  0.98472000  1.0
  C  C61  1  0.75000000  0.92782000  0.91254000  1.0
  C  C62  1  0.25000000  0.01528000  0.92783000  1.0
  C  C63  1  0.75000000  0.08746000  0.01528000  1.0
  C  C64  1  0.25000000  0.07218000  0.08746000  1.0
  C  C65  1  0.75000000  0.98472000  0.07217000  1.0
  C  C66  1  0.25000000  0.81873000  0.96632000  1.0
  C  C67  1  0.75000000  0.85241000  0.81872000  1.0
  C  C68  1  0.25000000  0.03369000  0.85241000  1.0
  C  C69  1  0.75000000  0.18127000  0.03368000  1.0
  C  C70  1  0.25000000  0.14759000  0.18128000  1.0
  C  C71  1  0.75000000  0.96631000  0.14759000  1.0
  C  C72  1  0.25000000  0.31329000  0.73544000  1.0
  C  C73  1  0.75000000  0.57786000  0.31329000  1.0
  C  C74  1  0.25000000  0.26457000  0.57786000  1.0
  C  C75  1  0.75000000  0.68672000  0.26457000  1.0
  C  C76  1  0.25000000  0.42214000  0.68671000  1.0
  C  C77  1  0.75000000  0.73544000  0.42215000  1.0
  C  C78  1  0.25000000  0.40253000  0.75630000  1.0
  C  C79  1  0.75000000  0.64623000  0.40253000  1.0
  C  C80  1  0.25000000  0.24370000  0.64623000  1.0
  C  C81  1  0.75000000  0.59747000  0.24370000  1.0
  C  C82  1  0.25000000  0.35377000  0.59747000  1.0
  C  C83  1  0.75000000  0.75630000  0.35377000  1.0
  C  C84  1  0.25000000  0.47743000  0.85229000  1.0
  C  C85  1  0.75000000  0.62515000  0.47744000  1.0
  C  C86  1  0.25000000  0.14770000  0.62514000  1.0
  C  C87  1  0.75000000  0.52257000  0.14771000  1.0
  C  C88  1  0.25000000  0.37485000  0.52256000  1.0
  C  C89  1  0.75000000  0.85230000  0.37486000  1.0
  C  C90  1  0.85189000  0.66238000  0.90097000  1.0
  C  C91  1  0.35189000  0.76141000  0.66238000  1.0
  C  C92  1  0.85189000  0.09904000  0.76142000  1.0
  C  C93  1  0.35189000  0.33761000  0.09903000  1.0
  C  C94  1  0.85189000  0.23859000  0.33762000  1.0
  C  C95  1  0.35189000  0.90096000  0.23858000  1.0
  C  C96  1  0.14811000  0.33761000  0.09903000  1.0
  C  C97  1  0.64811000  0.23859000  0.33762000  1.0
  C  C98  1  0.14811000  0.90096000  0.23858000  1.0
  C  C99  1  0.64811000  0.66239000  0.90097000  1.0
  C  C100  1  0.14811000  0.76141000  0.66238000  1.0
  C  C101  1  0.64811000  0.09904000  0.76142000  1.0
  C  C102  1  0.85198000  0.68841000  0.04528000  1.0
  C  C103  1  0.35199000  0.64313000  0.68841000  1.0
  C  C104  1  0.85198000  0.95472000  0.64313000  1.0
  C  C105  1  0.35198000  0.31159000  0.95472000  1.0
  C  C106  1  0.85198000  0.35687000  0.31159000  1.0
  C  C107  1  0.35198000  0.04528000  0.35687000  1.0
  C  C108  1  0.14802000  0.31159000  0.95472000  1.0
  C  C109  1  0.64802000  0.35687000  0.31159000  1.0
  C  C110  1  0.14801000  0.04528000  0.35687000  1.0
  C  C111  1  0.64802000  0.68841000  0.04528000  1.0
  C  C112  1  0.14802000  0.64313000  0.68841000  1.0
  C  C113  1  0.64802000  0.95472000  0.64313000  1.0
  C  C114  1  0.25000000  0.61690000  0.14575000  1.0
  C  C115  1  0.75000000  0.47115000  0.61690000  1.0
  C  C116  1  0.25000000  0.85425000  0.47115000  1.0
  C  C117  1  0.75000000  0.38310000  0.85425000  1.0
  C  C118  1  0.25000000  0.52885000  0.38310000  1.0
  C  C119  1  0.75000000  0.14575000  0.52885000  1.0
  C  C120  1  0.25000000  0.73198000  0.30811000  1.0
  C  C121  1  0.75000000  0.42387000  0.73198000  1.0
  C  C122  1  0.25000000  0.69189000  0.42387000  1.0
  C  C123  1  0.75000000  0.26802000  0.69189000  1.0
  C  C124  1  0.25000000  0.57613000  0.26802000  1.0
  C  C125  1  0.75000000  0.30811000  0.57613000  1.0
  C  C126  1  0.25000000  0.64117000  0.24223000  1.0
  C  C127  1  0.75000000  0.39894000  0.64117000  1.0
  C  C128  1  0.25000000  0.75777000  0.39894000  1.0
  C  C129  1  0.75000000  0.35883000  0.75777000  1.0
  C  C130  1  0.25000000  0.60106000  0.35883000  1.0
  C  C131  1  0.75000000  0.24223000  0.60106000  1.0
  N  N132  1  0.95326000  0.67400000  0.97292000  1.0
  N  N133  1  0.45327000  0.70108000  0.67400000  1.0
  N  N134  1  0.95327000  0.02708000  0.70108000  1.0
  N  N135  1  0.45326000  0.32600000  0.02708000  1.0
  N  N136  1  0.95326000  0.29892000  0.32600000  1.0
  N  N137  1  0.45327000  0.97292000  0.29892000  1.0
  N  N138  1  0.04674000  0.32600000  0.02708000  1.0
  N  N139  1  0.54673000  0.29892000  0.32600000  1.0
  N  N140  1  0.04673000  0.97292000  0.29892000  1.0
  N  N141  1  0.54673000  0.67400000  0.97292000  1.0
  N  N142  1  0.04673000  0.70108000  0.67400000  1.0
  N  N143  1  0.54673000  0.02708000  0.70108000  1.0
  O  O144  1  0.25000000  0.80679000  0.03509000  1.0
  O  O145  1  0.75000000  0.77170000  0.80678000  1.0
  O  O146  1  0.25000000  0.96491000  0.77170000  1.0
  O  O147  1  0.75000000  0.19321000  0.96491000  1.0
  O  O148  1  0.25000000  0.22830000  0.19322000  1.0
  O  O149  1  0.75000000  0.03508000  0.22830000  1.0
  O  O150  1  0.25000000  0.75423000  0.88705000  1.0
  O  O151  1  0.75000000  0.86719000  0.75424000  1.0
  O  O152  1  0.25000000  0.11295000  0.86719000  1.0
  O  O153  1  0.75001000  0.24577000  0.11295000  1.0
  O  O154  1  0.25000000  0.13281000  0.24576000  1.0
  O  O155  1  0.75000000  0.88705000  0.13281000  1.0
  O  O156  1  0.25000000  0.55579000  0.86108000  1.0
  O  O157  1  0.75000000  0.69470000  0.55578000  1.0
  O  O158  1  0.25000000  0.13893000  0.69471000  1.0
  O  O159  1  0.75000000  0.44421000  0.13892000  1.0
  O  O160  1  0.25000000  0.30530000  0.44422000  1.0
  O  O161  1  0.75000000  0.86107000  0.30529000  1.0
  O  O162  1  0.25000000  0.45958000  0.91480000  1.0
  O  O163  1  0.75000000  0.54479000  0.45959000  1.0
  O  O164  1  0.25000000  0.08520000  0.54479000  1.0
  O  O165  1  0.75000000  0.54041000  0.08519000  1.0
  O  O166  1  0.25000000  0.45521000  0.54041000  1.0
  O  O167  1  0.75000000  0.91481000  0.45522000  1.0
  O  O168  1  0.25000000  0.67539000  0.12380000  1.0
  O  O169  1  0.75000000  0.55158000  0.67538000  1.0
  O  O170  1  0.25000000  0.87621000  0.55159000  1.0
  O  O171  1  0.75000000  0.32461000  0.87620000  1.0
  O  O172  1  0.25000000  0.44842000  0.32462000  1.0
  O  O173  1  0.75000000  0.12380000  0.44841000  1.0
  O  O174  1  0.25000000  0.52990000  0.08798000  1.0
  O  O175  1  0.75000000  0.44192000  0.52990000  1.0
  O  O176  1  0.25000000  0.91202000  0.44192000  1.0
  O  O177  1  0.75000000  0.47010000  0.91202000  1.0
  O  O178  1  0.25000000  0.55808000  0.47010000  1.0
  O  O179  1  0.75000000  0.08798000  0.55808000  1.0
