# generated using pymatgen
data_MnH4(C2O3)2
_symmetry_space_group_name_H-M   'P 1'
_cell_length_a   7.16681000
_cell_length_b   7.56320161
_cell_length_c   7.81229182
_cell_angle_alpha   91.26875395
_cell_angle_beta   117.28432475
_cell_angle_gamma   118.26439499
_symmetry_Int_Tables_number   1
_chemical_formula_structural   MnH4(C2O3)2
_chemical_formula_sum   'Mn2 H8 C8 O12'
_cell_volume   315.61641745
_cell_formula_units_Z   2
loop_
 _symmetry_equiv_pos_site_id
 _symmetry_equiv_pos_as_xyz
  1  'x, y, z'
loop_
 _atom_site_type_symbol
 _atom_site_label
 _atom_site_symmetry_multiplicity
 _atom_site_fract_x
 _atom_site_fract_y
 _atom_site_fract_z
 _atom_site_occupancy
  Mn  Mn0  1  0.99999000  0.00000000  0.49999000  1.0
  Mn  Mn1  1  0.00000000  0.50000000  0.00000000  1.0
  H  H2  1  0.88657000  0.59538000  0.55376000  1.0
  H  H3  1  0.23752000  0.90454000  0.94626000  1.0
  H  H4  1  0.11343000  0.40461000  0.44624000  1.0
  H  H5  1  0.76249000  0.09547000  0.05375000  1.0
  H  H6  1  0.90984000  0.63425000  0.35889000  1.0
  H  H7  1  0.41650000  0.86552000  0.14108000  1.0
  H  H8  1  0.09016000  0.36575000  0.64111000  1.0
  H  H9  1  0.58351000  0.13449000  0.85892000  1.0
  C  C10  1  0.21395000  0.22982000  0.94974000  1.0
  C  C11  1  0.53463000  0.27029000  0.55024000  1.0
  C  C12  1  0.78605000  0.77018000  0.05026000  1.0
  C  C13  1  0.46538000  0.72971000  0.44977000  1.0
  C  C14  1  0.33489000  0.24554000  0.16119000  1.0
  C  C15  1  0.42826000  0.25431000  0.33876000  1.0
  C  C16  1  0.66514000  0.75447000  0.83883000  1.0
  C  C17  1  0.57174000  0.74568000  0.66123000  1.0
  O  O18  1  0.96533000  0.70320000  0.49694000  1.0
  O  O19  1  0.26515000  0.79665000  0.00300000  1.0
  O  O20  1  0.03465000  0.29679000  0.50306000  1.0
  O  O21  1  0.73486000  0.20335000  0.99701000  1.0
  O  O22  1  0.16488000  0.07595000  0.82853000  1.0
  O  O23  1  0.76043000  0.42426000  0.67131000  1.0
  O  O24  1  0.83511000  0.92405000  0.17146000  1.0
  O  O25  1  0.23956000  0.57573000  0.32868000  1.0
  O  O26  1  0.16329000  0.36722000  0.89841000  1.0
  O  O27  1  0.39806000  0.13285000  0.60158000  1.0
  O  O28  1  0.83672000  0.63279000  0.10160000  1.0
  O  O29  1  0.60193000  0.86715000  0.39841000  1.0
