# generated using pymatgen
data_CuNiH28(C2N)8
_symmetry_space_group_name_H-M   'P 1'
_cell_length_a   9.03790000
_cell_length_b   11.27510000
_cell_length_c   11.45880000
_cell_angle_alpha   67.88500000
_cell_angle_beta   90.03900000
_cell_angle_gamma   90.01390000
_symmetry_Int_Tables_number   1
_chemical_formula_structural   CuNiH28(C2N)8
_chemical_formula_sum   'Cu2 Ni2 H56 C32 N16'
_cell_volume   1081.78170306
_cell_formula_units_Z   2
loop_
 _symmetry_equiv_pos_site_id
 _symmetry_equiv_pos_as_xyz
  1  'x, y, z'
loop_
 _atom_site_type_symbol
 _atom_site_label
 _atom_site_symmetry_multiplicity
 _atom_site_fract_x
 _atom_site_fract_y
 _atom_site_fract_z
 _atom_site_occupancy
  Cu  Cu0  1  0.38617000  0.29500000  0.03304000  1.0
  Cu  Cu1  1  0.88594000  0.70505000  0.96690000  1.0
  Ni  Ni2  1  0.88340000  0.11829000  0.10421000  1.0
  Ni  Ni3  1  0.38360000  0.88173000  0.89568000  1.0
  H  H4  1  0.24313000  0.46836000  0.77167000  1.0
  H  H5  1  0.74333000  0.53163000  0.22836000  1.0
  H  H6  1  0.28255000  0.52543000  0.93929000  1.0
  H  H7  1  0.78255000  0.47493000  0.06042000  1.0
  H  H8  1  0.46504000  0.52836000  0.92897000  1.0
  H  H9  1  0.96517000  0.47237000  0.07065000  1.0
  H  H10  1  0.51600000  0.64277000  0.71001000  1.0
  H  H11  1  0.01605000  0.35707000  0.29019000  1.0
  H  H12  1  0.33047000  0.69404000  0.69732000  1.0
  H  H13  1  0.83039000  0.30590000  0.30265000  1.0
  H  H14  1  0.48410000  0.19091000  0.88153000  1.0
  H  H15  1  0.98417000  0.80914000  0.11799000  1.0
  H  H16  1  0.30909000  0.22912000  0.84954000  1.0
  H  H17  1  0.80902000  0.77069000  0.14975000  1.0
  H  H18  1  0.28365000  0.60809000  0.52907000  1.0
  H  H19  1  0.78369000  0.39188000  0.47090000  1.0
  H  H20  1  0.43677000  0.71285000  0.48616000  1.0
  H  H21  1  0.93685000  0.28715000  0.51388000  1.0
  H  H22  1  0.31014000  0.05123000  0.13433000  1.0
  H  H23  1  0.80994000  0.94834000  0.86598000  1.0
  H  H24  1  0.48639000  0.06775000  0.16031000  1.0
  H  H25  1  0.98634000  0.93145000  0.84036000  1.0
  H  H26  1  0.61149000  0.53024000  0.55855000  1.0
  H  H27  1  0.11157000  0.46966000  0.44179000  1.0
  H  H28  1  0.48676000  0.51210000  0.44799000  1.0
  H  H29  1  0.98671000  0.48785000  0.55213000  1.0
  H  H30  1  0.42706000  0.41775000  0.18189000  1.0
  H  H31  1  0.92719000  0.58233000  0.81876000  1.0
  H  H32  1  0.25645000  0.35909000  0.19448000  1.0
  H  H33  1  0.75640000  0.64117000  0.80569000  1.0
  H  H34  1  0.33519000  0.35743000  0.62267000  1.0
  H  H35  1  0.83530000  0.64260000  0.37737000  1.0
  H  H36  1  0.52119000  0.30449000  0.63710000  1.0
  H  H37  1  0.02136000  0.69550000  0.36317000  1.0
  H  H38  1  0.57016000  0.39778000  0.79706000  1.0
  H  H39  1  0.07034000  0.60213000  0.20332000  1.0
  H  H40  1  0.22301000  0.11682000  0.28379000  1.0
  H  H41  1  0.72291000  0.88332000  0.71585000  1.0
  H  H42  1  0.51003000  0.96855000  0.38165000  1.0
  H  H43  1  0.01000000  0.03159000  0.61834000  1.0
  H  H44  1  0.33360000  0.90305000  0.37843000  1.0
  H  H45  1  0.83347000  0.09713000  0.62135000  1.0
  H  H46  1  0.40013000  0.90224000  0.59537000  1.0
  H  H47  1  0.90007000  0.09769000  0.40457000  1.0
  H  H48  1  0.23687000  0.98859000  0.53411000  1.0
  H  H49  1  0.73675000  0.01143000  0.46561000  1.0
  H  H50  1  0.39183000  0.11147000  0.62466000  1.0
  H  H51  1  0.89171000  0.88850000  0.37534000  1.0
  H  H52  1  0.54519000  0.10296000  0.53329000  1.0
  H  H53  1  0.04512000  0.89704000  0.46682000  1.0
  H  H54  1  0.42198000  0.31522000  0.43463000  1.0
  H  H55  1  0.92189000  0.68472000  0.56544000  1.0
  H  H56  1  0.25111000  0.23977000  0.43112000  1.0
  H  H57  1  0.75096000  0.76021000  0.56875000  1.0
  H  H58  1  0.53395000  0.21882000  0.29173000  1.0
  H  H59  1  0.03389000  0.78142000  0.70821000  1.0
  C  C60  1  0.03638000  0.00233000  0.14039000  1.0
  C  C61  1  0.53663000  0.99765000  0.85947000  1.0
  C  C62  1  0.74629000  0.98727000  0.16139000  1.0
  C  C63  1  0.24636000  0.01268000  0.83853000  1.0
  C  C64  1  0.73788000  0.23954000  0.07003000  1.0
  C  C65  1  0.23812000  0.76036000  0.93006000  1.0
  C  C66  1  0.01590000  0.25084000  0.05438000  1.0
  C  C67  1  0.51614000  0.74927000  0.94550000  1.0
  C  C68  1  0.35974000  0.48931000  0.78581000  1.0
  C  C69  1  0.85991000  0.51075000  0.21411000  1.0
  C  C70  1  0.40306000  0.61987000  0.68805000  1.0
  C  C71  1  0.90308000  0.38010000  0.31202000  1.0
  C  C72  1  0.39904000  0.61999000  0.55440000  1.0
  C  C73  1  0.89908000  0.37999000  0.44571000  1.0
  C  C74  1  0.49417000  0.51193000  0.54400000  1.0
  C  C75  1  0.99423000  0.48792000  0.45620000  1.0
  C  C76  1  0.44898000  0.38117000  0.64140000  1.0
  C  C77  1  0.94913000  0.61880000  0.35871000  1.0
  C  C78  1  0.45487000  0.38230000  0.77408000  1.0
  C  C79  1  0.95500000  0.61775000  0.22593000  1.0
  C  C80  1  0.34463000  0.10715000  0.28339000  1.0
  C  C81  1  0.84454000  0.89289000  0.71659000  1.0
  C  C82  1  0.39072000  0.98359000  0.39080000  1.0
  C  C83  1  0.89063000  0.01650000  0.60910000  1.0
  C  C84  1  0.35764000  0.98880000  0.51995000  1.0
  C  C85  1  0.85753000  0.01118000  0.47988000  1.0
  C  C86  1  0.42329000  0.10804000  0.53359000  1.0
  C  C87  1  0.92322000  0.89199000  0.46636000  1.0
  C  C88  1  0.37236000  0.22973000  0.42622000  1.0
  C  C89  1  0.87228000  0.77031000  0.57374000  1.0
  C  C90  1  0.41263000  0.22461000  0.29904000  1.0
  C  C91  1  0.91254000  0.77546000  0.70099000  1.0
  N  N92  1  0.13442000  0.92816000  0.16381000  1.0
  N  N93  1  0.63478000  0.07174000  0.83610000  1.0
  N  N94  1  0.66082000  0.90257000  0.20062000  1.0
  N  N95  1  0.16083000  0.09735000  0.79941000  1.0
  N  N96  1  0.64950000  0.32183000  0.04903000  1.0
  N  N97  1  0.14990000  0.67795000  0.95126000  1.0
  N  N98  1  0.09549000  0.33996000  0.02675000  1.0
  N  N99  1  0.59578000  0.66019000  0.97310000  1.0
  N  N100  1  0.37181000  0.48173000  0.91672000  1.0
  N  N101  1  0.87177000  0.51847000  0.08317000  1.0
  N  N102  1  0.40719000  0.26090000  0.87349000  1.0
  N  N103  1  0.90735000  0.73908000  0.12630000  1.0
  N  N104  1  0.38404000  0.10898000  0.15708000  1.0
  N  N105  1  0.88382000  0.89078000  0.84311000  1.0
  N  N106  1  0.36625000  0.33859000  0.18980000  1.0
  N  N107  1  0.86621000  0.66150000  0.81025000  1.0
