# generated using pymatgen
data_Cu3H4C8N7
_symmetry_space_group_name_H-M   'P 1'
_cell_length_a   7.65368000
_cell_length_b   8.81159000
_cell_length_c   9.27967000
_cell_angle_alpha   62.60340000
_cell_angle_beta   65.76830000
_cell_angle_gamma   77.63980000
_symmetry_Int_Tables_number   1
_chemical_formula_structural   Cu3H4C8N7
_chemical_formula_sum   'Cu6 H8 C16 N14'
_cell_volume   506.43840466
_cell_formula_units_Z   2
loop_
 _symmetry_equiv_pos_site_id
 _symmetry_equiv_pos_as_xyz
  1  'x, y, z'
loop_
 _atom_site_type_symbol
 _atom_site_label
 _atom_site_symmetry_multiplicity
 _atom_site_fract_x
 _atom_site_fract_y
 _atom_site_fract_z
 _atom_site_occupancy
  Cu  Cu0  1  0.76712000  0.96448000  0.23939000  1.0
  Cu  Cu1  1  0.23288000  0.03552000  0.76061000  1.0
  Cu  Cu2  1  0.64478000  0.34526000  0.53242000  1.0
  Cu  Cu3  1  0.35523000  0.65473000  0.46758000  1.0
  Cu  Cu4  1  0.08148000  0.13158000  0.52836000  1.0
  Cu  Cu5  1  0.91850000  0.86843000  0.47164000  1.0
  H  H6  1  0.44682000  0.49390000  0.77850000  1.0
  H  H7  1  0.55318000  0.50610000  0.22150000  1.0
  H  H8  1  0.15785000  0.61889000  0.94604000  1.0
  H  H9  1  0.84216000  0.38112000  0.05396000  1.0
  H  H10  1  0.00741000  0.45583000  0.26804000  1.0
  H  H11  1  0.99260000  0.54418000  0.73195000  1.0
  H  H12  1  0.41677000  0.06117000  0.26760000  1.0
  H  H13  1  0.58322000  0.93884000  0.73241000  1.0
  C  C14  1  0.62834000  0.18829000  0.92357000  1.0
  C  C15  1  0.37166000  0.81171000  0.07644000  1.0
  C  C16  1  0.45530000  0.26676000  0.01020000  1.0
  C  C17  1  0.54469000  0.73324000  0.98980000  1.0
  C  C18  1  0.37948000  0.42513000  0.91909000  1.0
  C  C19  1  0.62052000  0.57487000  0.08091000  1.0
  C  C20  1  0.21861000  0.49502000  0.01233000  1.0
  C  C21  1  0.78140000  0.50499000  0.98765000  1.0
  C  C22  1  0.13532000  0.40579000  0.19169000  1.0
  C  C23  1  0.86469000  0.59422000  0.80831000  1.0
  C  C24  1  0.36404000  0.18492000  0.19105000  1.0
  C  C25  1  0.63596000  0.81508000  0.80895000  1.0
  C  C26  1  0.73266000  0.72683000  0.34194000  1.0
  C  C27  1  0.26734000  0.27315000  0.65806000  1.0
  C  C28  1  0.74049000  0.09801000  0.35999000  1.0
  C  C29  1  0.25953000  0.90197000  0.64001000  1.0
  N  N30  1  0.74788000  0.07804000  0.00305000  1.0
  N  N31  1  0.25212000  0.92196000  0.99695000  1.0
  N  N32  1  0.89031000  0.03596000  0.88302000  1.0
  N  N33  1  0.10969000  0.96403000  0.11698000  1.0
  N  N34  1  0.86055000  0.11781000  0.73463000  1.0
  N  N35  1  0.13944000  0.88218000  0.26538000  1.0
  N  N36  1  0.69737000  0.21446000  0.75482000  1.0
  N  N37  1  0.30262000  0.78554000  0.24518000  1.0
  N  N38  1  0.20636000  0.25177000  0.28029000  1.0
  N  N39  1  0.79364000  0.74824000  0.71970000  1.0
  N  N40  1  0.70085000  0.57938000  0.41625000  1.0
  N  N41  1  0.29916000  0.42062000  0.58375000  1.0
  N  N42  1  0.69638000  0.19769000  0.42218000  1.0
  N  N43  1  0.30362000  0.80232000  0.57783000  1.0
