# generated using pymatgen
data_Zn4H30C21(N3O8)2
_symmetry_space_group_name_H-M   'P 1'
_cell_length_a   15.77950000
_cell_length_b   16.45580000
_cell_length_c   16.61830000
_cell_angle_alpha   65.47130000
_cell_angle_beta   63.10420000
_cell_angle_gamma   63.99470000
_symmetry_Int_Tables_number   1
_chemical_formula_structural   Zn4H30C21(N3O8)2
_chemical_formula_sum   'Zn8 H60 C42 N12 O32'
_cell_volume   3329.83997503
_cell_formula_units_Z   2
loop_
 _symmetry_equiv_pos_site_id
 _symmetry_equiv_pos_as_xyz
  1  'x, y, z'
loop_
 _atom_site_type_symbol
 _atom_site_label
 _atom_site_symmetry_multiplicity
 _atom_site_fract_x
 _atom_site_fract_y
 _atom_site_fract_z
 _atom_site_occupancy
  Zn  Zn0  1  0.08720000  0.99301000  0.01814000  1.0
  Zn  Zn1  1  0.05353000  0.80396000  0.04738000  1.0
  Zn  Zn2  1  0.03036000  0.97896000  0.86130000  1.0
  Zn  Zn3  1  0.86836000  0.98816000  0.06611000  1.0
  Zn  Zn4  1  0.45331000  0.38286000  0.44575000  1.0
  Zn  Zn5  1  0.45915000  0.57355000  0.44626000  1.0
  Zn  Zn6  1  0.64350000  0.38563000  0.46942000  1.0
  Zn  Zn7  1  0.43126000  0.40192000  0.63559000  1.0
  H  H8  1  0.99475000  0.48019000  0.62636000  1.0
  H  H9  1  0.05189000  0.53543000  0.63668000  1.0
  H  H10  1  0.94883000  0.59720000  0.50346000  1.0
  H  H11  1  0.93204000  0.65936000  0.57651000  1.0
  H  H12  1  0.16749000  0.53609000  0.46051000  1.0
  H  H13  1  0.23047000  0.70011000  0.37624000  1.0
  H  H14  1  0.21349000  0.63120000  0.24420000  1.0
  H  H15  1  0.32838000  0.65078000  0.21084000  1.0
  H  H16  1  0.24578000  0.81446000  0.21507000  1.0
  H  H17  1  0.12834000  0.79485000  0.27828000  1.0
  H  H18  1  0.55810000  0.95891000  0.48110000  1.0
  H  H19  1  0.49745000  0.07000000  0.47179000  1.0
  H  H20  1  0.56785000  0.93598000  0.63059000  1.0
  H  H21  1  0.62437000  0.02240000  0.54411000  1.0
  H  H22  1  0.36495000  0.08157000  0.61550000  1.0
  H  H23  1  0.31282000  0.17143000  0.75742000  1.0
  H  H24  1  0.21351000  0.18012000  0.63759000  1.0
  H  H25  1  0.19716000  0.29404000  0.63448000  1.0
  H  H26  1  0.05808000  0.25178000  0.75992000  1.0
  H  H27  1  0.13689000  0.24448000  0.81428000  1.0
  H  H28  1  0.57554000  0.42715000  0.97766000  1.0
  H  H29  1  0.48873000  0.48933000  0.05167000  1.0
  H  H30  1  0.68538000  0.49697000  0.93805000  1.0
  H  H31  1  0.59216000  0.57470000  0.00555000  1.0
  H  H32  1  0.61632000  0.36378000  0.14674000  1.0
  H  H33  1  0.77566000  0.36993000  0.19305000  1.0
  H  H34  1  0.72406000  0.19871000  0.21997000  1.0
  H  H35  1  0.80556000  0.19210000  0.27089000  1.0
  H  H36  1  0.92364000  0.24253000  0.11608000  1.0
  H  H37  1  0.83448000  0.27612000  0.06125000  1.0
  H  H38  1  0.99103000  0.93879000  0.51423000  1.0
  H  H39  1  0.04618000  0.85487000  0.46060000  1.0
  H  H40  1  0.92457000  0.84537000  0.65586000  1.0
  H  H41  1  0.92529000  0.79256000  0.58171000  1.0
  H  H42  1  0.14744000  0.77976000  0.57938000  1.0
  H  H43  1  0.15782000  0.59469000  0.72473000  1.0
  H  H44  1  0.22584000  0.75482000  0.69803000  1.0
  H  H45  1  0.26218000  0.64018000  0.77284000  1.0
  H  H46  1  0.08965000  0.64943000  0.87145000  1.0
  H  H47  1  0.04334000  0.75051000  0.78755000  1.0
  H  H48  1  0.46920000  0.86426000  0.58234000  1.0
  H  H49  1  0.45240000  0.75973000  0.63124000  1.0
  H  H50  1  0.62825000  0.80979000  0.58127000  1.0
  H  H51  1  0.59608000  0.71138000  0.66809000  1.0
  H  H52  1  0.57887000  0.73459000  0.46658000  1.0
  H  H53  1  0.77747000  0.58848000  0.42177000  1.0
  H  H54  1  0.68989000  0.74626000  0.27212000  1.0
  H  H55  1  0.80169000  0.65098000  0.25182000  1.0
  H  H56  1  0.87005000  0.70259000  0.32795000  1.0
  H  H57  1  0.76022000  0.80111000  0.34128000  1.0
  H  H58  1  0.94632000  0.41682000  0.57276000  1.0
  H  H59  1  0.85125000  0.50873000  0.54734000  1.0
  H  H60  1  0.87637000  0.41944000  0.72682000  1.0
  H  H61  1  0.78710000  0.52524000  0.69082000  1.0
  H  H62  1  0.79045000  0.35647000  0.63490000  1.0
  H  H63  1  0.61340000  0.31943000  0.80087000  1.0
  H  H64  1  0.80042000  0.17231000  0.71694000  1.0
  H  H65  1  0.68370000  0.14961000  0.77729000  1.0
  H  H66  1  0.66666667  0.16891000  0.92167000  1.0
  H  H67  1  0.75818000  0.22639000  0.86332000  1.0
  C  C68  1  0.98866000  0.61025000  0.53445000  1.0
  C  C69  1  0.06050000  0.66185000  0.45430000  1.0
  C  C70  1  0.23853000  0.63897000  0.35849000  1.0
  C  C71  1  0.24887000  0.66967000  0.25347000  1.0
  C  C72  1  0.20020000  0.77547000  0.22238000  1.0
  C  C73  1  0.17239000  0.81336000  0.13532000  1.0
  C  C74  1  0.33377000  0.56521000  0.37485000  1.0
  C  C75  1  0.55317000  0.00600000  0.58080000  1.0
  C  C76  1  0.48417000  0.07700000  0.63793000  1.0
  C  C77  1  0.31904000  0.18692000  0.68429000  1.0
  C  C78  1  0.21407000  0.22031000  0.67616000  1.0
  C  C79  1  0.13074000  0.21293000  0.77128000  1.0
  C  C80  1  0.12814000  0.11330000  0.82668000  1.0
  C  C81  1  0.36446000  0.26784000  0.62797000  1.0
  C  C82  1  0.63005000  0.49974000  0.00813000  1.0
  C  C83  1  0.68968000  0.46020000  0.07490000  1.0
  C  C84  1  0.72133000  0.33412000  0.21331000  1.0
  C  C85  1  0.77691000  0.23072000  0.21163000  1.0
  C  C86  1  0.86275000  0.22490000  0.11891000  1.0
  C  C87  1  0.90315000  0.12978000  0.10135000  1.0
  C  C88  1  0.65330000  0.33867000  0.31294000  1.0
  C  C89  1  0.97339000  0.80993000  0.59960000  1.0
  C  C90  1  0.03983000  0.71750000  0.64431000  1.0
  C  C91  1  0.19552000  0.64866000  0.67914000  1.0
  C  C92  1  0.20387000  0.69084000  0.74177000  1.0
  C  C93  1  0.10306000  0.71424000  0.81891000  1.0
  C  C94  1  0.09480000  0.77903000  0.86699000  1.0
  C  C95  1  0.29874000  0.59725000  0.62234000  1.0
  C  C96  1  0.59810000  0.75424000  0.59607000  1.0
  C  C97  1  0.67819000  0.69217000  0.53149000  1.0
  C  C98  1  0.71355000  0.63816000  0.39838000  1.0
  C  C99  1  0.75279000  0.69780000  0.29790000  1.0
  C  C100  1  0.81072000  0.75232000  0.29779000  1.0
  C  C101  1  0.85982000  0.80802000  0.20136000  1.0
  C  C102  1  0.65428000  0.58090000  0.40621000  1.0
  C  C103  1  0.82273000  0.45150000  0.68857000  1.0
  C  C104  1  0.74189000  0.40245000  0.74700000  1.0
  C  C105  1  0.67343000  0.29668000  0.73960000  1.0
  C  C106  1  0.72715000  0.19055000  0.77061000  1.0
  C  C107  1  0.73821000  0.16913000  0.86483000  1.0
  C  C108  1  0.81796000  0.08116000  0.89399000  1.0
  C  C109  1  0.62437000  0.32181000  0.66790000  1.0
  N  N110  1  0.04083000  0.52097000  0.58841000  1.0
  N  N111  1  0.15387000  0.60514000  0.42259000  1.0
  N  N112  1  0.50906000  0.00583000  0.51965000  1.0
  N  N113  1  0.38520000  0.10458000  0.65028000  1.0
  N  N114  1  0.56139000  0.44878000  0.03308000  1.0
  N  N115  1  0.66933000  0.38410000  0.14616000  1.0
  N  N116  1  0.03087000  0.86953000  0.52076000  1.0
  N  N117  1  0.13277000  0.71869000  0.62459000  1.0
  N  N118  1  0.50124000  0.79535000  0.58178000  1.0
  N  N119  1  0.65068000  0.69458000  0.46450000  1.0
  N  N120  1  0.87064000  0.44396000  0.59208000  1.0
  N  N121  1  0.74078000  0.35104000  0.70204000  1.0
  O  O122  1  0.01151000  0.94111000  0.99574000  1.0
  O  O123  1  0.03336000  0.74887000  0.42143000  1.0
  O  O124  1  0.14412000  0.76246000  0.11780000  1.0
  O  O125  1  0.17436000  0.89710000  0.08799000  1.0
  O  O126  1  0.40792000  0.59408000  0.34766000  1.0
  O  O127  1  0.33364000  0.48019000  0.41427000  1.0
  O  O128  1  0.51743000  0.10891000  0.66904000  1.0
  O  O129  1  0.10693000  0.07077000  0.79252000  1.0
  O  O130  1  0.14555000  0.08082000  0.90374000  1.0
  O  O131  1  0.35015000  0.32167000  0.67302000  1.0
  O  O132  1  0.40679000  0.27729000  0.54007000  1.0
  O  O133  1  0.75133000  0.49516000  0.06258000  1.0
  O  O134  1  0.84167000  0.10313000  0.09555000  1.0
  O  O135  1  0.99461000  0.08405000  0.09293000  1.0
  O  O136  1  0.69606000  0.32755000  0.36788000  1.0
  O  O137  1  0.56132000  0.35037000  0.33369000  1.0
  O  O138  1  0.00880000  0.64928000  0.69705000  1.0
  O  O139  1  0.08602000  0.86480000  0.81951000  1.0
  O  O140  1  0.09706000  0.74284000  0.95058000  1.0
  O  O141  1  0.34325000  0.52012000  0.67026000  1.0
  O  O142  1  0.33250000  0.63422000  0.53469000  1.0
  O  O143  1  0.76136000  0.64581000  0.54158000  1.0
  O  O144  1  0.81849000  0.89707000  0.18113000  1.0
  O  O145  1  0.93864000  0.76245000  0.14857000  1.0
  O  O146  1  0.69774000  0.49405000  0.41350000  1.0
  O  O147  1  0.56428000  0.62705000  0.40684000  1.0
  O  O148  1  0.68642000  0.40950000  0.82741000  1.0
  O  O149  1  0.90490000  0.06254000  0.83297000  1.0
  O  O150  1  0.79348000  0.03466000  0.97998000  1.0
  O  O151  1  0.52994000  0.34089000  0.69973000  1.0
  O  O152  1  0.68144000  0.32268000  0.58343000  1.0
  O  O153  1  0.49815000  0.43703000  0.49975000  1.0
