# generated using pymatgen
data_Al6H20(C9O4)7
_symmetry_space_group_name_H-M   'P 1'
_cell_length_a   12.47860000
_cell_length_b   12.57594733
_cell_length_c   27.02290000
_cell_angle_alpha   82.05355838
_cell_angle_beta   82.21750000
_cell_angle_gamma   60.27293518
_symmetry_Int_Tables_number   1
_chemical_formula_structural   Al6H20(C9O4)7
_chemical_formula_sum   'Al6 H20 C63 O28'
_cell_volume   3636.22189938
_cell_formula_units_Z   1
loop_
 _symmetry_equiv_pos_site_id
 _symmetry_equiv_pos_as_xyz
  1  'x, y, z'
loop_
 _atom_site_type_symbol
 _atom_site_label
 _atom_site_symmetry_multiplicity
 _atom_site_fract_x
 _atom_site_fract_y
 _atom_site_fract_z
 _atom_site_occupancy
  Al  Al0  1  0.40156000  0.41107000  0.51170000  1.0
  Al  Al1  1  0.40984000  0.66432000  0.49820000  1.0
  Al  Al2  1  0.65250000  0.42838000  0.49703000  1.0
  Al  Al3  1  0.91857000  0.92105000  0.97928000  1.0
  Al  Al4  1  0.66258000  0.91366000  0.99630000  1.0
  Al  Al5  1  0.90032000  0.67283000  0.99787000  1.0
  H  H6  1  0.58897000  0.86504000  0.68386000  1.0
  H  H7  1  0.08970000  0.86819000  0.19445000  1.0
  H  H8  1  0.10850000  0.51416000  0.22750000  1.0
  H  H9  1  0.14400000  0.51380000  0.31644000  1.0
  H  H10  1  0.60305000  0.87936000  0.77340000  1.0
  H  H11  1  0.72759000  0.49099000  0.80378000  1.0
  H  H12  1  0.66776000  0.01241000  0.31688000  1.0
  H  H13  1  0.67244000  0.97235000  0.22877000  1.0
  H  H14  1  0.68280000  0.30735000  0.17638000  1.0
  H  H15  1  0.67804000  0.34743000  0.26453000  1.0
  H  H16  1  0.71343000  0.47670000  0.71425000  1.0
  H  H17  1  0.08487000  0.05193000  0.36306000  1.0
  H  H18  1  0.02916000  0.14582000  0.30688000  1.0
  H  H19  1  0.92326000  0.14841000  0.35844000  1.0
  H  H20  1  0.92695000  0.02202000  0.29317000  1.0
  H  H21  1  0.98355000  0.92964000  0.34899000  1.0
  H  H22  1  0.20165000  0.86515000  0.31204000  1.0
  H  H23  1  0.14241000  0.95269000  0.25523000  1.0
  H  H24  1  0.30850000  0.29864000  0.55392000  1.0
  H  H25  1  0.00793000  0.03745000  0.99449000  1.0
  C  C26  1  0.28138000  0.61446000  0.58233000  1.0
  C  C27  1  0.69734000  0.57240000  0.77738000  1.0
  C  C28  1  0.68955000  0.56445000  0.72743000  1.0
  C  C29  1  0.65026000  0.66997000  0.69313000  1.0
  C  C30  1  0.66605000  0.68615000  0.79455000  1.0
  C  C31  1  0.67560000  0.69504000  0.84526000  1.0
  C  C32  1  0.64010000  0.66095000  0.64251000  1.0
  C  C33  1  0.68503000  0.70451000  0.88860000  1.0
  C  C34  1  0.67411000  0.10086000  0.86377000  1.0
  C  C35  1  0.66386000  0.12864000  0.81866000  1.0
  C  C36  1  0.65672000  0.15603000  0.76911000  1.0
  C  C37  1  0.60513000  0.62448000  0.55366000  1.0
  C  C38  1  0.65450000  0.17839000  0.72322000  1.0
  C  C39  1  0.65041000  0.20541000  0.67357000  1.0
  C  C40  1  0.64556000  0.23224000  0.62821000  1.0
  C  C41  1  0.10527000  0.66835000  0.86891000  1.0
  C  C42  1  0.13376000  0.65934000  0.82381000  1.0
  C  C43  1  0.16155000  0.65242000  0.77431000  1.0
  C  C44  1  0.18337000  0.64939000  0.72846000  1.0
  C  C45  1  0.20875000  0.64430000  0.67879000  1.0
  C  C46  1  0.23385000  0.63799000  0.63343000  1.0
  C  C47  1  0.67621000  0.69255000  0.12558000  1.0
  C  C48  1  0.61921000  0.28424000  0.57763000  1.0
  C  C49  1  0.66387000  0.68160000  0.17156000  1.0
  C  C50  1  0.65226000  0.67101000  0.22183000  1.0
  C  C51  1  0.64352000  0.66274000  0.26812000  1.0
  C  C52  1  0.63281000  0.65236000  0.31841000  1.0
  C  C53  1  0.62206000  0.64182000  0.36440000  1.0
  C  C54  1  0.65220000  0.23602000  0.38928000  1.0
  C  C55  1  0.67082000  0.07661000  0.28597000  1.0
  C  C56  1  0.67339000  0.05437000  0.23687000  1.0
  C  C57  1  0.67952000  0.24328000  0.20731000  1.0
  C  C58  1  0.67691000  0.26553000  0.25643000  1.0
  C  C59  1  0.26058000  0.63443000  0.44188000  1.0
  C  C60  1  0.67164000  0.18298000  0.29649000  1.0
  C  C61  1  0.67678000  0.13788000  0.19680000  1.0
  C  C62  1  0.67820000  0.11566000  0.14676000  1.0
  C  C63  1  0.66362000  0.20923000  0.34652000  1.0
  C  C64  1  0.67993000  0.09565000  0.10372000  1.0
  C  C65  1  0.19897000  0.66958000  0.39665000  1.0
  C  C66  1  0.12118000  0.79274000  0.27093000  1.0
  C  C67  1  0.10136000  0.79124000  0.22162000  1.0
  C  C68  1  0.11177000  0.59105000  0.24006000  1.0
  C  C69  1  0.13109000  0.59105000  0.28932000  1.0
  C  C70  1  0.59848000  0.61791000  0.41725000  1.0
  C  C71  1  0.13731000  0.69019000  0.30511000  1.0
  C  C72  1  0.09795000  0.69107000  0.20540000  1.0
  C  C73  1  0.08138000  0.69183000  0.15462000  1.0
  C  C74  1  0.16688000  0.68224000  0.35460000  1.0
  C  C75  1  0.06662000  0.69556000  0.11060000  1.0
  C  C76  1  0.70673000  0.04814000  0.91380000  1.0
  C  C77  1  0.70718000  0.72781000  0.93554000  1.0
  C  C78  1  0.04995000  0.69911000  0.91866000  1.0
  C  C79  1  0.70034000  0.05105000  0.05528000  1.0
  C  C80  1  0.70532000  0.71708000  0.07338000  1.0
  C  C81  1  0.61821000  0.28855000  0.43671000  1.0
  C  C82  1  0.02893000  0.71880000  0.06067000  1.0
  C  C83  1  0.63005000  0.65057000  0.59937000  1.0
  C  C84  1  0.61914000  0.78367000  0.71027000  1.0
  C  C85  1  0.62688000  0.79162000  0.76023000  1.0
  C  C86  1  0.12448000  0.89964000  0.28802000  1.0
  C  C87  1  0.00360000  0.98466000  0.31761000  1.0
  C  C88  1  0.01043000  0.08862000  0.33760000  1.0
  O  O89  1  0.51918000  0.30179000  0.56327000  1.0
  O  O90  1  0.49502000  0.69501000  0.43770000  1.0
  O  O91  1  0.68054000  0.51836000  0.43838000  1.0
  O  O92  1  0.69855000  0.30727000  0.45407000  1.0
  O  O93  1  0.48947000  0.50221000  0.50255000  1.0
  O  O94  1  0.02886000  0.80101000  0.93119000  1.0
  O  O95  1  0.81671000  0.01244000  0.92255000  1.0
  O  O96  1  0.62293000  0.03799000  0.94445000  1.0
  O  O97  1  0.62907000  0.83164000  0.95248000  1.0
  O  O98  1  0.80553000  0.64692000  0.95604000  1.0
  O  O99  1  0.02169000  0.62169000  0.94532000  1.0
  O  O100  1  0.30367000  0.51308000  0.56850000  1.0
  O  O101  1  0.00780000  0.82134000  0.03785000  1.0
  O  O102  1  0.79657000  0.03743000  0.02840000  1.0
  O  O103  1  0.62021000  0.02311000  0.04419000  1.0
  O  O104  1  0.62804000  0.81809000  0.05150000  1.0
  O  O105  1  0.80996000  0.63803000  0.05419000  1.0
  O  O106  1  0.01511000  0.63549000  0.04366000  1.0
  O  O107  1  0.82569000  0.83479000  0.99169000  1.0
  O  O108  1  0.30128000  0.69724000  0.55580000  1.0
  O  O109  1  0.50299000  0.70229000  0.53472000  1.0
  O  O110  1  0.68386000  0.52171000  0.53623000  1.0
  O  O111  1  0.69774000  0.31295000  0.55224000  1.0
  O  O112  1  0.51117000  0.31617000  0.45646000  1.0
  O  O113  1  0.29286000  0.52697000  0.46171000  1.0
  O  O114  1  0.28261000  0.71387000  0.45776000  1.0
  O  O115  1  0.32223000  0.32738000  0.51987000  1.0
  O  O116  1  0.00251000  0.00015000  0.96665000  1.0
