# generated using pymatgen
data_MnH6C9O7
_symmetry_space_group_name_H-M   'P 1'
_cell_length_a   8.50996000
_cell_length_b   9.63657000
_cell_length_c   11.09130000
_cell_angle_alpha   88.78970000
_cell_angle_beta   89.99730000
_cell_angle_gamma   89.99380000
_symmetry_Int_Tables_number   1
_chemical_formula_structural   MnH6C9O7
_chemical_formula_sum   'Mn4 H24 C36 O28'
_cell_volume   909.35937346
_cell_formula_units_Z   4
loop_
 _symmetry_equiv_pos_site_id
 _symmetry_equiv_pos_as_xyz
  1  'x, y, z'
loop_
 _atom_site_type_symbol
 _atom_site_label
 _atom_site_symmetry_multiplicity
 _atom_site_fract_x
 _atom_site_fract_y
 _atom_site_fract_z
 _atom_site_occupancy
  Mn  Mn0  1  0.48957000  0.21265000  0.86652000  1.0
  Mn  Mn1  1  0.98960000  0.28728000  0.13348000  1.0
  Mn  Mn2  1  0.51048000  0.78741000  0.13349000  1.0
  Mn  Mn3  1  0.01043000  0.71264000  0.86652000  1.0
  H  H4  1  0.52084000  0.40663000  0.28970000  1.0
  H  H5  1  0.02086000  0.09331000  0.71030000  1.0
  H  H6  1  0.47913000  0.59335000  0.71025000  1.0
  H  H7  1  0.97918000  0.90670000  0.28973000  1.0
  H  H8  1  0.47671000  0.31697000  0.49766000  1.0
  H  H9  1  0.97672000  0.18303000  0.50235000  1.0
  H  H10  1  0.52326000  0.68306000  0.50232000  1.0
  H  H11  1  0.02332000  0.81697000  0.49769000  1.0
  H  H12  1  0.73922000  0.02020000  0.84983000  1.0
  H  H13  1  0.23920000  0.47981000  0.15015000  1.0
  H  H14  1  0.26080000  0.97977000  0.15019000  1.0
  H  H15  1  0.76077000  0.52021000  0.84982000  1.0
  H  H16  1  0.68973000  0.03569000  0.98983000  1.0
  H  H17  1  0.18971000  0.46431000  0.01017000  1.0
  H  H18  1  0.31029000  0.96429000  0.01019000  1.0
  H  H19  1  0.81028000  0.53569000  0.98982000  1.0
  H  H20  1  0.36533000  0.31723000  0.06749000  1.0
  H  H21  1  0.86535000  0.18277000  0.93251000  1.0
  H  H22  1  0.63464000  0.68276000  0.93250000  1.0
  H  H23  1  0.13465000  0.81721000  0.06749000  1.0
  H  H24  1  0.49175000  0.21155000  0.12255000  1.0
  H  H25  1  0.99175000  0.28844000  0.87744000  1.0
  H  H26  1  0.50824000  0.78846000  0.87745000  1.0
  H  H27  1  0.00825000  0.71156000  0.12257000  1.0
  C  C28  1  0.65297000  0.32587000  0.68604000  1.0
  C  C29  1  0.15300000  0.17413000  0.31396000  1.0
  C  C30  1  0.34697000  0.67416000  0.31396000  1.0
  C  C31  1  0.84700000  0.82585000  0.68605000  1.0
  C  C32  1  0.70328000  0.37721000  0.56330000  1.0
  C  C33  1  0.20328000  0.12279000  0.43671000  1.0
  C  C34  1  0.29667000  0.62279000  0.43672000  1.0
  C  C35  1  0.79673000  0.87720000  0.56329000  1.0
  C  C36  1  0.84864000  0.43822000  0.53240000  1.0
  C  C37  1  0.34865000  0.06178000  0.46760000  1.0
  C  C38  1  0.15132000  0.56176000  0.46760000  1.0
  C  C39  1  0.65138000  0.93822000  0.53241000  1.0
  C  C40  1  0.87177000  0.49406000  0.41473000  1.0
  C  C41  1  0.37179000  0.00593000  0.58527000  1.0
  C  C42  1  0.12820000  0.50593000  0.58528000  1.0
  C  C43  1  0.62824000  0.99406000  0.41473000  1.0
  C  C44  1  0.75276000  0.48405000  0.32761000  1.0
  C  C45  1  0.25279000  0.01597000  0.67241000  1.0
  C  C46  1  0.24720000  0.51596000  0.67241000  1.0
  C  C47  1  0.74724000  0.98405000  0.32759000  1.0
  C  C48  1  0.61258000  0.41650000  0.35727000  1.0
  C  C49  1  0.11259000  0.08350000  0.64274000  1.0
  C  C50  1  0.38737000  0.58353000  0.64273000  1.0
  C  C51  1  0.88743000  0.91649000  0.35727000  1.0
  C  C52  1  0.58836000  0.36527000  0.47378000  1.0
  C  C53  1  0.08836000  0.13472000  0.52623000  1.0
  C  C54  1  0.41161000  0.63476000  0.52623000  1.0
  C  C55  1  0.91169000  0.86529000  0.47378000  1.0
  C  C56  1  0.76798000  0.54093000  0.20092000  1.0
  C  C57  1  0.26800000  0.95908000  0.79909000  1.0
  C  C58  1  0.23202000  0.45909000  0.79909000  1.0
  C  C59  1  0.73203000  0.04090000  0.20091000  1.0
  C  C60  1  0.98020000  0.43526000  0.61869000  1.0
  C  C61  1  0.48021000  0.06474000  0.38129000  1.0
  C  C62  1  0.01979000  0.56474000  0.38125000  1.0
  C  C63  1  0.51983000  0.93526000  0.61876000  1.0
  O  O64  1  0.58961000  0.20542000  0.68961000  1.0
  O  O65  1  0.08962000  0.29458000  0.31040000  1.0
  O  O66  1  0.41045000  0.79456000  0.31034000  1.0
  O  O67  1  0.91041000  0.70542000  0.68961000  1.0
  O  O68  1  0.65219000  0.40190000  0.77835000  1.0
  O  O69  1  0.15224000  0.09812000  0.22163000  1.0
  O  O70  1  0.34782000  0.59819000  0.22162000  1.0
  O  O71  1  0.84779000  0.90186000  0.77837000  1.0
  O  O72  1  0.83818000  0.46607000  0.12285000  1.0
  O  O73  1  0.33823000  0.03392000  0.87716000  1.0
  O  O74  1  0.16176000  0.53394000  0.87715000  1.0
  O  O75  1  0.66176000  0.96602000  0.12287000  1.0
  O  O76  1  0.70110000  0.65412000  0.17448000  1.0
  O  O77  1  0.20114000  0.84588000  0.82550000  1.0
  O  O78  1  0.29882000  0.34586000  0.82548000  1.0
  O  O79  1  0.79886000  0.15409000  0.17450000  1.0
  O  O80  1  0.97004000  0.36759000  0.71519000  1.0
  O  O81  1  0.47008000  0.13245000  0.28480000  1.0
  O  O82  1  0.02993000  0.63245000  0.28476000  1.0
  O  O83  1  0.52994000  0.86753000  0.71524000  1.0
  O  O84  1  0.70106000  0.08816000  0.91049000  1.0
  O  O85  1  0.20104000  0.41184000  0.08951000  1.0
  O  O86  1  0.29897000  0.91183000  0.08953000  1.0
  O  O87  1  0.79894000  0.58816000  0.91047000  1.0
  O  O88  1  0.46626000  0.26746000  0.05033000  1.0
  O  O89  1  0.96628000  0.23252000  0.94965000  1.0
  O  O90  1  0.53376000  0.73258000  0.94968000  1.0
  O  O91  1  0.03374000  0.76746000  0.05035000  1.0
