# generated using pymatgen
data_ZnH5C10Br2(NO2)2
_symmetry_space_group_name_H-M   'P 1'
_cell_length_a   7.77478000
_cell_length_b   8.87064000
_cell_length_c   16.03770000
_cell_angle_alpha   87.35720000
_cell_angle_beta   85.74710000
_cell_angle_gamma   89.23090000
_symmetry_Int_Tables_number   1
_chemical_formula_structural   ZnH5C10Br2(NO2)2
_chemical_formula_sum   'Zn2 H10 C20 Br4 N4 O8'
_cell_volume   1101.80206764
_cell_formula_units_Z   2
loop_
 _symmetry_equiv_pos_site_id
 _symmetry_equiv_pos_as_xyz
  1  'x, y, z'
loop_
 _atom_site_type_symbol
 _atom_site_label
 _atom_site_symmetry_multiplicity
 _atom_site_fract_x
 _atom_site_fract_y
 _atom_site_fract_z
 _atom_site_occupancy
  Zn  Zn0  1  0.67211000  0.50247000  0.48931000  1.0
  Zn  Zn1  1  0.32407000  0.47340000  0.51221000  1.0
  H  H2  1  0.76056000  0.55988000  0.06168000  1.0
  H  H3  1  0.69299000  0.33423000  0.93294000  1.0
  H  H4  1  0.47359000  0.28908000  0.92767000  1.0
  H  H5  1  0.27046000  0.98796000  0.50819000  1.0
  H  H6  1  0.66845000  0.98484000  0.48518000  1.0
  H  H7  1  0.01183000  0.60267000  0.45435000  1.0
  H  H8  1  0.30118000  0.68334000  0.92331000  1.0
  H  H9  1  0.24759000  0.48972000  0.92738000  1.0
  H  H10  1  0.65248000  0.32170000  0.07915000  1.0
  H  H11  1  0.43147000  0.28458000  0.07382000  1.0
  C  C12  1  0.41800000  0.77477000  0.49688000  1.0
  C  C13  1  0.53828000  0.03131000  0.49453000  1.0
  C  C14  1  0.50538000  0.50040000  0.33778000  1.0
  C  C15  1  0.52065000  0.19727000  0.49970000  1.0
  C  C16  1  0.51539000  0.50429000  0.66209000  1.0
  C  C17  1  0.64502000  0.62564000  0.04591000  1.0
  C  C18  1  0.31589000  0.57114000  0.04683000  1.0
  C  C19  1  0.33544000  0.57207000  0.94977000  1.0
  C  C20  1  0.52268000  0.51551000  0.75148000  1.0
  C  C21  1  0.49088000  0.52201000  0.08242000  1.0
  C  C22  1  0.65926000  0.76799000  0.08676000  1.0
  C  C23  1  0.64953000  0.64152000  0.94820000  1.0
  C  C24  1  0.17583000  0.47148000  0.07866000  1.0
  C  C25  1  0.52116000  0.52752000  0.91704000  1.0
  C  C26  1  0.56113000  0.36688000  0.95422000  1.0
  C  C27  1  0.53524000  0.36171000  0.05056000  1.0
  C  C28  1  0.52821000  0.52536000  0.82645000  1.0
  C  C29  1  0.48414000  0.51698000  0.17295000  1.0
  C  C30  1  0.49286000  0.50863000  0.24822000  1.0
  C  C31  1  0.40066000  0.94101000  0.50011000  1.0
  Br  Br32  1  0.59271000  0.84766000  0.90683000  1.0
  Br  Br33  1  0.88591000  0.59852000  0.90030000  1.0
  Br  Br34  1  0.97356000  0.27579000  0.59736000  1.0
  Br  Br35  1  0.23610000  0.77215000  0.08602000  1.0
  N  N36  1  0.05202000  0.43913000  0.52511000  1.0
  N  N37  1  0.94497000  0.51746000  0.48945000  1.0
  N  N38  1  0.68186000  0.87866000  0.12060000  1.0
  N  N39  1  0.05891000  0.39348000  0.09872000  1.0
  O  O40  1  0.56920000  0.71744000  0.49463000  1.0
  O  O41  1  0.27737000  0.70020000  0.49845000  1.0
  O  O42  1  0.65466000  0.52105000  0.36278000  1.0
  O  O43  1  0.36642000  0.47307000  0.38288000  1.0
  O  O44  1  0.65785000  0.27377000  0.48365000  1.0
  O  O45  1  0.37131000  0.25112000  0.52017000  1.0
  O  O46  1  0.65889000  0.50049000  0.61848000  1.0
  O  O47  1  0.36530000  0.49874000  0.63560000  1.0
