# generated using pymatgen
data_K2ZrCdH16(CO3)8
_symmetry_space_group_name_H-M   'P 1'
_cell_length_a   8.82286000
_cell_length_b   9.15812000
_cell_length_c   9.15804319
_cell_angle_alpha   76.58342148
_cell_angle_beta   61.20407429
_cell_angle_gamma   61.20330000
_symmetry_Int_Tables_number   1
_chemical_formula_structural   K2ZrCdH16(CO3)8
_chemical_formula_sum   'K2 Zr1 Cd1 H16 C8 O24'
_cell_volume   568.27869750
_cell_formula_units_Z   1
loop_
 _symmetry_equiv_pos_site_id
 _symmetry_equiv_pos_as_xyz
  1  'x, y, z'
loop_
 _atom_site_type_symbol
 _atom_site_label
 _atom_site_symmetry_multiplicity
 _atom_site_fract_x
 _atom_site_fract_y
 _atom_site_fract_z
 _atom_site_occupancy
  K  K0  1  0.50000000  0.00000000  0.00000000  1.0
  K  K1  1  0.75000000  0.50000000  0.50000000  1.0
  Zr  Zr2  1  0.25000000  0.50000000  0.50000000  1.0
  Cd  Cd3  1  0.00000000  0.00000000  0.00000000  1.0
  H  H4  1  0.77740000  0.64649000  0.83538000  1.0
  H  H5  1  0.25928000  0.35351000  0.16462000  1.0
  H  H6  1  0.57610000  0.16462000  0.64649000  1.0
  H  H7  1  0.38722000  0.83538000  0.35350000  1.0
  H  H8  1  0.62194000  0.57592000  0.92279000  1.0
  H  H9  1  0.12065000  0.42407000  0.07721000  1.0
  H  H10  1  0.80214000  0.07721000  0.57592000  1.0
  H  H11  1  0.45528000  0.92279000  0.42407000  1.0
  H  H12  1  0.12674000  0.07811000  0.42315000  1.0
  H  H13  1  0.62800000  0.92189000  0.57685000  1.0
  H  H14  1  0.79514000  0.57685000  0.07811000  1.0
  H  H15  1  0.45011000  0.42315000  0.92189000  1.0
  H  H16  1  0.98382000  0.15168000  0.33874000  1.0
  H  H17  1  0.47424000  0.84832000  0.66126000  1.0
  H  H18  1  0.86450000  0.66126000  0.15168000  1.0
  H  H19  1  0.67744000  0.33874000  0.84832000  1.0
  C  C20  1  0.20486000  0.77601000  0.23684000  1.0
  C  C21  1  0.21772000  0.22398000  0.76316000  1.0
  C  C22  1  0.01912000  0.76316000  0.77602000  1.0
  C  C23  1  0.55830000  0.23684000  0.22398000  1.0
  C  C24  1  0.05043000  0.72144000  0.27456000  1.0
  C  C25  1  0.04643000  0.27856000  0.72545000  1.0
  C  C26  1  0.22812000  0.72545000  0.72144000  1.0
  C  C27  1  0.67501000  0.27455000  0.27856000  1.0
  O  O28  1  0.30576000  0.69425000  0.32020000  1.0
  O  O29  1  0.32021000  0.30575000  0.67980000  1.0
  O  O30  1  0.99999000  0.67981000  0.69425000  1.0
  O  O31  1  0.37404000  0.32020000  0.30575000  1.0
  O  O32  1  0.22268000  0.88941000  0.13552000  1.0
  O  O33  1  0.24762000  0.11059000  0.86448000  1.0
  O  O34  1  0.88790000  0.86448000  0.88942000  1.0
  O  O35  1  0.64179000  0.13552000  0.11059000  1.0
  O  O36  1  0.94608000  0.78916000  0.19935000  1.0
  O  O37  1  0.93459000  0.21084000  0.80065000  1.0
  O  O38  1  0.26476000  0.80065000  0.78916000  1.0
  O  O39  1  0.85457000  0.19935000  0.21084000  1.0
  O  O40  1  0.04342000  0.60610000  0.38391000  1.0
  O  O41  1  0.03344000  0.39390000  0.61609000  1.0
  O  O42  1  0.35047000  0.61609000  0.60610000  1.0
  O  O43  1  0.57267000  0.38391000  0.39390000  1.0
  O  O44  1  0.67608000  0.63810000  0.94375000  1.0
  O  O45  1  0.25793000  0.36190000  0.05625000  1.0
  O  O46  1  0.68582000  0.05625000  0.63810000  1.0
  O  O47  1  0.38017000  0.94375000  0.36190000  1.0
  O  O48  1  0.98933000  0.14235000  0.44550000  1.0
  O  O49  1  0.57718000  0.85765000  0.55450000  1.0
  O  O50  1  0.86832000  0.55450000  0.14235000  1.0
  O  O51  1  0.56517000  0.44550000  0.85765000  1.0
