# generated using pymatgen
data_MnV4H30C20(N2O3)4
_symmetry_space_group_name_H-M   'P 1'
_cell_length_a   8.47746000
_cell_length_b   10.68830000
_cell_length_c   16.90420000
_cell_angle_alpha   90.00050000
_cell_angle_beta   90.19780000
_cell_angle_gamma   89.99960000
_symmetry_Int_Tables_number   1
_chemical_formula_structural   MnV4H30C20(N2O3)4
_chemical_formula_sum   'Mn2 V8 H60 C40 N16 O24'
_cell_volume   1531.67427663
_cell_formula_units_Z   2
loop_
 _symmetry_equiv_pos_site_id
 _symmetry_equiv_pos_as_xyz
  1  'x, y, z'
loop_
 _atom_site_type_symbol
 _atom_site_label
 _atom_site_symmetry_multiplicity
 _atom_site_fract_x
 _atom_site_fract_y
 _atom_site_fract_z
 _atom_site_occupancy
  Mn  Mn0  1  0.50000000  0.00000000  0.50000000  1.0
  Mn  Mn1  1  0.50000000  0.50000000  0.00000000  1.0
  V  V2  1  0.84201000  0.94778000  0.39079000  1.0
  V  V3  1  0.15799000  0.44777000  0.10921000  1.0
  V  V4  1  0.15800000  0.05222000  0.60921000  1.0
  V  V5  1  0.84201000  0.55223000  0.89079000  1.0
  V  V6  1  0.84310000  0.84568000  0.56951000  1.0
  V  V7  1  0.15689000  0.34568000  0.93048000  1.0
  V  V8  1  0.15689000  0.15432000  0.43049000  1.0
  V  V9  1  0.84311000  0.65432000  0.06952000  1.0
  H  H10  1  0.46836000  0.18475000  0.37263000  1.0
  H  H11  1  0.53164000  0.68474000  0.12737000  1.0
  H  H12  1  0.53164000  0.81526000  0.62737000  1.0
  H  H13  1  0.46835000  0.31526000  0.87263000  1.0
  H  H14  1  0.17136000  0.84000000  0.45859000  1.0
  H  H15  1  0.82864000  0.33999000  0.04141000  1.0
  H  H16  1  0.82864000  0.16000000  0.54141000  1.0
  H  H17  1  0.17136000  0.66001000  0.95859000  1.0
  H  H18  1  0.63797000  0.70672000  0.43871000  1.0
  H  H19  1  0.36203000  0.20673000  0.06129000  1.0
  H  H20  1  0.36204000  0.29327000  0.56129000  1.0
  H  H21  1  0.63797000  0.79327000  0.93872000  1.0
  H  H22  1  0.42730000  0.51260000  0.40385000  1.0
  H  H23  1  0.57269000  0.01260000  0.09616000  1.0
  H  H24  1  0.57270000  0.48740000  0.59615000  1.0
  H  H25  1  0.42730000  0.98740000  0.90385000  1.0
  H  H26  1  0.13290000  0.49069000  0.42129000  1.0
  H  H27  1  0.86710000  0.99069000  0.07871000  1.0
  H  H28  1  0.86711000  0.50931000  0.57871000  1.0
  H  H29  1  0.13290000  0.00931000  0.92129000  1.0
  H  H30  1  0.02736000  0.62110000  0.46100000  1.0
  H  H31  1  0.97264000  0.12109000  0.03900000  1.0
  H  H32  1  0.97264000  0.37890000  0.53900000  1.0
  H  H33  1  0.02736000  0.87891000  0.96100000  1.0
  H  H34  1  0.11416000  0.58438000  0.28651000  1.0
  H  H35  1  0.88583000  0.08438000  0.21350000  1.0
  H  H36  1  0.88583000  0.41562000  0.71350000  1.0
  H  H37  1  0.11417000  0.91562000  0.78650000  1.0
  H  H38  1  0.02681000  0.72151000  0.32642000  1.0
  H  H39  1  0.97319000  0.22151000  0.17359000  1.0
  H  H40  1  0.97319000  0.27849000  0.67359000  1.0
  H  H41  1  0.02681000  0.77850000  0.82641000  1.0
  H  H42  1  0.81423000  0.56011000  0.38402000  1.0
  H  H43  1  0.18578000  0.06011000  0.11598000  1.0
  H  H44  1  0.18578000  0.43988000  0.61598000  1.0
  H  H45  1  0.81422000  0.93989000  0.88402000  1.0
  H  H46  1  0.79777000  0.62353000  0.28806000  1.0
  H  H47  1  0.20222000  0.12353000  0.21195000  1.0
  H  H48  1  0.20222000  0.37647000  0.71195000  1.0
  H  H49  1  0.79778000  0.87647000  0.78805000  1.0
  H  H50  1  0.96156000  0.37122000  0.32140000  1.0
  H  H51  1  0.03845000  0.87122000  0.17860000  1.0
  H  H52  1  0.03844000  0.62878000  0.67860000  1.0
  H  H53  1  0.96155000  0.12878000  0.82139000  1.0
  H  H54  1  0.90752000  0.43400000  0.22851000  1.0
  H  H55  1  0.09248000  0.93400000  0.27150000  1.0
  H  H56  1  0.09248000  0.56600000  0.77149000  1.0
  H  H57  1  0.90752000  0.06600000  0.72850000  1.0
  H  H58  1  0.59026000  0.46664000  0.20516000  1.0
  H  H59  1  0.40975000  0.96664000  0.29484000  1.0
  H  H60  1  0.40975000  0.53336000  0.79484000  1.0
  H  H61  1  0.59025000  0.03335000  0.70516000  1.0
  H  H62  1  0.34517000  0.32050000  0.26250000  1.0
  H  H63  1  0.65484000  0.82050000  0.23749000  1.0
  H  H64  1  0.65483000  0.67950000  0.73749000  1.0
  H  H65  1  0.34516000  0.17949000  0.76250000  1.0
  H  H66  1  0.76537000  0.23518000  0.39002000  1.0
  H  H67  1  0.23463000  0.73518000  0.10998000  1.0
  H  H68  1  0.23462000  0.76482000  0.60998000  1.0
  H  H69  1  0.76537000  0.26482000  0.89002000  1.0
  C  C70  1  0.27235000  0.77987000  0.44863000  1.0
  C  C71  1  0.72765000  0.27987000  0.05137000  1.0
  C  C72  1  0.72765000  0.22013000  0.55137000  1.0
  C  C73  1  0.27235000  0.72013000  0.94863000  1.0
  C  C74  1  0.51011000  0.70615000  0.43767000  1.0
  C  C75  1  0.48989000  0.20615000  0.06233000  1.0
  C  C76  1  0.48989000  0.29385000  0.56233000  1.0
  C  C77  1  0.51011000  0.79385000  0.93767000  1.0
  C  C78  1  0.40843000  0.60941000  0.42032000  1.0
  C  C79  1  0.59157000  0.10942000  0.07968000  1.0
  C  C80  1  0.59158000  0.39059000  0.57968000  1.0
  C  C81  1  0.40843000  0.89059000  0.92032000  1.0
  C  C82  1  0.10922000  0.59114000  0.41449000  1.0
  C  C83  1  0.89078000  0.09115000  0.08552000  1.0
  C  C84  1  0.89079000  0.40885000  0.58552000  1.0
  C  C85  1  0.10922000  0.90886000  0.91449000  1.0
  C  C86  1  0.03662000  0.61976000  0.33354000  1.0
  C  C87  1  0.96337000  0.11976000  0.16646000  1.0
  C  C88  1  0.96338000  0.38024000  0.66646000  1.0
  C  C89  1  0.03663000  0.88024000  0.83354000  1.0
  C  C90  1  0.87121000  0.56277000  0.32552000  1.0
  C  C91  1  0.12878000  0.06277000  0.17448000  1.0
  C  C92  1  0.12879000  0.43723000  0.67448000  1.0
  C  C93  1  0.87122000  0.93723000  0.82552000  1.0
  C  C94  1  0.87492000  0.43070000  0.29103000  1.0
  C  C95  1  0.12508000  0.93070000  0.20897000  1.0
  C  C96  1  0.12508000  0.56931000  0.70897000  1.0
  C  C97  1  0.87492000  0.06930000  0.79103000  1.0
  C  C98  1  0.58804000  0.39856000  0.25270000  1.0
  C  C99  1  0.41197000  0.89856000  0.24730000  1.0
  C  C100  1  0.41197000  0.60144000  0.74730000  1.0
  C  C101  1  0.58803000  0.10144000  0.75270000  1.0
  C  C102  1  0.46839000  0.32432000  0.28029000  1.0
  C  C103  1  0.53160000  0.82433000  0.21971000  1.0
  C  C104  1  0.53160000  0.67567000  0.71971000  1.0
  C  C105  1  0.46839000  0.17567000  0.78029000  1.0
  C  C106  1  0.68432000  0.27934000  0.34907000  1.0
  C  C107  1  0.31568000  0.77933000  0.15093000  1.0
  C  C108  1  0.31568000  0.72067000  0.65093000  1.0
  C  C109  1  0.68432000  0.22067000  0.84907000  1.0
  N  N110  1  0.42377000  0.81203000  0.45561000  1.0
  N  N111  1  0.57623000  0.31203000  0.04439000  1.0
  N  N112  1  0.57624000  0.18797000  0.54439000  1.0
  N  N113  1  0.42377000  0.68797000  0.95561000  1.0
  N  N114  1  0.25804000  0.65764000  0.42774000  1.0
  N  N115  1  0.74196000  0.15764000  0.07226000  1.0
  N  N116  1  0.74196000  0.34236000  0.57226000  1.0
  N  N117  1  0.25804000  0.84236000  0.92774000  1.0
  N  N118  1  0.72116000  0.36915000  0.29670000  1.0
  N  N119  1  0.27884000  0.86916000  0.20330000  1.0
  N  N120  1  0.27884000  0.63085000  0.70330000  1.0
  N  N121  1  0.72116000  0.13085000  0.79670000  1.0
  N  N122  1  0.53137000  0.25159000  0.33983000  1.0
  N  N123  1  0.46863000  0.75159000  0.16017000  1.0
  N  N124  1  0.46863000  0.74841000  0.66017000  1.0
  N  N125  1  0.53137000  0.24841000  0.83983000  1.0
  O  O126  1  0.66895000  0.01586000  0.41567000  1.0
  O  O127  1  0.33105000  0.51586000  0.08432000  1.0
  O  O128  1  0.33105000  0.98414000  0.58433000  1.0
  O  O129  1  0.66896000  0.48414000  0.91568000  1.0
  O  O130  1  0.82792000  0.87880000  0.30495000  1.0
  O  O131  1  0.17208000  0.37877000  0.19503000  1.0
  O  O132  1  0.17207000  0.12120000  0.69504000  1.0
  O  O133  1  0.82792000  0.62123000  0.80497000  1.0
  O  O134  1  0.88278000  0.83008000  0.46538000  1.0
  O  O135  1  0.11720000  0.33009000  0.03461000  1.0
  O  O136  1  0.11722000  0.16993000  0.53462000  1.0
  O  O137  1  0.88280000  0.66991000  0.96539000  1.0
  O  O138  1  0.66003000  0.91146000  0.57988000  1.0
  O  O139  1  0.33996000  0.41147000  0.92011000  1.0
  O  O140  1  0.33997000  0.08854000  0.42012000  1.0
  O  O141  1  0.66003000  0.58853000  0.07989000  1.0
  O  O142  1  0.84381000  0.70586000  0.60837000  1.0
  O  O143  1  0.15620000  0.20587000  0.89161000  1.0
  O  O144  1  0.15620000  0.29414000  0.39163000  1.0
  O  O145  1  0.84380000  0.79413000  0.10838000  1.0
  O  O146  1  0.00204000  0.05975000  0.38863000  1.0
  O  O147  1  0.99796000  0.55975000  0.11139000  1.0
  O  O148  1  0.99796000  0.94025000  0.61137000  1.0
  O  O149  1  0.00204000  0.44025000  0.88861000  1.0
