# generated using pymatgen
data_KFe2H24C12S(N2O5)2
_symmetry_space_group_name_H-M   'P 1'
_cell_length_a   9.38511000
_cell_length_b   11.08640000
_cell_length_c   12.96600000
_cell_angle_alpha   99.61100000
_cell_angle_beta   109.23300000
_cell_angle_gamma   112.78800000
_symmetry_Int_Tables_number   1
_chemical_formula_structural   KFe2H24C12S(N2O5)2
_chemical_formula_sum   'K2 Fe4 H48 C24 S2 N8 O20'
_cell_volume   1105.08165108
_cell_formula_units_Z   2
loop_
 _symmetry_equiv_pos_site_id
 _symmetry_equiv_pos_as_xyz
  1  'x, y, z'
loop_
 _atom_site_type_symbol
 _atom_site_label
 _atom_site_symmetry_multiplicity
 _atom_site_fract_x
 _atom_site_fract_y
 _atom_site_fract_z
 _atom_site_occupancy
  K  K0  1  0.49990000  0.92458000  0.33661000  1.0
  K  K1  1  0.50010000  0.07542000  0.66339000  1.0
  Fe  Fe2  1  0.62414000  0.62893000  0.08734000  1.0
  Fe  Fe3  1  0.37585000  0.37106000  0.91264000  1.0
  Fe  Fe4  1  0.57598000  0.47016000  0.20943000  1.0
  Fe  Fe5  1  0.42401000  0.52984000  0.79056000  1.0
  H  H6  1  0.07470000  0.23675000  0.54139000  1.0
  H  H7  1  0.92530000  0.76326000  0.45862000  1.0
  H  H8  1  0.90082000  0.27134000  0.53211000  1.0
  H  H9  1  0.09917000  0.72866000  0.46789000  1.0
  H  H10  1  0.98058000  0.29905000  0.36915000  1.0
  H  H11  1  0.01942000  0.70095000  0.63085000  1.0
  H  H12  1  0.93420000  0.12051000  0.32570000  1.0
  H  H13  1  0.06580000  0.87949000  0.67431000  1.0
  H  H14  1  0.71461000  0.07589000  0.14205000  1.0
  H  H15  1  0.28539000  0.92411000  0.85795000  1.0
  H  H16  1  0.75352000  0.25248000  0.18367000  1.0
  H  H17  1  0.24648000  0.74753000  0.81633000  1.0
  H  H18  1  0.45773000  0.16683000  0.17483000  1.0
  H  H19  1  0.54227000  0.83317000  0.82518000  1.0
  H  H20  1  0.46332000  0.11588000  0.03903000  1.0
  H  H21  1  0.53668000  0.88412000  0.96098000  1.0
  H  H22  1  0.16624000  0.92719000  0.98415000  1.0
  H  H23  1  0.83377000  0.07280000  0.01585000  1.0
  H  H24  1  0.19227000  0.97682000  0.12972000  1.0
  H  H25  1  0.80774000  0.02317000  0.87029000  1.0
  H  H26  1  0.98611000  0.72593000  0.01745000  1.0
  H  H27  1  0.01390000  0.27406000  0.98255000  1.0
  H  H28  1  0.15490000  0.70048000  0.99804000  1.0
  H  H29  1  0.84510000  0.29952000  0.00196000  1.0
  H  H30  1  0.98690000  0.62978000  0.20609000  1.0
  H  H31  1  0.01310000  0.37022000  0.79391000  1.0
  H  H32  1  0.00250000  0.53818000  0.08777000  1.0
  H  H33  1  0.99751000  0.46182000  0.91223000  1.0
  H  H34  1  0.10805000  0.47233000  0.25697000  1.0
  H  H35  1  0.89195000  0.52767000  0.74304000  1.0
  H  H36  1  0.27755000  0.55886000  0.21840000  1.0
  H  H37  1  0.72245000  0.44114000  0.78160000  1.0
  H  H38  1  0.49307000  0.63440000  0.41356000  1.0
  H  H39  1  0.50694000  0.36561000  0.58644000  1.0
  H  H40  1  0.32597000  0.54049000  0.45194000  1.0
  H  H41  1  0.67404000  0.45951000  0.54806000  1.0
  H  H42  1  0.39073000  0.76220000  0.58843000  1.0
  H  H43  1  0.60927000  0.23780000  0.41157000  1.0
  H  H44  1  0.56095000  0.71972000  0.62830000  1.0
  H  H45  1  0.43905000  0.28029000  0.37170000  1.0
  H  H46  1  0.77387000  0.83418000  0.53508000  1.0
  H  H47  1  0.22613000  0.16582000  0.46493000  1.0
  H  H48  1  0.82387000  0.90097000  0.68557000  1.0
  H  H49  1  0.17613000  0.09904000  0.31444000  1.0
  H  H50  1  0.86769000  0.13331000  0.65957000  1.0
  H  H51  1  0.13231000  0.86670000  0.34044000  1.0
  H  H52  1  0.01996000  0.08002000  0.64656000  1.0
  H  H53  1  0.98004000  0.91998000  0.35345000  1.0
  C  C54  1  0.93609000  0.19890000  0.49096000  1.0
  C  C55  1  0.06391000  0.80111000  0.50904000  1.0
  C  C56  1  0.90083000  0.19408000  0.36763000  1.0
  C  C57  1  0.09917000  0.80592000  0.63238000  1.0
  C  C58  1  0.68102000  0.14788000  0.18588000  1.0
  C  C59  1  0.31898000  0.85213000  0.81412000  1.0
  C  C60  1  0.49209000  0.10155000  0.12443000  1.0
  C  C61  1  0.50791000  0.89845000  0.87557000  1.0
  C  C62  1  0.21674000  0.91383000  0.06891000  1.0
  C  C63  1  0.78327000  0.08616000  0.93109000  1.0
  C  C64  1  0.12535000  0.76258000  0.05572000  1.0
  C  C65  1  0.87465000  0.23742000  0.94428000  1.0
  C  C66  1  0.07833000  0.61890000  0.17430000  1.0
  C  C67  1  0.92167000  0.38110000  0.82570000  1.0
  C  C68  1  0.19006000  0.57320000  0.25291000  1.0
  C  C69  1  0.80994000  0.42680000  0.74709000  1.0
  C  C70  1  0.40002000  0.64206000  0.44529000  1.0
  C  C71  1  0.59998000  0.35794000  0.55471000  1.0
  C  C72  1  0.48775000  0.75194000  0.56373000  1.0
  C  C73  1  0.51225000  0.24807000  0.43627000  1.0
  C  C74  1  0.77255000  0.91171000  0.59979000  1.0
  C  C75  1  0.22745000  0.08829000  0.40022000  1.0
  C  C76  1  0.88425000  0.05608000  0.60568000  1.0
  C  C77  1  0.11575000  0.94393000  0.39433000  1.0
  S  S78  1  0.62908000  0.42907000  0.05369000  1.0
  S  S79  1  0.37091000  0.57092000  0.94629000  1.0
  N  N80  1  0.77444000  0.77547000  0.09662000  1.0
  N  N81  1  0.22555000  0.22452000  0.90337000  1.0
  N  N82  1  0.60213000  0.65372000  0.21601000  1.0
  N  N83  1  0.39787000  0.34627000  0.78399000  1.0
  N  N84  1  0.37768000  0.36946000  0.18817000  1.0
  N  N85  1  0.62232000  0.63053000  0.81180000  1.0
  N  N86  1  0.73440000  0.48272000  0.32211000  1.0
  N  N87  1  0.26559000  0.51729000  0.67787000  1.0
  O  O88  1  0.87610000  0.89298000  0.11561000  1.0
  O  O89  1  0.12390000  0.10702000  0.88438000  1.0
  O  O90  1  0.63430000  0.74948000  0.29791000  1.0
  O  O91  1  0.36568000  0.25051000  0.70207000  1.0
  O  O92  1  0.25050000  0.28711000  0.19026000  1.0
  O  O93  1  0.74949000  0.71286000  0.80971000  1.0
  O  O94  1  0.83255000  0.47396000  0.40353000  1.0
  O  O95  1  0.16744000  0.52603000  0.59646000  1.0
  O  O96  1  0.84005000  0.06219000  0.49073000  1.0
  O  O97  1  0.15995000  0.93781000  0.50928000  1.0
  O  O98  1  0.72321000  0.15131000  0.30328000  1.0
  O  O99  1  0.27680000  0.84869000  0.69673000  1.0
  O  O100  1  0.39692000  0.95875000  0.11164000  1.0
  O  O101  1  0.60309000  0.04124000  0.88837000  1.0
  O  O102  1  0.18334000  0.74905000  0.16806000  1.0
  O  O103  1  0.81666000  0.25095000  0.83194000  1.0
  O  O104  1  0.28689000  0.67640000  0.36617000  1.0
  O  O105  1  0.71311000  0.32360000  0.63383000  1.0
  O  O106  1  0.59965000  0.88831000  0.56858000  1.0
  O  O107  1  0.40035000  0.11170000  0.43142000  1.0
