# generated using pymatgen
data_DyH7C14(NO4)2
_symmetry_space_group_name_H-M   'P 1'
_cell_length_a   8.35422000
_cell_length_b   12.22280000
_cell_length_c   13.46980000
_cell_angle_alpha   102.32400000
_cell_angle_beta   90.00000000
_cell_angle_gamma   90.00000000
_symmetry_Int_Tables_number   1
_chemical_formula_structural   DyH7C14(NO4)2
_chemical_formula_sum   'Dy4 H28 C56 N8 O32'
_cell_volume   1343.73267663
_cell_formula_units_Z   4
loop_
 _symmetry_equiv_pos_site_id
 _symmetry_equiv_pos_as_xyz
  1  'x, y, z'
loop_
 _atom_site_type_symbol
 _atom_site_label
 _atom_site_symmetry_multiplicity
 _atom_site_fract_x
 _atom_site_fract_y
 _atom_site_fract_z
 _atom_site_occupancy
  Dy  Dy0  1  0.77278000  0.80153000  0.18292000  1.0
  Dy  Dy1  1  0.27278000  0.19848000  0.31708000  1.0
  Dy  Dy2  1  0.22722000  0.19848000  0.81708000  1.0
  Dy  Dy3  1  0.72722000  0.80153000  0.68292000  1.0
  H  H4  1  0.31016000  0.47629000  0.12469000  1.0
  H  H5  1  0.81016000  0.52371000  0.37531000  1.0
  H  H6  1  0.68984000  0.52371000  0.87531000  1.0
  H  H7  1  0.18984000  0.47629000  0.62469000  1.0
  H  H8  1  0.48741000  0.30734000  0.09083000  1.0
  H  H9  1  0.98741000  0.69266000  0.40917000  1.0
  H  H10  1  0.51259000  0.69266000  0.90917000  1.0
  H  H11  1  0.01259000  0.30734000  0.59083000  1.0
  H  H12  1  0.78852000  0.33614000  0.09320000  1.0
  H  H13  1  0.28852000  0.66386000  0.40680000  1.0
  H  H14  1  0.21148000  0.66386000  0.90679000  1.0
  H  H15  1  0.71148000  0.33614000  0.59320000  1.0
  H  H16  1  0.35723000  0.97383000  0.11209000  1.0
  H  H17  1  0.85723000  0.02617000  0.38791000  1.0
  H  H18  1  0.64277000  0.02617000  0.88791000  1.0
  H  H19  1  0.14277000  0.97383000  0.61209000  1.0
  H  H20  1  0.09323000  0.84396000  0.83533000  1.0
  H  H21  1  0.59324000  0.15604000  0.66467000  1.0
  H  H22  1  0.90677000  0.15604000  0.16467000  1.0
  H  H23  1  0.40676000  0.84396000  0.33533000  1.0
  H  H24  1  0.34955000  0.91859000  0.92093000  1.0
  H  H25  1  0.84955000  0.08141000  0.57907000  1.0
  H  H26  1  0.65045000  0.08141000  0.07907000  1.0
  H  H27  1  0.15044000  0.91859000  0.42093000  1.0
  H  H28  1  0.09989000  0.65958000  0.15948000  1.0
  H  H29  1  0.59990000  0.34042000  0.34052000  1.0
  H  H30  1  0.90011000  0.34042000  0.84052000  1.0
  H  H31  1  0.40011000  0.65958000  0.65948000  1.0
  C  C32  1  0.44024000  0.48466000  0.12562000  1.0
  C  C33  1  0.94024000  0.51534000  0.37438000  1.0
  C  C34  1  0.55976000  0.51534000  0.87438000  1.0
  C  C35  1  0.05976000  0.48466000  0.62562000  1.0
  C  C36  1  0.50969000  0.59113000  0.14461000  1.0
  C  C37  1  0.00969000  0.40887000  0.35539000  1.0
  C  C38  1  0.49031000  0.40887000  0.85539000  1.0
  C  C39  1  0.99031000  0.59113000  0.64461000  1.0
  C  C40  1  0.76480000  0.51529000  0.12746000  1.0
  C  C41  1  0.26480000  0.48471000  0.37254000  1.0
  C  C42  1  0.23520000  0.48471000  0.87254000  1.0
  C  C43  1  0.73520000  0.51529000  0.62746000  1.0
  C  C44  1  0.54006000  0.39082000  0.10696000  1.0
  C  C45  1  0.04006000  0.60918000  0.39304000  1.0
  C  C46  1  0.45994000  0.60918000  0.89304000  1.0
  C  C47  1  0.95994000  0.39082000  0.60696000  1.0
  C  C48  1  0.70539000  0.40620000  0.10753000  1.0
  C  C49  1  0.20539000  0.59380000  0.39247000  1.0
  C  C50  1  0.29461000  0.59380000  0.89247000  1.0
  C  C51  1  0.79461000  0.40620000  0.60753000  1.0
  C  C52  1  0.41408000  0.69892000  0.16589000  1.0
  C  C53  1  0.91408000  0.30108000  0.33411000  1.0
  C  C54  1  0.58592000  0.30108000  0.83411000  1.0
  C  C55  1  0.08592000  0.69892000  0.66589000  1.0
  C  C56  1  0.94070000  0.53655000  0.12945000  1.0
  C  C57  1  0.44070000  0.46345000  0.37055000  1.0
  C  C58  1  0.05930000  0.46345000  0.87055000  1.0
  C  C59  1  0.55930000  0.53655000  0.62945000  1.0
  C  C60  1  0.81651000  0.79203000  0.93866000  1.0
  C  C61  1  0.31651000  0.20797000  0.56134000  1.0
  C  C62  1  0.18349000  0.20797000  0.06134000  1.0
  C  C63  1  0.68349000  0.79203000  0.43866000  1.0
  C  C64  1  0.97616000  0.84148000  0.97773000  1.0
  C  C65  1  0.47616000  0.15852000  0.52227000  1.0
  C  C66  1  0.02384000  0.15852000  0.02228000  1.0
  C  C67  1  0.52384000  0.84148000  0.47772000  1.0
  C  C68  1  0.25173000  0.93541000  0.07167000  1.0
  C  C69  1  0.75173000  0.06459000  0.42833000  1.0
  C  C70  1  0.74827000  0.06459000  0.92833000  1.0
  C  C71  1  0.24827000  0.93541000  0.57167000  1.0
  C  C72  1  0.11726000  0.91354000  0.12567000  1.0
  C  C73  1  0.61726000  0.08646000  0.37433000  1.0
  C  C74  1  0.88274000  0.08646000  0.87433000  1.0
  C  C75  1  0.38274000  0.91354000  0.62567000  1.0
  C  C76  1  0.10373000  0.94282000  0.23931000  1.0
  C  C77  1  0.60373000  0.05718000  0.26069000  1.0
  C  C78  1  0.89627000  0.05718000  0.76069000  1.0
  C  C79  1  0.39627000  0.94282000  0.73931000  1.0
  C  C80  1  0.10417000  0.86211000  0.91779000  1.0
  C  C81  1  0.60418000  0.13789000  0.58221000  1.0
  C  C82  1  0.89582000  0.13789000  0.08221000  1.0
  C  C83  1  0.39582000  0.86211000  0.41779000  1.0
  C  C84  1  0.24575000  0.90603000  0.96603000  1.0
  C  C85  1  0.74574000  0.09397000  0.53397000  1.0
  C  C86  1  0.75426000  0.09397000  0.03397000  1.0
  C  C87  1  0.25425000  0.90603000  0.46603000  1.0
  N  N88  1  0.66921000  0.60559000  0.14582000  1.0
  N  N89  1  0.16921000  0.39441000  0.35418000  1.0
  N  N90  1  0.33079000  0.39441000  0.85418000  1.0
  N  N91  1  0.83079000  0.60559000  0.64582000  1.0
  N  N92  1  0.98587000  0.86432000  0.07966000  1.0
  N  N93  1  0.48587000  0.13568000  0.42034000  1.0
  N  N94  1  0.01413000  0.13568000  0.92034000  1.0
  N  N95  1  0.51413000  0.86433000  0.57966000  1.0
  O  O96  1  0.49488000  0.78895000  0.17542000  1.0
  O  O97  1  0.99487000  0.21105000  0.32458000  1.0
  O  O98  1  0.50513000  0.21105000  0.82458000  1.0
  O  O99  1  0.00512000  0.78895000  0.67542000  1.0
  O  O100  1  0.26449000  0.69594000  0.17621000  1.0
  O  O101  1  0.76449000  0.30406000  0.32379000  1.0
  O  O102  1  0.73551000  0.30406000  0.82379000  1.0
  O  O103  1  0.23551000  0.69594000  0.67621000  1.0
  O  O104  1  0.97614000  0.64687000  0.15395000  1.0
  O  O105  1  0.47614000  0.35313000  0.34605000  1.0
  O  O106  1  0.02386000  0.35313000  0.84605000  1.0
  O  O107  1  0.52386000  0.64687000  0.65395000  1.0
  O  O108  1  0.04128000  0.46223000  0.11160000  1.0
  O  O109  1  0.54128000  0.53777000  0.38840000  1.0
  O  O110  1  0.95872000  0.53778000  0.88840000  1.0
  O  O111  1  0.45872000  0.46223000  0.61160000  1.0
  O  O112  1  0.72457000  0.76626000  0.00551000  1.0
  O  O113  1  0.22457000  0.23374000  0.49449000  1.0
  O  O114  1  0.27543000  0.23374000  0.99449000  1.0
  O  O115  1  0.77543000  0.76626000  0.50551000  1.0
  O  O116  1  0.99743000  0.89169000  0.27914000  1.0
  O  O117  1  0.49743000  0.10831000  0.22086000  1.0
  O  O118  1  0.00257000  0.10831000  0.72086000  1.0
  O  O119  1  0.50257000  0.89169000  0.77914000  1.0
  O  O120  1  0.78258000  0.78045000  0.84540000  1.0
  O  O121  1  0.28258000  0.21955000  0.65460000  1.0
  O  O122  1  0.21742000  0.21955000  0.15460000  1.0
  O  O123  1  0.71742000  0.78045000  0.34540000  1.0
  O  O124  1  0.19609000  0.01792000  0.28816000  1.0
  O  O125  1  0.69609000  0.98208000  0.21184000  1.0
  O  O126  1  0.80391000  0.98208000  0.71184000  1.0
  O  O127  1  0.30391000  0.01792000  0.78816000  1.0
