# generated using pymatgen
data_CdH24C30(NO2)4
_symmetry_space_group_name_H-M   'P 1'
_cell_length_a   8.61027000
_cell_length_b   9.51439000
_cell_length_c   9.63775000
_cell_angle_alpha   104.61400000
_cell_angle_beta   104.20500000
_cell_angle_gamma   108.21300000
_symmetry_Int_Tables_number   1
_chemical_formula_structural   CdH24C30(NO2)4
_chemical_formula_sum   'Cd1 H24 C30 N4 O8'
_cell_volume   679.06489322
_cell_formula_units_Z   1
loop_
 _symmetry_equiv_pos_site_id
 _symmetry_equiv_pos_as_xyz
  1  'x, y, z'
loop_
 _atom_site_type_symbol
 _atom_site_label
 _atom_site_symmetry_multiplicity
 _atom_site_fract_x
 _atom_site_fract_y
 _atom_site_fract_z
 _atom_site_occupancy
  Cd  Cd0  1  0.00000000  0.00000000  0.00000000  1.0
  H  H1  1  0.43699000  0.08626000  0.84600000  1.0
  H  H2  1  0.56301000  0.91373000  0.15400000  1.0
  H  H3  1  0.06055000  0.73059000  0.18402000  1.0
  H  H4  1  0.93945000  0.26941000  0.81598000  1.0
  H  H5  1  0.17454000  0.53018000  0.08474000  1.0
  H  H6  1  0.82547000  0.46982000  0.91526000  1.0
  H  H7  1  0.41522000  0.49845000  0.25936000  1.0
  H  H8  1  0.58479000  0.50155000  0.74064000  1.0
  H  H9  1  0.54187000  0.66487000  0.53635000  1.0
  H  H10  1  0.45814000  0.33513000  0.46365000  1.0
  H  H11  1  0.17334000  0.16260000  0.36016000  1.0
  H  H12  1  0.82665000  0.83740000  0.63984000  1.0
  H  H13  1  0.19131000  0.37709000  0.57758000  1.0
  H  H14  1  0.80869000  0.62291000  0.42242000  1.0
  H  H15  1  0.79526000  0.44368000  0.25499000  1.0
  H  H16  1  0.20474000  0.55632000  0.74500000  1.0
  H  H17  1  0.79957000  0.22844000  0.05190000  1.0
  H  H18  1  0.20043000  0.77155000  0.94810000  1.0
  H  H19  1  0.05920000  0.91821000  0.40905000  1.0
  H  H20  1  0.94080000  0.08179000  0.59095000  1.0
  H  H21  1  0.71029000  0.76044000  0.96475000  1.0
  H  H22  1  0.28972000  0.23956000  0.03525000  1.0
  H  H23  1  0.81060000  0.81509000  0.14578000  1.0
  H  H24  1  0.18940000  0.18491000  0.85422000  1.0
  C  C25  1  0.59060000  0.87969000  0.78924000  1.0
  C  C26  1  0.40940000  0.12031000  0.21076000  1.0
  C  C27  1  0.44864000  0.89774000  0.67600000  1.0
  C  C28  1  0.55136000  0.10226000  0.32400000  1.0
  C  C29  1  0.38460000  0.00790000  0.72651000  1.0
  C  C30  1  0.61541000  0.99210000  0.27349000  1.0
  C  C31  1  0.23969000  0.01923000  0.62527000  1.0
  C  C32  1  0.76031000  0.98077000  0.37473000  1.0
  C  C33  1  0.24037000  0.81290000  0.41652000  1.0
  C  C34  1  0.75963000  0.18710000  0.58349000  1.0
  C  C35  1  0.16669000  0.71664000  0.26029000  1.0
  C  C36  1  0.83331000  0.28335000  0.73971000  1.0
  C  C37  1  0.23138000  0.60618000  0.20545000  1.0
  C  C38  1  0.76863000  0.39382000  0.79455000  1.0
  C  C39  1  0.36813000  0.58782000  0.30398000  1.0
  C  C40  1  0.63187000  0.41219000  0.69602000  1.0
  C  C41  1  0.43973000  0.68129000  0.45806000  1.0
  C  C42  1  0.56027000  0.31871000  0.54194000  1.0
  C  C43  1  0.37887000  0.79657000  0.51758000  1.0
  C  C44  1  0.62113000  0.20343000  0.48243000  1.0
  C  C45  1  0.09448000  0.23071000  0.34231000  1.0
  C  C46  1  0.90552000  0.76929000  0.65769000  1.0
  C  C47  1  0.10338000  0.35175000  0.46354000  1.0
  C  C48  1  0.89662000  0.64825000  0.53646000  1.0
  C  C49  1  0.99732000  0.43518000  0.43695000  1.0
  C  C50  1  0.00268000  0.56482000  0.56305000  1.0
  C  C51  1  0.88543000  0.38882000  0.28557000  1.0
  C  C52  1  0.11457000  0.61118000  0.71442000  1.0
  C  C53  1  0.88509000  0.26687000  0.17042000  1.0
  C  C54  1  0.11491000  0.73313000  0.82958000  1.0
  N  N55  1  0.17670000  0.92190000  0.47492000  1.0
  N  N56  1  0.82330000  0.07810000  0.52508000  1.0
  N  N57  1  0.98842000  0.18902000  0.19773000  1.0
  N  N58  1  0.01158000  0.81098000  0.80227000  1.0
  O  O59  1  0.74273000  0.98844000  0.83436000  1.0
  O  O60  1  0.25728000  0.01156000  0.16565000  1.0
  O  O61  1  0.54537000  0.76012000  0.82829000  1.0
  O  O62  1  0.45463000  0.23988000  0.17171000  1.0
  O  O63  1  0.16674000  0.11125000  0.66855000  1.0
  O  O64  1  0.83326000  0.88875000  0.33145000  1.0
  O  O65  1  0.82260000  0.77877000  0.04364000  1.0
  O  O66  1  0.17740000  0.22123000  0.95636000  1.0
