# generated using pymatgen
data_CuH12C14(N2Cl)2
_symmetry_space_group_name_H-M   'P 1'
_cell_length_a   6.98211000
_cell_length_b   14.54500000
_cell_length_c   16.30030000
_cell_angle_alpha   90.00090000
_cell_angle_beta   90.00010000
_cell_angle_gamma   102.69200000
_symmetry_Int_Tables_number   1
_chemical_formula_structural   CuH12C14(N2Cl)2
_chemical_formula_sum   'Cu4 H48 C56 N16 Cl8'
_cell_volume   1614.92487188
_cell_formula_units_Z   4
loop_
 _symmetry_equiv_pos_site_id
 _symmetry_equiv_pos_as_xyz
  1  'x, y, z'
loop_
 _atom_site_type_symbol
 _atom_site_label
 _atom_site_symmetry_multiplicity
 _atom_site_fract_x
 _atom_site_fract_y
 _atom_site_fract_z
 _atom_site_occupancy
  Cu  Cu0  1  0.87526000  0.31928000  0.71019000  1.0
  Cu  Cu1  1  0.62468000  0.68069000  0.21013000  1.0
  Cu  Cu2  1  0.12473000  0.68073000  0.28991000  1.0
  Cu  Cu3  1  0.37522000  0.31924000  0.78985000  1.0
  H  H4  1  0.36001000  0.13482000  0.52459000  1.0
  H  H5  1  0.14002000  0.86518000  0.02459000  1.0
  H  H6  1  0.64001000  0.86520000  0.47542000  1.0
  H  H7  1  0.86002000  0.13480000  0.97543000  1.0
  H  H8  1  0.52160000  0.03503000  0.43692000  1.0
  H  H9  1  0.97842000  0.96497000  0.93693000  1.0
  H  H10  1  0.47840000  0.96499000  0.56307000  1.0
  H  H11  1  0.02160000  0.03502000  0.06308000  1.0
  H  H12  1  0.34110000  0.94793000  0.31841000  1.0
  H  H13  1  0.15895000  0.05208000  0.81842000  1.0
  H  H14  1  0.65894000  0.05209000  0.68158000  1.0
  H  H15  1  0.84109000  0.94791000  0.18159000  1.0
  H  H16  1  0.01389000  0.97329000  0.28070000  1.0
  H  H17  1  0.48614000  0.02672000  0.78071000  1.0
  H  H18  1  0.98610000  0.02675000  0.71929000  1.0
  H  H19  1  0.51392000  0.97327000  0.21930000  1.0
  H  H20  1  0.85607000  0.07944000  0.36419000  1.0
  H  H21  1  0.64398000  0.92057000  0.86419000  1.0
  H  H22  1  0.14396000  0.92058000  0.63582000  1.0
  H  H23  1  0.35607000  0.07944000  0.13583000  1.0
  H  H24  1  0.14402000  0.18280000  0.62902000  1.0
  H  H25  1  0.35602000  0.81721000  0.12901000  1.0
  H  H26  1  0.85595000  0.81721000  0.37098000  1.0
  H  H27  1  0.64410000  0.18278000  0.87098000  1.0
  H  H28  1  0.53829000  0.28279000  0.58314000  1.0
  H  H29  1  0.96175000  0.71721000  0.08315000  1.0
  H  H30  1  0.46177000  0.71726000  0.41683000  1.0
  H  H31  1  0.03827000  0.28275000  0.91683000  1.0
  H  H32  1  0.59521000  0.30644000  0.47615000  1.0
  H  H33  1  0.90474000  0.69354000  0.97615000  1.0
  H  H34  1  0.40470000  0.69357000  0.52383000  1.0
  H  H35  1  0.09524000  0.30643000  0.02382000  1.0
  H  H36  1  0.65623000  0.47207000  0.44980000  1.0
  H  H37  1  0.84372000  0.52792000  0.94981000  1.0
  H  H38  1  0.34398000  0.52804000  0.55010000  1.0
  H  H39  1  0.15596000  0.47195000  0.05011000  1.0
  H  H40  1  0.79606000  0.63655000  0.49303000  1.0
  H  H41  1  0.70393000  0.36348000  0.99303000  1.0
  H  H42  1  0.20405000  0.36354000  0.50696000  1.0
  H  H43  1  0.29590000  0.63648000  0.00696000  1.0
  H  H44  1  0.97008000  0.66496000  0.62983000  1.0
  H  H45  1  0.52984000  0.33502000  0.12983000  1.0
  H  H46  1  0.02978000  0.33506000  0.37020000  1.0
  H  H47  1  0.47012000  0.66493000  0.87021000  1.0
  H  H48  1  0.98958000  0.52430000  0.71661000  1.0
  H  H49  1  0.51039000  0.47571000  0.21662000  1.0
  H  H50  1  0.01032000  0.47571000  0.28337000  1.0
  H  H51  1  0.48968000  0.52431000  0.78340000  1.0
  C  C52  1  0.09715000  0.11407000  0.45010000  1.0
  C  C53  1  0.40285000  0.88593000  0.95009000  1.0
  C  C54  1  0.90283000  0.88595000  0.54992000  1.0
  C  C55  1  0.59717000  0.11406000  0.04991000  1.0
  C  C56  1  0.28492000  0.10081000  0.47020000  1.0
  C  C57  1  0.21507000  0.89917000  0.97019000  1.0
  C  C58  1  0.71506000  0.89919000  0.52982000  1.0
  C  C59  1  0.78493000  0.10081000  0.02982000  1.0
  C  C60  1  0.37488000  0.04367000  0.42147000  1.0
  C  C61  1  0.12513000  0.95633000  0.92146000  1.0
  C  C62  1  0.62509000  0.95634000  0.57855000  1.0
  C  C63  1  0.87489000  0.04366000  0.07854000  1.0
  C  C64  1  0.27641000  0.99697000  0.35380000  1.0
  C  C65  1  0.22361000  0.00302000  0.85381000  1.0
  C  C66  1  0.72358000  0.00303000  0.64620000  1.0
  C  C67  1  0.77642000  0.99696000  0.14620000  1.0
  C  C68  1  0.09083000  0.01088000  0.33293000  1.0
  C  C69  1  0.40919000  0.98913000  0.83292000  1.0
  C  C70  1  0.90916000  0.98913000  0.66709000  1.0
  C  C71  1  0.59084000  0.01087000  0.16709000  1.0
  C  C72  1  0.00178000  0.06947000  0.38010000  1.0
  C  C73  1  0.49823000  0.93054000  0.88009000  1.0
  C  C74  1  0.99821000  0.93055000  0.61992000  1.0
  C  C75  1  0.50179000  0.06946000  0.11992000  1.0
  C  C76  1  0.00078000  0.17165000  0.50261000  1.0
  C  C77  1  0.49926000  0.82837000  0.00259000  1.0
  C  C78  1  0.99925000  0.82838000  0.49741000  1.0
  C  C79  1  0.50078000  0.17164000  0.99740000  1.0
  C  C80  1  0.03720000  0.19745000  0.58539000  1.0
  C  C81  1  0.46281000  0.80255000  0.08539000  1.0
  C  C82  1  0.96276000  0.80257000  0.41460000  1.0
  C  C83  1  0.53724000  0.19743000  0.91460000  1.0
  C  C84  1  0.65491000  0.31161000  0.53841000  1.0
  C  C85  1  0.84508000  0.68838000  0.03842000  1.0
  C  C86  1  0.34507000  0.68841000  0.46156000  1.0
  C  C87  1  0.15491000  0.31159000  0.96155000  1.0
  C  C88  1  0.74487000  0.41210000  0.56109000  1.0
  C  C89  1  0.75514000  0.58788000  0.06111000  1.0
  C  C90  1  0.25518000  0.58790000  0.43887000  1.0
  C  C91  1  0.24482000  0.41208000  0.93888000  1.0
  C  C92  1  0.72897000  0.48614000  0.50911000  1.0
  C  C93  1  0.77105000  0.51384000  0.00912000  1.0
  C  C94  1  0.27120000  0.51388000  0.49083000  1.0
  C  C95  1  0.22879000  0.48611000  0.99085000  1.0
  C  C96  1  0.80789000  0.57840000  0.53361000  1.0
  C  C97  1  0.69211000  0.42159000  0.03361000  1.0
  C  C98  1  0.19221000  0.42163000  0.46639000  1.0
  C  C99  1  0.30775000  0.57836000  0.96639000  1.0
  C  C100  1  0.90325000  0.59396000  0.60912000  1.0
  C  C101  1  0.59674000  0.40602000  0.10911000  1.0
  C  C102  1  0.09675000  0.40605000  0.39091000  1.0
  C  C103  1  0.40321000  0.59394000  0.89091000  1.0
  C  C104  1  0.91638000  0.51663000  0.65728000  1.0
  C  C105  1  0.58360000  0.48336000  0.15729000  1.0
  C  C106  1  0.08357000  0.48338000  0.34272000  1.0
  C  C107  1  0.41640000  0.51662000  0.84273000  1.0
  N  N108  1  0.90783000  0.24859000  0.60747000  1.0
  N  N109  1  0.59212000  0.75141000  0.10747000  1.0
  N  N110  1  0.09206000  0.75143000  0.39251000  1.0
  N  N111  1  0.40789000  0.24857000  0.89251000  1.0
  N  N112  1  0.79966000  0.25346000  0.54050000  1.0
  N  N113  1  0.70035000  0.74656000  0.04050000  1.0
  N  N114  1  0.20033000  0.74660000  0.45950000  1.0
  N  N115  1  0.29966000  0.25342000  0.95949000  1.0
  N  N116  1  0.84996000  0.20881000  0.47587000  1.0
  N  N117  1  0.65006000  0.79121000  0.97586000  1.0
  N  N118  1  0.15004000  0.79125000  0.52414000  1.0
  N  N119  1  0.34997000  0.20878000  0.02413000  1.0
  N  N120  1  0.83713000  0.42760000  0.63420000  1.0
  N  N121  1  0.66287000  0.57238000  0.13420000  1.0
  N  N122  1  0.16284000  0.57240000  0.36580000  1.0
  N  N123  1  0.33718000  0.42759000  0.86581000  1.0
  Cl  Cl124  1  0.96520000  0.20416000  0.78771000  1.0
  Cl  Cl125  1  0.53494000  0.79581000  0.28768000  1.0
  Cl  Cl126  1  0.03494000  0.79581000  0.21235000  1.0
  Cl  Cl127  1  0.46521000  0.20417000  0.71231000  1.0
  Cl  Cl128  1  0.82043000  0.40081000  0.82243000  1.0
  Cl  Cl129  1  0.67960000  0.59922000  0.32240000  1.0
  Cl  Cl130  1  0.17977000  0.59933000  0.17763000  1.0
  Cl  Cl131  1  0.32022000  0.40069000  0.67761000  1.0
