# generated using pymatgen
data_SrH6C8O7
_symmetry_space_group_name_H-M   'P 1'
_cell_length_a   7.29536000
_cell_length_b   8.55068000
_cell_length_c   8.55064000
_cell_angle_alpha   84.84440000
_cell_angle_beta   66.95240000
_cell_angle_gamma   66.95220000
_symmetry_Int_Tables_number   1
_chemical_formula_structural   SrH6C8O7
_chemical_formula_sum   'Sr2 H12 C16 O14'
_cell_volume   450.37020733
_cell_formula_units_Z   2
loop_
 _symmetry_equiv_pos_site_id
 _symmetry_equiv_pos_as_xyz
  1  'x, y, z'
loop_
 _atom_site_type_symbol
 _atom_site_label
 _atom_site_symmetry_multiplicity
 _atom_site_fract_x
 _atom_site_fract_y
 _atom_site_fract_z
 _atom_site_occupancy
  Sr  Sr0  1  0.25000000  0.58038000  0.41962000  1.0
  Sr  Sr1  1  0.75000000  0.41962000  0.58038000  1.0
  H  H2  1  0.63896000  0.68398000  0.00617000  1.0
  H  H3  1  0.86104000  0.99383000  0.31602000  1.0
  H  H4  1  0.36104000  0.31601000  0.99383000  1.0
  H  H5  1  0.13896000  0.00617000  0.68399000  1.0
  H  H6  1  0.75890000  0.04485000  0.61427000  1.0
  H  H7  1  0.74111000  0.38573000  0.95515000  1.0
  H  H8  1  0.24110000  0.95515000  0.38572000  1.0
  H  H9  1  0.25889000  0.61427000  0.04485000  1.0
  H  H10  1  0.37851000  0.26670000  0.65473000  1.0
  H  H11  1  0.12149000  0.34527000  0.73330000  1.0
  H  H12  1  0.62150000  0.73330000  0.34527000  1.0
  H  H13  1  0.87852000  0.65473000  0.26670000  1.0
  C  C14  1  0.80750000  0.78706000  0.69091000  1.0
  C  C15  1  0.69250000  0.30909000  0.21294000  1.0
  C  C16  1  0.19250000  0.21293000  0.30909000  1.0
  C  C17  1  0.30749000  0.69091000  0.78707000  1.0
  C  C18  1  0.64785000  0.89586000  0.85018000  1.0
  C  C19  1  0.85215000  0.14982000  0.10414000  1.0
  C  C20  1  0.35214000  0.10414000  0.14982000  1.0
  C  C21  1  0.14785000  0.85018000  0.89587000  1.0
  C  C22  1  0.56874000  0.07557000  0.84745000  1.0
  C  C23  1  0.93126000  0.15255000  0.92444000  1.0
  C  C24  1  0.43125000  0.92443000  0.15254000  1.0
  C  C25  1  0.06874000  0.84746000  0.07556000  1.0
  C  C26  1  0.57879000  0.82202000  0.00360000  1.0
  C  C27  1  0.92121000  0.99640000  0.17797000  1.0
  C  C28  1  0.42121000  0.17798000  0.99640000  1.0
  C  C29  1  0.07879000  0.00360000  0.82202000  1.0
  O  O30  1  0.89682000  0.86089000  0.56216000  1.0
  O  O31  1  0.60318000  0.43784000  0.13911000  1.0
  O  O32  1  0.10318000  0.13911000  0.43784000  1.0
  O  O33  1  0.39682000  0.56216000  0.86089000  1.0
  O  O34  1  0.85815000  0.62720000  0.68427000  1.0
  O  O35  1  0.64185000  0.31574000  0.37279000  1.0
  O  O36  1  0.14185000  0.37279000  0.31574000  1.0
  O  O37  1  0.35815000  0.68426000  0.62721000  1.0
  O  O38  1  0.63618000  0.14880000  0.69732000  1.0
  O  O39  1  0.86382000  0.30268000  0.85120000  1.0
  O  O40  1  0.36382000  0.85120000  0.30268000  1.0
  O  O41  1  0.13618000  0.69732000  0.14880000  1.0
  O  O42  1  0.25000000  0.35573000  0.64427000  1.0
  O  O43  1  0.75000000  0.64428000  0.35573000  1.0
