# generated using pymatgen
data_Zn4H53C89N25O18
_symmetry_space_group_name_H-M   'P 1'
_cell_length_a   18.73630000
_cell_length_b   18.91590000
_cell_length_c   20.46580000
_cell_angle_alpha   105.76600000
_cell_angle_beta   107.35500000
_cell_angle_gamma   111.77900000
_symmetry_Int_Tables_number   1
_chemical_formula_structural   Zn4H53C89N25O18
_chemical_formula_sum   'Zn4 H53 C89 N25 O18'
_cell_volume   5799.93827415
_cell_formula_units_Z   1
loop_
 _symmetry_equiv_pos_site_id
 _symmetry_equiv_pos_as_xyz
  1  'x, y, z'
loop_
 _atom_site_type_symbol
 _atom_site_label
 _atom_site_symmetry_multiplicity
 _atom_site_fract_x
 _atom_site_fract_y
 _atom_site_fract_z
 _atom_site_occupancy
  Zn  Zn0  1  0.89422000  0.89096000  0.50251000  1.0
  Zn  Zn1  1  0.10775000  0.10100000  0.49832000  1.0
  Zn  Zn2  1  0.10709000  0.99980000  0.61044000  1.0
  Zn  Zn3  1  0.89850000  0.00733000  0.39227000  1.0
  H  H4  1  0.83790000  0.80625000  0.61498000  1.0
  H  H5  1  0.85564000  0.13713000  0.48594000  1.0
  H  H6  1  0.07590000  0.25007000  0.59693000  1.0
  H  H7  1  0.86714000  0.00396000  0.62776000  1.0
  H  H8  1  0.89748000  0.16511000  0.34618000  1.0
  H  H9  1  0.11340000  0.91204000  0.72896000  1.0
  H  H10  1  0.67892000  0.71696000  0.38201000  1.0
  H  H11  1  0.30952000  0.17978000  0.53227000  1.0
  H  H12  1  0.16526000  0.90379000  0.50945000  1.0
  H  H13  1  0.87510000  0.85639000  0.25279000  1.0
  H  H14  1  0.15242000  0.98449000  0.38063000  1.0
  H  H15  1  0.89249000  0.72639000  0.39629000  1.0
  H  H16  1  0.31481000  0.04924000  0.67642000  1.0
  H  H17  1  0.45751000  0.22144000  0.56520000  1.0
  H  H18  1  0.44491000  0.07478000  0.69403000  1.0
  H  H19  1  0.79543000  0.06303000  0.68226000  1.0
  H  H20  1  0.80192000  0.20283000  0.54807000  1.0
  H  H21  1  0.58338000  0.27796000  0.54109000  1.0
  H  H22  1  0.92893000  0.63440000  0.32306000  1.0
  H  H23  1  0.26832000  0.56608000  0.51862000  1.0
  H  H24  1  0.18134000  0.41428000  0.48460000  1.0
  H  H25  1  0.92072000  0.27157000  0.30674000  1.0
  H  H26  1  0.85422000  0.34452000  0.24847000  1.0
  H  H27  1  0.85735000  0.47806000  0.25475000  1.0
  H  H28  1  0.53547000  0.79881000  0.21238000  1.0
  H  H29  1  0.33999000  0.58992000  0.98424000  1.0
  H  H30  1  0.43697000  0.49571000  0.14921000  1.0
  H  H31  1  0.15283000  0.38436000  0.94377000  1.0
  H  H32  1  0.58090000  0.60364000  0.25257000  1.0
  H  H33  1  0.30067000  0.45624000  0.04615000  1.0
  H  H34  1  0.39314000  0.69111000  0.10777000  1.0
  H  H35  1  0.30925000  0.51614000  0.85319000  1.0
  H  H36  1  0.05282000  0.75798000  0.73794000  1.0
  H  H37  1  0.13782000  0.96376000  0.24949000  1.0
  H  H38  1  0.99984000  0.85823000  0.98560000  1.0
  H  H39  1  0.87090000  0.78671000  0.86482000  1.0
  H  H40  1  0.87045000  0.83595000  0.76405000  1.0
  H  H41  1  0.97331000  0.67844000  0.93299000  1.0
  H  H42  1  0.22679000  0.31891000  0.45683000  1.0
  H  H43  1  0.22142000  0.34758000  0.54464000  1.0
  H  H44  1  0.22708000  0.25495000  0.50642000  1.0
  H  H45  1  0.22697000  0.77236000  0.58385000  1.0
  H  H46  1  0.24142000  0.83959000  0.53794000  1.0
  H  H47  1  0.16065000  0.81860000  0.57000000  1.0
  H  H48  1  0.24993000  0.33917000  0.69164000  1.0
  H  H49  1  0.19271000  0.39221000  0.66874000  1.0
  H  H50  1  0.30131000  0.45120000  0.73876000  1.0
  H  H51  1  0.10443000  0.69560000  0.81020000  1.0
  H  H52  1  0.11617000  0.73396000  0.90448000  1.0
  H  H53  1  0.03069000  0.63258000  0.83586000  1.0
  H  H54  1  0.16802000  0.89951000  0.08209000  1.0
  H  H55  1  0.12854000  0.97108000  0.08713000  1.0
  H  H56  1  0.20635000  0.98409000  0.17144000  1.0
  C  C57  1  0.90703000  0.83877000  0.63468000  1.0
  C  C58  1  0.10389000  0.24168000  0.44966000  1.0
  C  C59  1  0.11960000  0.15917000  0.70605000  1.0
  C  C60  1  0.86287000  0.09744000  0.51413000  1.0
  C  C61  1  0.08844000  0.21312000  0.62646000  1.0
  C  C62  1  0.86819000  0.02910000  0.58605000  1.0
  C  C63  1  0.96290000  0.18165000  0.38089000  1.0
  C  C64  1  0.04740000  0.89086000  0.69135000  1.0
  C  C65  1  0.97137000  0.84003000  0.69250000  1.0
  C  C66  1  0.04025000  0.25651000  0.40776000  1.0
  C  C67  1  0.11568000  0.23202000  0.70384000  1.0
  C  C68  1  0.84628000  0.09013000  0.57543000  1.0
  C  C69  1  0.70199000  0.76491000  0.36247000  1.0
  C  C70  1  0.29725000  0.14426000  0.56514000  1.0
  C  C71  1  0.09599000  0.87042000  0.48707000  1.0
  C  C72  1  0.94204000  0.89522000  0.29459000  1.0
  C  C73  1  0.08391000  0.96224000  0.35897000  1.0
  C  C74  1  0.95674000  0.78065000  0.42861000  1.0
  C  C75  1  0.72081000  0.84801000  0.30527000  1.0
  C  C76  1  0.29989000  0.07750000  0.63832000  1.0
  C  C77  1  0.65754000  0.77088000  0.29742000  1.0
  C  C78  1  0.35227000  0.12606000  0.61267000  1.0
  C  C79  1  0.03663000  0.78397000  0.44237000  1.0
  C  C80  1  0.01565000  0.89687000  0.28909000  1.0
  C  C81  1  0.48491000  0.19212000  0.59651000  1.0
  C  C82  1  0.43994000  0.14503000  0.62724000  1.0
  C  C83  1  0.47891000  0.11089000  0.66949000  1.0
  C  C84  1  0.55791000  0.11705000  0.67680000  1.0
  C  C85  1  0.60081000  0.15966000  0.64046000  1.0
  C  C86  1  0.56408000  0.19968000  0.60221000  1.0
  C  C87  1  0.59898000  0.08107000  0.71768000  1.0
  C  C88  1  0.67183000  0.08168000  0.71646000  1.0
  C  C89  1  0.70944000  0.11445000  0.67240000  1.0
  C  C90  1  0.67510000  0.15836000  0.63781000  1.0
  C  C91  1  0.71421000  0.19580000  0.59655000  1.0
  C  C92  1  0.67994000  0.24292000  0.56594000  1.0
  C  C93  1  0.60783000  0.24372000  0.56763000  1.0
  C  C94  1  0.77183000  0.09892000  0.65764000  1.0
  C  C95  1  0.80024000  0.12458000  0.60770000  1.0
  C  C96  1  0.77536000  0.17757000  0.58226000  1.0
  C  C97  1  0.98502000  0.63537000  0.36053000  1.0
  C  C98  1  0.05139000  0.71175000  0.42271000  1.0
  C  C99  1  0.12682000  0.71478000  0.46963000  1.0
  C  C100  1  0.13438000  0.64105000  0.45058000  1.0
  C  C101  1  0.06098000  0.56142000  0.39541000  1.0
  C  C102  1  0.98596000  0.55932000  0.34828000  1.0
  C  C103  1  0.21040000  0.63753000  0.48929000  1.0
  C  C104  1  0.20879000  0.56400000  0.48702000  1.0
  C  C105  1  0.13145000  0.48529000  0.44104000  1.0
  C  C106  1  0.05904000  0.48441000  0.39118000  1.0
  C  C107  1  0.98295000  0.40519000  0.34060000  1.0
  C  C108  1  0.91121000  0.40505000  0.28935000  1.0
  C  C109  1  0.91299000  0.47890000  0.29292000  1.0
  C  C110  1  0.12556000  0.41017000  0.44365000  1.0
  C  C111  1  0.04927000  0.33266000  0.39792000  1.0
  C  C112  1  0.97989000  0.33140000  0.34492000  1.0
  C  C113  1  0.57016000  0.70932000  0.23875000  1.0
  C  C114  1  0.51481000  0.73247000  0.19802000  1.0
  C  C115  1  0.43456000  0.67166000  0.13897000  1.0
  C  C116  1  0.40599000  0.58512000  0.11838000  1.0
  C  C117  1  0.45828000  0.56235000  0.16339000  1.0
  C  C118  1  0.53925000  0.62316000  0.22174000  1.0
  C  C119  1  0.17176000  0.38690000  0.89871000  1.0
  C  C120  1  0.12568000  0.31647000  0.82931000  1.0
  C  C121  1  0.21285000  0.38773000  0.77707000  1.0
  C  C122  1  0.25672000  0.45935000  0.84626000  1.0
  C  C123  1  0.24173000  0.45902000  0.90947000  1.0
  C  C124  1  0.33021000  0.51933000  0.04835000  1.0
  C  C125  1  0.30406000  0.52896000  0.98376000  1.0
  C  C126  1  0.14764000  0.31189000  0.76847000  1.0
  C  C127  1  0.96362000  0.80239000  0.74547000  1.0
  C  C128  1  0.01288000  0.76433000  0.76613000  1.0
  C  C129  1  0.01339000  0.73557000  0.82226000  1.0
  C  C130  1  0.96426000  0.74741000  0.86056000  1.0
  C  C131  1  0.91088000  0.78068000  0.83670000  1.0
  C  C132  1  0.90990000  0.80739000  0.77972000  1.0
  C  C133  1  0.94344000  0.75802000  0.08516000  1.0
  C  C134  1  0.95133000  0.77891000  0.15897000  1.0
  C  C135  1  0.08426000  0.90378000  0.20356000  1.0
  C  C136  1  0.07920000  0.88196000  0.13112000  1.0
  C  C137  1  0.00457000  0.80978000  0.06881000  1.0
  C  C138  1  0.97531000  0.73620000  0.93066000  1.0
  C  C139  1  0.99186000  0.80049000  0.99207000  1.0
  C  C140  1  0.01892000  0.85653000  0.21911000  1.0
  C  C141  1  0.19951000  0.29376000  0.49144000  1.0
  C  C142  1  0.19266000  0.79041000  0.54381000  1.0
  C  C143  1  0.24073000  0.39267000  0.71582000  1.0
  C  C144  1  0.06912000  0.69751000  0.84425000  1.0
  C  C145  1  0.14953000  0.93716000  0.11761000  1.0
  N  N146  1  0.94216000  0.88465000  0.60130000  1.0
  N  N147  1  0.06524000  0.16408000  0.44691000  1.0
  N  N148  1  0.09522000  0.10323000  0.63616000  1.0
  N  N149  1  0.89041000  0.04407000  0.49001000  1.0
  N  N150  1  0.07707000  0.13590000  0.58734000  1.0
  N  N151  1  0.89364000  0.00159000  0.53403000  1.0
  N  N152  1  0.97828000  0.12687000  0.40451000  1.0
  N  N153  1  0.02954000  0.91743000  0.63696000  1.0
  N  N154  1  0.78306000  0.83195000  0.40350000  1.0
  N  N155  1  0.21885000  0.10915000  0.56285000  1.0
  N  N156  1  0.05490000  0.91396000  0.50066000  1.0
  N  N157  1  0.96545000  0.95555000  0.36170000  1.0
  N  N158  1  0.05243000  0.99640000  0.40150000  1.0
  N  N159  1  0.96890000  0.85832000  0.46416000  1.0
  N  N160  1  0.79454000  0.88207000  0.36822000  1.0
  N  N161  1  0.22089000  0.06765000  0.60838000  1.0
  N  N162  1  0.72239000  0.89370000  0.26049000  1.0
  N  N163  1  0.56263000  0.04272000  0.76207000  1.0
  N  N164  1  0.71184000  0.04247000  0.75746000  1.0
  N  N165  1  0.72060000  0.29236000  0.53008000  1.0
  N  N166  1  0.29691000  0.71147000  0.52507000  1.0
  N  N167  1  0.15649000  0.14314000  0.76851000  1.0
  N  N168  1  0.05006000  0.24472000  0.82157000  1.0
  N  N169  1  0.88549000  0.72170000  0.17298000  1.0
  N  N170  1  0.86730000  0.68007000  0.02122000  1.0
  O  O171  1  0.66137000  0.86495000  0.19828000  1.0
  O  O172  1  0.78949000  0.96558000  0.28695000  1.0
  O  O173  1  0.48478000  0.99121000  0.73022000  1.0
  O  O174  1  0.61280000  0.06534000  0.82832000  1.0
  O  O175  1  0.67015000  0.96506000  0.73392000  1.0
  O  O176  1  0.78488000  0.09027000  0.80991000  1.0
  O  O177  1  0.79828000  0.31747000  0.54882000  1.0
  O  O178  1  0.67525000  0.30739000  0.48390000  1.0
  O  O179  1  0.30953000  0.75901000  0.49317000  1.0
  O  O180  1  0.35281000  0.71977000  0.58243000  1.0
  O  O181  1  0.17129000  0.18857000  0.83277000  1.0
  O  O182  1  0.17469000  0.08475000  0.75502000  1.0
  O  O183  1  0.04580000  0.24304000  0.88032000  1.0
  O  O184  1  0.99419000  0.19153000  0.75632000  1.0
  O  O185  1  0.80903000  0.69315000  0.12940000  1.0
  O  O186  1  0.91120000  0.70604000  0.22760000  1.0
  O  O187  1  0.86378000  0.61248000  0.01798000  1.0
  O  O188  1  0.81529000  0.68899000  0.97549000  1.0
