# generated using pymatgen
data_CuMo4H11C12N2O13
_symmetry_space_group_name_H-M   'P 1'
_cell_length_a   8.33743000
_cell_length_b   10.80070000
_cell_length_c   12.47360000
_cell_angle_alpha   110.45500000
_cell_angle_beta   106.66500000
_cell_angle_gamma   96.97830000
_symmetry_Int_Tables_number   1
_chemical_formula_structural   CuMo4H11C12N2O13
_chemical_formula_sum   'Cu2 Mo8 H22 C24 N4 O26'
_cell_volume   976.97889944
_cell_formula_units_Z   2
loop_
 _symmetry_equiv_pos_site_id
 _symmetry_equiv_pos_as_xyz
  1  'x, y, z'
loop_
 _atom_site_type_symbol
 _atom_site_label
 _atom_site_symmetry_multiplicity
 _atom_site_fract_x
 _atom_site_fract_y
 _atom_site_fract_z
 _atom_site_occupancy
  Cu  Cu0  1  0.21935000  0.88708000  0.70299000  1.0
  Cu  Cu1  1  0.78065000  0.11292000  0.29701000  1.0
  Mo  Mo2  1  0.01294000  0.55808000  0.65006000  1.0
  Mo  Mo3  1  0.98706000  0.44192000  0.34994000  1.0
  Mo  Mo4  1  0.62457000  0.57141000  0.65535000  1.0
  Mo  Mo5  1  0.37543000  0.42859000  0.34464000  1.0
  Mo  Mo6  1  0.58880000  0.24954000  0.51372000  1.0
  Mo  Mo7  1  0.41119000  0.75046000  0.48628000  1.0
  Mo  Mo8  1  0.19632000  0.26672000  0.50897000  1.0
  Mo  Mo9  1  0.80369000  0.73328000  0.49103000  1.0
  H  H10  1  0.42982000  0.11602000  0.71682000  1.0
  H  H11  1  0.57018000  0.88398000  0.28318000  1.0
  H  H12  1  0.60936000  0.34370000  0.86823000  1.0
  H  H13  1  0.39064000  0.65630000  0.13177000  1.0
  H  H14  1  0.64398000  0.40808000  0.09207000  1.0
  H  H15  1  0.35602000  0.59192000  0.90793000  1.0
  H  H16  1  0.48735000  0.24278000  0.14652000  1.0
  H  H17  1  0.51265000  0.75722000  0.85348000  1.0
  H  H18  1  0.18170000  0.90495000  0.90163000  1.0
  H  H19  1  0.81830000  0.09505000  0.09837000  1.0
  H  H20  1  0.33315000  0.10077000  0.17621000  1.0
  H  H21  1  0.66684000  0.89923000  0.82379000  1.0
  H  H22  1  0.03063000  0.75679000  0.92874000  1.0
  H  H23  1  0.96936000  0.24321000  0.07126000  1.0
  H  H24  1  0.85687000  0.60238000  0.98154000  1.0
  H  H25  1  0.14313000  0.39762000  0.01846000  1.0
  H  H26  1  0.87409000  0.67038000  0.20122000  1.0
  H  H27  1  0.12591000  0.32962000  0.79878000  1.0
  H  H28  1  0.07480000  0.89468000  0.35883000  1.0
  H  H29  1  0.92520000  0.10532000  0.64117000  1.0
  H  H30  1  0.23503000  0.03060000  0.30267000  1.0
  H  H31  1  0.76497000  0.96940000  0.69733000  1.0
  C  C32  1  0.44193000  0.14864000  0.81237000  1.0
  C  C33  1  0.55807000  0.85137000  0.18763000  1.0
  C  C34  1  0.54450000  0.27611000  0.89875000  1.0
  C  C35  1  0.45550000  0.72389000  0.10125000  1.0
  C  C36  1  0.56146000  0.31099000  0.02083000  1.0
  C  C37  1  0.43854000  0.68901000  0.97917000  1.0
  C  C38  1  0.47297000  0.21851000  0.05141000  1.0
  C  C39  1  0.52702000  0.78148000  0.94859000  1.0
  C  C40  1  0.36479000  0.09414000  0.95965000  1.0
  C  C41  1  0.63521000  0.90586000  0.04035000  1.0
  C  C42  1  0.26047000  0.99613000  0.98349000  1.0
  C  C43  1  0.73953000  0.00387000  0.01651000  1.0
  C  C44  1  0.25406000  0.01010000  0.09432000  1.0
  C  C45  1  0.74594000  0.98990000  0.90568000  1.0
  C  C46  1  0.14679000  0.91021000  0.11377000  1.0
  C  C47  1  0.85320000  0.08979000  0.88623000  1.0
  C  C48  1  0.03817000  0.78558000  0.02306000  1.0
  C  C49  1  0.96183000  0.21442000  0.97694000  1.0
  C  C50  1  0.94098000  0.69841000  0.05349000  1.0
  C  C51  1  0.05902000  0.30159000  0.94651000  1.0
  C  C52  1  0.94921000  0.73528000  0.17438000  1.0
  C  C53  1  0.05079000  0.26471000  0.82562000  1.0
  C  C54  1  0.05856000  0.85798000  0.26239000  1.0
  C  C55  1  0.94144000  0.14202000  0.73762000  1.0
  N  N56  1  0.35262000  0.05937000  0.84053000  1.0
  N  N57  1  0.64738000  0.94063000  0.15947000  1.0
  N  N58  1  0.15252000  0.94023000  0.23068000  1.0
  N  N59  1  0.84748000  0.05977000  0.76932000  1.0
  O  O60  1  0.05594000  0.51994000  0.77562000  1.0
  O  O61  1  0.94407000  0.48006000  0.22438000  1.0
  O  O62  1  0.84310000  0.67397000  0.66545000  1.0
  O  O63  1  0.15690000  0.32603000  0.33455000  1.0
  O  O64  1  0.74950000  0.42138000  0.56938000  1.0
  O  O65  1  0.25050000  0.57862000  0.43062000  1.0
  O  O66  1  0.67228000  0.56230000  0.79428000  1.0
  O  O67  1  0.32772000  0.43770000  0.20572000  1.0
  O  O68  1  0.43668000  0.41440000  0.55026000  1.0
  O  O69  1  0.56332000  0.58560000  0.44974000  1.0
  O  O70  1  0.51491000  0.70182000  0.66483000  1.0
  O  O71  1  0.48509000  0.29818000  0.33517000  1.0
  O  O72  1  0.67052000  0.12740000  0.42683000  1.0
  O  O73  1  0.32948000  0.87260000  0.57317000  1.0
  O  O74  1  0.63158000  0.23065000  0.64889000  1.0
  O  O75  1  0.36842000  0.76935000  0.35111000  1.0
  O  O76  1  0.24495000  0.26763000  0.65144000  1.0
  O  O77  1  0.75505000  0.73237000  0.34856000  1.0
  O  O78  1  0.34160000  0.15943000  0.44203000  1.0
  O  O79  1  0.65840000  0.84057000  0.55797000  1.0
  O  O80  1  0.08694000  0.42350000  0.53849000  1.0
  O  O81  1  0.91307000  0.57650000  0.46151000  1.0
  O  O82  1  0.99323000  0.86196000  0.58216000  1.0
  O  O83  1  0.00677000  0.13804000  0.41783000  1.0
  O  O84  1  0.17768000  0.70441000  0.70012000  1.0
  O  O85  1  0.82232000  0.29559000  0.29988000  1.0
