# generated using pymatgen
data_NiH9C9(NO2)2
_symmetry_space_group_name_H-M   'P 1'
_cell_length_a   6.86559000
_cell_length_b   7.62794000
_cell_length_c   22.33630000
_cell_angle_alpha   89.99920000
_cell_angle_beta   90.00050000
_cell_angle_gamma   89.99990000
_symmetry_Int_Tables_number   1
_chemical_formula_structural   NiH9C9(NO2)2
_chemical_formula_sum   'Ni4 H36 C36 N8 O16'
_cell_volume   1169.75892348
_cell_formula_units_Z   4
loop_
 _symmetry_equiv_pos_site_id
 _symmetry_equiv_pos_as_xyz
  1  'x, y, z'
loop_
 _atom_site_type_symbol
 _atom_site_label
 _atom_site_symmetry_multiplicity
 _atom_site_fract_x
 _atom_site_fract_y
 _atom_site_fract_z
 _atom_site_occupancy
  Ni  Ni0  1  0.93324000  0.25917000  0.78813000  1.0
  Ni  Ni1  1  0.06676000  0.25917000  0.21187000  1.0
  Ni  Ni2  1  0.43324000  0.74084000  0.71187000  1.0
  Ni  Ni3  1  0.56676000  0.74083000  0.28813000  1.0
  H  H4  1  0.16123000  0.35771000  0.70804000  1.0
  H  H5  1  0.10201000  0.14823000  0.69136000  1.0
  H  H6  1  0.84421000  0.09968000  0.61293000  1.0
  H  H7  1  0.63744000  0.23462000  0.61958000  1.0
  H  H8  1  0.94864000  0.40117000  0.62498000  1.0
  H  H9  1  0.51320000  0.20399000  0.82143000  1.0
  H  H10  1  0.31174000  0.20659000  0.91323000  1.0
  H  H11  1  0.82903000  0.36083000  0.01090000  1.0
  H  H12  1  0.00725000  0.35316000  0.91271000  1.0
  H  H13  1  0.83877000  0.35770000  0.29196000  1.0
  H  H14  1  0.89799000  0.14822000  0.30864000  1.0
  H  H15  1  0.15580000  0.09966000  0.38707000  1.0
  H  H16  1  0.36257000  0.23461000  0.38042000  1.0
  H  H17  1  0.05136000  0.40115000  0.37502000  1.0
  H  H18  1  0.48681000  0.20399000  0.17857000  1.0
  H  H19  1  0.68828000  0.20660000  0.08677000  1.0
  H  H20  1  0.17098000  0.36082000  0.98909000  1.0
  H  H21  1  0.99276000  0.35315000  0.08729000  1.0
  H  H22  1  0.66122000  0.64229000  0.79196000  1.0
  H  H23  1  0.60201000  0.85178000  0.80865000  1.0
  H  H24  1  0.34422000  0.90033000  0.88707000  1.0
  H  H25  1  0.13744000  0.76539000  0.88043000  1.0
  H  H26  1  0.44865000  0.59884000  0.87503000  1.0
  H  H27  1  0.01319000  0.79602000  0.67857000  1.0
  H  H28  1  0.81172000  0.79340000  0.58677000  1.0
  H  H29  1  0.32901000  0.63917000  0.48910000  1.0
  H  H30  1  0.50723000  0.64685000  0.58729000  1.0
  H  H31  1  0.33878000  0.64229000  0.20803000  1.0
  H  H32  1  0.39800000  0.85178000  0.19135000  1.0
  H  H33  1  0.65580000  0.90033000  0.11292000  1.0
  H  H34  1  0.86258000  0.76538000  0.11957000  1.0
  H  H35  1  0.55136000  0.59885000  0.12497000  1.0
  H  H36  1  0.98680000  0.79600000  0.32143000  1.0
  H  H37  1  0.18826000  0.79340000  0.41323000  1.0
  H  H38  1  0.67097000  0.63917000  0.51090000  1.0
  H  H39  1  0.49275000  0.64683000  0.41271000  1.0
  C  C40  1  0.68290000  0.06198000  0.69350000  1.0
  C  C41  1  0.76288000  0.18292000  0.64452000  1.0
  C  C42  1  0.89179000  0.33399000  0.66508000  1.0
  C  C43  1  0.76897000  0.47018000  0.69958000  1.0
  C  C44  1  0.57728000  0.23675000  0.86464000  1.0
  C  C45  1  0.46596000  0.23883000  0.91671000  1.0
  C  C46  1  0.55471000  0.28009000  0.97162000  1.0
  C  C47  1  0.75365000  0.32211000  0.97019000  1.0
  C  C48  1  0.85402000  0.31775000  0.91634000  1.0
  C  C49  1  0.31711000  0.06198000  0.30650000  1.0
  C  C50  1  0.23712000  0.18292000  0.35548000  1.0
  C  C51  1  0.10820000  0.33397000  0.33492000  1.0
  C  C52  1  0.23103000  0.47018000  0.30042000  1.0
  C  C53  1  0.42274000  0.23675000  0.13536000  1.0
  C  C54  1  0.53405000  0.23883000  0.08329000  1.0
  C  C55  1  0.44530000  0.28009000  0.02838000  1.0
  C  C56  1  0.24637000  0.32210000  0.02981000  1.0
  C  C57  1  0.14599000  0.31774000  0.08366000  1.0
  C  C58  1  0.18289000  0.93802000  0.80651000  1.0
  C  C59  1  0.26288000  0.81708000  0.85548000  1.0
  C  C60  1  0.39180000  0.66602000  0.83493000  1.0
  C  C61  1  0.26897000  0.52982000  0.80043000  1.0
  C  C62  1  0.07726000  0.76326000  0.63536000  1.0
  C  C63  1  0.96594000  0.76118000  0.58329000  1.0
  C  C64  1  0.05469000  0.71991000  0.52838000  1.0
  C  C65  1  0.25363000  0.67789000  0.52982000  1.0
  C  C66  1  0.35400000  0.68226000  0.58366000  1.0
  C  C67  1  0.81711000  0.93802000  0.19349000  1.0
  C  C68  1  0.73713000  0.81708000  0.14452000  1.0
  C  C69  1  0.60820000  0.66602000  0.16507000  1.0
  C  C70  1  0.73103000  0.52982000  0.19957000  1.0
  C  C71  1  0.92273000  0.76325000  0.36464000  1.0
  C  C72  1  0.03404000  0.76117000  0.41671000  1.0
  C  C73  1  0.94529000  0.71991000  0.47162000  1.0
  C  C74  1  0.74635000  0.67789000  0.47018000  1.0
  C  C75  1  0.64598000  0.68225000  0.41634000  1.0
  N  N76  1  0.04904000  0.26824000  0.70365000  1.0
  N  N77  1  0.76898000  0.27382000  0.86419000  1.0
  N  N78  1  0.95096000  0.26823000  0.29635000  1.0
  N  N79  1  0.23103000  0.27382000  0.13581000  1.0
  N  N80  1  0.54903000  0.73177000  0.79635000  1.0
  N  N81  1  0.26897000  0.72619000  0.63581000  1.0
  N  N82  1  0.45097000  0.73176000  0.20364000  1.0
  N  N83  1  0.73101000  0.72617000  0.36419000  1.0
  O  O84  1  0.71918000  0.08557000  0.74876000  1.0
  O  O85  1  0.57942000  0.93850000  0.67220000  1.0
  O  O86  1  0.65161000  0.56523000  0.67051000  1.0
  O  O87  1  0.79388000  0.47529000  0.75618000  1.0
  O  O88  1  0.28083000  0.08558000  0.25124000  1.0
  O  O89  1  0.42059000  0.93849000  0.32780000  1.0
  O  O90  1  0.34839000  0.56521000  0.32949000  1.0
  O  O91  1  0.20611000  0.47529000  0.24382000  1.0
  O  O92  1  0.21917000  0.91442000  0.75124000  1.0
  O  O93  1  0.07943000  0.06151000  0.82780000  1.0
  O  O94  1  0.15162000  0.43478000  0.82949000  1.0
  O  O95  1  0.29390000  0.52470000  0.74382000  1.0
  O  O96  1  0.78083000  0.91441000  0.24875000  1.0
  O  O97  1  0.92057000  0.06151000  0.17220000  1.0
  O  O98  1  0.84839000  0.43479000  0.17051000  1.0
  O  O99  1  0.70610000  0.52470000  0.25618000  1.0
