# generated using pymatgen
data_LiH3C3NO3
_symmetry_space_group_name_H-M   'P 1'
_cell_length_a   7.32658000
_cell_length_b   7.32831000
_cell_length_c   15.19830000
_cell_angle_alpha   89.99990000
_cell_angle_beta   101.28300000
_cell_angle_gamma   89.99980000
_symmetry_Int_Tables_number   1
_chemical_formula_structural   LiH3C3NO3
_chemical_formula_sum   'Li8 H24 C24 N8 O24'
_cell_volume   800.24736119
_cell_formula_units_Z   8
loop_
 _symmetry_equiv_pos_site_id
 _symmetry_equiv_pos_as_xyz
  1  'x, y, z'
loop_
 _atom_site_type_symbol
 _atom_site_label
 _atom_site_symmetry_multiplicity
 _atom_site_fract_x
 _atom_site_fract_y
 _atom_site_fract_z
 _atom_site_occupancy
  Li  Li0  1  0.97051000  0.03052000  0.73844000  1.0
  Li  Li1  1  0.52948000  0.53052000  0.76157000  1.0
  Li  Li2  1  0.02949000  0.96947000  0.26156000  1.0
  Li  Li3  1  0.47051000  0.46948000  0.23843000  1.0
  Li  Li4  1  0.32855000  0.81556000  0.83646000  1.0
  Li  Li5  1  0.17145000  0.31556000  0.66354000  1.0
  Li  Li6  1  0.67144000  0.18445000  0.16354000  1.0
  Li  Li7  1  0.82855000  0.68444000  0.33647000  1.0
  H  H8  1  0.69249000  0.29353000  0.60449000  1.0
  H  H9  1  0.80750000  0.79355000  0.89551000  1.0
  H  H10  1  0.30751000  0.70646000  0.39551000  1.0
  H  H11  1  0.19249000  0.20646000  0.10448000  1.0
  H  H12  1  0.68064000  0.93284000  0.51612000  1.0
  H  H13  1  0.81937000  0.43285000  0.98388000  1.0
  H  H14  1  0.31936000  0.06715000  0.48388000  1.0
  H  H15  1  0.18063000  0.56715000  0.01612000  1.0
  H  H16  1  0.10264000  0.71780000  0.70573000  1.0
  H  H17  1  0.39736000  0.21780000  0.79427000  1.0
  H  H18  1  0.89736000  0.28220000  0.29427000  1.0
  H  H19  1  0.60264000  0.78221000  0.20573000  1.0
  H  H20  1  0.10100000  0.97261000  0.59542000  1.0
  H  H21  1  0.39901000  0.47262000  0.90458000  1.0
  H  H22  1  0.89900000  0.02738000  0.40458000  1.0
  H  H23  1  0.60099000  0.52739000  0.09542000  1.0
  H  H24  1  0.00455000  0.69038000  0.78805000  1.0
  H  H25  1  0.49545000  0.19038000  0.71195000  1.0
  H  H26  1  0.99545000  0.30962000  0.21195000  1.0
  H  H27  1  0.50456000  0.80962000  0.28805000  1.0
  H  H28  1  0.94256000  0.11843000  0.56843000  1.0
  H  H29  1  0.55744000  0.61843000  0.93157000  1.0
  H  H30  1  0.05744000  0.88157000  0.43157000  1.0
  H  H31  1  0.44256000  0.38157000  0.06843000  1.0
  C  C32  1  0.81029000  0.35737000  0.44330000  1.0
  C  C33  1  0.68971000  0.85738000  0.05671000  1.0
  C  C34  1  0.18972000  0.64264000  0.55670000  1.0
  C  C35  1  0.31028000  0.14263000  0.94329000  1.0
  C  C36  1  0.63674000  0.73565000  0.61656000  1.0
  C  C37  1  0.86326000  0.23566000  0.88344000  1.0
  C  C38  1  0.36326000  0.26434000  0.38344000  1.0
  C  C39  1  0.13674000  0.76434000  0.11656000  1.0
  C  C40  1  0.57314000  0.87170000  0.67954000  1.0
  C  C41  1  0.92686000  0.37170000  0.82046000  1.0
  C  C42  1  0.42686000  0.12830000  0.32046000  1.0
  C  C43  1  0.07313000  0.62830000  0.17954000  1.0
  C  C44  1  0.69425000  0.43709000  0.58579000  1.0
  C  C45  1  0.80575000  0.93711000  0.91421000  1.0
  C  C46  1  0.30576000  0.56290000  0.41421000  1.0
  C  C47  1  0.19424000  0.06289000  0.08579000  1.0
  C  C48  1  0.74748000  0.49219000  0.50631000  1.0
  C  C49  1  0.75252000  0.99220000  0.99369000  1.0
  C  C50  1  0.25253000  0.50781000  0.49369000  1.0
  C  C51  1  0.24749000  0.00780000  0.00631000  1.0
  C  C52  1  0.68689000  0.78969000  0.53599000  1.0
  C  C53  1  0.81312000  0.28971000  0.96402000  1.0
  C  C54  1  0.31311000  0.21030000  0.46402000  1.0
  C  C55  1  0.18688000  0.71029000  0.03598000  1.0
  N  N56  1  0.63769000  0.55906000  0.64042000  1.0
  N  N57  1  0.86230000  0.05907000  0.85958000  1.0
  N  N58  1  0.36230000  0.44094000  0.35958000  1.0
  N  N59  1  0.13770000  0.94094000  0.14042000  1.0
  N  N60  1  0.74102000  0.66814000  0.48078000  1.0
  N  N61  1  0.75898000  0.16815000  0.01922000  1.0
  N  N62  1  0.25898000  0.33185000  0.51922000  1.0
  N  N63  1  0.24102000  0.83185000  0.98077000  1.0
  O  O64  1  0.07838000  0.78329000  0.76035000  1.0
  O  O65  1  0.42162000  0.28329000  0.73965000  1.0
  O  O66  1  0.92162000  0.21671000  0.23965000  1.0
  O  O67  1  0.57839000  0.71671000  0.26035000  1.0
  O  O68  1  0.49196000  0.80603000  0.73882000  1.0
  O  O69  1  0.00804000  0.30604000  0.76118000  1.0
  O  O70  1  0.50804000  0.19397000  0.26118000  1.0
  O  O71  1  0.99196000  0.69396000  0.23883000  1.0
  O  O72  1  0.03566000  0.07439000  0.62062000  1.0
  O  O73  1  0.46434000  0.57439000  0.87939000  1.0
  O  O74  1  0.96434000  0.92561000  0.37939000  1.0
  O  O75  1  0.53566000  0.42561000  0.12061000  1.0
  O  O76  1  0.85299000  0.42221000  0.37274000  1.0
  O  O77  1  0.64701000  0.92222000  0.12726000  1.0
  O  O78  1  0.14701000  0.57778000  0.62725000  1.0
  O  O79  1  0.35298000  0.07778000  0.87274000  1.0
  O  O80  1  0.81513000  0.18958000  0.46513000  1.0
  O  O81  1  0.68487000  0.68959000  0.03488000  1.0
  O  O82  1  0.18487000  0.81042000  0.53487000  1.0
  O  O83  1  0.31513000  0.31042000  0.96512000  1.0
  O  O84  1  0.61005000  0.03791000  0.66730000  1.0
  O  O85  1  0.88995000  0.53791000  0.83270000  1.0
  O  O86  1  0.38995000  0.96210000  0.33270000  1.0
  O  O87  1  0.11005000  0.46210000  0.16730000  1.0
