# generated using pymatgen
data_ZnH15C28NO11
_symmetry_space_group_name_H-M   'P 1'
_cell_length_a   15.83980000
_cell_length_b   16.47210000
_cell_length_c   17.62840000
_cell_angle_alpha   89.07020000
_cell_angle_beta   89.44120000
_cell_angle_gamma   63.58030000
_symmetry_Int_Tables_number   1
_chemical_formula_structural   ZnH15C28NO11
_chemical_formula_sum   'Zn2 H30 C56 N2 O22'
_cell_volume   4118.57287179
_cell_formula_units_Z   2
loop_
 _symmetry_equiv_pos_site_id
 _symmetry_equiv_pos_as_xyz
  1  'x, y, z'
loop_
 _atom_site_type_symbol
 _atom_site_label
 _atom_site_symmetry_multiplicity
 _atom_site_fract_x
 _atom_site_fract_y
 _atom_site_fract_z
 _atom_site_occupancy
  Zn  Zn0  1  0.51808000  0.40825000  0.50516000  1.0
  Zn  Zn1  1  0.48688000  0.59148000  0.48810000  1.0
  H  H2  1  0.09543000  0.31430000  0.37103000  1.0
  H  H3  1  0.91858000  0.67462000  0.64446000  1.0
  H  H4  1  0.47066000  0.14566000  0.62575000  1.0
  H  H5  1  0.39639000  0.91850000  0.40230000  1.0
  H  H6  1  0.48079000  0.29342000  0.62273000  1.0
  H  H7  1  0.39650000  0.76584000  0.39971000  1.0
  H  H8  1  0.54414000  0.27163000  0.39332000  1.0
  H  H9  1  0.60140000  0.66259000  0.56598000  1.0
  H  H10  1  0.53961000  0.12102000  0.38624000  1.0
  H  H11  1  0.60921000  0.81119000  0.57739000  1.0
  H  H12  1  0.96036000  0.28113000  0.36064000  1.0
  H  H13  1  0.05493000  0.70727000  0.65357000  1.0
  H  H14  1  0.16926000  0.40379000  0.42150000  1.0
  H  H15  1  0.84341000  0.58630000  0.59403000  1.0
  H  H16  1  0.40875000  0.40905000  0.27585000  1.0
  H  H17  1  0.36730000  0.66551000  0.72124000  1.0
  H  H18  1  0.50485000  0.59376000  0.10254000  1.0
  H  H19  1  0.52708000  0.39485000  0.88842000  1.0
  H  H20  1  0.16203000  0.53668000  0.30112000  1.0
  H  H21  1  0.70922000  0.52463000  0.67719000  1.0
  H  H22  1  0.23726000  0.77078000  0.53454000  1.0
  H  H23  1  0.25207000  0.79634000  0.63075000  1.0
  H  H24  1  0.13587000  0.82480000  0.59585000  1.0
  H  H25  1  0.77090000  0.18635000  0.38675000  1.0
  H  H26  1  0.77642000  0.22364000  0.48084000  1.0
  H  H27  1  0.88287000  0.16733000  0.42549000  1.0
  H  H28  1  0.29175000  0.33828000  0.15740000  1.0
  H  H29  1  0.22881000  0.82087000  0.84429000  1.0
  H  H30  1  0.58138000  0.69316000  0.24841000  1.0
  H  H31  1  0.71182000  0.31514000  0.70007000  1.0
  C  C32  1  0.48715000  0.51784000  0.64393000  1.0
  C  C33  1  0.49893000  0.49036000  0.34949000  1.0
  C  C34  1  0.09769000  0.41953000  0.43897000  1.0
  C  C35  1  0.91366000  0.57236000  0.57415000  1.0
  C  C36  1  0.05773000  0.36749000  0.41196000  1.0
  C  C37  1  0.95443000  0.62365000  0.60139000  1.0
  C  C38  1  0.40746000  0.45495000  0.16002000  1.0
  C  C39  1  0.38081000  0.61339000  0.83614000  1.0
  C  C40  1  0.43193000  0.44721000  0.23702000  1.0
  C  C41  1  0.40343000  0.60725000  0.75872000  1.0
  C  C42  1  0.48257000  0.49061000  0.26585000  1.0
  C  C43  1  0.47011000  0.52670000  0.72775000  1.0
  C  C44  1  0.50931000  0.54349000  0.21673000  1.0
  C  C45  1  0.51538000  0.44989000  0.77525000  1.0
  C  C46  1  0.48448000  0.55274000  0.14061000  1.0
  C  C47  1  0.49258000  0.45438000  0.85178000  1.0
  C  C48  1  0.43428000  0.50819000  0.11041000  1.0
  C  C49  1  0.42604000  0.53599000  0.88406000  1.0
  C  C50  1  0.41718000  0.51834000  0.03150000  1.0
  C  C51  1  0.41323000  0.53488000  0.96342000  1.0
  C  C52  1  0.48763000  0.17084000  0.57319000  1.0
  C  C53  1  0.44230000  0.86373000  0.43975000  1.0
  C  C54  1  0.68561000  0.42880000  0.50026000  1.0
  C  C55  1  0.31923000  0.57253000  0.49943000  1.0
  C  C56  1  0.49263000  0.25294000  0.57181000  1.0
  C  C57  1  0.44192000  0.77971000  0.43818000  1.0
  C  C58  1  0.52925000  0.23985000  0.44303000  1.0
  C  C59  1  0.55666000  0.72187000  0.53193000  1.0
  C  C60  1  0.52591000  0.15739000  0.43948000  1.0
  C  C61  1  0.56100000  0.80382000  0.53759000  1.0
  C  C62  1  0.50495000  0.12111000  0.50585000  1.0
  C  C63  1  0.50186000  0.87746000  0.49144000  1.0
  C  C64  1  0.50248000  0.03635000  0.50322000  1.0
  C  C65  1  0.50212000  0.96293000  0.49715000  1.0
  C  C66  1  0.78846000  0.40403000  0.48748000  1.0
  C  C67  1  0.21819000  0.59415000  0.51770000  1.0
  C  C68  1  0.92443000  0.32939000  0.40552000  1.0
  C  C69  1  0.08797000  0.66220000  0.60608000  1.0
  C  C70  1  0.83531000  0.34328000  0.42765000  1.0
  C  C71  1  0.17571000  0.64985000  0.58109000  1.0
  C  C72  1  0.83596000  0.44482000  0.52664000  1.0
  C  C73  1  0.17069000  0.55214000  0.48061000  1.0
  C  C74  1  0.92180000  0.44174000  0.49724000  1.0
  C  C75  1  0.08716000  0.55285000  0.51260000  1.0
  C  C76  1  0.96719000  0.37994000  0.43721000  1.0
  C  C77  1  0.04366000  0.61312000  0.57404000  1.0
  C  C78  1  0.96135000  0.50131000  0.52143000  1.0
  C  C79  1  0.04827000  0.49220000  0.48990000  1.0
  C  C80  1  0.20500000  0.51738000  0.40241000  1.0
  C  C81  1  0.80916000  0.46771000  0.60821000  1.0
  C  C82  1  0.21089000  0.77543000  0.59301000  1.0
  C  C83  1  0.80693000  0.21411000  0.42346000  1.0
  C  C84  1  0.35386000  0.40858000  0.12939000  1.0
  C  C85  1  0.31038000  0.69951000  0.86885000  1.0
  C  C86  1  0.57199000  0.58349000  0.24354000  1.0
  C  C87  1  0.59027000  0.36251000  0.74538000  1.0
  N  N88  1  0.51330000  0.28647000  0.50798000  1.0
  N  N89  1  0.49713000  0.71068000  0.48396000  1.0
  O  O90  1  0.51133000  0.43861000  0.61891000  1.0
  O  O91  1  0.49079000  0.56528000  0.37484000  1.0
  O  O92  1  0.47497000  0.58810000  0.60536000  1.0
  O  O93  1  0.51626000  0.41870000  0.38779000  1.0
  O  O94  1  0.66083000  0.36670000  0.51481000  1.0
  O  O95  1  0.34127000  0.63492000  0.47910000  1.0
  O  O96  1  0.63106000  0.51215000  0.48961000  1.0
  O  O97  1  0.37544000  0.49005000  0.51166000  1.0
  O  O98  1  0.28371000  0.46188000  0.38330000  1.0
  O  O99  1  0.13503000  0.56175000  0.35065000  1.0
  O  O100  1  0.86437000  0.42844000  0.65952000  1.0
  O  O101  1  0.71824000  0.52866000  0.62230000  1.0
  O  O102  1  0.22395000  0.68780000  0.62052000  1.0
  O  O103  1  0.79162000  0.29978000  0.38989000  1.0
  O  O104  1  0.33591000  0.40587000  0.06245000  1.0
  O  O105  1  0.32463000  0.36701000  0.18476000  1.0
  O  O106  1  0.28575000  0.71073000  0.93537000  1.0
  O  O107  1  0.27400000  0.76855000  0.81619000  1.0
  O  O108  1  0.65120000  0.53918000  0.26825000  1.0
  O  O109  1  0.53318000  0.67512000  0.23215000  1.0
  O  O110  1  0.58638000  0.29018000  0.74632000  1.0
  O  O111  1  0.66734000  0.37272000  0.72225000  1.0
