# generated using pymatgen
data_AgH8C5S2(OF)3
_symmetry_space_group_name_H-M   'P 1'
_cell_length_a   7.86395000
_cell_length_b   11.67550000
_cell_length_c   11.96730000
_cell_angle_alpha   114.14400000
_cell_angle_beta   90.00000000
_cell_angle_gamma   89.99980000
_symmetry_Int_Tables_number   1
_chemical_formula_structural   AgH8C5S2(OF)3
_chemical_formula_sum   'Ag4 H32 C20 S8 O12 F12'
_cell_volume   1002.66293324
_cell_formula_units_Z   4
loop_
 _symmetry_equiv_pos_site_id
 _symmetry_equiv_pos_as_xyz
  1  'x, y, z'
loop_
 _atom_site_type_symbol
 _atom_site_label
 _atom_site_symmetry_multiplicity
 _atom_site_fract_x
 _atom_site_fract_y
 _atom_site_fract_z
 _atom_site_occupancy
  Ag  Ag0  1  0.43470000  0.52986000  0.31011000  1.0
  Ag  Ag1  1  0.06530000  0.52986000  0.81011000  1.0
  Ag  Ag2  1  0.56530000  0.47014000  0.68989000  1.0
  Ag  Ag3  1  0.93470000  0.47014000  0.18989000  1.0
  H  H4  1  0.82581000  0.77405000  0.25569000  1.0
  H  H5  1  0.67419000  0.77405000  0.75569000  1.0
  H  H6  1  0.17419000  0.22595000  0.74431000  1.0
  H  H7  1  0.32581000  0.22595000  0.24431000  1.0
  H  H8  1  0.59773000  0.76681000  0.25172000  1.0
  H  H9  1  0.90227000  0.76681000  0.75172000  1.0
  H  H10  1  0.40227000  0.23319000  0.74828000  1.0
  H  H11  1  0.09773000  0.23319000  0.24828000  1.0
  H  H12  1  0.74379000  0.95884000  0.44008000  1.0
  H  H13  1  0.75620000  0.95884000  0.94008000  1.0
  H  H14  1  0.25621000  0.04116000  0.55992000  1.0
  H  H15  1  0.24380000  0.04116000  0.05992000  1.0
  H  H16  1  0.58090000  0.87361000  0.47569000  1.0
  H  H17  1  0.91909000  0.87361000  0.97569000  1.0
  H  H18  1  0.41910000  0.12639000  0.52431000  1.0
  H  H19  1  0.08091000  0.12639000  0.02431000  1.0
  H  H20  1  0.96658000  0.82881000  0.47816000  1.0
  H  H21  1  0.53341000  0.82881000  0.97816000  1.0
  H  H22  1  0.03342000  0.17119000  0.52184000  1.0
  H  H23  1  0.46659000  0.17119000  0.02184000  1.0
  H  H24  1  0.82848000  0.87720000  0.60641000  1.0
  H  H25  1  0.67151000  0.87720000  0.10640000  1.0
  H  H26  1  0.17152000  0.12280000  0.39359000  1.0
  H  H27  1  0.32849000  0.12280000  0.89359000  1.0
  H  H28  1  0.69123000  0.67309000  0.53344000  1.0
  H  H29  1  0.80877000  0.67309000  0.03344000  1.0
  H  H30  1  0.30877000  0.32691000  0.46656000  1.0
  H  H31  1  0.19123000  0.32691000  0.96656000  1.0
  H  H32  1  0.90585000  0.62964000  0.48410000  1.0
  H  H33  1  0.59416000  0.62963000  0.98410000  1.0
  H  H34  1  0.09416000  0.37037000  0.51590000  1.0
  H  H35  1  0.40584000  0.37037000  0.01590000  1.0
  C  C36  1  0.71119000  0.76803000  0.30511000  1.0
  C  C37  1  0.78880000  0.76803000  0.80511000  1.0
  C  C38  1  0.28881000  0.23197000  0.69489000  1.0
  C  C39  1  0.21120000  0.23197000  0.19489000  1.0
  C  C40  1  0.70929000  0.86635000  0.43690000  1.0
  C  C41  1  0.79071000  0.86636000  0.93690000  1.0
  C  C42  1  0.29072000  0.13365000  0.56310000  1.0
  C  C43  1  0.20929000  0.13365000  0.06310000  1.0
  C  C44  1  0.83608000  0.82130000  0.50724000  1.0
  C  C45  1  0.66391000  0.82130000  0.00724000  1.0
  C  C46  1  0.16392000  0.17870000  0.49276000  1.0
  C  C47  1  0.33608000  0.17870000  0.99276000  1.0
  C  C48  1  0.79573000  0.68402000  0.47809000  1.0
  C  C49  1  0.70427000  0.68402000  0.97809000  1.0
  C  C50  1  0.20427000  0.31598000  0.52191000  1.0
  C  C51  1  0.29573000  0.31598000  0.02191000  1.0
  C  C52  1  0.29240000  0.84568000  0.70524000  1.0
  C  C53  1  0.20759000  0.84568000  0.20524000  1.0
  C  C54  1  0.70760000  0.15432000  0.29476000  1.0
  C  C55  1  0.79241000  0.15432000  0.79476000  1.0
  S  S56  1  0.72015000  0.61696000  0.31833000  1.0
  S  S57  1  0.77985000  0.61696000  0.81833000  1.0
  S  S58  1  0.27985000  0.38304000  0.68167000  1.0
  S  S59  1  0.22015000  0.38304000  0.18167000  1.0
  S  S60  1  0.27875000  0.67818000  0.59442000  1.0
  S  S61  1  0.22125000  0.67818000  0.09442000  1.0
  S  S62  1  0.72125000  0.32182000  0.40558000  1.0
  S  S63  1  0.77875000  0.32182000  0.90558000  1.0
  O  O64  1  0.25287000  0.68565000  0.47624000  1.0
  O  O65  1  0.24713000  0.68565000  0.97624000  1.0
  O  O66  1  0.74713000  0.31435000  0.52376000  1.0
  O  O67  1  0.75287000  0.31434000  0.02376000  1.0
  O  O68  1  0.13401000  0.63005000  0.63796000  1.0
  O  O69  1  0.36599000  0.63005000  0.13796000  1.0
  O  O70  1  0.86599000  0.36995000  0.36204000  1.0
  O  O71  1  0.63401000  0.36995000  0.86204000  1.0
  O  O72  1  0.44543000  0.62961000  0.60780000  1.0
  O  O73  1  0.05457000  0.62961000  0.10780000  1.0
  O  O74  1  0.55458000  0.37039000  0.39220000  1.0
  O  O75  1  0.94542000  0.37039000  0.89220000  1.0
  F  F76  1  0.31249000  0.85472000  0.82129000  1.0
  F  F77  1  0.18750000  0.85472000  0.32129000  1.0
  F  F78  1  0.68751000  0.14528000  0.17871000  1.0
  F  F79  1  0.81250000  0.14528000  0.67871000  1.0
  F  F80  1  0.15011000  0.91047000  0.70267000  1.0
  F  F81  1  0.34989000  0.91047000  0.20268000  1.0
  F  F82  1  0.84989000  0.08953000  0.29733000  1.0
  F  F83  1  0.65011000  0.08953000  0.79732000  1.0
  F  F84  1  0.42731000  0.90311000  0.67863000  1.0
  F  F85  1  0.07269000  0.90311000  0.17863000  1.0
  F  F86  1  0.57269000  0.09689000  0.32137000  1.0
  F  F87  1  0.92731000  0.09689000  0.82137000  1.0
