# generated using pymatgen
data_Cu2H16C21(N3O5)2
_symmetry_space_group_name_H-M   'P 1'
_cell_length_a   18.61944425
_cell_length_b   18.61860000
_cell_length_c   24.00640000
_cell_angle_alpha   90.00000000
_cell_angle_beta   89.99990000
_cell_angle_gamma   120.00150000
_symmetry_Int_Tables_number   1
_chemical_formula_structural   Cu2H16C21(N3O5)2
_chemical_formula_sum   'Cu12 H96 C126 N36 O60'
_cell_volume   7207.17124453
_cell_formula_units_Z   6
loop_
 _symmetry_equiv_pos_site_id
 _symmetry_equiv_pos_as_xyz
  1  'x, y, z'
loop_
 _atom_site_type_symbol
 _atom_site_label
 _atom_site_symmetry_multiplicity
 _atom_site_fract_x
 _atom_site_fract_y
 _atom_site_fract_z
 _atom_site_occupancy
  Cu  Cu0  1  0.47682000  0.95364000  0.04158000  1.0
  Cu  Cu1  1  0.47670000  0.52321000  0.04140000  1.0
  Cu  Cu2  1  0.04652000  0.52322000  0.04140000  1.0
  Cu  Cu3  1  0.52323000  0.04646000  0.54210000  1.0
  Cu  Cu4  1  0.52311000  0.47681000  0.54221000  1.0
  Cu  Cu5  1  0.95370000  0.47681000  0.54221000  1.0
  Cu  Cu6  1  0.52323000  0.04646000  0.95790000  1.0
  Cu  Cu7  1  0.95371000  0.47682000  0.95779000  1.0
  Cu  Cu8  1  0.52311000  0.47681000  0.95779000  1.0
  Cu  Cu9  1  0.47682000  0.95364000  0.45842000  1.0
  Cu  Cu10  1  0.04651000  0.52321000  0.45860000  1.0
  Cu  Cu11  1  0.47670000  0.52321000  0.45860000  1.0
  H  H12  1  0.41439000  0.91182000  0.14389000  1.0
  H  H13  1  0.56199000  0.85121000  0.78439000  1.0
  H  H14  1  0.64853000  0.94022000  0.86201000  1.0
  H  H15  1  0.49701000  0.58615000  0.14364000  1.0
  H  H16  1  0.28875000  0.43740000  0.78439000  1.0
  H  H17  1  0.29128000  0.35101000  0.86187000  1.0
  H  H18  1  0.08873000  0.50289000  0.14374000  1.0
  H  H19  1  0.14901000  0.71115000  0.78440000  1.0
  H  H20  1  0.06014000  0.70866000  0.86188000  1.0
  H  H21  1  0.58553000  0.08801000  0.64420000  1.0
  H  H22  1  0.43967000  0.14989000  0.28438000  1.0
  H  H23  1  0.35279000  0.06062000  0.36215000  1.0
  H  H24  1  0.50216000  0.41453000  0.64423000  1.0
  H  H25  1  0.70995000  0.56013000  0.28439000  1.0
  H  H26  1  0.70770000  0.64700000  0.36220000  1.0
  H  H27  1  0.91198000  0.49740000  0.64436000  1.0
  H  H28  1  0.85041000  0.28995000  0.28438000  1.0
  H  H29  1  0.93944000  0.29220000  0.36214000  1.0
  H  H30  1  0.50247000  0.08801000  0.85581000  1.0
  H  H31  1  0.71022000  0.14988000  0.21560000  1.0
  H  H32  1  0.70784000  0.06062000  0.13784000  1.0
  H  H33  1  0.91236000  0.41453000  0.85577000  1.0
  H  H34  1  0.85019000  0.56015000  0.21560000  1.0
  H  H35  1  0.93930000  0.64701000  0.13781000  1.0
  H  H36  1  0.58541000  0.49740000  0.85564000  1.0
  H  H37  1  0.43954000  0.28995000  0.21560000  1.0
  H  H38  1  0.35275000  0.29219000  0.13786000  1.0
  H  H39  1  0.49744000  0.91182000  0.35611000  1.0
  H  H40  1  0.28921000  0.85120000  0.71561000  1.0
  H  H41  1  0.29170000  0.94022000  0.63799000  1.0
  H  H42  1  0.08915000  0.58616000  0.35636000  1.0
  H  H43  1  0.14870000  0.43743000  0.71562000  1.0
  H  H44  1  0.05974000  0.35102000  0.63814000  1.0
  H  H45  1  0.41418000  0.50287000  0.35625000  1.0
  H  H46  1  0.56211000  0.71114000  0.71561000  1.0
  H  H47  1  0.64850000  0.70865000  0.63812000  1.0
  H  H48  1  0.58553000  0.08801000  0.85580000  1.0
  H  H49  1  0.43966000  0.14988000  0.21560000  1.0
  H  H50  1  0.35278000  0.06062000  0.13785000  1.0
  H  H51  1  0.50217000  0.41454000  0.85577000  1.0
  H  H52  1  0.70996000  0.56014000  0.21560000  1.0
  H  H53  1  0.70771000  0.64701000  0.13780000  1.0
  H  H54  1  0.91197000  0.49739000  0.85564000  1.0
  H  H55  1  0.85041000  0.28995000  0.21560000  1.0
  H  H56  1  0.93944000  0.29219000  0.13786000  1.0
  H  H57  1  0.41439000  0.91183000  0.35611000  1.0
  H  H58  1  0.56198000  0.85120000  0.71561000  1.0
  H  H59  1  0.64851000  0.94021000  0.63799000  1.0
  H  H60  1  0.49702000  0.58615000  0.35636000  1.0
  H  H61  1  0.28876000  0.43741000  0.71562000  1.0
  H  H62  1  0.29128000  0.35102000  0.63813000  1.0
  H  H63  1  0.08871000  0.50288000  0.35625000  1.0
  H  H64  1  0.14902000  0.71115000  0.71562000  1.0
  H  H65  1  0.06015000  0.70866000  0.63812000  1.0
  H  H66  1  0.49744000  0.91182000  0.14388000  1.0
  H  H67  1  0.28921000  0.85120000  0.78439000  1.0
  H  H68  1  0.29169000  0.94023000  0.86201000  1.0
  H  H69  1  0.08916000  0.58617000  0.14364000  1.0
  H  H70  1  0.14870000  0.43743000  0.78439000  1.0
  H  H71  1  0.05974000  0.35101000  0.86187000  1.0
  H  H72  1  0.41418000  0.50288000  0.14375000  1.0
  H  H73  1  0.56212000  0.71114000  0.78440000  1.0
  H  H74  1  0.64852000  0.70866000  0.86188000  1.0
  H  H75  1  0.50247000  0.08800000  0.64419000  1.0
  H  H76  1  0.71022000  0.14989000  0.28439000  1.0
  H  H77  1  0.70783000  0.06062000  0.36215000  1.0
  H  H78  1  0.91236000  0.41453000  0.64423000  1.0
  H  H79  1  0.85018000  0.56013000  0.28439000  1.0
  H  H80  1  0.93929000  0.64699000  0.36220000  1.0
  H  H81  1  0.58541000  0.49740000  0.64436000  1.0
  H  H82  1  0.43954000  0.28995000  0.28438000  1.0
  H  H83  1  0.35276000  0.29220000  0.36214000  1.0
  H  H84  1  0.87439000  0.86407000  0.74999000  1.0
  H  H85  1  0.98899000  0.12516000  0.75000000  1.0
  H  H86  1  0.13699000  0.01116000  0.74999000  1.0
  H  H87  1  0.12738000  0.13743000  0.25000000  1.0
  H  H88  1  0.00980000  0.87238000  0.25001000  1.0
  H  H89  1  0.86288000  0.99013000  0.25000000  1.0
  H  H90  1  0.01005000  0.13743000  0.25000000  1.0
  H  H91  1  0.86258000  0.87238000  0.25001000  1.0
  H  H92  1  0.12726000  0.99014000  0.25000000  1.0
  H  H93  1  0.98968000  0.86408000  0.74999000  1.0
  H  H94  1  0.13615000  0.12515000  0.75000000  1.0
  H  H95  1  0.87416000  0.01114000  0.74999000  1.0
  H  H96  1  0.51842000  0.75927000  0.99036000  1.0
  H  H97  1  0.24071000  0.48141000  0.99016000  1.0
  H  H98  1  0.24085000  0.75927000  0.99036000  1.0
  H  H99  1  0.48237000  0.24123000  0.49076000  1.0
  H  H100  1  0.75882000  0.51764000  0.49091000  1.0
  H  H101  1  0.75886000  0.24123000  0.49076000  1.0
  H  H102  1  0.75887000  0.24123000  0.00923000  1.0
  H  H103  1  0.75883000  0.51766000  0.00909000  1.0
  H  H104  1  0.48236000  0.24122000  0.00923000  1.0
  H  H105  1  0.24085000  0.75925000  0.50965000  1.0
  H  H106  1  0.24071000  0.48142000  0.50984000  1.0
  H  H107  1  0.51839000  0.75925000  0.50964000  1.0
  C  C108  1  0.55227000  0.91031000  0.95417000  1.0
  C  C109  1  0.57996000  0.85507000  0.92846000  1.0
  C  C110  1  0.62859000  0.87946000  0.88014000  1.0
  C  C111  1  0.35787000  0.44755000  0.95396000  1.0
  C  C112  1  0.27485000  0.41973000  0.92829000  1.0
  C  C113  1  0.25051000  0.37098000  0.88003000  1.0
  C  C114  1  0.08988000  0.64206000  0.95402000  1.0
  C  C115  1  0.14516000  0.72509000  0.92837000  1.0
  C  C116  1  0.12086000  0.74944000  0.88006000  1.0
  C  C117  1  0.44818000  0.09002000  0.45459000  1.0
  C  C118  1  0.42103000  0.14559000  0.42872000  1.0
  C  C119  1  0.37273000  0.12139000  0.38026000  1.0
  C  C120  1  0.64176000  0.55183000  0.45472000  1.0
  C  C121  1  0.72447000  0.57890000  0.42884000  1.0
  C  C122  1  0.74855000  0.62710000  0.38033000  1.0
  C  C123  1  0.91016000  0.35825000  0.45464000  1.0
  C  C124  1  0.85455000  0.27553000  0.42874000  1.0
  C  C125  1  0.87870000  0.25140000  0.38027000  1.0
  C  C126  1  0.64185000  0.09003000  0.04540000  1.0
  C  C127  1  0.72457000  0.14559000  0.07127000  1.0
  C  C128  1  0.74867000  0.12139000  0.11973000  1.0
  C  C129  1  0.91008000  0.55184000  0.04528000  1.0
  C  C130  1  0.85444000  0.57891000  0.07116000  1.0
  C  C131  1  0.87856000  0.62712000  0.11967000  1.0
  C  C132  1  0.44809000  0.35825000  0.04536000  1.0
  C  C133  1  0.42097000  0.27552000  0.07126000  1.0
  C  C134  1  0.37269000  0.25140000  0.11972000  1.0
  C  C135  1  0.35804000  0.91031000  0.54583000  1.0
  C  C136  1  0.27511000  0.85506000  0.57154000  1.0
  C  C137  1  0.25088000  0.87946000  0.61986000  1.0
  C  C138  1  0.08968000  0.44755000  0.54605000  1.0
  C  C139  1  0.14488000  0.41973000  0.57172000  1.0
  C  C140  1  0.12048000  0.37099000  0.61998000  1.0
  C  C141  1  0.55216000  0.64204000  0.54598000  1.0
  C  C142  1  0.57990000  0.72506000  0.57163000  1.0
  C  C143  1  0.62855000  0.74942000  0.61994000  1.0
  C  C144  1  0.44818000  0.09003000  0.04541000  1.0
  C  C145  1  0.42102000  0.14559000  0.07127000  1.0
  C  C146  1  0.37272000  0.12139000  0.11973000  1.0
  C  C147  1  0.64176000  0.55184000  0.04528000  1.0
  C  C148  1  0.72448000  0.57892000  0.07116000  1.0
  C  C149  1  0.74856000  0.62712000  0.11967000  1.0
  C  C150  1  0.91016000  0.35825000  0.04536000  1.0
  C  C151  1  0.85456000  0.27553000  0.07126000  1.0
  C  C152  1  0.87871000  0.25140000  0.11972000  1.0
  C  C153  1  0.55226000  0.91031000  0.54583000  1.0
  C  C154  1  0.57994000  0.85505000  0.57155000  1.0
  C  C155  1  0.62857000  0.87945000  0.61986000  1.0
  C  C156  1  0.35786000  0.44754000  0.54604000  1.0
  C  C157  1  0.27485000  0.41973000  0.57172000  1.0
  C  C158  1  0.25051000  0.37099000  0.61998000  1.0
  C  C159  1  0.08988000  0.64205000  0.54598000  1.0
  C  C160  1  0.14516000  0.72507000  0.57163000  1.0
  C  C161  1  0.12087000  0.74943000  0.61994000  1.0
  C  C162  1  0.35804000  0.91032000  0.95417000  1.0
  C  C163  1  0.27511000  0.85507000  0.92846000  1.0
  C  C164  1  0.25088000  0.87947000  0.88014000  1.0
  C  C165  1  0.08968000  0.44755000  0.95396000  1.0
  C  C166  1  0.14488000  0.41973000  0.92829000  1.0
  C  C167  1  0.12048000  0.37099000  0.88003000  1.0
  C  C168  1  0.55218000  0.64206000  0.95402000  1.0
  C  C169  1  0.57993000  0.72508000  0.92837000  1.0
  C  C170  1  0.62857000  0.74943000  0.88007000  1.0
  C  C171  1  0.64184000  0.09002000  0.45459000  1.0
  C  C172  1  0.72457000  0.14560000  0.42873000  1.0
  C  C173  1  0.74866000  0.12139000  0.38026000  1.0
  C  C174  1  0.91007000  0.55183000  0.45472000  1.0
  C  C175  1  0.85443000  0.57890000  0.42884000  1.0
  C  C176  1  0.87855000  0.62710000  0.38033000  1.0
  C  C177  1  0.44809000  0.35824000  0.45464000  1.0
  C  C178  1  0.42099000  0.27554000  0.42874000  1.0
  C  C179  1  0.37270000  0.25140000  0.38027000  1.0
  C  C180  1  0.81905000  0.87011000  0.75000000  1.0
  C  C181  1  0.05042000  0.18049000  0.75000000  1.0
  C  C182  1  0.13077000  0.94969000  0.74999000  1.0
  C  C183  1  0.18262000  0.13121000  0.25000000  1.0
  C  C184  1  0.94836000  0.81710000  0.25001000  1.0
  C  C185  1  0.86899000  0.05155000  0.25000000  1.0
  C  C186  1  0.94859000  0.13121000  0.25000000  1.0
  C  C187  1  0.86873000  0.81710000  0.25001000  1.0
  C  C188  1  0.18256000  0.05155000  0.25000000  1.0
  C  C189  1  0.05106000  0.87012000  0.75000000  1.0
  C  C190  1  0.13005000  0.18047000  0.75000000  1.0
  C  C191  1  0.81891000  0.94968000  0.74999000  1.0
  C  C192  1  0.55598000  0.77807000  0.95270000  1.0
  C  C193  1  0.65238000  0.82637000  0.85576000  1.0
  C  C194  1  0.70084000  0.85067000  0.80223000  1.0
  C  C195  1  0.22187000  0.44374000  0.95255000  1.0
  C  C196  1  0.17356000  0.34712000  0.85573000  1.0
  C  C197  1  0.14932000  0.29863000  0.80223000  1.0
  C  C198  1  0.22209000  0.77807000  0.95269000  1.0
  C  C199  1  0.17399000  0.82638000  0.85576000  1.0
  C  C200  1  0.14983000  0.85068000  0.80223000  1.0
  C  C201  1  0.44494000  0.22253000  0.45303000  1.0
  C  C202  1  0.34913000  0.17460000  0.35582000  1.0
  C  C203  1  0.30080000  0.15044000  0.30223000  1.0
  C  C204  1  0.77751000  0.55502000  0.45316000  1.0
  C  C205  1  0.82532000  0.65064000  0.35585000  1.0
  C  C206  1  0.84946000  0.69892000  0.30223000  1.0
  C  C207  1  0.77759000  0.22253000  0.45303000  1.0
  C  C208  1  0.82547000  0.17460000  0.35582000  1.0
  C  C209  1  0.84963000  0.15043000  0.30223000  1.0
  C  C210  1  0.77760000  0.22253000  0.04696000  1.0
  C  C211  1  0.82548000  0.17459000  0.14417000  1.0
  C  C212  1  0.84964000  0.15043000  0.19777000  1.0
  C  C213  1  0.77752000  0.55504000  0.04684000  1.0
  C  C214  1  0.82533000  0.65065000  0.14415000  1.0
  C  C215  1  0.84946000  0.69893000  0.19777000  1.0
  C  C216  1  0.44493000  0.22253000  0.04696000  1.0
  C  C217  1  0.34911000  0.17459000  0.14417000  1.0
  C  C218  1  0.30079000  0.15043000  0.19776000  1.0
  C  C219  1  0.22210000  0.77806000  0.54731000  1.0
  C  C220  1  0.17399000  0.82636000  0.64425000  1.0
  C  C221  1  0.14983000  0.85067000  0.69777000  1.0
  C  C222  1  0.22187000  0.44374000  0.54745000  1.0
  C  C223  1  0.17357000  0.34714000  0.64428000  1.0
  C  C224  1  0.14932000  0.29863000  0.69777000  1.0
  C  C225  1  0.55596000  0.77806000  0.54731000  1.0
  C  C226  1  0.65236000  0.82635000  0.64425000  1.0
  C  C227  1  0.70083000  0.85066000  0.69777000  1.0
  C  C228  1  0.64622000  0.82331000  0.75000000  1.0
  C  C229  1  0.17663000  0.35324000  0.75000000  1.0
  C  C230  1  0.17709000  0.82332000  0.75000000  1.0
  C  C231  1  0.35542000  0.17776000  0.25000000  1.0
  C  C232  1  0.82214000  0.64429000  0.25000000  1.0
  C  C233  1  0.82234000  0.17776000  0.25000000  1.0
  N  N234  1  0.77494000  0.84384000  0.80561000  1.0
  N  N235  1  0.06833000  0.22460000  0.80562000  1.0
  N  N236  1  0.15692000  0.93172000  0.80561000  1.0
  N  N237  1  0.22678000  0.15742000  0.30560000  1.0
  N  N238  1  0.93045000  0.77297000  0.30560000  1.0
  N  N239  1  0.84273000  0.06945000  0.30560000  1.0
  N  N240  1  0.93064000  0.15741000  0.19440000  1.0
  N  N241  1  0.84252000  0.77298000  0.19441000  1.0
  N  N242  1  0.22671000  0.06945000  0.19440000  1.0
  N  N243  1  0.06891000  0.84385000  0.69439000  1.0
  N  N244  1  0.15626000  0.22459000  0.69438000  1.0
  N  N245  1  0.77478000  0.93170000  0.69438000  1.0
  N  N246  1  0.22677000  0.15741000  0.19440000  1.0
  N  N247  1  0.93045000  0.77298000  0.19441000  1.0
  N  N248  1  0.84274000  0.06945000  0.19440000  1.0
  N  N249  1  0.77493000  0.84383000  0.69439000  1.0
  N  N250  1  0.06833000  0.22460000  0.69438000  1.0
  N  N251  1  0.15692000  0.93171000  0.69438000  1.0
  N  N252  1  0.06891000  0.84386000  0.80561000  1.0
  N  N253  1  0.15626000  0.22458000  0.80562000  1.0
  N  N254  1  0.77480000  0.93172000  0.80561000  1.0
  N  N255  1  0.93064000  0.15742000  0.30560000  1.0
  N  N256  1  0.84251000  0.77296000  0.30560000  1.0
  N  N257  1  0.22672000  0.06946000  0.30560000  1.0
  N  N258  1  0.59916000  0.86729000  0.75000000  1.0
  N  N259  1  0.26765000  0.40023000  0.75000000  1.0
  N  N260  1  0.13299000  0.73229000  0.75001000  1.0
  N  N261  1  0.40249000  0.13380000  0.24999000  1.0
  N  N262  1  0.73110000  0.59729000  0.25000000  1.0
  N  N263  1  0.86643000  0.26880000  0.24999000  1.0
  N  N264  1  0.73130000  0.13379000  0.24999000  1.0
  N  N265  1  0.86619000  0.59730000  0.25000000  1.0
  N  N266  1  0.40238000  0.26881000  0.24999000  1.0
  N  N267  1  0.26813000  0.86730000  0.75000000  1.0
  N  N268  1  0.13262000  0.40025000  0.75000000  1.0
  N  N269  1  0.59928000  0.73227000  0.75001000  1.0
  O  O270  1  0.52020000  0.89008000  0.00264000  1.0
  O  O271  1  0.56185000  0.97249000  0.92563000  1.0
  O  O272  1  0.36977000  0.47977000  0.00237000  1.0
  O  O273  1  0.41048000  0.43798000  0.92544000  1.0
  O  O274  1  0.11007000  0.63021000  0.00249000  1.0
  O  O275  1  0.02777000  0.58943000  0.92545000  1.0
  O  O276  1  0.48003000  0.11014000  0.50312000  1.0
  O  O277  1  0.43837000  0.02772000  0.42612000  1.0
  O  O278  1  0.63006000  0.52008000  0.50329000  1.0
  O  O279  1  0.58925000  0.56162000  0.42625000  1.0
  O  O280  1  0.88999000  0.36997000  0.50316000  1.0
  O  O281  1  0.97253000  0.41073000  0.42621000  1.0
  O  O282  1  0.63011000  0.11014000  0.99688000  1.0
  O  O283  1  0.58935000  0.02772000  0.07388000  1.0
  O  O284  1  0.89003000  0.52009000  0.99672000  1.0
  O  O285  1  0.97238000  0.56163000  0.07376000  1.0
  O  O286  1  0.47998000  0.36998000  0.99685000  1.0
  O  O287  1  0.43820000  0.41074000  0.07379000  1.0
  O  O288  1  0.36988000  0.89007000  0.49737000  1.0
  O  O289  1  0.41063000  0.97248000  0.57437000  1.0
  O  O290  1  0.11000000  0.47977000  0.49763000  1.0
  O  O291  1  0.02749000  0.43797000  0.57457000  1.0
  O  O292  1  0.52013000  0.63019000  0.49750000  1.0
  O  O293  1  0.56164000  0.58941000  0.57455000  1.0
  O  O294  1  0.48003000  0.11014000  0.99688000  1.0
  O  O295  1  0.43837000  0.02772000  0.07388000  1.0
  O  O296  1  0.63006000  0.52009000  0.99672000  1.0
  O  O297  1  0.58925000  0.56163000  0.07376000  1.0
  O  O298  1  0.89001000  0.36998000  0.99684000  1.0
  O  O299  1  0.97254000  0.41074000  0.07379000  1.0
  O  O300  1  0.52019000  0.89007000  0.49737000  1.0
  O  O301  1  0.56184000  0.97248000  0.57437000  1.0
  O  O302  1  0.36977000  0.47977000  0.49763000  1.0
  O  O303  1  0.41047000  0.43796000  0.57457000  1.0
  O  O304  1  0.11006000  0.63019000  0.49751000  1.0
  O  O305  1  0.02777000  0.58942000  0.57455000  1.0
  O  O306  1  0.36988000  0.89007000  0.00263000  1.0
  O  O307  1  0.41064000  0.97249000  0.92563000  1.0
  O  O308  1  0.11001000  0.47978000  0.00237000  1.0
  O  O309  1  0.02750000  0.43798000  0.92543000  1.0
  O  O310  1  0.52014000  0.63020000  0.00250000  1.0
  O  O311  1  0.56166000  0.58943000  0.92545000  1.0
  O  O312  1  0.63011000  0.11014000  0.50312000  1.0
  O  O313  1  0.58934000  0.02771000  0.42612000  1.0
  O  O314  1  0.89002000  0.52008000  0.50328000  1.0
  O  O315  1  0.97237000  0.56162000  0.42624000  1.0
  O  O316  1  0.47998000  0.36997000  0.50316000  1.0
  O  O317  1  0.43820000  0.41073000  0.42621000  1.0
  O  O318  1  0.44278000  0.88556000  0.12658000  1.0
  O  O319  1  0.44244000  0.55739000  0.12624000  1.0
  O  O320  1  0.11497000  0.55741000  0.12624000  1.0
  O  O321  1  0.55718000  0.11436000  0.62695000  1.0
  O  O322  1  0.55695000  0.44272000  0.62710000  1.0
  O  O323  1  0.88576000  0.44271000  0.62710000  1.0
  O  O324  1  0.55718000  0.11436000  0.87304000  1.0
  O  O325  1  0.88576000  0.44271000  0.87291000  1.0
  O  O326  1  0.55695000  0.44272000  0.87291000  1.0
  O  O327  1  0.44278000  0.88556000  0.37342000  1.0
  O  O328  1  0.11496000  0.55740000  0.37376000  1.0
  O  O329  1  0.44245000  0.55739000  0.37375000  1.0
