# generated using pymatgen
data_Zn2H21C41(NO7)2
_symmetry_space_group_name_H-M   'P 1'
_cell_length_a   11.04420000
_cell_length_b   13.82570000
_cell_length_c   26.27930000
_cell_angle_alpha   90.18050000
_cell_angle_beta   90.07970000
_cell_angle_gamma   91.05040000
_symmetry_Int_Tables_number   1
_chemical_formula_structural   Zn2H21C41(NO7)2
_chemical_formula_sum   'Zn4 H42 C82 N4 O28'
_cell_volume   4011.98764482
_cell_formula_units_Z   2
loop_
 _symmetry_equiv_pos_site_id
 _symmetry_equiv_pos_as_xyz
  1  'x, y, z'
loop_
 _atom_site_type_symbol
 _atom_site_label
 _atom_site_symmetry_multiplicity
 _atom_site_fract_x
 _atom_site_fract_y
 _atom_site_fract_z
 _atom_site_occupancy
  Zn  Zn0  1  0.49663000  0.39941000  0.49685000  1.0
  Zn  Zn1  1  0.50113000  0.60194000  0.49639000  1.0
  Zn  Zn2  1  0.50891000  0.59972000  0.91677000  1.0
  Zn  Zn3  1  0.50637000  0.39714000  0.91668000  1.0
  H  H4  1  0.63654000  0.24907000  0.44354000  1.0
  H  H5  1  0.73555000  0.09214000  0.41367000  1.0
  H  H6  1  0.37626000  0.24889000  0.55617000  1.0
  H  H7  1  0.36991000  0.75138000  0.55516000  1.0
  H  H8  1  0.29330000  0.90894000  0.59474000  1.0
  H  H9  1  0.64316000  0.75199000  0.44810000  1.0
  H  H10  1  0.32473000  0.36746000  0.80157000  1.0
  H  H11  1  0.18524000  0.25718000  0.75542000  1.0
  H  H12  1  0.30796000  0.37643000  0.61322000  1.0
  H  H13  1  0.17346000  0.26396000  0.66033000  1.0
  H  H14  1  0.49031000  0.66027000  0.33390000  1.0
  H  H15  1  0.49097000  0.74809000  0.25083000  1.0
  H  H16  1  0.49723000  0.35211000  0.33918000  1.0
  H  H17  1  0.50006000  0.33832000  0.07945000  1.0
  H  H18  1  0.49852000  0.25068000  0.16235000  1.0
  H  H19  1  0.49296000  0.64653000  0.07396000  1.0
  H  H20  1  0.23074000  0.64237000  0.43013000  1.0
  H  H21  1  0.12680000  0.75688000  0.37411000  1.0
  H  H22  1  0.78224000  0.62974000  0.41593000  1.0
  H  H23  1  0.90137000  0.74768000  0.36495000  1.0
  H  H24  1  0.63988000  0.75338000  0.97134000  1.0
  H  H25  1  0.73916000  0.91253000  0.00118000  1.0
  H  H26  1  0.36783000  0.74770000  0.86329000  1.0
  H  H27  1  0.37701000  0.24448000  0.85891000  1.0
  H  H28  1  0.28026000  0.08549000  0.82795000  1.0
  H  H29  1  0.65618000  0.25089000  0.96357000  1.0
  H  H30  1  0.22306000  0.35262000  0.98824000  1.0
  H  H31  1  0.10584000  0.24423000  0.04438000  1.0
  H  H32  1  0.77576000  0.37925000  0.99750000  1.0
  H  H33  1  0.88111000  0.25958000  0.05090000  1.0
  H  H34  1  0.77407000  0.84162000  0.42085000  1.0
  H  H35  1  0.30151000  0.16140000  0.60837000  1.0
  H  H36  1  0.49004000  0.75141000  0.11734000  1.0
  H  H37  1  0.49435000  0.24731000  0.29583000  1.0
  H  H38  1  0.78249000  0.16356000  0.99329000  1.0
  H  H39  1  0.23831000  0.83455000  0.83584000  1.0
  H  H40  1  0.57550000  0.64453000  0.61956000  1.0
  H  H41  1  0.58071000  0.64496000  0.79334000  1.0
  H  H42  1  0.78636000  0.35482000  0.52162000  1.0
  H  H43  1  0.19961000  0.34576000  0.51476000  1.0
  H  H44  1  0.80851000  0.65753000  0.89839000  1.0
  H  H45  1  0.22246000  0.63738000  0.89141000  1.0
  C  C46  1  0.49473000  0.50786000  0.39748000  1.0
  C  C47  1  0.73737000  0.50028000  0.48925000  1.0
  C  C48  1  0.48803000  0.50095000  0.59680000  1.0
  C  C49  1  0.25960000  0.49625000  0.49260000  1.0
  C  C50  1  0.50087000  0.49016000  0.01581000  1.0
  C  C51  1  0.74611000  0.50874000  0.92566000  1.0
  C  C52  1  0.49635000  0.50110000  0.81674000  1.0
  C  C53  1  0.26717000  0.49261000  0.92044000  1.0
  C  C54  1  0.58073000  0.20441000  0.46878000  1.0
  C  C55  1  0.58952000  0.10321000  0.46923000  1.0
  C  C56  1  0.67290000  0.05225000  0.43822000  1.0
  C  C57  1  0.43315000  0.20349000  0.53246000  1.0
  C  C58  1  0.43270000  0.10262000  0.53617000  1.0
  C  C59  1  0.35605000  0.04828000  0.57086000  1.0
  C  C60  1  0.43143000  0.79621000  0.53244000  1.0
  C  C61  1  0.43080000  0.89768000  0.53553000  1.0
  C  C62  1  0.35363000  0.94877000  0.56918000  1.0
  C  C63  1  0.58640000  0.79747000  0.47182000  1.0
  C  C64  1  0.59421000  0.89846000  0.47146000  1.0
  C  C65  1  0.67828000  0.95302000  0.44003000  1.0
  C  C66  1  0.51156000  0.05147000  0.50320000  1.0
  C  C67  1  0.51296000  0.94949000  0.50338000  1.0
  C  C68  1  0.47641000  0.50431000  0.76101000  1.0
  C  C69  1  0.40211000  0.43343000  0.73435000  1.0
  C  C70  1  0.53184000  0.58015000  0.73398000  1.0
  C  C71  1  0.32442000  0.36716000  0.76023000  1.0
  C  C72  1  0.24593000  0.30548000  0.73426000  1.0
  C  C73  1  0.47142000  0.50524000  0.65267000  1.0
  C  C74  1  0.52993000  0.58033000  0.67931000  1.0
  C  C75  1  0.39868000  0.43466000  0.67980000  1.0
  C  C76  1  0.31562000  0.37152000  0.65436000  1.0
  C  C77  1  0.24053000  0.30828000  0.68080000  1.0
  C  C78  1  0.49229000  0.59187000  0.31318000  1.0
  C  C79  1  0.49290000  0.59117000  0.25976000  1.0
  C  C80  1  0.49194000  0.67864000  0.23106000  1.0
  C  C81  1  0.49587000  0.41650000  0.31521000  1.0
  C  C82  1  0.49557000  0.41205000  0.26200000  1.0
  C  C83  1  0.49670000  0.32174000  0.23423000  1.0
  C  C84  1  0.49835000  0.40679000  0.10010000  1.0
  C  C85  1  0.49677000  0.40760000  0.15350000  1.0
  C  C86  1  0.49738000  0.32012000  0.18214000  1.0
  C  C87  1  0.49448000  0.58216000  0.09794000  1.0
  C  C88  1  0.49364000  0.58670000  0.15117000  1.0
  C  C89  1  0.49212000  0.67699000  0.17896000  1.0
  C  C90  1  0.49418000  0.50556000  0.34061000  1.0
  C  C91  1  0.49444000  0.50019000  0.23359000  1.0
  C  C92  1  0.49750000  0.49302000  0.07261000  1.0
  C  C93  1  0.49489000  0.49860000  0.17963000  1.0
  C  C94  1  0.12670000  0.49556000  0.48425000  1.0
  C  C95  1  0.06666000  0.57055000  0.45652000  1.0
  C  C96  1  0.06050000  0.41664000  0.50315000  1.0
  C  C97  1  0.13233000  0.64095000  0.42803000  1.0
  C  C98  1  0.07391000  0.70510000  0.39657000  1.0
  C  C99  1  0.86978000  0.49579000  0.48165000  1.0
  C  C100  1  0.93076000  0.41793000  0.50337000  1.0
  C  C101  1  0.93696000  0.56886000  0.45382000  1.0
  C  C102  1  0.88004000  0.63477000  0.42049000  1.0
  C  C103  1  0.94682000  0.70096000  0.39215000  1.0
  C  C104  1  0.58037000  0.79672000  0.94775000  1.0
  C  C105  1  0.58814000  0.89820000  0.94790000  1.0
  C  C106  1  0.67534000  0.95100000  0.97730000  1.0
  C  C107  1  0.42496000  0.79411000  0.88730000  1.0
  C  C108  1  0.42098000  0.89507000  0.88538000  1.0
  C  C109  1  0.33687000  0.94762000  0.85407000  1.0
  C  C110  1  0.43717000  0.20130000  0.88223000  1.0
  C  C111  1  0.43051000  0.09978000  0.88160000  1.0
  C  C112  1  0.34374000  0.04695000  0.85197000  1.0
  C  C113  1  0.59576000  0.20395000  0.94129000  1.0
  C  C114  1  0.59893000  0.10301000  0.94353000  1.0
  C  C115  1  0.68306000  0.05031000  0.97480000  1.0
  C  C116  1  0.50652000  0.94809000  0.91561000  1.0
  C  C117  1  0.51246000  0.04999000  0.91374000  1.0
  C  C118  1  0.13539000  0.49969000  0.92990000  1.0
  C  C119  1  0.06803000  0.42854000  0.95916000  1.0
  C  C120  1  0.07580000  0.58008000  0.91001000  1.0
  C  C121  1  0.12500000  0.35732000  0.98925000  1.0
  C  C122  1  0.05887000  0.29629000  0.02070000  1.0
  C  C123  1  0.87907000  0.50938000  0.93351000  1.0
  C  C124  1  0.94638000  0.58521000  0.91211000  1.0
  C  C125  1  0.93862000  0.43418000  0.96110000  1.0
  C  C126  1  0.87327000  0.37090000  0.99398000  1.0
  C  C127  1  0.93205000  0.30370000  0.02359000  1.0
  N  N128  1  0.50426000  0.25164000  0.49924000  1.0
  N  N129  1  0.50638000  0.74919000  0.50127000  1.0
  N  N130  1  0.50234000  0.74751000  0.91778000  1.0
  N  N131  1  0.51606000  0.25033000  0.91178000  1.0
  O  O132  1  0.50664000  0.42730000  0.42055000  1.0
  O  O133  1  0.48358000  0.59000000  0.41887000  1.0
  O  O134  1  0.68317000  0.57988000  0.48486000  1.0
  O  O135  1  0.68165000  0.42039000  0.50207000  1.0
  O  O136  1  0.51818000  0.58093000  0.57394000  1.0
  O  O137  1  0.47617000  0.42086000  0.57359000  1.0
  O  O138  1  0.31024000  0.41243000  0.49307000  1.0
  O  O139  1  0.31646000  0.57538000  0.50030000  1.0
  O  O140  1  0.49253000  0.57076000  0.99240000  1.0
  O  O141  1  0.51215000  0.40782000  0.99471000  1.0
  O  O142  1  0.68998000  0.42877000  0.92007000  1.0
  O  O143  1  0.69519000  0.59228000  0.92278000  1.0
  O  O144  1  0.48717000  0.42161000  0.84048000  1.0
  O  O145  1  0.52620000  0.58200000  0.83916000  1.0
  O  O146  1  0.32431000  0.57205000  0.90713000  1.0
  O  O147  1  0.32000000  0.41254000  0.92403000  1.0
  O  O148  1  0.76211000  0.90871000  0.41071000  1.0
  O  O149  1  0.28312000  0.09233000  0.60496000  1.0
  O  O150  1  0.49126000  0.76350000  0.15387000  1.0
  O  O151  1  0.49747000  0.23526000  0.25932000  1.0
  O  O152  1  0.77010000  0.09583000  0.00293000  1.0
  O  O153  1  0.25040000  0.90181000  0.82569000  1.0
  O  O154  1  0.59006000  0.65412000  0.65710000  1.0
  O  O155  1  0.59268000  0.65443000  0.75569000  1.0
  O  O156  1  0.87571000  0.34243000  0.52619000  1.0
  O  O157  1  0.11145000  0.33771000  0.52351000  1.0
  O  O158  1  0.89721000  0.66384000  0.89085000  1.0
  O  O159  1  0.13351000  0.65441000  0.88695000  1.0
