# generated using pymatgen
data_CuH6C8N3O5
_symmetry_space_group_name_H-M   'P 1'
_cell_length_a   10.47529153
_cell_length_b   10.47640000
_cell_length_c   17.11100000
_cell_angle_alpha   89.98040000
_cell_angle_beta   90.00060006
_cell_angle_gamma   119.99650000
_symmetry_Int_Tables_number   1
_chemical_formula_structural   CuH6C8N3O5
_chemical_formula_sum   'Cu6 H36 C48 N18 O30'
_cell_volume   1626.29563333
_cell_formula_units_Z   6
loop_
 _symmetry_equiv_pos_site_id
 _symmetry_equiv_pos_as_xyz
  1  'x, y, z'
loop_
 _atom_site_type_symbol
 _atom_site_label
 _atom_site_symmetry_multiplicity
 _atom_site_fract_x
 _atom_site_fract_y
 _atom_site_fract_z
 _atom_site_occupancy
  Cu  Cu0  1  0.29604000  0.43823000  0.03249000  1.0
  Cu  Cu1  1  0.14228000  0.70358000  0.69914000  1.0
  Cu  Cu2  1  0.56166000  0.85788000  0.36593000  1.0
  Cu  Cu3  1  0.43870000  0.29642000  0.30086000  1.0
  Cu  Cu4  1  0.70377000  0.14213000  0.63407000  1.0
  Cu  Cu5  1  0.85781000  0.56179000  0.96750000  1.0
  H  H6  1  0.32646000  0.59277000  0.86194000  1.0
  H  H7  1  0.26629000  0.67310000  0.52836000  1.0
  H  H8  1  0.40753000  0.73398000  0.19534000  1.0
  H  H9  1  0.59319000  0.32691000  0.47164000  1.0
  H  H10  1  0.67353000  0.26601000  0.80465000  1.0
  H  H11  1  0.73368000  0.40723000  0.13805000  1.0
  H  H12  1  0.40325000  0.13191000  0.05727000  1.0
  H  H13  1  0.72894000  0.59671000  0.72403000  1.0
  H  H14  1  0.86806000  0.27131000  0.39078000  1.0
  H  H15  1  0.13224000  0.40331000  0.27596000  1.0
  H  H16  1  0.59673000  0.72869000  0.60921000  1.0
  H  H17  1  0.27133000  0.86809000  0.94272000  1.0
  H  H18  1  0.39015000  0.49660000  0.74315000  1.0
  H  H19  1  0.10599000  0.60897000  0.40972000  1.0
  H  H20  1  0.50344000  0.89421000  0.07666000  1.0
  H  H21  1  0.49701000  0.39103000  0.59028000  1.0
  H  H22  1  0.60922000  0.10577000  0.92333000  1.0
  H  H23  1  0.89354000  0.50339000  0.25685000  1.0
  H  H24  1  0.41788000  0.26950000  0.77481000  1.0
  H  H25  1  0.85102000  0.58080000  0.44162000  1.0
  H  H26  1  0.73037000  0.14913000  0.10845000  1.0
  H  H27  1  0.27021000  0.41920000  0.55838000  1.0
  H  H28  1  0.58125000  0.85086000  0.89155000  1.0
  H  H29  1  0.14837000  0.73050000  0.22519000  1.0
  H  H30  1  0.36664000  0.10863000  0.91386000  1.0
  H  H31  1  0.74215000  0.63312000  0.58058000  1.0
  H  H32  1  0.89134000  0.25833000  0.24728000  1.0
  H  H33  1  0.10904000  0.36689000  0.41941000  1.0
  H  H34  1  0.63301000  0.74167000  0.75271000  1.0
  H  H35  1  0.25801000  0.89136000  0.08614000  1.0
  H  H36  1  0.21696000  0.10795000  0.96224000  1.0
  H  H37  1  0.89148000  0.78269000  0.62877000  1.0
  H  H38  1  0.89220000  0.10936000  0.29563000  1.0
  H  H39  1  0.10879000  0.21731000  0.37122000  1.0
  H  H40  1  0.78284000  0.89064000  0.70436000  1.0
  H  H41  1  0.10900000  0.89204000  0.03775000  1.0
  C  C42  1  0.34397000  0.49920000  0.86204000  1.0
  C  C43  1  0.15511000  0.65537000  0.52855000  1.0
  C  C44  1  0.50100000  0.84511000  0.19548000  1.0
  C  C45  1  0.49974000  0.34463000  0.47145000  1.0
  C  C46  1  0.65588000  0.15489000  0.80451000  1.0
  C  C47  1  0.84477000  0.50081000  0.13796000  1.0
  C  C48  1  0.35198000  0.30086000  0.89522000  1.0
  C  C49  1  0.94873000  0.64716000  0.56189000  1.0
  C  C50  1  0.69920000  0.05145000  0.22875000  1.0
  C  C51  1  0.30157000  0.35284000  0.43810000  1.0
  C  C52  1  0.64776000  0.94855000  0.77124000  1.0
  C  C53  1  0.05112000  0.69915000  0.10477000  1.0
  C  C54  1  0.39654000  0.32343000  0.14564000  1.0
  C  C55  1  0.92724000  0.60366000  0.81241000  1.0
  C  C56  1  0.67645000  0.07295000  0.47903000  1.0
  C  C57  1  0.32359000  0.39635000  0.18759000  1.0
  C  C58  1  0.60351000  0.92707000  0.52096000  1.0
  C  C59  1  0.07311000  0.67657000  0.85435000  1.0
  C  C60  1  0.42275000  0.22940000  0.02338000  1.0
  C  C61  1  0.80681000  0.57701000  0.69016000  1.0
  C  C62  1  0.77060000  0.19347000  0.35685000  1.0
  C  C63  1  0.22980000  0.42298000  0.30984000  1.0
  C  C64  1  0.57712000  0.80654000  0.64315000  1.0
  C  C65  1  0.19334000  0.77059000  0.97662000  1.0
  C  C66  1  0.95221000  0.27076000  0.97129000  1.0
  C  C67  1  0.31794000  0.04753000  0.63750000  1.0
  C  C68  1  0.72908000  0.68162000  0.30505000  1.0
  C  C69  1  0.27049000  0.95247000  0.36255000  1.0
  C  C70  1  0.04746000  0.31836000  0.69498000  1.0
  C  C71  1  0.68146000  0.72924000  0.02873000  1.0
  C  C72  1  0.38874000  0.32703000  0.81736000  1.0
  C  C73  1  0.93786000  0.61008000  0.48408000  1.0
  C  C74  1  0.67292000  0.06228000  0.15094000  1.0
  C  C75  1  0.32777000  0.38992000  0.51592000  1.0
  C  C76  1  0.61065000  0.93772000  0.84905000  1.0
  C  C77  1  0.06170000  0.67296000  0.18264000  1.0
  C  C78  1  0.33405000  0.17801000  0.94655000  1.0
  C  C79  1  0.84415000  0.66553000  0.61322000  1.0
  C  C80  1  0.82206000  0.15636000  0.27999000  1.0
  C  C81  1  0.17862000  0.33447000  0.38677000  1.0
  C  C82  1  0.66570000  0.84364000  0.72000000  1.0
  C  C83  1  0.15605000  0.82199000  0.05345000  1.0
  C  C84  1  0.58825000  0.31143000  0.00382000  1.0
  C  C85  1  0.72307000  0.41153000  0.67062000  1.0
  C  C86  1  0.68855000  0.27694000  0.33737000  1.0
  C  C87  1  0.31155000  0.58848000  0.32938000  1.0
  C  C88  1  0.41160000  0.72307000  0.66263000  1.0
  C  C89  1  0.27681000  0.68856000  0.99618000  1.0
  N  N90  1  0.32506000  0.41018000  0.92223000  1.0
  N  N91  1  0.08512000  0.67429000  0.58879000  1.0
  N  N92  1  0.58996000  0.91508000  0.25568000  1.0
  N  N93  1  0.41084000  0.32572000  0.41121000  1.0
  N  N94  1  0.67487000  0.08491000  0.74431000  1.0
  N  N95  1  0.91488000  0.58983000  0.07777000  1.0
  N  N96  1  0.37499000  0.31411000  0.06955000  1.0
  N  N97  1  0.93932000  0.62467000  0.73626000  1.0
  N  N98  1  0.68581000  0.06089000  0.40294000  1.0
  N  N99  1  0.31466000  0.37534000  0.26373000  1.0
  N  N100  1  0.62491000  0.93912000  0.59706000  1.0
  N  N101  1  0.06088000  0.68589000  0.93045000  1.0
  N  N102  1  0.38339000  0.45201000  0.79815000  1.0
  N  N103  1  0.06825000  0.61564000  0.46475000  1.0
  N  N104  1  0.54807000  0.93192000  0.13165000  1.0
  N  N105  1  0.45261000  0.38436000  0.53524000  1.0
  N  N106  1  0.61614000  0.06807000  0.86834000  1.0
  N  N107  1  0.93137000  0.54799000  0.20185000  1.0
  O  O108  1  0.96373000  0.22420000  0.03200000  1.0
  O  O109  1  0.25939000  0.03572000  0.69810000  1.0
  O  O110  1  0.77541000  0.73921000  0.36587000  1.0
  O  O111  1  0.22373000  0.96425000  0.30196000  1.0
  O  O112  1  0.03621000  0.26078000  0.63415000  1.0
  O  O113  1  0.73957000  0.77582000  0.96803000  1.0
  O  O114  1  0.27173000  0.46376000  0.14746000  1.0
  O  O115  1  0.19236000  0.72800000  0.81424000  1.0
  O  O116  1  0.53581000  0.80784000  0.48087000  1.0
  O  O117  1  0.46435000  0.27198000  0.18575000  1.0
  O  O118  1  0.72795000  0.19216000  0.51912000  1.0
  O  O119  1  0.80797000  0.53626000  0.85253000  1.0
  O  O120  1  0.19766000  0.54895000  0.00502000  1.0
  O  O121  1  0.35131000  0.80234000  0.67169000  1.0
  O  O122  1  0.45109000  0.64888000  0.33856000  1.0
  O  O123  1  0.54899000  0.19768000  0.32831000  1.0
  O  O124  1  0.80220000  0.35112000  0.66144000  1.0
  O  O125  1  0.64871000  0.45105000  0.99497000  1.0
  O  O126  1  0.94104000  0.31436000  0.91003000  1.0
  O  O127  1  0.37328000  0.05900000  0.57641000  1.0
  O  O128  1  0.68574000  0.62735000  0.24368000  1.0
  O  O129  1  0.31433000  0.94101000  0.42366000  1.0
  O  O130  1  0.05839000  0.37263000  0.75635000  1.0
  O  O131  1  0.62666000  0.68562000  0.08998000  1.0
  O  O132  1  0.65158000  0.23685000  0.99628000  1.0
  O  O133  1  0.58510000  0.34822000  0.66333000  1.0
  O  O134  1  0.76300000  0.41489000  0.33000000  1.0
  O  O135  1  0.23690000  0.65179000  0.33668000  1.0
  O  O136  1  0.34810000  0.58511000  0.67000000  1.0
  O  O137  1  0.41473000  0.76315000  0.00372000  1.0
