# generated using pymatgen
data_AlH7C11ClO5
_symmetry_space_group_name_H-M   'P 1'
_cell_length_a   6.65438000
_cell_length_b   11.09370000
_cell_length_c   11.09768043
_cell_angle_alpha   87.09741349
_cell_angle_beta   72.85928476
_cell_angle_gamma   74.05780000
_symmetry_Int_Tables_number   1
_chemical_formula_structural   AlH7C11ClO5
_chemical_formula_sum   'Al2 H14 C22 Cl2 O10'
_cell_volume   752.34249453
_cell_formula_units_Z   2
loop_
 _symmetry_equiv_pos_site_id
 _symmetry_equiv_pos_as_xyz
  1  'x, y, z'
loop_
 _atom_site_type_symbol
 _atom_site_label
 _atom_site_symmetry_multiplicity
 _atom_site_fract_x
 _atom_site_fract_y
 _atom_site_fract_z
 _atom_site_occupancy
  Al  Al0  1  0.98971000  0.50630000  0.49945000  1.0
  Al  Al1  1  0.49082000  0.50719000  0.49543000  1.0
  H  H2  1  0.63064000  0.57478000  0.64767000  1.0
  H  H3  1  0.34331000  0.44178000  0.34650000  1.0
  H  H4  1  0.24861000  0.13540000  0.41289000  1.0
  H  H5  1  0.73374000  0.87618000  0.56923000  1.0
  H  H6  1  0.49881000  0.32685000  0.76966000  1.0
  H  H7  1  0.22662000  0.32632000  0.23550000  1.0
  H  H8  1  0.62738000  0.59631000  0.11106000  1.0
  H  H9  1  0.75653000  0.58687000  0.87541000  1.0
  H  H10  1  0.92487000  0.20382000  0.90006000  1.0
  H  H11  1  0.83403000  0.18961000  0.76740000  1.0
  H  H12  1  0.81500000  0.07839000  0.88855000  1.0
  H  H13  1  0.66725000  0.07647000  0.12535000  1.0
  H  H14  1  0.55431000  0.19257000  0.24944000  1.0
  H  H15  1  0.79350000  0.19712000  0.12628000  1.0
  C  C16  1  0.14403000  0.48574000  0.72449000  1.0
  C  C17  1  0.13488000  0.73324000  0.49141000  1.0
  C  C18  1  0.84934000  0.50367000  0.26984000  1.0
  C  C19  1  0.84824000  0.27860000  0.49852000  1.0
  C  C20  1  0.06949000  0.87346000  0.48610000  1.0
  C  C21  1  0.91334000  0.13814000  0.49786000  1.0
  C  C22  1  0.21513000  0.94763000  0.43924000  1.0
  C  C23  1  0.76712000  0.06389000  0.54213000  1.0
  C  C24  1  0.13598000  0.07782000  0.44684000  1.0
  C  C25  1  0.84651000  0.93375000  0.53551000  1.0
  C  C26  1  0.07892000  0.47390000  0.86437000  1.0
  C  C27  1  0.22496000  0.40460000  0.93203000  1.0
  C  C28  1  0.86537000  0.53711000  0.92906000  1.0
  C  C29  1  0.43929000  0.32928000  0.87199000  1.0
  C  C30  1  0.57361000  0.25750000  0.93827000  1.0
  C  C31  1  0.93179000  0.48224000  0.13032000  1.0
  C  C32  1  0.79248000  0.54225000  0.06106000  1.0
  C  C33  1  0.14779000  0.40697000  0.06788000  1.0
  C  C34  1  0.28711000  0.32998000  0.13340000  1.0
  C  C35  1  0.49465000  0.25693000  0.07278000  1.0
  C  C36  1  0.79813000  0.17854000  0.86960000  1.0
  C  C37  1  0.63379000  0.17701000  0.14759000  1.0
  Cl  Cl38  1  0.49081000  0.88434000  0.36735000  1.0
  Cl  Cl39  1  0.48995000  0.12630000  0.61037000  1.0
  O  O40  1  0.99391000  0.50122000  0.67077000  1.0
  O  O41  1  0.32256000  0.68031000  0.50366000  1.0
  O  O42  1  0.64473000  0.52167000  0.32233000  1.0
  O  O43  1  0.99101000  0.33106000  0.50810000  1.0
  O  O44  1  0.98733000  0.50492000  0.32809000  1.0
  O  O45  1  0.66198000  0.33315000  0.48534000  1.0
  O  O46  1  0.34094000  0.48503000  0.66766000  1.0
  O  O47  1  0.99007000  0.67963000  0.48826000  1.0
  O  O48  1  0.68649000  0.55795000  0.55729000  1.0
  O  O49  1  0.29318000  0.45461000  0.43760000  1.0
