# generated using pymatgen
data_CdH5C9(N3O)2
_symmetry_space_group_name_H-M   'P 1'
_cell_length_a   8.55593000
_cell_length_b   10.13880000
_cell_length_c   12.99880000
_cell_angle_alpha   90.00000000
_cell_angle_beta   90.00000000
_cell_angle_gamma   107.78800000
_symmetry_Int_Tables_number   1
_chemical_formula_structural   CdH5C9(N3O)2
_chemical_formula_sum   'Cd4 H20 C36 N24 O8'
_cell_volume   1073.69815283
_cell_formula_units_Z   4
loop_
 _symmetry_equiv_pos_site_id
 _symmetry_equiv_pos_as_xyz
  1  'x, y, z'
loop_
 _atom_site_type_symbol
 _atom_site_label
 _atom_site_symmetry_multiplicity
 _atom_site_fract_x
 _atom_site_fract_y
 _atom_site_fract_z
 _atom_site_occupancy
  Cd  Cd0  1  0.72125000  0.95281000  0.54908000  1.0
  Cd  Cd1  1  0.77875000  0.54718000  0.04908000  1.0
  Cd  Cd2  1  0.27875000  0.04718000  0.45092000  1.0
  Cd  Cd3  1  0.22125000  0.45281000  0.95092000  1.0
  H  H4  1  0.06448000  0.00344000  0.69246000  1.0
  H  H5  1  0.43552000  0.49656000  0.19246000  1.0
  H  H6  1  0.93552000  0.99656000  0.30754000  1.0
  H  H7  1  0.56448000  0.50344000  0.80754000  1.0
  H  H8  1  0.22759000  0.17863000  0.82294000  1.0
  H  H9  1  0.27241000  0.32137000  0.32294000  1.0
  H  H10  1  0.77241000  0.82137000  0.17706000  1.0
  H  H11  1  0.72759000  0.67863000  0.67706000  1.0
  H  H12  1  0.87715000  0.38656000  0.81126000  1.0
  H  H13  1  0.62285000  0.11344000  0.31126000  1.0
  H  H14  1  0.12285000  0.61344000  0.18874000  1.0
  H  H15  1  0.37715000  0.88656000  0.68874000  1.0
  H  H16  1  0.74476000  0.56682000  0.47964000  1.0
  H  H17  1  0.75524000  0.93318000  0.97964000  1.0
  H  H18  1  0.25523000  0.43318000  0.52035000  1.0
  H  H19  1  0.24476000  0.06681000  0.02036000  1.0
  H  H20  1  0.25734000  0.67760000  0.55436000  1.0
  H  H21  1  0.24266000  0.82240000  0.05436000  1.0
  H  H22  1  0.74266000  0.32240000  0.44564000  1.0
  H  H23  1  0.75734000  0.17760000  0.94564000  1.0
  C  C24  1  0.82791000  0.20452000  0.71378000  1.0
  C  C25  1  0.67209000  0.29548000  0.21378000  1.0
  C  C26  1  0.17209000  0.79548000  0.28622000  1.0
  C  C27  1  0.32791000  0.70452000  0.78622000  1.0
  C  C28  1  0.02279000  0.08901000  0.71943000  1.0
  C  C29  1  0.47721000  0.41099000  0.21943000  1.0
  C  C30  1  0.97721000  0.91099000  0.28057000  1.0
  C  C31  1  0.52279000  0.58901000  0.78057000  1.0
  C  C32  1  0.11330000  0.18569000  0.79034000  1.0
  C  C33  1  0.38670000  0.31432000  0.29035000  1.0
  C  C34  1  0.88670000  0.81432000  0.20966000  1.0
  C  C35  1  0.61330000  0.68568000  0.70966000  1.0
  C  C36  1  0.92027000  0.30202000  0.78416000  1.0
  C  C37  1  0.57973000  0.19798000  0.28416000  1.0
  C  C38  1  0.07973000  0.69799000  0.21583000  1.0
  C  C39  1  0.42027000  0.80202000  0.71584000  1.0
  C  C40  1  0.67270000  0.21065000  0.67132000  1.0
  C  C41  1  0.82730000  0.28935000  0.17132000  1.0
  C  C42  1  0.32730000  0.78935000  0.32868000  1.0
  C  C43  1  0.17270000  0.71065000  0.82868000  1.0
  C  C44  1  0.00106000  0.63576000  0.52077000  1.0
  C  C45  1  0.49894000  0.86424000  0.02077000  1.0
  C  C46  1  0.99894000  0.36425000  0.47923000  1.0
  C  C47  1  0.50106000  0.13575000  0.97923000  1.0
  C  C48  1  0.85553000  0.53629000  0.48891000  1.0
  C  C49  1  0.64447000  0.96371000  0.98890000  1.0
  C  C50  1  0.14447000  0.46371000  0.51109000  1.0
  C  C51  1  0.35553000  0.03629000  0.01109000  1.0
  C  C52  1  0.14509000  0.59854000  0.53129000  1.0
  C  C53  1  0.35491000  0.90146000  0.03129000  1.0
  C  C54  1  0.85491000  0.40147000  0.46871000  1.0
  C  C55  1  0.64509000  0.09853000  0.96871000  1.0
  C  C56  1  0.00157000  0.78152000  0.54232000  1.0
  C  C57  1  0.49843000  0.71848000  0.04232000  1.0
  C  C58  1  0.99843000  0.21848000  0.45768000  1.0
  C  C59  1  0.50156000  0.28152000  0.95768000  1.0
  N  N60  1  0.88151000  0.09903000  0.68185000  1.0
  N  N61  1  0.61849000  0.40097000  0.18185000  1.0
  N  N62  1  0.11849000  0.90097000  0.31815000  1.0
  N  N63  1  0.38151000  0.59903000  0.81815000  1.0
  N  N64  1  0.06168000  0.29148000  0.82195000  1.0
  N  N65  1  0.43832000  0.20852000  0.32195000  1.0
  N  N66  1  0.93832000  0.70852000  0.17805000  1.0
  N  N67  1  0.56168000  0.79148000  0.67805000  1.0
  N  N68  1  0.58419000  0.11426000  0.60541000  1.0
  N  N69  1  0.91581000  0.38574000  0.10541000  1.0
  N  N70  1  0.41581000  0.88574000  0.39460000  1.0
  N  N71  1  0.08419000  0.61426000  0.89459000  1.0
  N  N72  1  0.45611000  0.15703000  0.58033000  1.0
  N  N73  1  0.04389000  0.34297000  0.08033000  1.0
  N  N74  1  0.54389000  0.84297000  0.41967000  1.0
  N  N75  1  0.95611000  0.65703000  0.91967000  1.0
  N  N76  1  0.46566000  0.27498000  0.62920000  1.0
  N  N77  1  0.03434000  0.22502000  0.12920000  1.0
  N  N78  1  0.53434000  0.72503000  0.37080000  1.0
  N  N79  1  0.96566000  0.77498000  0.87080000  1.0
  N  N80  1  0.60104000  0.31045000  0.68708000  1.0
  N  N81  1  0.89896000  0.18955000  0.18708000  1.0
  N  N82  1  0.39896000  0.68955000  0.31292000  1.0
  N  N83  1  0.10104000  0.81045000  0.81292000  1.0
  O  O84  1  0.13757000  0.87336000  0.56137000  1.0
  O  O85  1  0.36243000  0.62664000  0.06137000  1.0
  O  O86  1  0.86243000  0.12664000  0.43863000  1.0
  O  O87  1  0.63757000  0.37336000  0.93863000  1.0
  O  O88  1  0.86156000  0.80075000  0.54022000  1.0
  O  O89  1  0.63844000  0.69925000  0.04022000  1.0
  O  O90  1  0.13844000  0.19925000  0.45978000  1.0
  O  O91  1  0.36156000  0.30075000  0.95978000  1.0
