# generated using pymatgen
data_MnH5C5O6
_symmetry_space_group_name_H-M   'P 1'
_cell_length_a   6.49244000
_cell_length_b   11.77300000
_cell_length_c   18.38060000
_cell_angle_alpha   105.78500000
_cell_angle_beta   89.99980000
_cell_angle_gamma   89.99460000
_symmetry_Int_Tables_number   1
_chemical_formula_structural   MnH5C5O6
_chemical_formula_sum   'Mn8 H40 C40 O48'
_cell_volume   1351.94928947
_cell_formula_units_Z   8
loop_
 _symmetry_equiv_pos_site_id
 _symmetry_equiv_pos_as_xyz
  1  'x, y, z'
loop_
 _atom_site_type_symbol
 _atom_site_label
 _atom_site_symmetry_multiplicity
 _atom_site_fract_x
 _atom_site_fract_y
 _atom_site_fract_z
 _atom_site_occupancy
  Mn  Mn0  1  0.25130000  0.01406000  0.38484000  1.0
  Mn  Mn1  1  0.75143000  0.98570000  0.11538000  1.0
  Mn  Mn2  1  0.74869000  0.98594000  0.61517000  1.0
  Mn  Mn3  1  0.24857000  0.01431000  0.88463000  1.0
  Mn  Mn4  1  0.92832000  0.68459000  0.29953000  1.0
  Mn  Mn5  1  0.42815000  0.31526000  0.20051000  1.0
  Mn  Mn6  1  0.07167000  0.31541000  0.70047000  1.0
  Mn  Mn7  1  0.57185000  0.68474000  0.79949000  1.0
  H  H8  1  0.19917000  0.47125000  0.54592000  1.0
  H  H9  1  0.69932000  0.52880000  0.95409000  1.0
  H  H10  1  0.80083000  0.52875000  0.45408000  1.0
  H  H11  1  0.30068000  0.47120000  0.04591000  1.0
  H  H12  1  0.18267000  0.56704000  0.44060000  1.0
  H  H13  1  0.68276000  0.43287000  0.05937000  1.0
  H  H14  1  0.81733000  0.43295000  0.55940000  1.0
  H  H15  1  0.31723000  0.56713000  0.94063000  1.0
  H  H16  1  0.06474000  0.12262000  0.28949000  1.0
  H  H17  1  0.56483000  0.87671000  0.21055000  1.0
  H  H18  1  0.93526000  0.87738000  0.71051000  1.0
  H  H19  1  0.43517000  0.12329000  0.78945000  1.0
  H  H20  1  0.30361000  0.15516000  0.29403000  1.0
  H  H21  1  0.80364000  0.84425000  0.20594000  1.0
  H  H22  1  0.69639000  0.84484000  0.70597000  1.0
  H  H23  1  0.19636000  0.15575000  0.79406000  1.0
  H  H24  1  0.21236000  0.17447000  0.52771000  1.0
  H  H25  1  0.71240000  0.82547000  0.97235000  1.0
  H  H26  1  0.78764000  0.82553000  0.47229000  1.0
  H  H27  1  0.28760000  0.17453000  0.02765000  1.0
  H  H28  1  0.44773000  0.13490000  0.51828000  1.0
  H  H29  1  0.94774000  0.86514000  0.98185000  1.0
  H  H30  1  0.55227000  0.86510000  0.48172000  1.0
  H  H31  1  0.05226000  0.13486000  0.01815000  1.0
  H  H32  1  0.76403000  0.50347000  0.19359000  1.0
  H  H33  1  0.26421000  0.49652000  0.30638000  1.0
  H  H34  1  0.23597000  0.49653000  0.80641000  1.0
  H  H35  1  0.73579000  0.50348000  0.69362000  1.0
  H  H36  1  0.71180000  0.61288000  0.16097000  1.0
  H  H37  1  0.21171000  0.38726000  0.33908000  1.0
  H  H38  1  0.28820000  0.38712000  0.83903000  1.0
  H  H39  1  0.78829000  0.61274000  0.66092000  1.0
  H  H40  1  0.61874000  0.84995000  0.34391000  1.0
  H  H41  1  0.11839000  0.15001000  0.15620000  1.0
  H  H42  1  0.38126000  0.15005000  0.65609000  1.0
  H  H43  1  0.88161000  0.84998000  0.84380000  1.0
  H  H44  1  0.49733000  0.72687000  0.31247000  1.0
  H  H45  1  0.99704000  0.27319000  0.18764000  1.0
  H  H46  1  0.50267000  0.27313000  0.68753000  1.0
  H  H47  1  0.00297000  0.72680000  0.81236000  1.0
  C  C48  1  0.21331000  0.74268000  0.51424000  1.0
  C  C49  1  0.71337000  0.25727000  0.98565000  1.0
  C  C50  1  0.78669000  0.25731000  0.48576000  1.0
  C  C51  1  0.28663000  0.74273000  0.01435000  1.0
  C  C52  1  0.24776000  0.81166000  0.58847000  1.0
  C  C53  1  0.74782000  0.18834000  0.91142000  1.0
  C  C54  1  0.75223000  0.18834000  0.41153000  1.0
  C  C55  1  0.25218000  0.81166000  0.08858000  1.0
  C  C56  1  0.26820000  0.75728000  0.64734000  1.0
  C  C57  1  0.76827000  0.24278000  0.85258000  1.0
  C  C58  1  0.73179000  0.24272000  0.35266000  1.0
  C  C59  1  0.23173000  0.75722000  0.14742000  1.0
  C  C60  1  0.24003000  0.63429000  0.63220000  1.0
  C  C61  1  0.74018000  0.36578000  0.86778000  1.0
  C  C62  1  0.75998000  0.36571000  0.36780000  1.0
  C  C63  1  0.25982000  0.63422000  0.13221000  1.0
  C  C64  1  0.21589000  0.56642000  0.55705000  1.0
  C  C65  1  0.71603000  0.43362000  0.94293000  1.0
  C  C66  1  0.78412000  0.43358000  0.44295000  1.0
  C  C67  1  0.28396000  0.56638000  0.05706000  1.0
  C  C68  1  0.20497000  0.61972000  0.49865000  1.0
  C  C69  1  0.70510000  0.38024000  0.00131000  1.0
  C  C70  1  0.79503000  0.38028000  0.50135000  1.0
  C  C71  1  0.29490000  0.61977000  0.99869000  1.0
  C  C72  1  0.17796000  0.79716000  0.45058000  1.0
  C  C73  1  0.67797000  0.20262000  0.04924000  1.0
  C  C74  1  0.82204000  0.20284000  0.54942000  1.0
  C  C75  1  0.32203000  0.79738000  0.95076000  1.0
  C  C76  1  0.23901000  0.94410000  0.60452000  1.0
  C  C77  1  0.73901000  0.05588000  0.89531000  1.0
  C  C78  1  0.76099000  0.05590000  0.39548000  1.0
  C  C79  1  0.26099000  0.94412000  0.10469000  1.0
  C  C80  1  0.31052000  0.83244000  0.72630000  1.0
  C  C81  1  0.81044000  0.16779000  0.77356000  1.0
  C  C82  1  0.68948000  0.16756000  0.27370000  1.0
  C  C83  1  0.18956000  0.83220000  0.22644000  1.0
  C  C84  1  0.20840000  0.57251000  0.69258000  1.0
  C  C85  1  0.70854000  0.42764000  0.80743000  1.0
  C  C86  1  0.79161000  0.42750000  0.30743000  1.0
  C  C87  1  0.29146000  0.57236000  0.19257000  1.0
  O  O88  1  0.30776000  0.87151000  0.43887000  1.0
  O  O89  1  0.80763000  0.12808000  0.06076000  1.0
  O  O90  1  0.69223000  0.12849000  0.56113000  1.0
  O  O91  1  0.19237000  0.87193000  0.93924000  1.0
  O  O92  1  0.01685000  0.76275000  0.41135000  1.0
  O  O93  1  0.51697000  0.23702000  0.08852000  1.0
  O  O94  1  0.98315000  0.23725000  0.58865000  1.0
  O  O95  1  0.48303000  0.76298000  0.91148000  1.0
  O  O96  1  0.40122000  0.00355000  0.62894000  1.0
  O  O97  1  0.90135000  0.99647000  0.87092000  1.0
  O  O98  1  0.59878000  0.99645000  0.37106000  1.0
  O  O99  1  0.09865000  0.00353000  0.12908000  1.0
  O  O100  1  0.07007000  0.98922000  0.59264000  1.0
  O  O101  1  0.57003000  0.01073000  0.90703000  1.0
  O  O102  1  0.92993000  0.01078000  0.40736000  1.0
  O  O103  1  0.42997000  0.98927000  0.09297000  1.0
  O  O104  1  0.16990000  0.89910000  0.76188000  1.0
  O  O105  1  0.66956000  0.10154000  0.73786000  1.0
  O  O106  1  0.83011000  0.10090000  0.23812000  1.0
  O  O107  1  0.33044000  0.89845000  0.26214000  1.0
  O  O108  1  0.49003000  0.82651000  0.75401000  1.0
  O  O109  1  0.99004000  0.17363000  0.74588000  1.0
  O  O110  1  0.50997000  0.17348000  0.24599000  1.0
  O  O111  1  0.00996000  0.82637000  0.25412000  1.0
  O  O112  1  0.25498000  0.62176000  0.76237000  1.0
  O  O113  1  0.75520000  0.37846000  0.73763000  1.0
  O  O114  1  0.74502000  0.37825000  0.23763000  1.0
  O  O115  1  0.24480000  0.62155000  0.26237000  1.0
  O  O116  1  0.12282000  0.47206000  0.67091000  1.0
  O  O117  1  0.62288000  0.52806000  0.82911000  1.0
  O  O118  1  0.87719000  0.52794000  0.32909000  1.0
  O  O119  1  0.37712000  0.47194000  0.17089000  1.0
  O  O120  1  0.18315000  0.14418000  0.32506000  1.0
  O  O121  1  0.68307000  0.85507000  0.17490000  1.0
  O  O122  1  0.81685000  0.85582000  0.67494000  1.0
  O  O123  1  0.31693000  0.14493000  0.82510000  1.0
  O  O124  1  0.32074000  0.14338000  0.49007000  1.0
  O  O125  1  0.82078000  0.85645000  0.01000000  1.0
  O  O126  1  0.67926000  0.85662000  0.50992000  1.0
  O  O127  1  0.17922000  0.14355000  0.99000000  1.0
  O  O128  1  0.81814000  0.57798000  0.18550000  1.0
  O  O129  1  0.31820000  0.42204000  0.31456000  1.0
  O  O130  1  0.18186000  0.42202000  0.81450000  1.0
  O  O131  1  0.68180000  0.57796000  0.68544000  1.0
  O  O132  1  0.63304000  0.76134000  0.32739000  1.0
  O  O133  1  0.13274000  0.23862000  0.17275000  1.0
  O  O134  1  0.36695000  0.23866000  0.67261000  1.0
  O  O135  1  0.86727000  0.76138000  0.82725000  1.0
