# generated using pymatgen
data_Co3P2H6C8S2(BrO4)2
_symmetry_space_group_name_H-M   'P 1'
_cell_length_a   5.31953000
_cell_length_b   10.54550000
_cell_length_c   15.05760000
_cell_angle_alpha   73.08300000
_cell_angle_beta   89.99630000
_cell_angle_gamma   89.98790000
_symmetry_Int_Tables_number   1
_chemical_formula_structural   Co3P2H6C8S2(BrO4)2
_chemical_formula_sum   'Co6 P4 H12 C16 S4 Br4 O16'
_cell_volume   808.13580048
_cell_formula_units_Z   2
loop_
 _symmetry_equiv_pos_site_id
 _symmetry_equiv_pos_as_xyz
  1  'x, y, z'
loop_
 _atom_site_type_symbol
 _atom_site_label
 _atom_site_symmetry_multiplicity
 _atom_site_fract_x
 _atom_site_fract_y
 _atom_site_fract_z
 _atom_site_occupancy
  Co  Co0  1  0.49748000  0.50179000  0.49975000  1.0
  Co  Co1  1  0.99944000  0.00049000  0.50071000  1.0
  Co  Co2  1  0.29483000  0.28878000  0.42951000  1.0
  Co  Co3  1  0.79365000  0.20999000  0.57011000  1.0
  Co  Co4  1  0.70652000  0.71264000  0.57129000  1.0
  Co  Co5  1  0.20572000  0.78776000  0.42843000  1.0
  P  P6  1  0.98298000  0.55097000  0.36157000  1.0
  P  P7  1  0.48533000  0.94884000  0.63888000  1.0
  P  P8  1  0.01471000  0.44922000  0.63798000  1.0
  P  P9  1  0.51535000  0.05082000  0.36187000  1.0
  H  H10  1  0.03457000  0.69335000  0.01042000  1.0
  H  H11  1  0.53381000  0.80628000  0.99001000  1.0
  H  H12  1  0.96529000  0.30595000  0.98936000  1.0
  H  H13  1  0.46533000  0.19357000  0.01057000  1.0
  H  H14  1  0.62436000  0.41368000  0.25668000  1.0
  H  H15  1  0.12575000  0.08636000  0.74329000  1.0
  H  H16  1  0.37510000  0.58535000  0.74286000  1.0
  H  H17  1  0.87480000  0.91382000  0.25701000  1.0
  H  H18  1  0.66629000  0.72771000  0.40615000  1.0
  H  H19  1  0.16571000  0.77268000  0.59375000  1.0
  H  H20  1  0.33575000  0.27520000  0.59416000  1.0
  H  H21  1  0.83543000  0.22631000  0.40446000  1.0
  C  C22  1  0.97128000  0.63924000  0.07956000  1.0
  C  C23  1  0.47099000  0.86042000  0.92080000  1.0
  C  C24  1  0.02858000  0.35992000  0.92018000  1.0
  C  C25  1  0.52835000  0.13941000  0.07975000  1.0
  C  C26  1  0.05502000  0.64903000  0.16359000  1.0
  C  C27  1  0.55546000  0.85058000  0.83686000  1.0
  C  C28  1  0.94467000  0.35007000  0.83616000  1.0
  C  C29  1  0.44417000  0.14914000  0.16376000  1.0
  C  C30  1  0.92972000  0.56159000  0.24201000  1.0
  C  C31  1  0.43094000  0.93822000  0.75833000  1.0
  C  C32  1  0.06972000  0.43747000  0.75769000  1.0
  C  C33  1  0.56921000  0.06166000  0.24225000  1.0
  C  C34  1  0.75052000  0.48701000  0.21340000  1.0
  C  C35  1  0.25152000  0.01295000  0.78675000  1.0
  C  C36  1  0.24898000  0.51211000  0.78623000  1.0
  C  C37  1  0.74865000  0.98710000  0.21367000  1.0
  S  S38  1  0.73645000  0.52311000  0.09503000  1.0
  S  S39  1  0.23636000  0.97674000  0.90508000  1.0
  S  S40  1  0.26333000  0.47608000  0.90460000  1.0
  S  S41  1  0.76320000  0.02327000  0.09531000  1.0
  Br  Br42  1  0.31201000  0.76932000  0.17257000  1.0
  Br  Br43  1  0.81233000  0.73001000  0.82814000  1.0
  Br  Br44  1  0.68785000  0.22966000  0.82727000  1.0
  Br  Br45  1  0.18710000  0.26956000  0.17252000  1.0
  O  O46  1  0.77222000  0.46732000  0.41783000  1.0
  O  O47  1  0.27630000  0.03358000  0.58236000  1.0
  O  O48  1  0.22605000  0.53367000  0.58240000  1.0
  O  O49  1  0.72709000  0.96742000  0.41781000  1.0
  O  O50  1  0.24541000  0.48487000  0.38935000  1.0
  O  O51  1  0.74904000  0.01426000  0.61163000  1.0
  O  O52  1  0.75329000  0.51648000  0.61087000  1.0
  O  O53  1  0.25393000  0.98395000  0.38972000  1.0
  O  O54  1  0.98323000  0.69584000  0.36658000  1.0
  O  O55  1  0.48474000  0.80422000  0.63363000  1.0
  O  O56  1  0.01440000  0.30525000  0.63148000  1.0
  O  O57  1  0.51474000  0.19549000  0.36714000  1.0
  O  O58  1  0.53561000  0.70438000  0.45501000  1.0
  O  O59  1  0.03545000  0.79689000  0.54483000  1.0
  O  O60  1  0.46768000  0.29826000  0.54578000  1.0
  O  O61  1  0.96620000  0.20284000  0.45320000  1.0
