# generated using pymatgen
data_MgH15C19O3
_symmetry_space_group_name_H-M   'P 1'
_cell_length_a   6.85631000
_cell_length_b   40.12020000
_cell_length_c   40.11890000
_cell_angle_alpha   119.67800000
_cell_angle_beta   93.26540000
_cell_angle_gamma   93.26460000
_symmetry_Int_Tables_number   1
_chemical_formula_structural   MgH15C19O3
_chemical_formula_sum   'Mg6 H90 C114 O18'
_cell_volume   9526.31243844
_cell_formula_units_Z   6
loop_
 _symmetry_equiv_pos_site_id
 _symmetry_equiv_pos_as_xyz
  1  'x, y, z'
loop_
 _atom_site_type_symbol
 _atom_site_label
 _atom_site_symmetry_multiplicity
 _atom_site_fract_x
 _atom_site_fract_y
 _atom_site_fract_z
 _atom_site_occupancy
  Mg  Mg0  1  0.63746000  0.67089000  0.30963000  1.0
  Mg  Mg1  1  0.32800000  0.69036000  0.36123000  1.0
  Mg  Mg2  1  0.96663000  0.63879000  0.32916000  1.0
  Mg  Mg3  1  0.69375000  0.32731000  0.68922000  1.0
  Mg  Mg4  1  0.00460000  0.31073000  0.63805000  1.0
  Mg  Mg5  1  0.36637000  0.36190000  0.67265000  1.0
  H  H6  1  0.95176000  0.21577000  0.61100000  1.0
  H  H7  1  0.34035000  0.38902000  0.60475000  1.0
  H  H8  1  0.73530000  0.39519000  0.78422000  1.0
  H  H9  1  0.86849000  0.05916000  0.47784000  1.0
  H  H10  1  0.39042000  0.52216000  0.58130000  1.0
  H  H11  1  0.80927000  0.41871000  0.94085000  1.0
  H  H12  1  0.02942000  0.94992000  0.51007000  1.0
  H  H13  1  0.51945000  0.48987000  0.43978000  1.0
  H  H14  1  0.07967000  0.56020000  0.05007000  1.0
  H  H15  1  0.62094000  0.87363000  0.48971000  1.0
  H  H16  1  0.13065000  0.51026000  0.38387000  1.0
  H  H17  1  0.74675000  0.61609000  0.12647000  1.0
  H  H18  1  0.23062000  0.91246000  0.40980000  1.0
  H  H19  1  0.82100000  0.59019000  0.50269000  1.0
  H  H20  1  0.31771000  0.49731000  0.08752000  1.0
  H  H21  1  0.49687000  0.82966000  0.35313000  1.0
  H  H22  1  0.14352000  0.64682000  0.47647000  1.0
  H  H23  1  0.66655000  0.52349000  0.17035000  1.0
  H  H24  1  0.32815000  0.86170000  0.35269000  1.0
  H  H25  1  0.97530000  0.64730000  0.50897000  1.0
  H  H26  1  0.46578000  0.49098000  0.13833000  1.0
  H  H27  1  0.24503000  0.82119000  0.35639000  1.0
  H  H28  1  0.88844000  0.64359000  0.46475000  1.0
  H  H29  1  0.42317000  0.53519000  0.17888000  1.0
  H  H30  1  0.37736000  0.78320000  0.38209000  1.0
  H  H31  1  0.99491000  0.61791000  0.40101000  1.0
  H  H32  1  0.59350000  0.59895000  0.21696000  1.0
  H  H33  1  0.09241000  0.79959000  0.41958000  1.0
  H  H34  1  0.67243000  0.58041000  0.38002000  1.0
  H  H35  1  0.29205000  0.61993000  0.20036000  1.0
  H  H36  1  0.90574000  0.85730000  0.44525000  1.0
  H  H37  1  0.45981000  0.55468000  0.41195000  1.0
  H  H38  1  0.04720000  0.58799000  0.14273000  1.0
  H  H39  1  0.46522000  0.97069000  0.54469000  1.0
  H  H40  1  0.92025000  0.45528000  0.42596000  1.0
  H  H41  1  0.49442000  0.57404000  0.02940000  1.0
  H  H42  1  0.59004000  0.93374000  0.54665000  1.0
  H  H43  1  0.04312000  0.45334000  0.38706000  1.0
  H  H44  1  0.65612000  0.61293000  0.06636000  1.0
  H  H45  1  0.33116000  0.93234000  0.54556000  1.0
  H  H46  1  0.78531000  0.45440000  0.38673000  1.0
  H  H47  1  0.39861000  0.61326000  0.06772000  1.0
  H  H48  1  0.32970000  0.05372000  0.49139000  1.0
  H  H49  1  0.83773000  0.50856000  0.56231000  1.0
  H  H50  1  0.27600000  0.43770000  0.94630000  1.0
  H  H51  1  0.62744000  0.97418000  0.46266000  1.0
  H  H52  1  0.16430000  0.53736000  0.51157000  1.0
  H  H53  1  0.65315000  0.48843000  0.02583000  1.0
  H  H54  1  0.58796000  0.01702000  0.46140000  1.0
  H  H55  1  0.12610000  0.53860000  0.55566000  1.0
  H  H56  1  0.57072000  0.44436000  0.98299000  1.0
  H  H57  1  0.47462000  0.97162000  0.42447000  1.0
  H  H58  1  0.04961000  0.57554000  0.54719000  1.0
  H  H59  1  0.50269000  0.45282000  0.02838000  1.0
  H  H60  1  0.71833000  0.02268000  0.53389000  1.0
  H  H61  1  0.18410000  0.46615000  0.48877000  1.0
  H  H62  1  0.69587000  0.51124000  0.97733000  1.0
  H  H63  1  0.87772000  0.03828000  0.57596000  1.0
  H  H64  1  0.30130000  0.42407000  0.46230000  1.0
  H  H65  1  0.83957000  0.53771000  0.96172000  1.0
  H  H66  1  0.79559000  0.98851000  0.54658000  1.0
  H  H67  1  0.24861000  0.45345000  0.44190000  1.0
  H  H68  1  0.80723000  0.55811000  0.01150000  1.0
  H  H69  1  0.97044000  0.15850000  0.61542000  1.0
  H  H70  1  0.35500000  0.38462000  0.54317000  1.0
  H  H71  1  0.81165000  0.45694000  0.84149000  1.0
  H  H72  1  0.19487000  0.07161000  0.59488000  1.0
  H  H73  1  0.59983000  0.40511000  0.47675000  1.0
  H  H74  1  0.12307000  0.52329000  0.92838000  1.0
  H  H75  1  0.18465000  0.12133000  0.62910000  1.0
  H  H76  1  0.55534000  0.37090000  0.49225000  1.0
  H  H77  1  0.06311000  0.50779000  0.87866000  1.0
  H  H78  1  0.35284000  0.10709000  0.59355000  1.0
  H  H79  1  0.75901000  0.40646000  0.51358000  1.0
  H  H80  1  0.24545000  0.48646000  0.89290000  1.0
  H  H81  1  0.64252000  0.14761000  0.49997000  1.0
  H  H82  1  0.14257000  0.50009000  0.64768000  1.0
  H  H83  1  0.49495000  0.35242000  0.85241000  1.0
  H  H84  1  0.50099000  0.10463000  0.48885000  1.0
  H  H85  1  0.01212000  0.51123000  0.61584000  1.0
  H  H86  1  0.39619000  0.38424000  0.89538000  1.0
  H  H87  1  0.70717000  0.10226000  0.46350000  1.0
  H  H88  1  0.24378000  0.53653000  0.63877000  1.0
  H  H89  1  0.60487000  0.36129000  0.89776000  1.0
  H  H90  1  0.41405000  0.14346000  0.55063000  1.0
  H  H91  1  0.86298000  0.44941000  0.59287000  1.0
  H  H92  1  0.26975000  0.40715000  0.85652000  1.0
  H  H93  1  0.23294000  0.20142000  0.57847000  1.0
  H  H94  1  0.65416000  0.42153000  0.62297000  1.0
  H  H95  1  0.03093000  0.37701000  0.79855000  1.0
  C  C96  1  0.69216000  0.24524000  0.62155000  1.0
  C  C97  1  0.07032000  0.37843000  0.62365000  1.0
  C  C98  1  0.44637000  0.37626000  0.75474000  1.0
  C  C99  1  0.79322000  0.21198000  0.60398000  1.0
  C  C100  1  0.18881000  0.39603000  0.60798000  1.0
  C  C101  1  0.58054000  0.39195000  0.78801000  1.0
  C  C102  1  0.69829000  0.17556000  0.57800000  1.0
  C  C103  1  0.11985000  0.42203000  0.59755000  1.0
  C  C104  1  0.52200000  0.40246000  0.82446000  1.0
  C  C105  1  0.81079000  0.14139000  0.56081000  1.0
  C  C106  1  0.24962000  0.43922000  0.58060000  1.0
  C  C107  1  0.66880000  0.41947000  0.85863000  1.0
  C  C108  1  0.78371000  0.11358000  0.52112000  1.0
  C  C109  1  0.26229000  0.47891000  0.59246000  1.0
  C  C110  1  0.66981000  0.40762000  0.88647000  1.0
  C  C111  1  0.88856000  0.08119000  0.50835000  1.0
  C  C112  1  0.37982000  0.49165000  0.57281000  1.0
  C  C113  1  0.80719000  0.42722000  0.91884000  1.0
  C  C114  1  0.01691000  0.07527000  0.53289000  1.0
  C  C115  1  0.48347000  0.46709000  0.54234000  1.0
  C  C116  1  0.94151000  0.45766000  0.92474000  1.0
  C  C117  1  0.10314000  0.03779000  0.51714000  1.0
  C  C118  1  0.58550000  0.48283000  0.52061000  1.0
  C  C119  1  0.06543000  0.47938000  0.96220000  1.0
  C  C120  1  0.01696000  0.00851000  0.52296000  1.0
  C  C121  1  0.49365000  0.47702000  0.48550000  1.0
  C  C122  1  0.00857000  0.51449000  0.99148000  1.0
  C  C123  1  0.09614000  0.97305000  0.50624000  1.0
  C  C124  1  0.58980000  0.49372000  0.46676000  1.0
  C  C125  1  0.12321000  0.53323000  0.02694000  1.0
  C  C126  1  0.25628000  0.96578000  0.48427000  1.0
  C  C127  1  0.77184000  0.51572000  0.48152000  1.0
  C  C128  1  0.29048000  0.51850000  0.03422000  1.0
  C  C129  1  0.33628000  0.92769000  0.46741000  1.0
  C  C130  1  0.86872000  0.53257000  0.46027000  1.0
  C  C131  1  0.40824000  0.53973000  0.07234000  1.0
  C  C132  1  0.44183000  0.91635000  0.49075000  1.0
  C  C133  1  0.95062000  0.50923000  0.42556000  1.0
  C  C134  1  0.52493000  0.57443000  0.08373000  1.0
  C  C135  1  0.53281000  0.88229000  0.47224000  1.0
  C  C136  1  0.06000000  0.52774000  0.41001000  1.0
  C  C137  1  0.64981000  0.58997000  0.11781000  1.0
  C  C138  1  0.51529000  0.85839000  0.43203000  1.0
  C  C139  1  0.08266000  0.56794000  0.42628000  1.0
  C  C140  1  0.65592000  0.57367000  0.14171000  1.0
  C  C141  1  0.39815000  0.86839000  0.40881000  1.0
  C  C142  1  0.98899000  0.59117000  0.45954000  1.0
  C  C143  1  0.52883000  0.54043000  0.13167000  1.0
  C  C144  1  0.31483000  0.90336000  0.42735000  1.0
  C  C145  1  0.88742000  0.57264000  0.47601000  1.0
  C  C146  1  0.41084000  0.52398000  0.09666000  1.0
  C  C147  1  0.36645000  0.84402000  0.36553000  1.0
  C  C148  1  0.00068000  0.63445000  0.47845000  1.0
  C  C149  1  0.52163000  0.52150000  0.15602000  1.0
  C  C150  1  0.62735000  0.82416000  0.41556000  1.0
  C  C151  1  0.21115000  0.58439000  0.40850000  1.0
  C  C152  1  0.80223000  0.59142000  0.17593000  1.0
  C  C153  1  0.53509000  0.78746000  0.39006000  1.0
  C  C154  1  0.14466000  0.60992000  0.39732000  1.0
  C  C155  1  0.74693000  0.60262000  0.21264000  1.0
  C  C156  1  0.63789000  0.75439000  0.37440000  1.0
  C  C157  1  0.26332000  0.62559000  0.37994000  1.0
  C  C158  1  0.88313000  0.62000000  0.24566000  1.0
  C  C159  1  0.84409000  0.75919000  0.38584000  1.0
  C  C160  1  0.45805000  0.61415000  0.37331000  1.0
  C  C161  1  0.08451000  0.62661000  0.24083000  1.0
  C  C162  1  0.93536000  0.79658000  0.41142000  1.0
  C  C163  1  0.52346000  0.58854000  0.38511000  1.0
  C  C164  1  0.13804000  0.61481000  0.20342000  1.0
  C  C165  1  0.83121000  0.82861000  0.42610000  1.0
  C  C166  1  0.40446000  0.57383000  0.40241000  1.0
  C  C167  1  0.00157000  0.59751000  0.17143000  1.0
  C  C168  1  0.96495000  0.72669000  0.37323000  1.0
  C  C169  1  0.59172000  0.62678000  0.35347000  1.0
  C  C170  1  0.23807000  0.64650000  0.27331000  1.0
  C  C171  1  0.45897000  0.93963000  0.53413000  1.0
  C  C172  1  0.92451000  0.46584000  0.40546000  1.0
  C  C173  1  0.51908000  0.59454000  0.06045000  1.0
  C  C174  1  0.34312000  0.99511000  0.47860000  1.0
  C  C175  1  0.86407000  0.52140000  0.51653000  1.0
  C  C176  1  0.34794000  0.48350000  0.00491000  1.0
  C  C177  1  0.26352000  0.03062000  0.49532000  1.0
  C  C178  1  0.76769000  0.50464000  0.53528000  1.0
  C  C179  1  0.23294000  0.46473000  0.96938000  1.0
  C  C180  1  0.51740000  0.98921000  0.45567000  1.0
  C  C181  1  0.06121000  0.54434000  0.53359000  1.0
  C  C182  1  0.52800000  0.46643000  0.01080000  1.0
  C  C183  1  0.84336000  0.01473000  0.54600000  1.0
  C  C184  1  0.29695000  0.45402000  0.46871000  1.0
  C  C185  1  0.82881000  0.53131000  0.98527000  1.0
  C  C186  1  0.05343000  0.10412000  0.57199000  1.0
  C  C187  1  0.48105000  0.42800000  0.53212000  1.0
  C  C188  1  0.94891000  0.46792000  0.89589000  1.0
  C  C189  1  0.94848000  0.13644000  0.58494000  1.0
  C  C190  1  0.36335000  0.41508000  0.55154000  1.0
  C  C191  1  0.81158000  0.44854000  0.86357000  1.0
  C  C192  1  0.20303000  0.10081000  0.59888000  1.0
  C  C193  1  0.60388000  0.40111000  0.50194000  1.0
  C  C194  1  0.10194000  0.49809000  0.89918000  1.0
  C  C195  1  0.65210000  0.11740000  0.49200000  1.0
  C  C196  1  0.16009000  0.50805000  0.62544000  1.0
  C  C197  1  0.53461000  0.37465000  0.88262000  1.0
  C  C198  1  0.49283000  0.17175000  0.56944000  1.0
  C  C199  1  0.92297000  0.43059000  0.60232000  1.0
  C  C200  1  0.32034000  0.39768000  0.82823000  1.0
  C  C201  1  0.39092000  0.20404000  0.58549000  1.0
  C  C202  1  0.80509000  0.41450000  0.61854000  1.0
  C  C203  1  0.18629000  0.38143000  0.79593000  1.0
  C  C204  1  0.48525000  0.24113000  0.61108000  1.0
  C  C205  1  0.87387000  0.38890000  0.63002000  1.0
  C  C206  1  0.24357000  0.36990000  0.75884000  1.0
  C  C207  1  0.36634000  0.27399000  0.62471000  1.0
  C  C208  1  0.74137000  0.37524000  0.64923000  1.0
  C  C209  1  0.09191000  0.35070000  0.72597000  1.0
  O  O210  1  0.14457000  0.73176000  0.38627000  1.0
  O  O211  1  0.75837000  0.61376000  0.34556000  1.0
  O  O212  1  0.41256000  0.65445000  0.26820000  1.0
  O  O213  1  0.88438000  0.69249000  0.34837000  1.0
  O  O214  1  0.53612000  0.65163000  0.34409000  1.0
  O  O215  1  0.19184000  0.65588000  0.30752000  1.0
  O  O216  1  0.53643000  0.72024000  0.34993000  1.0
  O  O217  1  0.18646000  0.65008000  0.37029000  1.0
  O  O218  1  0.81597000  0.62971000  0.27983000  1.0
  O  O219  1  0.18745000  0.26964000  0.61156000  1.0
  O  O220  1  0.57566000  0.38839000  0.65806000  1.0
  O  O221  1  0.91741000  0.34187000  0.73030000  1.0
  O  O222  1  0.44771000  0.30774000  0.65057000  1.0
  O  O223  1  0.79699000  0.34937000  0.65711000  1.0
  O  O224  1  0.13966000  0.34283000  0.69223000  1.0
  O  O225  1  0.79502000  0.27896000  0.64677000  1.0
  O  O226  1  0.14805000  0.35321000  0.63215000  1.0
  O  O227  1  0.51559000  0.36774000  0.72101000  1.0
