# generated using pymatgen
data_GdH24C25S2N3O8
_symmetry_space_group_name_H-M   'P 1'
_cell_length_a   16.07710000
_cell_length_b   16.07710000
_cell_length_c   27.86890000
_cell_angle_alpha   80.26060000
_cell_angle_beta   80.26060000
_cell_angle_gamma   63.02680000
_symmetry_Int_Tables_number   1
_chemical_formula_structural   GdH24C25S2N3O8
_chemical_formula_sum   'Gd4 H96 C100 S8 N12 O32'
_cell_volume   6292.11182399
_cell_formula_units_Z   4
loop_
 _symmetry_equiv_pos_site_id
 _symmetry_equiv_pos_as_xyz
  1  'x, y, z'
loop_
 _atom_site_type_symbol
 _atom_site_label
 _atom_site_symmetry_multiplicity
 _atom_site_fract_x
 _atom_site_fract_y
 _atom_site_fract_z
 _atom_site_occupancy
  Gd  Gd0  1  0.93411000  0.46993000  0.95479000  1.0
  Gd  Gd1  1  0.53007000  0.06589000  0.54521000  1.0
  Gd  Gd2  1  0.06589000  0.53007000  0.04521000  1.0
  Gd  Gd3  1  0.46993000  0.93411000  0.45479000  1.0
  H  H4  1  0.93795000  0.37060000  0.79618000  1.0
  H  H5  1  0.62940000  0.06205000  0.70382000  1.0
  H  H6  1  0.06205000  0.62940000  0.20382000  1.0
  H  H7  1  0.37060000  0.93795000  0.29618000  1.0
  H  H8  1  0.89376000  0.29176000  0.74044000  1.0
  H  H9  1  0.70824000  0.10624000  0.75956000  1.0
  H  H10  1  0.10624000  0.70824000  0.25956000  1.0
  H  H11  1  0.29176000  0.89376000  0.24044000  1.0
  H  H12  1  0.79613000  0.15226000  0.86625000  1.0
  H  H13  1  0.84774000  0.20387000  0.63375000  1.0
  H  H14  1  0.20387000  0.84774000  0.13375000  1.0
  H  H15  1  0.15226000  0.79613000  0.36625000  1.0
  H  H16  1  0.84076000  0.23163000  0.92189000  1.0
  H  H17  1  0.76837000  0.15924000  0.57811000  1.0
  H  H18  1  0.15924000  0.76837000  0.07811000  1.0
  H  H19  1  0.23163000  0.84076000  0.42189000  1.0
  H  H20  1  0.83208000  0.31584000  0.08271000  1.0
  H  H21  1  0.68416000  0.16792000  0.41729000  1.0
  H  H22  1  0.16792000  0.68416000  0.91729000  1.0
  H  H23  1  0.31584000  0.83208000  0.58271000  1.0
  H  H24  1  0.76756000  0.24426000  0.15841000  1.0
  H  H25  1  0.75574000  0.23244000  0.34159000  1.0
  H  H26  1  0.23244000  0.75574000  0.84159000  1.0
  H  H27  1  0.24426000  0.76756000  0.65841000  1.0
  H  H28  1  0.85610000  0.37543000  0.24817000  1.0
  H  H29  1  0.62457000  0.14390000  0.25183000  1.0
  H  H30  1  0.14390000  0.62457000  0.75183000  1.0
  H  H31  1  0.37543000  0.85610000  0.74817000  1.0
  H  H32  1  0.91978000  0.44794000  0.17183000  1.0
  H  H33  1  0.55206000  0.08022000  0.32817000  1.0
  H  H34  1  0.08023000  0.55206000  0.82817000  1.0
  H  H35  1  0.44794000  0.91977000  0.67183000  1.0
  H  H36  1  0.79887000  0.83324000  0.05608000  1.0
  H  H37  1  0.16676000  0.20113000  0.44392000  1.0
  H  H38  1  0.20113000  0.16676000  0.94392000  1.0
  H  H39  1  0.83324000  0.79887000  0.55608000  1.0
  H  H40  1  0.63805000  0.96633000  0.04548000  1.0
  H  H41  1  0.03367000  0.36195000  0.45452000  1.0
  H  H42  1  0.36195000  0.03367000  0.95452000  1.0
  H  H43  1  0.96633000  0.63805000  0.54548000  1.0
  H  H44  1  0.58227000  0.80281000  0.95980000  1.0
  H  H45  1  0.19720000  0.41773000  0.54020000  1.0
  H  H46  1  0.41773000  0.19720000  0.04020000  1.0
  H  H47  1  0.80281000  0.58227000  0.45980000  1.0
  H  H48  1  0.74397000  0.67085000  0.96916000  1.0
  H  H49  1  0.32915000  0.25603000  0.53084000  1.0
  H  H50  1  0.25603000  0.32915000  0.03084000  1.0
  H  H51  1  0.67085000  0.74397000  0.46916000  1.0
  H  H52  1  0.64579000  0.71585000  0.88754000  1.0
  H  H53  1  0.28415000  0.35421000  0.61246000  1.0
  H  H54  1  0.35422000  0.28415000  0.11246000  1.0
  H  H55  1  0.71585000  0.64579000  0.38754000  1.0
  H  H56  1  0.65578000  0.71341000  0.82256000  1.0
  H  H57  1  0.28659000  0.34422000  0.67744000  1.0
  H  H58  1  0.34422000  0.28659000  0.17744000  1.0
  H  H59  1  0.71341000  0.65578000  0.32256000  1.0
  H  H60  1  0.71382000  0.76776000  0.84759000  1.0
  H  H61  1  0.23224000  0.28619000  0.65241000  1.0
  H  H62  1  0.28618000  0.23224000  0.15241000  1.0
  H  H63  1  0.76775000  0.71382000  0.34759000  1.0
  H  H64  1  0.86440000  0.67652000  0.79722000  1.0
  H  H65  1  0.32348000  0.13560000  0.70278000  1.0
  H  H66  1  0.13560000  0.32348000  0.20278000  1.0
  H  H67  1  0.67652000  0.86440000  0.29722000  1.0
  H  H68  1  0.82050000  0.60956000  0.77157000  1.0
  H  H69  1  0.39044000  0.17949000  0.72843000  1.0
  H  H70  1  0.17949000  0.39044000  0.22843000  1.0
  H  H71  1  0.60956000  0.82050000  0.27157000  1.0
  H  H72  1  0.92600000  0.54984000  0.80186000  1.0
  H  H73  1  0.45016000  0.07400000  0.69814000  1.0
  H  H74  1  0.07400000  0.45016000  0.19814000  1.0
  H  H75  1  0.54984000  0.92600000  0.30186000  1.0
  H  H76  1  0.59749000  0.53129000  0.94522000  1.0
  H  H77  1  0.46871000  0.40251000  0.55478000  1.0
  H  H78  1  0.40251000  0.46871000  0.05478000  1.0
  H  H79  1  0.53129000  0.59749000  0.44522000  1.0
  H  H80  1  0.60532000  0.41873000  0.97474000  1.0
  H  H81  1  0.58127000  0.39468000  0.52526000  1.0
  H  H82  1  0.39468000  0.58127000  0.02526000  1.0
  H  H83  1  0.41873000  0.60532000  0.47474000  1.0
  H  H84  1  0.69096000  0.42338000  0.92510000  1.0
  H  H85  1  0.57662000  0.30904000  0.57491000  1.0
  H  H86  1  0.30904000  0.57662000  0.07490000  1.0
  H  H87  1  0.42338000  0.69096000  0.42510000  1.0
  H  H88  1  0.66739000  0.53074000  0.07076000  1.0
  H  H89  1  0.46926000  0.33261000  0.42923000  1.0
  H  H90  1  0.33261000  0.46926000  0.92924000  1.0
  H  H91  1  0.53074000  0.66739000  0.57076000  1.0
  H  H92  1  0.59089000  0.48363000  0.06011000  1.0
  H  H93  1  0.51637000  0.40911000  0.43989000  1.0
  H  H94  1  0.40911000  0.51637000  0.93989000  1.0
  H  H95  1  0.48363000  0.59089000  0.56011000  1.0
  H  H96  1  0.58536000  0.59237000  0.02577000  1.0
  H  H97  1  0.40763000  0.41464000  0.47423000  1.0
  H  H98  1  0.41464000  0.40763000  0.97423000  1.0
  H  H99  1  0.59237000  0.58536000  0.52577000  1.0
  C  C100  1  0.90966000  0.35891000  0.89462000  1.0
  C  C101  1  0.64109000  0.09033000  0.60538000  1.0
  C  C102  1  0.09034000  0.64109000  0.10538000  1.0
  C  C103  1  0.35891000  0.90966000  0.39462000  1.0
  C  C104  1  0.89034000  0.30637000  0.86195000  1.0
  C  C105  1  0.69363000  0.10966000  0.63805000  1.0
  C  C106  1  0.10966000  0.69363000  0.13805000  1.0
  C  C107  1  0.30637000  0.89034000  0.36195000  1.0
  C  C108  1  0.90692000  0.32248000  0.81084000  1.0
  C  C109  1  0.67752000  0.09307000  0.68916000  1.0
  C  C110  1  0.09307000  0.67752000  0.18916000  1.0
  C  C111  1  0.32248000  0.90692000  0.31084000  1.0
  C  C112  1  0.88305000  0.27910000  0.78015000  1.0
  C  C113  1  0.72090000  0.11695000  0.71985000  1.0
  C  C114  1  0.11695000  0.72090000  0.21985000  1.0
  C  C115  1  0.27910000  0.88305000  0.28015000  1.0
  C  C116  1  0.84188000  0.21838000  0.80059000  1.0
  C  C117  1  0.78162000  0.15811000  0.69941000  1.0
  C  C118  1  0.15811000  0.78163000  0.19941000  1.0
  C  C119  1  0.21838000  0.84188000  0.30059000  1.0
  C  C120  1  0.82745000  0.20021000  0.85166000  1.0
  C  C121  1  0.79979000  0.17255000  0.64834000  1.0
  C  C122  1  0.17255000  0.79979000  0.14834000  1.0
  C  C123  1  0.20021000  0.82745000  0.35166000  1.0
  C  C124  1  0.85171000  0.24399000  0.88215000  1.0
  C  C125  1  0.75602000  0.14829000  0.61785000  1.0
  C  C126  1  0.14829000  0.75602000  0.11785000  1.0
  C  C127  1  0.24399000  0.85171000  0.38215000  1.0
  C  C128  1  0.91648000  0.43010000  0.07861000  1.0
  C  C129  1  0.56990000  0.08352000  0.42139000  1.0
  C  C130  1  0.08352000  0.56990000  0.92139000  1.0
  C  C131  1  0.43010000  0.91648000  0.57861000  1.0
  C  C132  1  0.87806000  0.38688000  0.12337000  1.0
  C  C133  1  0.61312000  0.12194000  0.37663000  1.0
  C  C134  1  0.12194000  0.61312000  0.87663000  1.0
  C  C135  1  0.38688000  0.87806000  0.62337000  1.0
  C  C136  1  0.83558000  0.32915000  0.11925000  1.0
  C  C137  1  0.67085000  0.16442000  0.38075000  1.0
  C  C138  1  0.16442000  0.67085000  0.88075000  1.0
  C  C139  1  0.32915000  0.83558000  0.61925000  1.0
  C  C140  1  0.80026000  0.28955000  0.16081000  1.0
  C  C141  1  0.71045000  0.19974000  0.33919000  1.0
  C  C142  1  0.19974000  0.71045000  0.83919000  1.0
  C  C143  1  0.28955000  0.80026000  0.66081000  1.0
  C  C144  1  0.80728000  0.30736000  0.20741000  1.0
  C  C145  1  0.69263000  0.19272000  0.29259000  1.0
  C  C146  1  0.19272000  0.69264000  0.79259000  1.0
  C  C147  1  0.30736000  0.80728000  0.70741000  1.0
  C  C148  1  0.85097000  0.36386000  0.21155000  1.0
  C  C149  1  0.63614000  0.14903000  0.28845000  1.0
  C  C150  1  0.14903000  0.63614000  0.78845000  1.0
  C  C151  1  0.36386000  0.85097000  0.71155000  1.0
  C  C152  1  0.88589000  0.40354000  0.16979000  1.0
  C  C153  1  0.59646000  0.11411000  0.33021000  1.0
  C  C154  1  0.11411000  0.59646000  0.83021000  1.0
  C  C155  1  0.40354000  0.88588000  0.66979000  1.0
  C  C156  1  0.87661000  0.66795000  0.01877000  1.0
  C  C157  1  0.33205000  0.12339000  0.48123000  1.0
  C  C158  1  0.12339000  0.33205000  0.98123000  1.0
  C  C159  1  0.66795000  0.87661000  0.51877000  1.0
  C  C160  1  0.78059000  0.74516000  0.01285000  1.0
  C  C161  1  0.25484000  0.21941000  0.48715000  1.0
  C  C162  1  0.21941000  0.25484000  0.98715000  1.0
  C  C163  1  0.74516000  0.78059000  0.51285000  1.0
  C  C164  1  0.75066000  0.82817000  0.03480000  1.0
  C  C165  1  0.17183000  0.24934000  0.46520000  1.0
  C  C166  1  0.24934000  0.17183000  0.96520000  1.0
  C  C167  1  0.82817000  0.75066000  0.53480000  1.0
  C  C168  1  0.66231000  0.90126000  0.02911000  1.0
  C  C169  1  0.09874000  0.33769000  0.47089000  1.0
  C  C170  1  0.33769000  0.09874000  0.97089000  1.0
  C  C171  1  0.90126000  0.66231000  0.52911000  1.0
  C  C172  1  0.60208000  0.89163000  0.00142000  1.0
  C  C173  1  0.10837000  0.39792000  0.49858000  1.0
  C  C174  1  0.39792000  0.10837000  0.99858000  1.0
  C  C175  1  0.89163000  0.60208000  0.50142000  1.0
  C  C176  1  0.63131000  0.80800000  0.98051000  1.0
  C  C177  1  0.19200000  0.36869000  0.51949000  1.0
  C  C178  1  0.36869000  0.19200000  0.01949000  1.0
  C  C179  1  0.80800000  0.63131000  0.48051000  1.0
  C  C180  1  0.72029000  0.73536000  0.98578000  1.0
  C  C181  1  0.26464000  0.27971000  0.51422000  1.0
  C  C182  1  0.27971000  0.26464000  0.01422000  1.0
  C  C183  1  0.73536000  0.72029000  0.48578000  1.0
  C  C184  1  0.69184000  0.71109000  0.85325000  1.0
  C  C185  1  0.28891000  0.30816000  0.64675000  1.0
  C  C186  1  0.30816000  0.28891000  0.14675000  1.0
  C  C187  1  0.71109000  0.69184000  0.35325000  1.0
  C  C188  1  0.85733000  0.61090000  0.80100000  1.0
  C  C189  1  0.38910000  0.14267000  0.69900000  1.0
  C  C190  1  0.14267000  0.38910000  0.19900000  1.0
  C  C191  1  0.61089000  0.85733000  0.30100000  1.0
  C  C192  1  0.64478000  0.45810000  0.95659000  1.0
  C  C193  1  0.54190000  0.35522000  0.54341000  1.0
  C  C194  1  0.35522000  0.54190000  0.04341000  1.0
  C  C195  1  0.45810000  0.64478000  0.45659000  1.0
  C  C196  1  0.63086000  0.52319000  0.04312000  1.0
  C  C197  1  0.47682000  0.36914000  0.45688000  1.0
  C  C198  1  0.36914000  0.47681000  0.95688000  1.0
  C  C199  1  0.52319000  0.63085000  0.54312000  1.0
  S  S200  1  0.79297000  0.59855000  0.85925000  1.0
  S  S201  1  0.40145000  0.20703000  0.64075000  1.0
  S  S202  1  0.20703000  0.40145000  0.14075000  1.0
  S  S203  1  0.59855000  0.79297000  0.35925000  1.0
  S  S204  1  0.72102000  0.45623000  0.99803000  1.0
  S  S205  1  0.54377000  0.27898000  0.50197000  1.0
  S  S206  1  0.27898000  0.54377000  0.00197000  1.0
  S  S207  1  0.45623000  0.72102000  0.49803000  1.0
  N  N208  1  0.80809000  0.17644000  0.77301000  1.0
  N  N209  1  0.82356000  0.19191000  0.72699000  1.0
  N  N210  1  0.19191000  0.82356000  0.22699000  1.0
  N  N211  1  0.17644000  0.80809000  0.27301000  1.0
  N  N212  1  0.77280000  0.27240000  0.25215000  1.0
  N  N213  1  0.72760000  0.22720000  0.24785000  1.0
  N  N214  1  0.22720000  0.72760000  0.74785000  1.0
  N  N215  1  0.27240000  0.77280000  0.75215000  1.0
  N  N216  1  0.51136000  0.96092000  0.99235000  1.0
  N  N217  1  0.03909000  0.48864000  0.50765000  1.0
  N  N218  1  0.48864000  0.03908000  0.00765000  1.0
  N  N219  1  0.96092000  0.51136000  0.49235000  1.0
  O  O220  1  0.94442000  0.41614000  0.87553000  1.0
  O  O221  1  0.58387000  0.05558000  0.62447000  1.0
  O  O222  1  0.05558000  0.58387000  0.12447000  1.0
  O  O223  1  0.41613000  0.94442000  0.37553000  1.0
  O  O224  1  0.88768000  0.34827000  0.94063000  1.0
  O  O225  1  0.65173000  0.11232000  0.55937000  1.0
  O  O226  1  0.11232000  0.65173000  0.05937000  1.0
  O  O227  1  0.34827000  0.88768000  0.44063000  1.0
  O  O228  1  0.90502000  0.41588000  0.03710000  1.0
  O  O229  1  0.58412000  0.09498000  0.46290000  1.0
  O  O230  1  0.09498000  0.58412000  0.96290000  1.0
  O  O231  1  0.41588000  0.90501000  0.53710000  1.0
  O  O232  1  0.95710000  0.47783000  0.08600000  1.0
  O  O233  1  0.52218000  0.04290000  0.41400000  1.0
  O  O234  1  0.04290000  0.52218000  0.91400000  1.0
  O  O235  1  0.47783000  0.95710000  0.58600000  1.0
  O  O236  1  0.90558000  0.59503000  0.99618000  1.0
  O  O237  1  0.40497000  0.09442000  0.50382000  1.0
  O  O238  1  0.09442000  0.40497000  0.00382000  1.0
  O  O239  1  0.59503000  0.90558000  0.49618000  1.0
  O  O240  1  0.92734000  0.67609000  0.04614000  1.0
  O  O241  1  0.32391000  0.07266000  0.45386000  1.0
  O  O242  1  0.07266000  0.32391000  0.95386000  1.0
  O  O243  1  0.67609000  0.92734000  0.54614000  1.0
  O  O244  1  0.84520000  0.60735000  0.89709000  1.0
  O  O245  1  0.39265000  0.15480000  0.60291000  1.0
  O  O246  1  0.15480000  0.39265000  0.10291000  1.0
  O  O247  1  0.60736000  0.84520000  0.39709000  1.0
  O  O248  1  0.76028000  0.52362000  0.97149000  1.0
  O  O249  1  0.47638000  0.23972000  0.52851000  1.0
  O  O250  1  0.23972000  0.47638000  0.02851000  1.0
  O  O251  1  0.52362000  0.76028000  0.47149000  1.0
