# generated using pymatgen
data_ErH8(C3O5)2
_symmetry_space_group_name_H-M   'P 1'
_cell_length_a   5.97953000
_cell_length_b   7.34522000
_cell_length_c   13.02100000
_cell_angle_alpha   104.62000000
_cell_angle_beta   101.37500000
_cell_angle_gamma   90.58460000
_symmetry_Int_Tables_number   1
_chemical_formula_structural   ErH8(C3O5)2
_chemical_formula_sum   'Er2 H16 C12 O20'
_cell_volume   541.42201185
_cell_formula_units_Z   2
loop_
 _symmetry_equiv_pos_site_id
 _symmetry_equiv_pos_as_xyz
  1  'x, y, z'
loop_
 _atom_site_type_symbol
 _atom_site_label
 _atom_site_symmetry_multiplicity
 _atom_site_fract_x
 _atom_site_fract_y
 _atom_site_fract_z
 _atom_site_occupancy
  Er  Er0  1  0.01780000  0.81997000  0.68229000  1.0
  Er  Er1  1  0.98470000  0.16024000  0.31477000  1.0
  H  H2  1  0.35279000  0.95685000  0.06195000  1.0
  H  H3  1  0.62343000  0.89360000  0.94475000  1.0
  H  H4  1  0.50706000  0.31907000  0.56468000  1.0
  H  H5  1  0.47558000  0.29873000  0.73790000  1.0
  H  H6  1  0.50894000  0.75860000  0.43595000  1.0
  H  H7  1  0.53562000  0.59414000  0.25907000  1.0
  H  H8  1  0.77207000  0.65530000  0.81892000  1.0
  H  H9  1  0.59607000  0.71274000  0.72377000  1.0
  H  H10  1  0.24588000  0.82283000  0.23862000  1.0
  H  H11  1  0.40490000  0.01637000  0.27254000  1.0
  H  H12  1  0.17449000  0.23947000  0.07882000  1.0
  H  H13  1  0.79443000  0.14717000  0.90640000  1.0
  H  H14  1  0.19823000  0.99256000  0.48670000  1.0
  H  H15  1  0.15639000  0.20292000  0.77100000  1.0
  H  H16  1  0.81761000  0.49910000  0.50808000  1.0
  H  H17  1  0.83821000  0.44198000  0.21970000  1.0
  C  C18  1  0.19893000  0.96034000  0.90158000  1.0
  C  C19  1  0.36377000  0.05089000  0.00866000  1.0
  C  C20  1  0.60903000  0.04226000  0.98765000  1.0
  C  C21  1  0.77505000  0.07558000  0.09691000  1.0
  C  C22  1  0.15778000  0.38479000  0.56745000  1.0
  C  C23  1  0.34709000  0.24536000  0.56616000  1.0
  C  C24  1  0.37870000  0.18353000  0.67259000  1.0
  C  C25  1  0.51269000  0.00580000  0.67016000  1.0
  C  C26  1  0.85826000  0.82353000  0.43244000  1.0
  C  C27  1  0.66646000  0.68344000  0.43170000  1.0
  C  C28  1  0.63046000  0.53250000  0.32211000  1.0
  C  C29  1  0.49205000  0.35630000  0.32279000  1.0
  O  O30  1  0.74809000  0.65909000  0.74353000  1.0
  O  O31  1  0.24647000  0.95587000  0.24094000  1.0
  O  O32  1  0.22267000  0.79044000  0.85383000  1.0
  O  O33  1  0.04340000  0.05428000  0.85843000  1.0
  O  O34  1  0.32456000  0.23893000  0.05804000  1.0
  O  O35  1  0.64260000  0.16738000  0.92500000  1.0
  O  O36  1  0.76360000  0.95816000  0.15221000  1.0
  O  O37  1  0.91901000  0.22070000  0.13355000  1.0
  O  O38  1  0.17797000  0.53083000  0.64402000  1.0
  O  O39  1  0.98446000  0.34065000  0.48790000  1.0
  O  O40  1  0.29103000  0.09401000  0.47013000  1.0
  O  O41  1  0.15791000  0.14942000  0.69403000  1.0
  O  O42  1  0.40935000  0.86507000  0.68525000  1.0
  O  O43  1  0.71419000  0.00921000  0.65498000  1.0
  O  O44  1  0.03602000  0.84265000  0.50852000  1.0
  O  O45  1  0.83416000  0.90825000  0.35890000  1.0
  O  O46  1  0.72001000  0.61169000  0.52481000  1.0
  O  O47  1  0.84919000  0.48253000  0.29890000  1.0
  O  O48  1  0.59691000  0.20505000  0.31549000  1.0
  O  O49  1  0.28577000  0.37129000  0.33019000  1.0
