# generated using pymatgen
data_AgH12C11S(NO)3
_symmetry_space_group_name_H-M   'P 1'
_cell_length_a   6.78819000
_cell_length_b   10.36248294
_cell_length_c   10.36259790
_cell_angle_alpha   104.49083954
_cell_angle_beta   103.99727168
_cell_angle_gamma   103.99643012
_symmetry_Int_Tables_number   1
_chemical_formula_structural   AgH12C11S(NO)3
_chemical_formula_sum   'Ag2 H24 C22 S2 N6 O6'
_cell_volume   648.34310613
_cell_formula_units_Z   2
loop_
 _symmetry_equiv_pos_site_id
 _symmetry_equiv_pos_as_xyz
  1  'x, y, z'
loop_
 _atom_site_type_symbol
 _atom_site_label
 _atom_site_symmetry_multiplicity
 _atom_site_fract_x
 _atom_site_fract_y
 _atom_site_fract_z
 _atom_site_occupancy
  Ag  Ag0  1  0.67352000  0.12676000  0.74336000  1.0
  Ag  Ag1  1  0.32652000  0.25661000  0.87324000  1.0
  H  H2  1  0.52022000  0.74611000  0.94664000  1.0
  H  H3  1  0.47971000  0.05336000  0.25390000  1.0
  H  H4  1  0.47181000  0.60521000  0.00524000  1.0
  H  H5  1  0.52816000  0.99478000  0.39478000  1.0
  H  H6  1  0.79962000  0.97207000  0.09514000  1.0
  H  H7  1  0.20031000  0.90489000  0.02796000  1.0
  H  H8  1  0.04718000  0.11667000  0.33268000  1.0
  H  H9  1  0.95278000  0.66734000  0.88337000  1.0
  H  H10  1  0.88957000  0.75914000  0.47652000  1.0
  H  H11  1  0.11052000  0.52343000  0.24087000  1.0
  H  H12  1  0.64807000  0.61522000  0.24009000  1.0
  H  H13  1  0.35196000  0.75989000  0.38476000  1.0
  H  H14  1  0.73863000  0.86422000  0.74349000  1.0
  H  H15  1  0.26130000  0.25635000  0.13594000  1.0
  H  H16  1  0.65872000  0.67932000  0.66709000  1.0
  H  H17  1  0.34144000  0.33316000  0.32077000  1.0
  H  H18  1  0.62977000  0.78648000  0.55954000  1.0
  H  H19  1  0.37007000  0.44033000  0.21323000  1.0
  H  H20  1  0.22953000  0.43677000  0.58050000  1.0
  H  H21  1  0.77049000  0.41954000  0.56323000  1.0
  H  H22  1  0.43234000  0.51859000  0.74583000  1.0
  H  H23  1  0.56767000  0.25422000  0.48145000  1.0
  H  H24  1  0.15637000  0.45947000  0.73567000  1.0
  H  H25  1  0.84367000  0.26437000  0.54056000  1.0
  C  C26  1  0.70445000  0.78265000  0.14984000  1.0
  C  C27  1  0.29558000  0.85018000  0.21737000  1.0
  C  C28  1  0.81951000  0.92542000  0.17904000  1.0
  C  C29  1  0.18049000  0.82098000  0.07461000  1.0
  C  C30  1  0.95993000  0.00699000  0.31224000  1.0
  C  C31  1  0.04007000  0.68774000  0.99303000  1.0
  C  C32  1  0.98573000  0.94843000  0.42113000  1.0
  C  C33  1  0.01424000  0.57883000  0.05156000  1.0
  C  C34  1  0.87097000  0.80681000  0.39425000  1.0
  C  C35  1  0.12901000  0.60571000  0.19320000  1.0
  C  C36  1  0.73385000  0.72546000  0.26045000  1.0
  C  C37  1  0.26617000  0.73954000  0.27453000  1.0
  C  C38  1  0.28958000  0.85832000  0.66192000  1.0
  C  C39  1  0.71046000  0.33806000  0.14170000  1.0
  C  C40  1  0.39575000  0.76061000  0.66804000  1.0
  C  C41  1  0.60426000  0.33196000  0.23941000  1.0
  C  C42  1  0.24649000  0.64755000  0.68453000  1.0
  C  C43  1  0.75346000  0.31545000  0.35243000  1.0
  C  C44  1  0.61460000  0.77270000  0.65884000  1.0
  C  C45  1  0.38538000  0.34115000  0.22729000  1.0
  C  C46  1  0.26833000  0.50863000  0.68775000  1.0
  C  C47  1  0.73168000  0.31229000  0.49136000  1.0
  S  S48  1  0.17410000  0.05928000  0.58469000  1.0
  S  S49  1  0.82596000  0.41533000  0.94072000  1.0
  N  N50  1  0.57334000  0.70007000  0.01745000  1.0
  N  N51  1  0.42665000  0.98256000  0.29994000  1.0
  N  N52  1  0.34908000  0.98378000  0.63688000  1.0
  N  N53  1  0.65093000  0.36308000  0.01623000  1.0
  N  N54  1  0.06767000  0.67445000  0.69217000  1.0
  N  N55  1  0.93229000  0.30782000  0.32555000  1.0
  O  O56  1  0.29364000  0.18576000  0.56617000  1.0
  O  O57  1  0.70638000  0.43382000  0.81423000  1.0
  O  O58  1  0.05630000  0.08774000  0.68893000  1.0
  O  O59  1  0.94374000  0.31107000  0.91225000  1.0
  O  O60  1  0.09726000  0.81236000  0.68263000  1.0
  O  O61  1  0.90277000  0.31734000  0.18765000  1.0
