# generated using pymatgen
data_CoH28C29(NO)4
_symmetry_space_group_name_H-M   'P 1'
_cell_length_a   10.24740000
_cell_length_b   11.62960000
_cell_length_c   12.68610000
_cell_angle_alpha   65.26910000
_cell_angle_beta   83.74500000
_cell_angle_gamma   70.01470000
_symmetry_Int_Tables_number   1
_chemical_formula_structural   CoH28C29(NO)4
_chemical_formula_sum   'Co2 H56 C58 N8 O8'
_cell_volume   1289.46198132
_cell_formula_units_Z   2
loop_
 _symmetry_equiv_pos_site_id
 _symmetry_equiv_pos_as_xyz
  1  'x, y, z'
loop_
 _atom_site_type_symbol
 _atom_site_label
 _atom_site_symmetry_multiplicity
 _atom_site_fract_x
 _atom_site_fract_y
 _atom_site_fract_z
 _atom_site_occupancy
  Co  Co0  1  0.64245000  0.63338000  0.61190000  1.0
  Co  Co1  1  0.35755000  0.36662000  0.38810000  1.0
  H  H2  1  0.91841000  0.78098000  0.87424000  1.0
  H  H3  1  0.08159000  0.21902000  0.12576000  1.0
  H  H4  1  0.90609000  0.96863000  0.97502000  1.0
  H  H5  1  0.09392000  0.03137000  0.02498000  1.0
  H  H6  1  0.92453000  0.11434000  0.85740000  1.0
  H  H7  1  0.07547000  0.88566000  0.14260000  1.0
  H  H8  1  0.04068000  0.95275000  0.87723000  1.0
  H  H9  1  0.95932000  0.04725000  0.12276000  1.0
  H  H10  1  0.73303000  0.21176000  0.72506000  1.0
  H  H11  1  0.26697000  0.78824000  0.27494000  1.0
  H  H12  1  0.58969000  0.97438000  0.61189000  1.0
  H  H13  1  0.41031000  0.02562000  0.38811000  1.0
  H  H14  1  0.43906000  0.84479000  0.70809000  1.0
  H  H15  1  0.56094000  0.15521000  0.29191000  1.0
  H  H16  1  0.28209000  0.91900000  0.84900000  1.0
  H  H17  1  0.71792000  0.08100000  0.15100000  1.0
  H  H18  1  0.18942000  0.76015000  0.01196000  1.0
  H  H19  1  0.81058000  0.23985000  0.98804000  1.0
  H  H20  1  0.24334000  0.52399000  0.03689000  1.0
  H  H21  1  0.75666000  0.47601000  0.96311000  1.0
  H  H22  1  0.55395000  0.37357000  0.74786000  1.0
  H  H23  1  0.44604000  0.62643000  0.25214000  1.0
  H  H24  1  0.28218000  0.32777000  0.94629000  1.0
  H  H25  1  0.71781000  0.67222000  0.05371000  1.0
  H  H26  1  0.41793000  0.29176000  0.04110000  1.0
  H  H27  1  0.58206000  0.70824000  0.95890000  1.0
  H  H28  1  0.45731000  0.20892000  0.83574000  1.0
  H  H29  1  0.54269000  0.79108000  0.16427000  1.0
  H  H30  1  0.59098000  0.17705000  0.93088000  1.0
  H  H31  1  0.40902000  0.82296000  0.06912000  1.0
  H  H32  1  0.34363000  0.07215000  0.00157000  1.0
  H  H33  1  0.65637000  0.92785000  0.99843000  1.0
  H  H34  1  0.46933000  0.04653000  0.09989000  1.0
  H  H35  1  0.53067000  0.95347000  0.90011000  1.0
  H  H36  1  0.91806000  0.44511000  0.78712000  1.0
  H  H37  1  0.08194000  0.55489000  0.21288000  1.0
  H  H38  1  0.16138000  0.28641000  0.84310000  1.0
  H  H39  1  0.83862000  0.71359000  0.15690000  1.0
  H  H40  1  0.28931000  0.16597000  0.72183000  1.0
  H  H41  1  0.71069000  0.83403000  0.27817000  1.0
  H  H42  1  0.17664000  0.18906000  0.54746000  1.0
  H  H43  1  0.82336000  0.81095000  0.45254000  1.0
  H  H44  1  0.67836000  0.50177000  0.43706000  1.0
  H  H45  1  0.32163000  0.49823000  0.56294000  1.0
  H  H46  1  0.01803000  0.32203000  0.35654000  1.0
  H  H47  1  0.98197000  0.67797000  0.64347000  1.0
  H  H48  1  0.84014000  0.40314000  0.31451000  1.0
  H  H49  1  0.15986000  0.59686000  0.68549000  1.0
  H  H50  1  0.89971000  0.18019000  0.32717000  1.0
  H  H51  1  0.10029000  0.81981000  0.67283000  1.0
  H  H52  1  0.79058000  0.18962000  0.44268000  1.0
  H  H53  1  0.20942000  0.81037000  0.55732000  1.0
  H  H54  1  0.10945000  0.07046000  0.46707000  1.0
  H  H55  1  0.89055000  0.92954000  0.53293000  1.0
  H  H56  1  0.99533000  0.06652000  0.58268000  1.0
  H  H57  1  0.00468000  0.93348000  0.41732000  1.0
  C  C58  1  0.76638000  0.73048000  0.74721000  1.0
  C  C59  1  0.23362000  0.26951000  0.25279000  1.0
  C  C60  1  0.75514000  0.86416000  0.74421000  1.0
  C  C61  1  0.24486000  0.13584000  0.25579000  1.0
  C  C62  1  0.84344000  0.87317000  0.81503000  1.0
  C  C63  1  0.15656000  0.12684000  0.18497000  1.0
  C  C64  1  0.83756000  0.99827000  0.80847000  1.0
  C  C65  1  0.16244000  0.00173000  0.19153000  1.0
  C  C66  1  0.93208000  0.00959000  0.88314000  1.0
  C  C67  1  0.06792000  0.99041000  0.11686000  1.0
  C  C68  1  0.73888000  0.11317000  0.73264000  1.0
  C  C69  1  0.26113000  0.88683000  0.26736000  1.0
  C  C70  1  0.64661000  0.10534000  0.66431000  1.0
  C  C71  1  0.35339000  0.89466000  0.33569000  1.0
  C  C72  1  0.53901000  0.23118000  0.58750000  1.0
  C  C73  1  0.46099000  0.76882000  0.41250000  1.0
  C  C74  1  0.65708000  0.98067000  0.66843000  1.0
  C  C75  1  0.34292000  0.01933000  0.33156000  1.0
  C  C76  1  0.42946000  0.64274000  0.79464000  1.0
  C  C77  1  0.57054000  0.35726000  0.20536000  1.0
  C  C78  1  0.39737000  0.77586000  0.77936000  1.0
  C  C79  1  0.60264000  0.22414000  0.22064000  1.0
  C  C80  1  0.30982000  0.81566000  0.85871000  1.0
  C  C81  1  0.69019000  0.18434000  0.14129000  1.0
  C  C82  1  0.25622000  0.72565000  0.95077000  1.0
  C  C83  1  0.74378000  0.27435000  0.04922000  1.0
  C  C84  1  0.28520000  0.59341000  0.96589000  1.0
  C  C85  1  0.71480000  0.40659000  0.03411000  1.0
  C  C86  1  0.37197000  0.55456000  0.88550000  1.0
  C  C87  1  0.62803000  0.44544000  0.11450000  1.0
  C  C88  1  0.50539000  0.44949000  0.78163000  1.0
  C  C89  1  0.49461000  0.55051000  0.21837000  1.0
  C  C90  1  0.39433000  0.30991000  0.95196000  1.0
  C  C91  1  0.60567000  0.69009000  0.04805000  1.0
  C  C92  1  0.47991000  0.19013000  0.92551000  1.0
  C  C93  1  0.52009000  0.80987000  0.07450000  1.0
  C  C94  1  0.45350000  0.06153000  0.00987000  1.0
  C  C95  1  0.54650000  0.93847000  0.99013000  1.0
  C  C96  1  0.90963000  0.39972000  0.63881000  1.0
  C  C97  1  0.09038000  0.60028000  0.36119000  1.0
  C  C98  1  0.97263000  0.38650000  0.73757000  1.0
  C  C99  1  0.02737000  0.61350000  0.26243000  1.0
  C  C100  1  0.10889000  0.29935000  0.76665000  1.0
  C  C101  1  0.89111000  0.70065000  0.23335000  1.0
  C  C102  1  0.18113000  0.22928000  0.69891000  1.0
  C  C103  1  0.81887000  0.77073000  0.30109000  1.0
  C  C104  1  0.11903000  0.24122000  0.60070000  1.0
  C  C105  1  0.88097000  0.75878000  0.39930000  1.0
  C  C106  1  0.98143000  0.32598000  0.57281000  1.0
  C  C107  1  0.01857000  0.67402000  0.42719000  1.0
  C  C108  1  0.77007000  0.45415000  0.49487000  1.0
  C  C109  1  0.22992000  0.54585000  0.50513000  1.0
  C  C110  1  0.91303000  0.32253000  0.38523000  1.0
  C  C111  1  0.08697000  0.67747000  0.61477000  1.0
  C  C112  1  0.89539000  0.18815000  0.41118000  1.0
  C  C113  1  0.10461000  0.81185000  0.58882000  1.0
  C  C114  1  0.00529000  0.06569000  0.49568000  1.0
  C  C115  1  0.99471000  0.93431000  0.50432000  1.0
  N  N116  1  0.51359000  0.57292000  0.73221000  1.0
  N  N117  1  0.48641000  0.42708000  0.26779000  1.0
  N  N118  1  0.42194000  0.43320000  0.87397000  1.0
  N  N119  1  0.57806000  0.56680000  0.12603000  1.0
  N  N120  1  0.77801000  0.48024000  0.58635000  1.0
  N  N121  1  0.22199000  0.51976000  0.41365000  1.0
  N  N122  1  0.88854000  0.36284000  0.48267000  1.0
  N  N123  1  0.11146000  0.63716000  0.51733000  1.0
  O  O124  1  0.71883000  0.74000000  0.65182000  1.0
  O  O125  1  0.28117000  0.26000000  0.34818000  1.0
  O  O126  1  0.81959000  0.62449000  0.83365000  1.0
  O  O127  1  0.18041000  0.37551000  0.16635000  1.0
  O  O128  1  0.46737000  0.21596000  0.51883000  1.0
  O  O129  1  0.53263000  0.78404000  0.48117000  1.0
  O  O130  1  0.52299000  0.34031000  0.59290000  1.0
  O  O131  1  0.47702000  0.65969000  0.40710000  1.0
