# generated using pymatgen
data_CdPH30C26N11O8
_symmetry_space_group_name_H-M   'P 1'
_cell_length_a   9.23804000
_cell_length_b   14.62470000
_cell_length_c   15.02320000
_cell_angle_alpha   115.90400000
_cell_angle_beta   101.56900000
_cell_angle_gamma   92.28900000
_symmetry_Int_Tables_number   1
_chemical_formula_structural   CdPH30C26N11O8
_chemical_formula_sum   'Cd2 P2 H60 C52 N22 O16'
_cell_volume   1769.83219537
_cell_formula_units_Z   2
loop_
 _symmetry_equiv_pos_site_id
 _symmetry_equiv_pos_as_xyz
  1  'x, y, z'
loop_
 _atom_site_type_symbol
 _atom_site_label
 _atom_site_symmetry_multiplicity
 _atom_site_fract_x
 _atom_site_fract_y
 _atom_site_fract_z
 _atom_site_occupancy
  Cd  Cd0  1  0.71904000  0.23547000  0.49128000  1.0
  Cd  Cd1  1  0.28095000  0.76453000  0.50872000  1.0
  P  P2  1  0.77047000  0.30732000  0.03228000  1.0
  P  P3  1  0.22954000  0.69268000  0.96772000  1.0
  H  H4  1  0.13707000  0.18131000  0.93869000  1.0
  H  H5  1  0.86293000  0.81870000  0.06130000  1.0
  H  H6  1  0.17554000  0.27773000  0.90094000  1.0
  H  H7  1  0.82448000  0.72228000  0.09906000  1.0
  H  H8  1  0.23218000  0.30580000  0.03155000  1.0
  H  H9  1  0.76782000  0.69420000  0.96844000  1.0
  H  H10  1  0.40054000  0.09586000  0.80179000  1.0
  H  H11  1  0.59946000  0.90414000  0.19821000  1.0
  H  H12  1  0.24711000  0.06253000  0.84242000  1.0
  H  H13  1  0.75289000  0.93747000  0.15758000  1.0
  H  H14  1  0.43548000  0.06561000  0.90571000  1.0
  H  H15  1  0.56452000  0.93439000  0.09429000  1.0
  H  H16  1  0.42235000  0.62559000  0.13200000  1.0
  H  H17  1  0.57765000  0.37441000  0.86800000  1.0
  H  H18  1  0.43247000  0.60646000  0.24237000  1.0
  H  H19  1  0.56754000  0.39354000  0.75763000  1.0
  H  H20  1  0.35602000  0.50200000  0.11783000  1.0
  H  H21  1  0.64399000  0.49800000  0.88217000  1.0
  H  H22  1  0.81473000  0.59556000  0.19889000  1.0
  H  H23  1  0.18527000  0.40444000  0.80110000  1.0
  H  H24  1  0.72135000  0.64827000  0.29959000  1.0
  H  H25  1  0.27866000  0.35173000  0.70040000  1.0
  H  H26  1  0.69135000  0.68775000  0.20145000  1.0
  H  H27  1  0.30865000  0.31224000  0.79854000  1.0
  H  H28  1  0.74086000  0.10078000  0.09691000  1.0
  H  H29  1  0.25914000  0.89922000  0.90310000  1.0
  H  H30  1  0.67710000  0.10017000  0.25270000  1.0
  H  H31  1  0.32289000  0.89984000  0.74731000  1.0
  H  H32  1  0.85992000  0.40607000  0.43147000  1.0
  H  H33  1  0.14008000  0.59394000  0.56854000  1.0
  H  H34  1  0.92113000  0.42133000  0.28452000  1.0
  H  H35  1  0.07888000  0.57867000  0.71549000  1.0
  H  H36  1  0.64736000  0.12266000  0.62599000  1.0
  H  H37  1  0.35264000  0.87734000  0.37400000  1.0
  H  H38  1  0.70538000  0.13927000  0.80239000  1.0
  H  H39  1  0.29462000  0.86072000  0.19761000  1.0
  H  H40  1  0.98189000  0.42797000  0.89997000  1.0
  H  H41  1  0.01810000  0.57203000  0.10003000  1.0
  H  H42  1  0.91737000  0.39650000  0.71768000  1.0
  H  H43  1  0.08263000  0.60350000  0.28232000  1.0
  H  H44  1  0.42991000  0.33654000  0.53223000  1.0
  H  H45  1  0.57009000  0.66346000  0.46778000  1.0
  H  H46  1  0.34165000  0.50296000  0.61889000  1.0
  H  H47  1  0.65836000  0.49705000  0.38110000  1.0
  H  H48  1  0.52674000  0.66699000  0.69937000  1.0
  H  H49  1  0.47326000  0.33301000  0.30063000  1.0
  H  H50  1  0.79244000  0.65202000  0.68552000  1.0
  H  H51  1  0.20756000  0.34798000  0.31449000  1.0
  H  H52  1  0.86406000  0.47698000  0.59790000  1.0
  H  H53  1  0.13594000  0.52302000  0.40212000  1.0
  H  H54  1  0.62089000  0.00267000  0.45635000  1.0
  H  H55  1  0.37910000  0.99733000  0.54364000  1.0
  H  H56  1  0.71335000  0.83505000  0.40642000  1.0
  H  H57  1  0.28664000  0.16494000  0.59357000  1.0
  H  H58  1  0.94734000  0.81039000  0.34113000  1.0
  H  H59  1  0.05266000  0.18960000  0.65887000  1.0
  H  H60  1  0.08054000  0.96149000  0.33449000  1.0
  H  H61  1  0.91947000  0.03851000  0.66552000  1.0
  H  H62  1  0.97994000  0.12651000  0.39595000  1.0
  H  H63  1  0.02007000  0.87348000  0.60404000  1.0
  C  C64  1  0.49194000  0.27428000  0.98785000  1.0
  C  C65  1  0.50807000  0.72572000  0.01214000  1.0
  C  C66  1  0.60737000  0.44189000  0.09894000  1.0
  C  C67  1  0.39264000  0.55811000  0.90106000  1.0
  C  C68  1  0.21896000  0.24570000  0.95342000  1.0
  C  C69  1  0.78105000  0.75431000  0.04657000  1.0
  C  C70  1  0.36161000  0.10261000  0.86870000  1.0
  C  C71  1  0.63839000  0.89739000  0.13130000  1.0
  C  C72  1  0.44066000  0.56979000  0.16249000  1.0
  C  C73  1  0.55935000  0.43021000  0.83751000  1.0
  C  C74  1  0.71109000  0.62217000  0.21757000  1.0
  C  C75  1  0.28892000  0.37783000  0.78242000  1.0
  C  C76  1  0.83917000  0.26072000  0.18132000  1.0
  C  C77  1  0.16083000  0.73929000  0.81868000  1.0
  C  C78  1  0.76886000  0.16900000  0.17051000  1.0
  C  C79  1  0.23114000  0.83101000  0.82950000  1.0
  C  C80  1  0.73507000  0.16851000  0.25645000  1.0
  C  C81  1  0.26493000  0.83150000  0.74355000  1.0
  C  C82  1  0.83472000  0.33956000  0.35681000  1.0
  C  C83  1  0.16529000  0.66045000  0.64319000  1.0
  C  C84  1  0.87115000  0.34812000  0.27502000  1.0
  C  C85  1  0.12884000  0.65188000  0.72499000  1.0
  C  C86  1  0.72060000  0.18944000  0.68850000  1.0
  C  C87  1  0.27939000  0.81055000  0.31149000  1.0
  C  C88  1  0.75197000  0.19864000  0.78682000  1.0
  C  C89  1  0.24802000  0.80134000  0.21318000  1.0
  C  C90  1  0.84574000  0.28618000  0.86393000  1.0
  C  C91  1  0.15426000  0.71381000  0.13607000  1.0
  C  C92  1  0.90692000  0.35970000  0.84102000  1.0
  C  C93  1  0.09308000  0.64029000  0.15898000  1.0
  C  C94  1  0.87017000  0.34263000  0.74009000  1.0
  C  C95  1  0.12983000  0.65736000  0.25991000  1.0
  C  C96  1  0.50789000  0.40792000  0.56892000  1.0
  C  C97  1  0.49212000  0.59208000  0.43108000  1.0
  C  C98  1  0.45928000  0.50214000  0.61824000  1.0
  C  C99  1  0.54071000  0.49787000  0.38175000  1.0
  C  C100  1  0.56176000  0.59184000  0.66215000  1.0
  C  C101  1  0.43824000  0.40817000  0.33784000  1.0
  C  C102  1  0.70962000  0.58400000  0.65522000  1.0
  C  C103  1  0.29039000  0.41600000  0.34479000  1.0
  C  C104  1  0.74981000  0.48691000  0.60545000  1.0
  C  C105  1  0.25019000  0.51309000  0.39456000  1.0
  C  C106  1  0.72152000  0.99003000  0.42786000  1.0
  C  C107  1  0.27848000  0.00997000  0.57213000  1.0
  C  C108  1  0.77295000  0.89547000  0.39808000  1.0
  C  C109  1  0.22704000  0.10452000  0.60191000  1.0
  C  C110  1  0.90276000  0.88288000  0.36252000  1.0
  C  C111  1  0.09724000  0.11713000  0.63748000  1.0
  C  C112  1  0.97694000  0.96578000  0.35912000  1.0
  C  C113  1  0.02306000  0.03421000  0.64088000  1.0
  C  C114  1  0.92027000  0.05876000  0.39261000  1.0
  C  C115  1  0.07973000  0.94123000  0.60738000  1.0
  N  N116  1  0.75134000  0.42354000  0.09909000  1.0
  N  N117  1  0.24866000  0.57646000  0.90091000  1.0
  N  N118  1  0.61827000  0.23080000  0.97038000  1.0
  N  N119  1  0.38173000  0.76920000  0.02963000  1.0
  N  N120  1  0.48189000  0.37308000  0.04682000  1.0
  N  N121  1  0.51811000  0.62692000  0.95318000  1.0
  N  N122  1  0.58759000  0.53990000  0.15732000  1.0
  N  N123  1  0.41241000  0.46010000  0.84267000  1.0
  N  N124  1  0.36102000  0.20913000  0.93964000  1.0
  N  N125  1  0.63898000  0.79087000  0.06037000  1.0
  N  N126  1  0.76877000  0.25160000  0.34831000  1.0
  N  N127  1  0.23123000  0.74841000  0.65170000  1.0
  N  N128  1  0.77819000  0.25943000  0.66487000  1.0
  N  N129  1  0.22181000  0.74057000  0.33513000  1.0
  N  N130  1  0.65080000  0.40015000  0.56300000  1.0
  N  N131  1  0.34920000  0.59985000  0.43701000  1.0
  N  N132  1  0.79373000  0.07075000  0.42570000  1.0
  N  N133  1  0.20626000  0.92924000  0.57429000  1.0
  N  N134  1  0.41863000  0.11370000  0.39544000  1.0
  N  N135  1  0.58137000  0.88630000  0.60456000  1.0
  N  N136  1  0.08607000  0.33575000  0.52883000  1.0
  N  N137  1  0.91392000  0.66426000  0.47118000  1.0
  O  O138  1  0.88024000  0.26387000  0.09871000  1.0
  O  O139  1  0.11976000  0.73613000  0.90130000  1.0
  O  O140  1  0.88686000  0.29991000  0.96296000  1.0
  O  O141  1  0.11314000  0.70007000  0.03703000  1.0
  O  O142  1  0.99409000  0.29458000  0.55955000  1.0
  O  O143  1  0.00590000  0.70543000  0.44047000  1.0
  O  O144  1  0.16316000  0.28089000  0.47173000  1.0
  O  O145  1  0.83681000  0.71911000  0.52826000  1.0
  O  O146  1  0.09710000  0.43167000  0.55804000  1.0
  O  O147  1  0.90291000  0.56834000  0.44199000  1.0
  O  O148  1  0.47370000  0.15320000  0.34686000  1.0
  O  O149  1  0.52630000  0.84681000  0.65314000  1.0
  O  O150  1  0.30809000  0.04527000  0.35351000  1.0
  O  O151  1  0.69191000  0.95473000  0.64649000  1.0
  O  O152  1  0.48323000  0.14585000  0.49082000  1.0
  O  O153  1  0.51677000  0.85415000  0.50918000  1.0
