# generated using pymatgen
data_Cr2NiH16C12N4O7
_symmetry_space_group_name_H-M   'P 1'
_cell_length_a   8.47130000
_cell_length_b   9.22864000
_cell_length_c   10.42590000
_cell_angle_alpha   90.00220000
_cell_angle_beta   82.84380000
_cell_angle_gamma   89.99880000
_symmetry_Int_Tables_number   1
_chemical_formula_structural   Cr2NiH16C12N4O7
_chemical_formula_sum   'Cr4 Ni2 H32 C24 N8 O14'
_cell_volume   808.73272848
_cell_formula_units_Z   2
loop_
 _symmetry_equiv_pos_site_id
 _symmetry_equiv_pos_as_xyz
  1  'x, y, z'
loop_
 _atom_site_type_symbol
 _atom_site_label
 _atom_site_symmetry_multiplicity
 _atom_site_fract_x
 _atom_site_fract_y
 _atom_site_fract_z
 _atom_site_occupancy
  Cr  Cr0  1  0.85215000  0.34238000  0.77358000  1.0
  Cr  Cr1  1  0.14786000  0.84234000  0.22642000  1.0
  Cr  Cr2  1  0.14973000  0.56768000  0.74408000  1.0
  Cr  Cr3  1  0.85028000  0.06770000  0.25594000  1.0
  Ni  Ni4  1  0.01155000  0.95189000  0.74467000  1.0
  Ni  Ni5  1  0.98845000  0.45188000  0.25533000  1.0
  H  H6  1  0.52187000  0.68463000  0.69556000  1.0
  H  H7  1  0.47815000  0.18465000  0.30444000  1.0
  H  H8  1  0.37036000  0.75341000  0.90864000  1.0
  H  H9  1  0.62965000  0.25341000  0.09135000  1.0
  H  H10  1  0.50588000  0.91598000  0.05727000  1.0
  H  H11  1  0.49411000  0.41598000  0.94274000  1.0
  H  H12  1  0.77579000  0.99997000  0.98813000  1.0
  H  H13  1  0.22419000  0.49995000  0.01188000  1.0
  H  H14  1  0.75212000  0.79367000  0.51967000  1.0
  H  H15  1  0.24786000  0.29369000  0.48034000  1.0
  H  H16  1  0.86010000  0.66455000  0.59948000  1.0
  H  H17  1  0.13991000  0.16456000  0.40052000  1.0
  H  H18  1  0.50305000  0.21501000  0.80068000  1.0
  H  H19  1  0.49694000  0.71502000  0.19933000  1.0
  H  H20  1  0.65959000  0.14023000  0.59075000  1.0
  H  H21  1  0.34041000  0.64022000  0.40925000  1.0
  H  H22  1  0.52591000  0.97857000  0.44085000  1.0
  H  H23  1  0.47410000  0.47857000  0.55914000  1.0
  H  H24  1  0.25213000  0.90033000  0.50501000  1.0
  H  H25  1  0.74789000  0.40036000  0.49497000  1.0
  H  H26  1  0.16849000  0.25030000  0.88701000  1.0
  H  H27  1  0.83154000  0.75030000  0.11300000  1.0
  H  H28  1  0.25989000  0.11368000  0.97125000  1.0
  H  H29  1  0.74012000  0.61370000  0.02875000  1.0
  H  H30  1  0.05460000  0.80867000  0.53819000  1.0
  H  H31  1  0.94538000  0.30866000  0.46179000  1.0
  H  H32  1  0.94514000  0.95746000  0.52468000  1.0
  H  H33  1  0.05482000  0.45746000  0.47533000  1.0
  H  H34  1  0.04175000  0.98100000  0.97807000  1.0
  H  H35  1  0.95824000  0.48098000  0.02194000  1.0
  H  H36  1  0.95050000  0.12118000  0.91865000  1.0
  H  H37  1  0.04950000  0.62115000  0.08136000  1.0
  C  C38  1  0.72605000  0.81123000  0.72669000  1.0
  C  C39  1  0.27395000  0.31123000  0.27332000  1.0
  C  C40  1  0.57372000  0.75668000  0.76147000  1.0
  C  C41  1  0.42628000  0.25669000  0.23853000  1.0
  C  C42  1  0.49062000  0.79316000  0.88050000  1.0
  C  C43  1  0.50938000  0.29316000  0.11951000  1.0
  C  C44  1  0.56428000  0.88339000  0.96254000  1.0
  C  C45  1  0.43572000  0.38338000  0.03747000  1.0
  C  C46  1  0.71780000  0.93167000  0.92370000  1.0
  C  C47  1  0.28219000  0.43166000  0.07630000  1.0
  C  C48  1  0.82180000  0.77832000  0.60085000  1.0
  C  C49  1  0.17819000  0.27833000  0.39915000  1.0
  C  C50  1  0.29577000  0.09462000  0.76479000  1.0
  C  C51  1  0.70424000  0.59463000  0.23521000  1.0
  C  C52  1  0.45102000  0.14453000  0.73351000  1.0
  C  C53  1  0.54898000  0.64454000  0.26649000  1.0
  C  C54  1  0.53742000  0.10365000  0.61692000  1.0
  C  C55  1  0.46258000  0.60365000  0.38308000  1.0
  C  C56  1  0.46488000  0.01327000  0.53414000  1.0
  C  C57  1  0.53511000  0.51327000  0.46585000  1.0
  C  C58  1  0.30944000  0.96810000  0.57059000  1.0
  C  C59  1  0.69057000  0.46811000  0.42939000  1.0
  C  C60  1  0.19566000  0.13378000  0.88769000  1.0
  C  C61  1  0.80435000  0.63378000  0.11231000  1.0
  N  N62  1  0.79940000  0.89684000  0.80777000  1.0
  N  N63  1  0.20060000  0.39684000  0.19224000  1.0
  N  N64  1  0.22430000  0.00811000  0.68344000  1.0
  N  N65  1  0.77570000  0.50812000  0.31654000  1.0
  N  N66  1  0.96514000  0.87142000  0.58509000  1.0
  N  N67  1  0.03486000  0.37143000  0.41491000  1.0
  N  N68  1  0.04551000  0.04993000  0.90009000  1.0
  N  N69  1  0.95448000  0.54990000  0.09991000  1.0
  O  O70  1  0.14217000  0.72647000  0.81155000  1.0
  O  O71  1  0.85787000  0.22647000  0.18845000  1.0
  O  O72  1  0.71019000  0.43055000  0.71810000  1.0
  O  O73  1  0.28988000  0.93046000  0.28185000  1.0
  O  O74  1  0.31633000  0.48810000  0.76054000  1.0
  O  O75  1  0.68365000  0.98812000  0.23942000  1.0
  O  O76  1  0.12772000  0.58317000  0.59043000  1.0
  O  O77  1  0.87222000  0.08319000  0.40959000  1.0
  O  O78  1  0.78338000  0.24669000  0.89985000  1.0
  O  O79  1  0.21653000  0.74661000  0.10014000  1.0
  O  O80  1  0.99182000  0.46464000  0.82987000  1.0
  O  O81  1  0.00820000  0.96464000  0.17017000  1.0
  O  O82  1  0.94170000  0.23586000  0.66346000  1.0
  O  O83  1  0.05832000  0.73585000  0.33657000  1.0
