# generated using pymatgen
data_ZnSiH16C24(N2F5)2
_symmetry_space_group_name_H-M   'P 1'
_cell_length_a   7.78152000
_cell_length_b   13.78520000
_cell_length_c   13.78690000
_cell_angle_alpha   86.64170000
_cell_angle_beta   73.72690000
_cell_angle_gamma   73.72040000
_symmetry_Int_Tables_number   1
_chemical_formula_structural   ZnSiH16C24(N2F5)2
_chemical_formula_sum   'Zn1 Si1 H16 C24 N4 F10'
_cell_volume   1362.42668149
_cell_formula_units_Z   1
loop_
 _symmetry_equiv_pos_site_id
 _symmetry_equiv_pos_as_xyz
  1  'x, y, z'
loop_
 _atom_site_type_symbol
 _atom_site_label
 _atom_site_symmetry_multiplicity
 _atom_site_fract_x
 _atom_site_fract_y
 _atom_site_fract_z
 _atom_site_occupancy
  Zn  Zn0  1  0.49999000  0.49995000  0.50006000  1.0
  Si  Si1  1  0.00000000  0.50005000  0.49991000  1.0
  H  H2  1  0.27021000  0.57178000  0.35966000  1.0
  H  H3  1  0.26408000  0.57121000  0.18425000  1.0
  H  H4  1  0.86130000  0.43101000  0.10440000  1.0
  H  H5  1  0.13871000  0.56852000  0.89576000  1.0
  H  H6  1  0.73630000  0.42943000  0.81568000  1.0
  H  H7  1  0.73006000  0.42873000  0.64032000  1.0
  H  H8  1  0.71466000  0.46705000  0.96843000  1.0
  H  H9  1  0.28559000  0.53308000  0.03162000  1.0
  H  H10  1  0.26997000  0.35971000  0.57149000  1.0
  H  H11  1  0.26380000  0.18431000  0.57081000  1.0
  H  H12  1  0.86112000  0.10434000  0.43096000  1.0
  H  H13  1  0.13885000  0.89553000  0.56954000  1.0
  H  H14  1  0.73578000  0.81577000  0.42855000  1.0
  H  H15  1  0.72973000  0.64031000  0.42809000  1.0
  H  H16  1  0.71440000  0.96841000  0.46675000  1.0
  H  H17  1  0.28533000  0.03157000  0.53310000  1.0
  C  C18  1  0.39897000  0.54145000  0.30123000  1.0
  C  C19  1  0.39695000  0.54036000  0.20134000  1.0
  C  C20  1  0.56309000  0.49907000  0.12583000  1.0
  C  C21  1  0.72576000  0.46330000  0.15735000  1.0
  C  C22  1  0.71227000  0.46714000  0.25990000  1.0
  C  C23  1  0.57385000  0.49101000  0.01925000  1.0
  C  C24  1  0.42643000  0.50917000  0.98077000  1.0
  C  C25  1  0.27432000  0.53644000  0.84277000  1.0
  C  C26  1  0.43715000  0.50105000  0.87421000  1.0
  C  C27  1  0.60333000  0.46000000  0.79864000  1.0
  C  C28  1  0.60122000  0.45885000  0.69878000  1.0
  C  C29  1  0.28770000  0.53248000  0.74024000  1.0
  C  C30  1  0.39878000  0.30125000  0.54120000  1.0
  C  C31  1  0.39670000  0.20137000  0.54007000  1.0
  C  C32  1  0.56283000  0.12582000  0.49883000  1.0
  C  C33  1  0.72555000  0.15731000  0.46319000  1.0
  C  C34  1  0.71216000  0.25987000  0.46708000  1.0
  C  C35  1  0.57357000  0.01925000  0.49075000  1.0
  C  C36  1  0.42617000  0.98073000  0.50906000  1.0
  C  C37  1  0.27434000  0.84259000  0.53708000  1.0
  C  C38  1  0.43695000  0.87414000  0.50105000  1.0
  C  C39  1  0.60299000  0.79865000  0.45958000  1.0
  C  C40  1  0.60099000  0.69877000  0.45853000  1.0
  C  C41  1  0.28782000  0.74002000  0.53324000  1.0
  N  N42  1  0.55519000  0.50335000  0.33226000  1.0
  N  N43  1  0.44483000  0.49657000  0.66781000  1.0
  N  N44  1  0.55506000  0.33227000  0.50322000  1.0
  N  N45  1  0.44485000  0.66768000  0.49684000  1.0
  F  F46  1  0.21677000  0.51254000  0.51235000  1.0
  F  F47  1  0.78318000  0.48758000  0.48750000  1.0
  F  F48  1  0.99995000  0.59060000  0.40937000  1.0
  F  F49  1  0.00003000  0.40950000  0.59046000  1.0
  F  F50  1  0.12105000  0.41047000  0.41037000  1.0
  F  F51  1  0.87891000  0.58963000  0.58947000  1.0
  F  F52  1  0.86907000  0.43159000  0.28833000  1.0
  F  F53  1  0.13073000  0.56752000  0.71187000  1.0
  F  F54  1  0.86900000  0.28829000  0.43168000  1.0
  F  F55  1  0.13113000  0.71154000  0.56910000  1.0
