# generated using pymatgen
data_ZnMo4H20C14(N3O8)2
_symmetry_space_group_name_H-M   'P 1'
_cell_length_a   9.76047000
_cell_length_b   11.58330000
_cell_length_c   12.34700000
_cell_angle_alpha   91.05770000
_cell_angle_beta   102.99300000
_cell_angle_gamma   96.20600000
_symmetry_Int_Tables_number   1
_chemical_formula_structural   ZnMo4H20C14(N3O8)2
_chemical_formula_sum   'Zn2 Mo8 H40 C28 N12 O32'
_cell_volume   1350.90384596
_cell_formula_units_Z   2
loop_
 _symmetry_equiv_pos_site_id
 _symmetry_equiv_pos_as_xyz
  1  'x, y, z'
loop_
 _atom_site_type_symbol
 _atom_site_label
 _atom_site_symmetry_multiplicity
 _atom_site_fract_x
 _atom_site_fract_y
 _atom_site_fract_z
 _atom_site_occupancy
  Zn  Zn0  1  0.57728000  0.20078000  0.27654000  1.0
  Zn  Zn1  1  0.42272000  0.79922000  0.72347000  1.0
  Mo  Mo2  1  0.13911000  0.56265000  0.11496000  1.0
  Mo  Mo3  1  0.86089000  0.43736000  0.88504000  1.0
  Mo  Mo4  1  0.94194000  0.36906000  0.26197000  1.0
  Mo  Mo5  1  0.05805000  0.63093000  0.73804000  1.0
  Mo  Mo6  1  0.76028000  0.54666000  0.09381000  1.0
  Mo  Mo7  1  0.23972000  0.45333000  0.90619000  1.0
  Mo  Mo8  1  0.96429000  0.74019000  0.96014000  1.0
  Mo  Mo9  1  0.03571000  0.25982000  0.03986000  1.0
  H  H10  1  0.50842000  0.32929000  0.09394000  1.0
  H  H11  1  0.49158000  0.67071000  0.90606000  1.0
  H  H12  1  0.35822000  0.26268000  0.10523000  1.0
  H  H13  1  0.64178000  0.73732000  0.89477000  1.0
  H  H14  1  0.08364000  0.27312000  0.60585000  1.0
  H  H15  1  0.91636000  0.72688000  0.39414000  1.0
  H  H16  1  0.98058000  0.15883000  0.51811000  1.0
  H  H17  1  0.01942000  0.84117000  0.48189000  1.0
  H  H18  1  0.34059000  0.13214000  0.97832000  1.0
  H  H19  1  0.65941000  0.86786000  0.02168000  1.0
  H  H20  1  0.47007000  0.48451000  0.24199000  1.0
  H  H21  1  0.52994000  0.51549000  0.75801000  1.0
  H  H22  1  0.75771000  0.54767000  0.55638000  1.0
  H  H23  1  0.24229000  0.45233000  0.44362000  1.0
  H  H24  1  0.59877000  0.63604000  0.39435000  1.0
  H  H25  1  0.40124000  0.36396000  0.60565000  1.0
  H  H26  1  0.20182000  0.08666000  0.61894000  1.0
  H  H27  1  0.79818000  0.91334000  0.38106000  1.0
  H  H28  1  0.17528000  0.13678000  0.74790000  1.0
  H  H29  1  0.82472000  0.86322000  0.25210000  1.0
  H  H30  1  0.83036000  0.36803000  0.64528000  1.0
  H  H31  1  0.16965000  0.63197000  0.35471000  1.0
  H  H32  1  0.70894000  0.17682000  0.77258000  1.0
  H  H33  1  0.29106000  0.82318000  0.22742000  1.0
  H  H34  1  0.55143000  0.21024000  0.90116000  1.0
  H  H35  1  0.44857000  0.78976000  0.09884000  1.0
  H  H36  1  0.76695000  0.04396000  0.58793000  1.0
  H  H37  1  0.23305000  0.95605000  0.41206000  1.0
  H  H38  1  0.85507000  0.91834000  0.74305000  1.0
  H  H39  1  0.14492000  0.08166000  0.25695000  1.0
  H  H40  1  0.96116000  0.03916000  0.82048000  1.0
  H  H41  1  0.03884000  0.96085000  0.17952000  1.0
  H  H42  1  0.10201000  0.92241000  0.71909000  1.0
  H  H43  1  0.89799000  0.07758000  0.28092000  1.0
  H  H44  1  0.98556000  0.94445000  0.59242000  1.0
  H  H45  1  0.01443000  0.05555000  0.40758000  1.0
  H  H46  1  0.94515000  0.23774000  0.74567000  1.0
  H  H47  1  0.05485000  0.76226000  0.25433000  1.0
  H  H48  1  0.24197000  0.92532000  0.90596000  1.0
  H  H49  1  0.75803000  0.07468000  0.09404000  1.0
  C  C50  1  0.02430000  0.18689000  0.60566000  1.0
  C  C51  1  0.97570000  0.81311000  0.39434000  1.0
  C  C52  1  0.54058000  0.46658000  0.31955000  1.0
  C  C53  1  0.45942000  0.53342000  0.68044000  1.0
  C  C54  1  0.69025000  0.49791000  0.48529000  1.0
  C  C55  1  0.30975000  0.50209000  0.51471000  1.0
  C  C56  1  0.11973000  0.09998000  0.66470000  1.0
  C  C57  1  0.88027000  0.90002000  0.33529000  1.0
  C  C58  1  0.60306000  0.01505000  0.73656000  1.0
  C  C59  1  0.39694000  0.98495000  0.26345000  1.0
  C  C60  1  0.49229000  0.12531000  0.87885000  1.0
  C  C61  1  0.50771000  0.87469000  0.12116000  1.0
  C  C62  1  0.81628000  0.08323000  0.67129000  1.0
  C  C63  1  0.18372000  0.91678000  0.32871000  1.0
  C  C64  1  0.50413000  0.03628000  0.80645000  1.0
  C  C65  1  0.49588000  0.96372000  0.19355000  1.0
  C  C66  1  0.67131000  0.38107000  0.45427000  1.0
  C  C67  1  0.32868000  0.61893000  0.54573000  1.0
  C  C68  1  0.91640000  0.00168000  0.73551000  1.0
  C  C69  1  0.08359000  0.99832000  0.26449000  1.0
  C  C70  1  0.03379000  0.98431000  0.67577000  1.0
  C  C71  1  0.96620000  0.01570000  0.32423000  1.0
  C  C72  1  0.90066000  0.20071000  0.66077000  1.0
  C  C73  1  0.09934000  0.79929000  0.33923000  1.0
  C  C74  1  0.73471000  0.27743000  0.50135000  1.0
  C  C75  1  0.26528000  0.72257000  0.49865000  1.0
  C  C76  1  0.32829000  0.97718000  0.88123000  1.0
  C  C77  1  0.67171000  0.02282000  0.11877000  1.0
  N  N78  1  0.40062000  0.94564000  0.80900000  1.0
  N  N79  1  0.59939000  0.05436000  0.19100000  1.0
  N  N80  1  0.38134000  0.08563000  0.92419000  1.0
  N  N81  1  0.61866000  0.91437000  0.07582000  1.0
  N  N82  1  0.57815000  0.36377000  0.35145000  1.0
  N  N83  1  0.42184000  0.63623000  0.64855000  1.0
  N  N84  1  0.60656000  0.54950000  0.39936000  1.0
  N  N85  1  0.39344000  0.45050000  0.60064000  1.0
  N  N86  1  0.81349000  0.28764000  0.60543000  1.0
  N  N87  1  0.18651000  0.71236000  0.39457000  1.0
  N  N88  1  0.70273000  0.10068000  0.72743000  1.0
  N  N89  1  0.29727000  0.89932000  0.27257000  1.0
  O  O90  1  0.46119000  0.26048000  0.12339000  1.0
  O  O91  1  0.53881000  0.73952000  0.87662000  1.0
  O  O92  1  0.71061000  0.18474000  0.44147000  1.0
  O  O93  1  0.28939000  0.81526000  0.55853000  1.0
  O  O94  1  0.59135000  0.91576000  0.68796000  1.0
  O  O95  1  0.40865000  0.08425000  0.31205000  1.0
  O  O96  1  0.78678000  0.27478000  0.23154000  1.0
  O  O97  1  0.21322000  0.72521000  0.76845000  1.0
  O  O98  1  0.62093000  0.43750000  0.06438000  1.0
  O  O99  1  0.37907000  0.56249000  0.93562000  1.0
  O  O100  1  0.68871000  0.66884000  0.12136000  1.0
  O  O101  1  0.31131000  0.33115000  0.87865000  1.0
  O  O102  1  0.81963000  0.81307000  0.96426000  1.0
  O  O103  1  0.18036000  0.18693000  0.03575000  1.0
  O  O104  1  0.10918000  0.84119000  0.99889000  1.0
  O  O105  1  0.89082000  0.15881000  0.00111000  1.0
  O  O106  1  0.28126000  0.66752000  0.15294000  1.0
  O  O107  1  0.71875000  0.33249000  0.84707000  1.0
  O  O108  1  0.12042000  0.50543000  0.24478000  1.0
  O  O109  1  0.87958000  0.49457000  0.75521000  1.0
  O  O110  1  0.98088000  0.65819000  0.10238000  1.0
  O  O111  1  0.01912000  0.34181000  0.89762000  1.0
  O  O112  1  0.92664000  0.42047000  0.05493000  1.0
  O  O113  1  0.07336000  0.57953000  0.94506000  1.0
  O  O114  1  0.85217000  0.50984000  0.23901000  1.0
  O  O115  1  0.14783000  0.49015000  0.76099000  1.0
  O  O116  1  0.00526000  0.36633000  0.40223000  1.0
  O  O117  1  0.99472000  0.63366000  0.59776000  1.0
  O  O118  1  0.05825000  0.27871000  0.19655000  1.0
  O  O119  1  0.94175000  0.72129000  0.80345000  1.0
  O  O120  1  0.78053000  0.56644000  0.93718000  1.0
  O  O121  1  0.21947000  0.43357000  0.06281000  1.0
