# generated using pymatgen
data_InH6C8NO5
_symmetry_space_group_name_H-M   'P 1'
_cell_length_a   8.09371000
_cell_length_b   17.20280000
_cell_length_c   17.20236000
_cell_angle_alpha   117.56912420
_cell_angle_beta   99.02326908
_cell_angle_gamma   99.01220000
_symmetry_Int_Tables_number   1
_chemical_formula_structural   InH6C8NO5
_chemical_formula_sum   'In6 H36 C48 N6 O30'
_cell_volume   2023.76777483
_cell_formula_units_Z   6
loop_
 _symmetry_equiv_pos_site_id
 _symmetry_equiv_pos_as_xyz
  1  'x, y, z'
loop_
 _atom_site_type_symbol
 _atom_site_label
 _atom_site_symmetry_multiplicity
 _atom_site_fract_x
 _atom_site_fract_y
 _atom_site_fract_z
 _atom_site_occupancy
  In  In0  1  0.92819000  0.70040000  0.27124000  1.0
  In  In1  1  0.65687000  0.72863000  0.42926000  1.0
  In  In2  1  0.22769000  0.57080000  0.29939000  1.0
  In  In3  1  0.07179000  0.29959000  0.72875000  1.0
  In  In4  1  0.34314000  0.27137000  0.57074000  1.0
  In  In5  1  0.77230000  0.42921000  0.70062000  1.0
  H  H6  1  0.08490000  0.26157000  0.86229000  1.0
  H  H7  1  0.22289000  0.13747000  0.39939000  1.0
  H  H8  1  0.82281000  0.60062000  0.73834000  1.0
  H  H9  1  0.91510000  0.73842000  0.13770000  1.0
  H  H10  1  0.77709000  0.86253000  0.60061000  1.0
  H  H11  1  0.17719000  0.39939000  0.26167000  1.0
  H  H12  1  0.89992000  0.18737000  0.78100000  1.0
  H  H13  1  0.11906000  0.21857000  0.40595000  1.0
  H  H14  1  0.71250000  0.59383000  0.81282000  1.0
  H  H15  1  0.10008000  0.81263000  0.21901000  1.0
  H  H16  1  0.88093000  0.78143000  0.59406000  1.0
  H  H17  1  0.28750000  0.40618000  0.18718000  1.0
  H  H18  1  0.25507000  0.74383000  0.38102000  1.0
  H  H19  1  0.87376000  0.61873000  0.36263000  1.0
  H  H20  1  0.51148000  0.63738000  0.25625000  1.0
  H  H21  1  0.74492000  0.25617000  0.61897000  1.0
  H  H22  1  0.12624000  0.38127000  0.63737000  1.0
  H  H23  1  0.48853000  0.36262000  0.74375000  1.0
  H  H24  1  0.60700000  0.45005000  0.03815000  1.0
  H  H25  1  0.56923000  0.96176000  0.41227000  1.0
  H  H26  1  0.15627000  0.58764000  0.54964000  1.0
  H  H27  1  0.39300000  0.54995000  0.96185000  1.0
  H  H28  1  0.43077000  0.03823000  0.58772000  1.0
  H  H29  1  0.84374000  0.41236000  0.45036000  1.0
  H  H30  1  0.62214000  0.24033000  0.77594000  1.0
  H  H31  1  0.84644000  0.22394000  0.46457000  1.0
  H  H32  1  0.38128000  0.53579000  0.75989000  1.0
  H  H33  1  0.37787000  0.75968000  0.22406000  1.0
  H  H34  1  0.15353000  0.77606000  0.53543000  1.0
  H  H35  1  0.61874000  0.46423000  0.24012000  1.0
  H  H36  1  0.09031000  0.38634000  0.99467000  1.0
  H  H37  1  0.09535000  0.00493000  0.39109000  1.0
  H  H38  1  0.70350000  0.60856000  0.61393000  1.0
  H  H39  1  0.90970000  0.61366000  0.00533000  1.0
  H  H40  1  0.90465000  0.99507000  0.60892000  1.0
  H  H41  1  0.29650000  0.39144000  0.38607000  1.0
  C  C42  1  0.95006000  0.50103000  0.11966000  1.0
  C  C43  1  0.83060000  0.88011000  0.38131000  1.0
  C  C44  1  0.44874000  0.61864000  0.49897000  1.0
  C  C45  1  0.04994000  0.49897000  0.88034000  1.0
  C  C46  1  0.16938000  0.11988000  0.61868000  1.0
  C  C47  1  0.55127000  0.38136000  0.50103000  1.0
  C  C48  1  0.85810000  0.42680000  0.02511000  1.0
  C  C49  1  0.83303000  0.97464000  0.40159000  1.0
  C  C50  1  0.43079000  0.59823000  0.57316000  1.0
  C  C51  1  0.14190000  0.57320000  0.97489000  1.0
  C  C52  1  0.16697000  0.02536000  0.59842000  1.0
  C  C53  1  0.56920000  0.40176000  0.42683000  1.0
  C  C54  1  0.67918000  0.41007000  0.99332000  1.0
  C  C55  1  0.68611000  0.00653000  0.41695000  1.0
  C  C56  1  0.26850000  0.58294000  0.58971000  1.0
  C  C57  1  0.32081000  0.58992000  0.00667000  1.0
  C  C58  1  0.31389000  0.99346000  0.58305000  1.0
  C  C59  1  0.73151000  0.41706000  0.41029000  1.0
  C  C60  1  0.59453000  0.34210000  0.90404000  1.0
  C  C61  1  0.69074000  0.09584000  0.43823000  1.0
  C  C62  1  0.25193000  0.56183000  0.65785000  1.0
  C  C63  1  0.40548000  0.65790000  0.09596000  1.0
  C  C64  1  0.30926000  0.90417000  0.56178000  1.0
  C  C65  1  0.74808000  0.43818000  0.34216000  1.0
  C  C66  1  0.40130000  0.32251000  0.87159000  1.0
  C  C67  1  0.53001000  0.12833000  0.45106000  1.0
  C  C68  1  0.07838000  0.54899000  0.67748000  1.0
  C  C69  1  0.59871000  0.67747000  0.12840000  1.0
  C  C70  1  0.46998000  0.87167000  0.54894000  1.0
  C  C71  1  0.92164000  0.45102000  0.32253000  1.0
  C  C72  1  0.68809000  0.29129000  0.84642000  1.0
  C  C73  1  0.84185000  0.15343000  0.44497000  1.0
  C  C74  1  0.39627000  0.55515000  0.70880000  1.0
  C  C75  1  0.31192000  0.70870000  0.15357000  1.0
  C  C76  1  0.15813000  0.84657000  0.55503000  1.0
  C  C77  1  0.60374000  0.44485000  0.29120000  1.0
  C  C78  1  0.86596000  0.30587000  0.87994000  1.0
  C  C79  1  0.98608000  0.11985000  0.42585000  1.0
  C  C80  1  0.55959000  0.57414000  0.69429000  1.0
  C  C81  1  0.13405000  0.69413000  0.12006000  1.0
  C  C82  1  0.01392000  0.88016000  0.57416000  1.0
  C  C83  1  0.44041000  0.42587000  0.30572000  1.0
  C  C84  1  0.95124000  0.37382000  0.96910000  1.0
  C  C85  1  0.98203000  0.03058000  0.40440000  1.0
  C  C86  1  0.57689000  0.59539000  0.62633000  1.0
  C  C87  1  0.04877000  0.62619000  0.03090000  1.0
  C  C88  1  0.01796000  0.96940000  0.59560000  1.0
  C  C89  1  0.42311000  0.40461000  0.37367000  1.0
  N  N90  1  0.96473000  0.25416000  0.82343000  1.0
  N  N91  1  0.14140000  0.17635000  0.43064000  1.0
  N  N92  1  0.71014000  0.56930000  0.74594000  1.0
  N  N93  1  0.03528000  0.74583000  0.17657000  1.0
  N  N94  1  0.85860000  0.82366000  0.56937000  1.0
  N  N95  1  0.28986000  0.43071000  0.25406000  1.0
  O  O96  1  0.86725000  0.55786000  0.16093000  1.0
  O  O97  1  0.70667000  0.83885000  0.39695000  1.0
  O  O98  1  0.30926000  0.60305000  0.44204000  1.0
  O  O99  1  0.13275000  0.44213000  0.83908000  1.0
  O  O100  1  0.29334000  0.16115000  0.60305000  1.0
  O  O101  1  0.69073000  0.39695000  0.55796000  1.0
  O  O102  1  0.10396000  0.50146000  0.15231000  1.0
  O  O103  1  0.95182000  0.84750000  0.34907000  1.0
  O  O104  1  0.60223000  0.65100000  0.49872000  1.0
  O  O105  1  0.89607000  0.49854000  0.84770000  1.0
  O  O106  1  0.04816000  0.15251000  0.65092000  1.0
  O  O107  1  0.39777000  0.34900000  0.50128000  1.0
  O  O108  1  0.34559000  0.31592000  0.79290000  1.0
  O  O109  1  0.55288000  0.20690000  0.52320000  1.0
  O  O110  1  0.02946000  0.47690000  0.68410000  1.0
  O  O111  1  0.65441000  0.68405000  0.20708000  1.0
  O  O112  1  0.44711000  0.79308000  0.47679000  1.0
  O  O113  1  0.97055000  0.52312000  0.31591000  1.0
  O  O114  1  0.30880000  0.31336000  0.92005000  1.0
  O  O115  1  0.38918000  0.08001000  0.39331000  1.0
  O  O116  1  0.99491000  0.60657000  0.68666000  1.0
  O  O117  1  0.69122000  0.68664000  0.07995000  1.0
  O  O118  1  0.61081000  0.92000000  0.60669000  1.0
  O  O119  1  0.00510000  0.39344000  0.31335000  1.0
  O  O120  1  0.18371000  0.69657000  0.31956000  1.0
  O  O121  1  0.86398000  0.68024000  0.37691000  1.0
  O  O122  1  0.48723000  0.62308000  0.30346000  1.0
  O  O123  1  0.81629000  0.30345000  0.68044000  1.0
  O  O124  1  0.13603000  0.31976000  0.62309000  1.0
  O  O125  1  0.51276000  0.37693000  0.69654000  1.0
