# generated using pymatgen
data_LaH14C33N2Cl3(OF)6
_symmetry_space_group_name_H-M   'P 1'
_cell_length_a   10.09540000
_cell_length_b   13.04750000
_cell_length_c   13.20860000
_cell_angle_alpha   72.95230000
_cell_angle_beta   83.53530000
_cell_angle_gamma   86.23210000
_symmetry_Int_Tables_number   1
_chemical_formula_structural   LaH14C33N2Cl3(OF)6
_chemical_formula_sum   'La2 H28 C66 N4 Cl6 O12 F12'
_cell_volume   1651.83008610
_cell_formula_units_Z   2
loop_
 _symmetry_equiv_pos_site_id
 _symmetry_equiv_pos_as_xyz
  1  'x, y, z'
loop_
 _atom_site_type_symbol
 _atom_site_label
 _atom_site_symmetry_multiplicity
 _atom_site_fract_x
 _atom_site_fract_y
 _atom_site_fract_z
 _atom_site_occupancy
  La  La0  1  0.28995000  0.55408000  0.48891000  1.0
  La  La1  1  0.71005000  0.44592000  0.51109000  1.0
  H  H2  1  0.04431000  0.64967000  0.97289000  1.0
  H  H3  1  0.95569000  0.35033000  0.02710000  1.0
  H  H4  1  0.92470000  0.74456000  0.31167000  1.0
  H  H5  1  0.07529000  0.25544000  0.68832000  1.0
  H  H6  1  0.67763000  0.39978000  0.97347000  1.0
  H  H7  1  0.32237000  0.60022000  0.02653000  1.0
  H  H8  1  0.31052000  0.35214000  0.26604000  1.0
  H  H9  1  0.68948000  0.64786000  0.73396000  1.0
  H  H10  1  0.45373000  0.94783000  0.65933000  1.0
  H  H11  1  0.54627000  0.05217000  0.34067000  1.0
  H  H12  1  0.37299000  0.26114000  0.80447000  1.0
  H  H13  1  0.62701000  0.73886000  0.19553000  1.0
  H  H14  1  0.21732000  0.67777000  0.69018000  1.0
  H  H15  1  0.78268000  0.32223000  0.30982000  1.0
  H  H16  1  0.16028000  0.84970000  0.73775000  1.0
  H  H17  1  0.83972000  0.15030000  0.26225000  1.0
  H  H18  1  0.14195000  0.02116000  0.59038000  1.0
  H  H19  1  0.85805000  0.97884000  0.40962000  1.0
  H  H20  1  0.14999000  0.11295000  0.39466000  1.0
  H  H21  1  0.85000000  0.88705000  0.60534000  1.0
  H  H22  1  0.17947000  0.10133000  0.20932000  1.0
  H  H23  1  0.82053000  0.89867000  0.79068000  1.0
  H  H24  1  0.22774000  0.99143000  0.08292000  1.0
  H  H25  1  0.77226000  0.00857000  0.91708000  1.0
  H  H26  1  0.29027000  0.81211000  0.05459000  1.0
  H  H27  1  0.70973000  0.18789000  0.94541000  1.0
  H  H28  1  0.31410000  0.65236000  0.21469000  1.0
  H  H29  1  0.68590000  0.34764000  0.78531000  1.0
  C  C30  1  0.99337000  0.61776000  0.24164000  1.0
  C  C31  1  0.00663000  0.38224000  0.75836000  1.0
  C  C32  1  0.02745000  0.59295000  0.14561000  1.0
  C  C33  1  0.97255000  0.40705000  0.85439000  1.0
  C  C34  1  0.01964000  0.67017000  0.04717000  1.0
  C  C35  1  0.98036000  0.32984000  0.95283000  1.0
  C  C36  1  0.97802000  0.77392000  0.04599000  1.0
  C  C37  1  0.02198000  0.22609000  0.95401000  1.0
  C  C38  1  0.94557000  0.80046000  0.14091000  1.0
  C  C39  1  0.05443000  0.19954000  0.85909000  1.0
  C  C40  1  0.95268000  0.72328000  0.23815000  1.0
  C  C41  1  0.04732000  0.27672000  0.76185000  1.0
  C  C42  1  0.00227000  0.53285000  0.34752000  1.0
  C  C43  1  0.99772000  0.46715000  0.65248000  1.0
  C  C44  1  0.50578000  0.41445000  0.20847000  1.0
  C  C45  1  0.49422000  0.58555000  0.79153000  1.0
  C  C46  1  0.60919000  0.42667000  0.12562000  1.0
  C  C47  1  0.39081000  0.57333000  0.87438000  1.0
  C  C48  1  0.59987000  0.38618000  0.03968000  1.0
  C  C49  1  0.40014000  0.61383000  0.96032000  1.0
  C  C50  1  0.48710000  0.33218000  0.03755000  1.0
  C  C51  1  0.51290000  0.66782000  0.96245000  1.0
  C  C52  1  0.38411000  0.31828000  0.11963000  1.0
  C  C53  1  0.61590000  0.68172000  0.88037000  1.0
  C  C54  1  0.39268000  0.35969000  0.20364000  1.0
  C  C55  1  0.60732000  0.64031000  0.79636000  1.0
  C  C56  1  0.50649000  0.45814000  0.30242000  1.0
  C  C57  1  0.49351000  0.54185000  0.69758000  1.0
  C  C58  1  0.39901000  0.20911000  0.66154000  1.0
  C  C59  1  0.60099000  0.79089000  0.33846000  1.0
  C  C60  1  0.42235000  0.12067000  0.62197000  1.0
  C  C61  1  0.57765000  0.87933000  0.37803000  1.0
  C  C62  1  0.43678000  0.01690000  0.68983000  1.0
  C  C63  1  0.56322000  0.98310000  0.31018000  1.0
  C  C64  1  0.42746000  0.00329000  0.79849000  1.0
  C  C65  1  0.57254000  0.99670000  0.20151000  1.0
  C  C66  1  0.40536000  0.09101000  0.83911000  1.0
  C  C67  1  0.59464000  0.90899000  0.16089000  1.0
  C  C68  1  0.39127000  0.19372000  0.77127000  1.0
  C  C69  1  0.60873000  0.80628000  0.22873000  1.0
  C  C70  1  0.37748000  0.31988000  0.58843000  1.0
  C  C71  1  0.62251000  0.68013000  0.41157000  1.0
  C  C72  1  0.20836000  0.75400000  0.62860000  1.0
  C  C73  1  0.79164000  0.24600000  0.37140000  1.0
  C  C74  1  0.17661000  0.85046000  0.65455000  1.0
  C  C75  1  0.82339000  0.14954000  0.34545000  1.0
  C  C76  1  0.16613000  0.94477000  0.57333000  1.0
  C  C77  1  0.83387000  0.05523000  0.42667000  1.0
  C  C78  1  0.18612000  0.94222000  0.46652000  1.0
  C  C79  1  0.81387000  0.05778000  0.53348000  1.0
  C  C80  1  0.17383000  0.03623000  0.37832000  1.0
  C  C81  1  0.82616000  0.96377000  0.62168000  1.0
  C  C82  1  0.19000000  0.02995000  0.27627000  1.0
  C  C83  1  0.81000000  0.97005000  0.72373000  1.0
  C  C84  1  0.22209000  0.92950000  0.25448000  1.0
  C  C85  1  0.77791000  0.07050000  0.74552000  1.0
  C  C86  1  0.24009000  0.92032000  0.14987000  1.0
  C  C87  1  0.75991000  0.07968000  0.85013000  1.0
  C  C88  1  0.27372000  0.82141000  0.13429000  1.0
  C  C89  1  0.72628000  0.17859000  0.86571000  1.0
  C  C90  1  0.28774000  0.73199000  0.22343000  1.0
  C  C91  1  0.71226000  0.26801000  0.77657000  1.0
  C  C92  1  0.23794000  0.83460000  0.33977000  1.0
  C  C93  1  0.76206000  0.16540000  0.66023000  1.0
  C  C94  1  0.21810000  0.84085000  0.44796000  1.0
  C  C95  1  0.78190000  0.15915000  0.55204000  1.0
  N  N96  1  0.22942000  0.74902000  0.52864000  1.0
  N  N97  1  0.77058000  0.25098000  0.47136000  1.0
  N  N98  1  0.27020000  0.73768000  0.32315000  1.0
  N  N99  1  0.72980000  0.26232000  0.67685000  1.0
  Cl  Cl100  1  0.08290000  0.46395000  0.14753000  1.0
  Cl  Cl101  1  0.91710000  0.53605000  0.85247000  1.0
  Cl  Cl102  1  0.74840000  0.49823000  0.12150000  1.0
  Cl  Cl103  1  0.25160000  0.50177000  0.87850000  1.0
  Cl  Cl104  1  0.43054000  0.14125000  0.48565000  1.0
  Cl  Cl105  1  0.56946000  0.85875000  0.51436000  1.0
  O  O106  1  0.10354000  0.53395000  0.39502000  1.0
  O  O107  1  0.89646000  0.46606000  0.60498000  1.0
  O  O108  1  0.90862000  0.46769000  0.37894000  1.0
  O  O109  1  0.09139000  0.53230000  0.62105000  1.0
  O  O110  1  0.39423000  0.49305000  0.33522000  1.0
  O  O111  1  0.60577000  0.50695000  0.66478000  1.0
  O  O112  1  0.61614000  0.45495000  0.34137000  1.0
  O  O113  1  0.38387000  0.54504000  0.65863000  1.0
  O  O114  1  0.25957000  0.35057000  0.56819000  1.0
  O  O115  1  0.74042000  0.64943000  0.43181000  1.0
  O  O116  1  0.47784000  0.37864000  0.55269000  1.0
  O  O117  1  0.52215000  0.62136000  0.44732000  1.0
  F  F118  1  0.97044000  0.85109000  0.95144000  1.0
  F  F119  1  0.02956000  0.14891000  0.04856000  1.0
  F  F120  1  0.90830000  0.90361000  0.13691000  1.0
  F  F121  1  0.09170000  0.09639000  0.86309000  1.0
  F  F122  1  0.47514000  0.29405000  0.95415000  1.0
  F  F123  1  0.52486000  0.70595000  0.04585000  1.0
  F  F124  1  0.27403000  0.26596000  0.11440000  1.0
  F  F125  1  0.72597000  0.73404000  0.88560000  1.0
  F  F126  1  0.43883000  0.90320000  0.86680000  1.0
  F  F127  1  0.56118000  0.09680000  0.13320000  1.0
  F  F128  1  0.39590000  0.07475000  0.94572000  1.0
  F  F129  1  0.60410000  0.92525000  0.05428000  1.0
