# generated using pymatgen
data_FeH7C7NO6
_symmetry_space_group_name_H-M   'P 1'
_cell_length_a   7.28576000
_cell_length_b   7.79584000
_cell_length_c   7.79871000
_cell_angle_alpha   100.46400000
_cell_angle_beta   101.08100000
_cell_angle_gamma   101.03600000
_symmetry_Int_Tables_number   1
_chemical_formula_structural   FeH7C7NO6
_chemical_formula_sum   'Fe2 H14 C14 N2 O12'
_cell_volume   415.54552168
_cell_formula_units_Z   2
loop_
 _symmetry_equiv_pos_site_id
 _symmetry_equiv_pos_as_xyz
  1  'x, y, z'
loop_
 _atom_site_type_symbol
 _atom_site_label
 _atom_site_symmetry_multiplicity
 _atom_site_fract_x
 _atom_site_fract_y
 _atom_site_fract_z
 _atom_site_occupancy
  Fe  Fe0  1  0.74970000  0.33295000  0.66666667  1.0
  Fe  Fe1  1  0.25030000  0.66723000  0.33351000  1.0
  H  H2  1  0.10785000  0.38915000  0.84418000  1.0
  H  H3  1  0.39147000  0.15524000  0.61004000  1.0
  H  H4  1  0.89212000  0.61064000  0.15585000  1.0
  H  H5  1  0.60857000  0.84463000  0.38966000  1.0
  H  H6  1  0.11891000  0.47849000  0.67563000  1.0
  H  H7  1  0.38059000  0.32401000  0.52069000  1.0
  H  H8  1  0.88110000  0.52135000  0.32446000  1.0
  H  H9  1  0.61941000  0.67594000  0.47908000  1.0
  H  H10  1  0.70872000  0.34165000  0.05108000  1.0
  H  H11  1  0.79080000  0.94867000  0.65844000  1.0
  H  H12  1  0.29121000  0.65839000  0.94915000  1.0
  H  H13  1  0.20885000  0.05148000  0.34150000  1.0
  H  H14  1  0.75004000  0.82946000  0.17061000  1.0
  H  H15  1  0.25027000  0.17060000  0.82943000  1.0
  C  C16  1  0.73780000  0.09768000  0.13728000  1.0
  C  C17  1  0.76201000  0.86263000  0.90243000  1.0
  C  C18  1  0.26230000  0.90235000  0.86281000  1.0
  C  C19  1  0.23799000  0.13746000  0.09756000  1.0
  C  C20  1  0.73342000  0.17128000  0.32633000  1.0
  C  C21  1  0.76647000  0.67345000  0.82911000  1.0
  C  C22  1  0.26669000  0.82861000  0.67378000  1.0
  C  C23  1  0.23350000  0.32667000  0.17077000  1.0
  C  C24  1  0.73077000  0.20728000  0.01428000  1.0
  C  C25  1  0.76882000  0.98556000  0.79275000  1.0
  C  C26  1  0.26920000  0.79279000  0.98586000  1.0
  C  C27  1  0.23102000  0.01455000  0.20725000  1.0
  C  C28  1  0.74997000  0.92028000  0.07976000  1.0
  C  C29  1  0.25018000  0.07977000  0.92026000  1.0
  N  N30  1  0.74974000  0.15505000  0.84485000  1.0
  N  N31  1  0.25013000  0.84507000  0.15524000  1.0
  O  O32  1  0.04714000  0.37635000  0.71495000  1.0
  O  O33  1  0.45210000  0.28448000  0.62289000  1.0
  O  O34  1  0.95282000  0.62348000  0.28506000  1.0
  O  O35  1  0.54785000  0.71542000  0.37687000  1.0
  O  O36  1  0.70749000  0.06685000  0.43214000  1.0
  O  O37  1  0.79274000  0.56792000  0.93378000  1.0
  O  O38  1  0.29260000  0.93294000  0.56783000  1.0
  O  O39  1  0.20711000  0.43208000  0.06605000  1.0
  O  O40  1  0.75797000  0.34014000  0.38353000  1.0
  O  O41  1  0.74153000  0.61588000  0.66029000  1.0
  O  O42  1  0.24213000  0.65976000  0.61667000  1.0
  O  O43  1  0.25858000  0.38434000  0.33962000  1.0
