# generated using pymatgen
data_UH9C12N2ClO8
_symmetry_space_group_name_H-M   'P 1'
_cell_length_a   7.21674000
_cell_length_b   12.96680000
_cell_length_c   16.63380000
_cell_angle_alpha   88.06150000
_cell_angle_beta   89.99920000
_cell_angle_gamma   73.85800000
_symmetry_Int_Tables_number   1
_chemical_formula_structural   UH9C12N2ClO8
_chemical_formula_sum   'U4 H36 C48 N8 Cl4 O32'
_cell_volume   1494.26461997
_cell_formula_units_Z   4
loop_
 _symmetry_equiv_pos_site_id
 _symmetry_equiv_pos_as_xyz
  1  'x, y, z'
loop_
 _atom_site_type_symbol
 _atom_site_label
 _atom_site_symmetry_multiplicity
 _atom_site_fract_x
 _atom_site_fract_y
 _atom_site_fract_z
 _atom_site_occupancy
  U  U0  1  0.72455000  0.79404000  0.34635000  1.0
  U  U1  1  0.51854000  0.20608000  0.15372000  1.0
  U  U2  1  0.27545000  0.20595000  0.65365000  1.0
  U  U3  1  0.48145000  0.79392000  0.84628000  1.0
  H  H4  1  0.60195000  0.94939000  0.58091000  1.0
  H  H5  1  0.55075000  0.05082000  0.91896000  1.0
  H  H6  1  0.39803000  0.05061000  0.41909000  1.0
  H  H7  1  0.44926000  0.94918000  0.08105000  1.0
  H  H8  1  0.80050000  0.92452000  0.70900000  1.0
  H  H9  1  0.72457000  0.07574000  0.79096000  1.0
  H  H10  1  0.19948000  0.07549000  0.29101000  1.0
  H  H11  1  0.27543000  0.92426000  0.20905000  1.0
  H  H12  1  0.30976000  0.82850000  0.56123000  1.0
  H  H13  1  0.13797000  0.17170000  0.93866000  1.0
  H  H14  1  0.69022000  0.17149000  0.43878000  1.0
  H  H15  1  0.86205000  0.82830000  0.06135000  1.0
  H  H16  1  0.09124000  0.85740000  0.44004000  1.0
  H  H17  1  0.94815000  0.14283000  0.05983000  1.0
  H  H18  1  0.90875000  0.14259000  0.55996000  1.0
  H  H19  1  0.05187000  0.85716000  0.94018000  1.0
  H  H20  1  0.70398000  0.64960000  0.13966000  1.0
  H  H21  1  0.35378000  0.35021000  0.36047000  1.0
  H  H22  1  0.29602000  0.35040000  0.86033000  1.0
  H  H23  1  0.64622000  0.64979000  0.63953000  1.0
  H  H24  1  0.47934000  0.60718000  0.03741000  1.0
  H  H25  1  0.08647000  0.39267000  0.46271000  1.0
  H  H26  1  0.52068000  0.39281000  0.96257000  1.0
  H  H27  1  0.91353000  0.60733000  0.53729000  1.0
  H  H28  1  0.11609000  0.51669000  0.96158000  1.0
  H  H29  1  0.63267000  0.48359000  0.53834000  1.0
  H  H30  1  0.88394000  0.48330000  0.03841000  1.0
  H  H31  1  0.36733000  0.51641000  0.46166000  1.0
  H  H32  1  0.08729000  0.59504000  0.23211000  1.0
  H  H33  1  0.68250000  0.40486000  0.26794000  1.0
  H  H34  1  0.91272000  0.40496000  0.76788000  1.0
  H  H35  1  0.31751000  0.59514000  0.73206000  1.0
  H  H36  1  0.32599000  0.64181000  0.32622000  1.0
  H  H37  1  0.96801000  0.35810000  0.17383000  1.0
  H  H38  1  0.67400000  0.35819000  0.67377000  1.0
  H  H39  1  0.03199000  0.64190000  0.82617000  1.0
  C  C40  1  0.75874000  0.92254000  0.58214000  1.0
  C  C41  1  0.68079000  0.07762000  0.91777000  1.0
  C  C42  1  0.24124000  0.07746000  0.41786000  1.0
  C  C43  1  0.31922000  0.92239000  0.08224000  1.0
  C  C44  1  0.87190000  0.90926000  0.65118000  1.0
  C  C45  1  0.78077000  0.09098000  0.84876000  1.0
  C  C46  1  0.12808000  0.09075000  0.34882000  1.0
  C  C47  1  0.21924000  0.90902000  0.15124000  1.0
  C  C48  1  0.07276000  0.87490000  0.64502000  1.0
  C  C49  1  0.94734000  0.12532000  0.85489000  1.0
  C  C50  1  0.92723000  0.12510000  0.35498000  1.0
  C  C51  1  0.05267000  0.87468000  0.14512000  1.0
  C  C52  1  0.20643000  0.85382000  0.71607000  1.0
  C  C53  1  0.06014000  0.14626000  0.78385000  1.0
  C  C54  1  0.79355000  0.14618000  0.28393000  1.0
  C  C55  1  0.93986000  0.85374000  0.21615000  1.0
  C  C56  1  0.15423000  0.85583000  0.56873000  1.0
  C  C57  1  0.00972000  0.14439000  0.93119000  1.0
  C  C58  1  0.84575000  0.14417000  0.43127000  1.0
  C  C59  1  0.99030000  0.85562000  0.06882000  1.0
  C  C60  1  0.03824000  0.87056000  0.50113000  1.0
  C  C61  1  0.90836000  0.12964000  0.99875000  1.0
  C  C62  1  0.96175000  0.12944000  0.49887000  1.0
  C  C63  1  0.09166000  0.87036000  0.00126000  1.0
  C  C64  1  0.56558000  0.63656000  0.15494000  1.0
  C  C65  1  0.20238000  0.36321000  0.34518000  1.0
  C  C66  1  0.43443000  0.36343000  0.84505000  1.0
  C  C67  1  0.79762000  0.63679000  0.65482000  1.0
  C  C68  1  0.44046000  0.61221000  0.10066000  1.0
  C  C69  1  0.05284000  0.38763000  0.39943000  1.0
  C  C70  1  0.55955000  0.38779000  0.89933000  1.0
  C  C71  1  0.94716000  0.61237000  0.60057000  1.0
  C  C72  1  0.26987000  0.59256000  0.12812000  1.0
  C  C73  1  0.86262000  0.40733000  0.37194000  1.0
  C  C74  1  0.73014000  0.40744000  0.87187000  1.0
  C  C75  1  0.13738000  0.59267000  0.62806000  1.0
  C  C76  1  0.14332000  0.55488000  0.07258000  1.0
  C  C77  1  0.69835000  0.44501000  0.42741000  1.0
  C  C78  1  0.85668000  0.44511000  0.92741000  1.0
  C  C79  1  0.30164000  0.55499000  0.57259000  1.0
  C  C80  1  0.22273000  0.60532000  0.20951000  1.0
  C  C81  1  0.82818000  0.39461000  0.29054000  1.0
  C  C82  1  0.77727000  0.39468000  0.79047000  1.0
  C  C83  1  0.17182000  0.60539000  0.70947000  1.0
  C  C84  1  0.34930000  0.63120000  0.26217000  1.0
  C  C85  1  0.98061000  0.36869000  0.23789000  1.0
  C  C86  1  0.65070000  0.36881000  0.73781000  1.0
  C  C87  1  0.01939000  0.63131000  0.76211000  1.0
  N  N88  1  0.84322000  0.90341000  0.50901000  1.0
  N  N89  1  0.74614000  0.09677000  0.99089000  1.0
  N  N90  1  0.15676000  0.09658000  0.49099000  1.0
  N  N91  1  0.25387000  0.90323000  0.00912000  1.0
  N  N92  1  0.52113000  0.64153000  0.23439000  1.0
  N  N93  1  0.16276000  0.35835000  0.26573000  1.0
  N  N94  1  0.47886000  0.35847000  0.76560000  1.0
  N  N95  1  0.83725000  0.64165000  0.73427000  1.0
  Cl  Cl96  1  0.54511000  0.72380000  0.46823000  1.0
  Cl  Cl97  1  0.26884000  0.27631000  0.03180000  1.0
  Cl  Cl98  1  0.45489000  0.27619000  0.53176000  1.0
  Cl  Cl99  1  0.73118000  0.72369000  0.96819000  1.0
  O  O100  1  0.94921000  0.69919000  0.37968000  1.0
  O  O101  1  0.64840000  0.30096000  0.12040000  1.0
  O  O102  1  0.05079000  0.30080000  0.62032000  1.0
  O  O103  1  0.35160000  0.69904000  0.87960000  1.0
  O  O104  1  0.50171000  0.88855000  0.31095000  1.0
  O  O105  1  0.39004000  0.11162000  0.18910000  1.0
  O  O106  1  0.49829000  0.11144000  0.68905000  1.0
  O  O107  1  0.60994000  0.88838000  0.81090000  1.0
  O  O108  1  0.73106000  0.92056000  0.44356000  1.0
  O  O109  1  0.65120000  0.07964000  0.05638000  1.0
  O  O110  1  0.26893000  0.07943000  0.55644000  1.0
  O  O111  1  0.34881000  0.92036000  0.94362000  1.0
  O  O112  1  0.38026000  0.79666000  0.70495000  1.0
  O  O113  1  0.17704000  0.20333000  0.79494000  1.0
  O  O114  1  0.61973000  0.20335000  0.29505000  1.0
  O  O115  1  0.82297000  0.79668000  0.20506000  1.0
  O  O116  1  0.15221000  0.88844000  0.78525000  1.0
  O  O117  1  0.04055000  0.11155000  0.71471000  1.0
  O  O118  1  0.84776000  0.11155000  0.21475000  1.0
  O  O119  1  0.95945000  0.88845000  0.28530000  1.0
  O  O120  1  0.65357000  0.65081000  0.28643000  1.0
  O  O121  1  0.30443000  0.34918000  0.21369000  1.0
  O  O122  1  0.34642000  0.34919000  0.71356000  1.0
  O  O123  1  0.69556000  0.65083000  0.78631000  1.0
  O  O124  1  0.20236000  0.54797000  0.99796000  1.0
  O  O125  1  0.75025000  0.45232000  0.50200000  1.0
  O  O126  1  0.79766000  0.45202000  0.00203000  1.0
  O  O127  1  0.24975000  0.54768000  0.49800000  1.0
  O  O128  1  0.99691000  0.53114000  0.09766000  1.0
  O  O129  1  0.52825000  0.46853000  0.40231000  1.0
  O  O130  1  0.00310000  0.46886000  0.90233000  1.0
  O  O131  1  0.47175000  0.53147000  0.59769000  1.0
