# generated using pymatgen
data_SmH18C18(NO2)4
_symmetry_space_group_name_H-M   'P 1'
_cell_length_a   9.96599000
_cell_length_b   10.39100000
_cell_length_c   11.00850000
_cell_angle_alpha   78.11870000
_cell_angle_beta   76.86200000
_cell_angle_gamma   66.13410000
_symmetry_Int_Tables_number   1
_chemical_formula_structural   SmH18C18(NO2)4
_chemical_formula_sum   'Sm2 H36 C36 N8 O16'
_cell_volume   1006.89831266
_cell_formula_units_Z   2
loop_
 _symmetry_equiv_pos_site_id
 _symmetry_equiv_pos_as_xyz
  1  'x, y, z'
loop_
 _atom_site_type_symbol
 _atom_site_label
 _atom_site_symmetry_multiplicity
 _atom_site_fract_x
 _atom_site_fract_y
 _atom_site_fract_z
 _atom_site_occupancy
  Sm  Sm0  1  0.05619000  0.77395000  0.17666000  1.0
  Sm  Sm1  1  0.94381000  0.22605000  0.82334000  1.0
  H  H2  1  0.33698000  0.15057000  0.84252000  1.0
  H  H3  1  0.66302000  0.84943000  0.15748000  1.0
  H  H4  1  0.39557000  0.87301000  0.19031000  1.0
  H  H5  1  0.60443000  0.12699000  0.80969000  1.0
  H  H6  1  0.56564000  0.59179000  0.27687000  1.0
  H  H7  1  0.43436000  0.40820000  0.72313000  1.0
  H  H8  1  0.24728000  0.49329000  0.57794000  1.0
  H  H9  1  0.75272000  0.50671000  0.42206000  1.0
  H  H10  1  0.70167000  0.08451000  0.49700000  1.0
  H  H11  1  0.29833000  0.91549000  0.50300000  1.0
  H  H12  1  0.55335000  0.79867000  0.38437000  1.0
  H  H13  1  0.44665000  0.20133000  0.61563000  1.0
  H  H14  1  0.53782000  0.85877000  0.73371000  1.0
  H  H15  1  0.46218000  0.14123000  0.26629000  1.0
  H  H16  1  0.57859000  0.69458000  0.68063000  1.0
  H  H17  1  0.42141000  0.30543000  0.31937000  1.0
  H  H18  1  0.67175000  0.57060000  0.86897000  1.0
  H  H19  1  0.32825000  0.42940000  0.13103000  1.0
  H  H20  1  0.63436000  0.73518000  0.92022000  1.0
  H  H21  1  0.36564000  0.26483000  0.07978000  1.0
  H  H22  1  0.98080000  0.26132000  0.44984000  1.0
  H  H23  1  0.01920000  0.73868000  0.55016000  1.0
  H  H24  1  0.15563000  0.19083000  0.34988000  1.0
  H  H25  1  0.84437000  0.80917000  0.65012000  1.0
  H  H26  1  0.00398000  0.15270000  0.22822000  1.0
  H  H27  1  0.99602000  0.84730000  0.77178000  1.0
  H  H28  1  0.84196000  0.29598000  0.28399000  1.0
  H  H29  1  0.15803000  0.70403000  0.71601000  1.0
  H  H30  1  0.44797000  0.63201000  0.06170000  1.0
  H  H31  1  0.55203000  0.36799000  0.93830000  1.0
  H  H32  1  0.28600000  0.85577000  0.74692000  1.0
  H  H33  1  0.71400000  0.14423000  0.25308000  1.0
  H  H34  1  0.08044000  0.46475000  0.36209000  1.0
  H  H35  1  0.91956000  0.53525000  0.63791000  1.0
  H  H36  1  0.96539000  0.38072000  0.06306000  1.0
  H  H37  1  0.03461000  0.61928000  0.93694000  1.0
  C  C38  1  0.35215000  0.01335000  0.01859000  1.0
  C  C39  1  0.64785000  0.98665000  0.98141000  1.0
  C  C40  1  0.40984000  0.08472000  0.91043000  1.0
  C  C41  1  0.59016000  0.91528000  0.08957000  1.0
  C  C42  1  0.44267000  0.92873000  0.10807000  1.0
  C  C43  1  0.55733000  0.07127000  0.89193000  1.0
  C  C44  1  0.19479000  0.02445000  0.03619000  1.0
  C  C45  1  0.80521000  0.97555000  0.96381000  1.0
  C  C46  1  0.39502000  0.54908000  0.41899000  1.0
  C  C47  1  0.60499000  0.45091000  0.58102000  1.0
  C  C48  1  0.53803000  0.55094000  0.37474000  1.0
  C  C49  1  0.46197000  0.44905000  0.62527000  1.0
  C  C50  1  0.35742000  0.49732000  0.54479000  1.0
  C  C51  1  0.64258000  0.50268000  0.45522000  1.0
  C  C52  1  0.28219000  0.60569000  0.33284000  1.0
  C  C53  1  0.71781000  0.39430000  0.66716000  1.0
  C  C54  1  0.64244000  0.93464000  0.43344000  1.0
  C  C55  1  0.35756000  0.06536000  0.56656000  1.0
  C  C56  1  0.61276000  0.04791000  0.49918000  1.0
  C  C57  1  0.38724000  0.95209000  0.50082000  1.0
  C  C58  1  0.52884000  0.88706000  0.43513000  1.0
  C  C59  1  0.47116000  0.11294000  0.56487000  1.0
  C  C60  1  0.79183000  0.87017000  0.35581000  1.0
  C  C61  1  0.20817000  0.12983000  0.64419000  1.0
  C  C62  1  0.33050000  0.72866000  0.91486000  1.0
  C  C63  1  0.66950000  0.27134000  0.08514000  1.0
  C  C64  1  0.52383000  0.75661000  0.75993000  1.0
  C  C65  1  0.47617000  0.24339000  0.24007000  1.0
  C  C66  1  0.58635000  0.67598000  0.88289000  1.0
  C  C67  1  0.41365000  0.32402000  0.11711000  1.0
  C  C68  1  0.04126000  0.27112000  0.35424000  1.0
  C  C69  1  0.95874000  0.72888000  0.64576000  1.0
  C  C70  1  0.96317000  0.26000000  0.25330000  1.0
  C  C71  1  0.03683000  0.74000000  0.74670000  1.0
  C  C72  1  0.03088000  0.45493000  0.19188000  1.0
  C  C73  1  0.96912000  0.54507000  0.80812000  1.0
  N  N74  1  0.45532000  0.66447000  0.96740000  1.0
  N  N75  1  0.54468000  0.33553000  0.03260000  1.0
  N  N76  1  0.36647000  0.77661000  0.79163000  1.0
  N  N77  1  0.63353000  0.22339000  0.20837000  1.0
  N  N78  1  0.04318000  0.41378000  0.31540000  1.0
  N  N79  1  0.95682000  0.58622000  0.68459000  1.0
  N  N80  1  0.99924000  0.35942000  0.14842000  1.0
  N  N81  1  0.00076000  0.64058000  0.85158000  1.0
  O  O82  1  0.14621000  0.95704000  0.13468000  1.0
  O  O83  1  0.85379000  0.04296000  0.86532000  1.0
  O  O84  1  0.11902000  0.09977000  0.95106000  1.0
  O  O85  1  0.88098000  0.90023000  0.04894000  1.0
  O  O86  1  0.14716000  0.61847000  0.37551000  1.0
  O  O87  1  0.85284000  0.38152000  0.62449000  1.0
  O  O88  1  0.32053000  0.64550000  0.21688000  1.0
  O  O89  1  0.67947000  0.35450000  0.78312000  1.0
  O  O90  1  0.82876000  0.75054000  0.31850000  1.0
  O  O91  1  0.17124000  0.24946000  0.68150000  1.0
  O  O92  1  0.87710000  0.94121000  0.32432000  1.0
  O  O93  1  0.12290000  0.05879000  0.67568000  1.0
  O  O94  1  0.20086000  0.74063000  0.96912000  1.0
  O  O95  1  0.79914000  0.25937000  0.03088000  1.0
  O  O96  1  0.04915000  0.56429000  0.12629000  1.0
  O  O97  1  0.95085000  0.43571000  0.87371000  1.0
