# generated using pymatgen
data_SnH11C5O2
_symmetry_space_group_name_H-M   'P 1'
_cell_length_a   7.93409000
_cell_length_b   7.93408000
_cell_length_c   12.93770000
_cell_angle_alpha   74.39600000
_cell_angle_beta   74.39670000
_cell_angle_gamma   73.73230000
_symmetry_Int_Tables_number   1
_chemical_formula_structural   SnH11C5O2
_chemical_formula_sum   'Sn4 H44 C20 O8'
_cell_volume   736.30567462
_cell_formula_units_Z   4
loop_
 _symmetry_equiv_pos_site_id
 _symmetry_equiv_pos_as_xyz
  1  'x, y, z'
loop_
 _atom_site_type_symbol
 _atom_site_label
 _atom_site_symmetry_multiplicity
 _atom_site_fract_x
 _atom_site_fract_y
 _atom_site_fract_z
 _atom_site_occupancy
  Sn  Sn0  1  0.42859000  0.20574000  0.20919000  1.0
  Sn  Sn1  1  0.20577000  0.42855000  0.70921000  1.0
  Sn  Sn2  1  0.57143000  0.79424000  0.79080000  1.0
  Sn  Sn3  1  0.79423000  0.57143000  0.29080000  1.0
  H  H4  1  0.97578000  0.80778000  0.01553000  1.0
  H  H5  1  0.80777000  0.97579000  0.51555000  1.0
  H  H6  1  0.02421000  0.19224000  0.98445000  1.0
  H  H7  1  0.19224000  0.02421000  0.48446000  1.0
  H  H8  1  0.06072000  0.87758000  0.10427000  1.0
  H  H9  1  0.87758000  0.06074000  0.60426000  1.0
  H  H10  1  0.93929000  0.12242000  0.89573000  1.0
  H  H11  1  0.12242000  0.93926000  0.39575000  1.0
  H  H12  1  0.33933000  0.52647000  0.06737000  1.0
  H  H13  1  0.52646000  0.33934000  0.56737000  1.0
  H  H14  1  0.66066000  0.47354000  0.93263000  1.0
  H  H15  1  0.47354000  0.66066000  0.43263000  1.0
  H  H16  1  0.52862000  0.52342000  0.11764000  1.0
  H  H17  1  0.52343000  0.52862000  0.61763000  1.0
  H  H18  1  0.47138000  0.47657000  0.88237000  1.0
  H  H19  1  0.47657000  0.47138000  0.38236000  1.0
  H  H20  1  0.30864000  0.56028000  0.20283000  1.0
  H  H21  1  0.56029000  0.30864000  0.70283000  1.0
  H  H22  1  0.69136000  0.43971000  0.79718000  1.0
  H  H23  1  0.43972000  0.69136000  0.29717000  1.0
  H  H24  1  0.53656000  0.96373000  0.38539000  1.0
  H  H25  1  0.96376000  0.53656000  0.88540000  1.0
  H  H26  1  0.46343000  0.03626000  0.61461000  1.0
  H  H27  1  0.03625000  0.46345000  0.11460000  1.0
  H  H28  1  0.44059000  0.17884000  0.42031000  1.0
  H  H29  1  0.17886000  0.44060000  0.92032000  1.0
  H  H30  1  0.55940000  0.82116000  0.57969000  1.0
  H  H31  1  0.82114000  0.55941000  0.07968000  1.0
  H  H32  1  0.66469000  0.13289000  0.34239000  1.0
  H  H33  1  0.13292000  0.66468000  0.84239000  1.0
  H  H34  1  0.33531000  0.86710000  0.65761000  1.0
  H  H35  1  0.86709000  0.33533000  0.15761000  1.0
  H  H36  1  0.33259000  0.91744000  0.18356000  1.0
  H  H37  1  0.91744000  0.33261000  0.68356000  1.0
  H  H38  1  0.66740000  0.08255000  0.81645000  1.0
  H  H39  1  0.08255000  0.66740000  0.31645000  1.0
  H  H40  1  0.37168000  0.06859000  0.05463000  1.0
  H  H41  1  0.06859000  0.37170000  0.55464000  1.0
  H  H42  1  0.62831000  0.93141000  0.94537000  1.0
  H  H43  1  0.93140000  0.62830000  0.44537000  1.0
  H  H44  1  0.16519000  0.11816000  0.15156000  1.0
  H  H45  1  0.11817000  0.16520000  0.65156000  1.0
  H  H46  1  0.83480000  0.88183000  0.84844000  1.0
  H  H47  1  0.88182000  0.83480000  0.34844000  1.0
  C  C48  1  0.78106000  0.98009000  0.11269000  1.0
  C  C49  1  0.98008000  0.78105000  0.61272000  1.0
  C  C50  1  0.21894000  0.01992000  0.88730000  1.0
  C  C51  1  0.01992000  0.21896000  0.38728000  1.0
  C  C52  1  0.96916000  0.92593000  0.04651000  1.0
  C  C53  1  0.92591000  0.96918000  0.54652000  1.0
  C  C54  1  0.03083000  0.07409000  0.95348000  1.0
  C  C55  1  0.07409000  0.03082000  0.45349000  1.0
  C  C56  1  0.39774000  0.48804000  0.14031000  1.0
  C  C57  1  0.48807000  0.39774000  0.64030000  1.0
  C  C58  1  0.60225000  0.51195000  0.85970000  1.0
  C  C59  1  0.51193000  0.60226000  0.35970000  1.0
  C  C60  1  0.53035000  0.10783000  0.35729000  1.0
  C  C61  1  0.10786000  0.53034000  0.85729000  1.0
  C  C62  1  0.46965000  0.89216000  0.64271000  1.0
  C  C63  1  0.89214000  0.46966000  0.14271000  1.0
  C  C64  1  0.30928000  0.05891000  0.14191000  1.0
  C  C65  1  0.05891000  0.30929000  0.64192000  1.0
  C  C66  1  0.69071000  0.94108000  0.85809000  1.0
  C  C67  1  0.94109000  0.69071000  0.35809000  1.0
  O  O68  1  0.70095000  0.14693000  0.09667000  1.0
  O  O69  1  0.14691000  0.70097000  0.59669000  1.0
  O  O70  1  0.29905000  0.85307000  0.90332000  1.0
  O  O71  1  0.85310000  0.29903000  0.40331000  1.0
  O  O72  1  0.70691000  0.86161000  0.18223000  1.0
  O  O73  1  0.86162000  0.70693000  0.68223000  1.0
  O  O74  1  0.29310000  0.13839000  0.81776000  1.0
  O  O75  1  0.13840000  0.29306000  0.31777000  1.0
