# generated using pymatgen
data_ZnH28C32(N2O3)2
_symmetry_space_group_name_H-M   'P 1'
_cell_length_a   7.18658000
_cell_length_b   13.82150000
_cell_length_c   14.41580000
_cell_angle_alpha   89.99990000
_cell_angle_beta   101.86300000
_cell_angle_gamma   89.99970000
_symmetry_Int_Tables_number   1
_chemical_formula_structural   ZnH28C32(N2O3)2
_chemical_formula_sum   'Zn2 H56 C64 N8 O12'
_cell_volume   1401.32869596
_cell_formula_units_Z   2
loop_
 _symmetry_equiv_pos_site_id
 _symmetry_equiv_pos_as_xyz
  1  'x, y, z'
loop_
 _atom_site_type_symbol
 _atom_site_label
 _atom_site_symmetry_multiplicity
 _atom_site_fract_x
 _atom_site_fract_y
 _atom_site_fract_z
 _atom_site_occupancy
  Zn  Zn0  1  0.25000000  0.25582000  0.25000000  1.0
  Zn  Zn1  1  0.75000000  0.74418000  0.75000000  1.0
  H  H2  1  0.81881000  0.27124000  0.17214000  1.0
  H  H3  1  0.68120000  0.27124000  0.32786000  1.0
  H  H4  1  0.18120000  0.72876000  0.82786000  1.0
  H  H5  1  0.31880000  0.72876000  0.67214000  1.0
  H  H6  1  0.18248000  0.04034000  0.13635000  1.0
  H  H7  1  0.31754000  0.04035000  0.36365000  1.0
  H  H8  1  0.81753000  0.95966000  0.86365000  1.0
  H  H9  1  0.68247000  0.95966000  0.63635000  1.0
  H  H10  1  0.81362000  0.99939000  0.03739000  1.0
  H  H11  1  0.68640000  0.99938000  0.46261000  1.0
  H  H12  1  0.18638000  0.00062000  0.96261000  1.0
  H  H13  1  0.31361000  0.00061000  0.53738000  1.0
  H  H14  1  0.49495000  0.18809000  0.10991000  1.0
  H  H15  1  0.00506000  0.18809000  0.39009000  1.0
  H  H16  1  0.50505000  0.81191000  0.89009000  1.0
  H  H17  1  0.99494000  0.81191000  0.60990000  1.0
  H  H18  1  0.49135000  0.07859000  0.04383000  1.0
  H  H19  1  0.00866000  0.07859000  0.45617000  1.0
  H  H20  1  0.50865000  0.92141000  0.95617000  1.0
  H  H21  1  0.99135000  0.92141000  0.54383000  1.0
  H  H22  1  0.37242000  0.24179000  0.95436000  1.0
  H  H23  1  0.12759000  0.24179000  0.54564000  1.0
  H  H24  1  0.62758000  0.75821000  0.04564000  1.0
  H  H25  1  0.87241000  0.75822000  0.45436000  1.0
  H  H26  1  0.61097000  0.27579000  0.97508000  1.0
  H  H27  1  0.88905000  0.27579000  0.52492000  1.0
  H  H28  1  0.38904000  0.72421000  0.02492000  1.0
  H  H29  1  0.11096000  0.72421000  0.47508000  1.0
  H  H30  1  0.51489000  0.35764000  0.84899000  1.0
  H  H31  1  0.98510000  0.35764000  0.65101000  1.0
  H  H32  1  0.48511000  0.64236000  0.15101000  1.0
  H  H33  1  0.01490000  0.64236000  0.34899000  1.0
  H  H34  1  0.49726000  0.44408000  0.69747000  1.0
  H  H35  1  0.00274000  0.44408000  0.80252000  1.0
  H  H36  1  0.50275000  0.55592000  0.30253000  1.0
  H  H37  1  0.99725000  0.55592000  0.19747000  1.0
  H  H38  1  0.48097000  0.35164000  0.54777000  1.0
  H  H39  1  0.01902000  0.35164000  0.95222000  1.0
  H  H40  1  0.51903000  0.64836000  0.45223000  1.0
  H  H41  1  0.98096000  0.64836000  0.04777000  1.0
  H  H42  1  0.48258000  0.17179000  0.55044000  1.0
  H  H43  1  0.01742000  0.17179000  0.94955000  1.0
  H  H44  1  0.51743000  0.82821000  0.44956000  1.0
  H  H45  1  0.98257000  0.82821000  0.05044000  1.0
  H  H46  1  0.50629000  0.08427000  0.70456000  1.0
  H  H47  1  0.99372000  0.08427000  0.79544000  1.0
  H  H48  1  0.49371000  0.91573000  0.29544000  1.0
  H  H49  1  0.00630000  0.91573000  0.20455000  1.0
  H  H50  1  0.35339000  0.50793000  0.52773000  1.0
  H  H51  1  0.14660000  0.50793000  0.97227000  1.0
  H  H52  1  0.64660000  0.49207000  0.47227000  1.0
  H  H53  1  0.85339000  0.49207000  0.02773000  1.0
  H  H54  1  0.81928000  0.40517000  0.36511000  1.0
  H  H55  1  0.68071000  0.40517000  0.13489000  1.0
  H  H56  1  0.18071000  0.59483000  0.63489000  1.0
  H  H57  1  0.31928000  0.59483000  0.86511000  1.0
  C  C58  1  0.86932000  0.20299000  0.14984000  1.0
  C  C59  1  0.63070000  0.20299000  0.35016000  1.0
  C  C60  1  0.13069000  0.79701000  0.85016000  1.0
  C  C61  1  0.36931000  0.79701000  0.64984000  1.0
  C  C62  1  0.05257000  0.08256000  0.12853000  1.0
  C  C63  1  0.44744000  0.08256000  0.37148000  1.0
  C  C64  1  0.94743000  0.91744000  0.87148000  1.0
  C  C65  1  0.55257000  0.91744000  0.62853000  1.0
  C  C66  1  0.87168000  0.06095000  0.07994000  1.0
  C  C67  1  0.62833000  0.06095000  0.42006000  1.0
  C  C68  1  0.12832000  0.93905000  0.92006000  1.0
  C  C69  1  0.37167000  0.93905000  0.57994000  1.0
  C  C70  1  0.55458000  0.15083000  0.05549000  1.0
  C  C71  1  0.94543000  0.15083000  0.44451000  1.0
  C  C72  1  0.44542000  0.84917000  0.94451000  1.0
  C  C73  1  0.05458000  0.84917000  0.55548000  1.0
  C  C74  1  0.51753000  0.21195000  0.96564000  1.0
  C  C75  1  0.98248000  0.21195000  0.53436000  1.0
  C  C76  1  0.48247000  0.78805000  0.03436000  1.0
  C  C77  1  0.01753000  0.78805000  0.46563000  1.0
  C  C78  1  0.53492000  0.15822000  0.87615000  1.0
  C  C79  1  0.96509000  0.15821000  0.62385000  1.0
  C  C80  1  0.46508000  0.84178000  0.12385000  1.0
  C  C81  1  0.03493000  0.84179000  0.37615000  1.0
  C  C82  1  0.51296000  0.21428000  0.78651000  1.0
  C  C83  1  0.98704000  0.21428000  0.71349000  1.0
  C  C84  1  0.48704000  0.78572000  0.21349000  1.0
  C  C85  1  0.01297000  0.78572000  0.28651000  1.0
  C  C86  1  0.50734000  0.31597000  0.78418000  1.0
  C  C87  1  0.99266000  0.31597000  0.71582000  1.0
  C  C88  1  0.49266000  0.68403000  0.21582000  1.0
  C  C89  1  0.00734000  0.68403000  0.28418000  1.0
  C  C90  1  0.49612000  0.36516000  0.69872000  1.0
  C  C91  1  0.00387000  0.36516000  0.80128000  1.0
  C  C92  1  0.50388000  0.63484000  0.30129000  1.0
  C  C93  1  0.99612000  0.63483000  0.19872000  1.0
  C  C94  1  0.48799000  0.31342000  0.61468000  1.0
  C  C95  1  0.01201000  0.31342000  0.88532000  1.0
  C  C96  1  0.51202000  0.68658000  0.38532000  1.0
  C  C97  1  0.98798000  0.68658000  0.11468000  1.0
  C  C98  1  0.48938000  0.21207000  0.61622000  1.0
  C  C99  1  0.01062000  0.21207000  0.88378000  1.0
  C  C100  1  0.51062000  0.78793000  0.38378000  1.0
  C  C101  1  0.98938000  0.78793000  0.11622000  1.0
  C  C102  1  0.50243000  0.16294000  0.70145000  1.0
  C  C103  1  0.99757000  0.16294000  0.79854000  1.0
  C  C104  1  0.49757000  0.83706000  0.29855000  1.0
  C  C105  1  0.00244000  0.83706000  0.20145000  1.0
  C  C106  1  0.20060000  0.39098000  0.37947000  1.0
  C  C107  1  0.29939000  0.39099000  0.12053000  1.0
  C  C108  1  0.79939000  0.60901000  0.62053000  1.0
  C  C109  1  0.70060000  0.60901000  0.87948000  1.0
  C  C110  1  0.09663000  0.44936000  0.44012000  1.0
  C  C111  1  0.40336000  0.44937000  0.05988000  1.0
  C  C112  1  0.90337000  0.55063000  0.55988000  1.0
  C  C113  1  0.59663000  0.55063000  0.94012000  1.0
  C  C114  1  0.19885000  0.50411000  0.51547000  1.0
  C  C115  1  0.30114000  0.50412000  0.98453000  1.0
  C  C116  1  0.80114000  0.49588000  0.48453000  1.0
  C  C117  1  0.69885000  0.49588000  0.01547000  1.0
  C  C118  1  0.89759000  0.44632000  0.42493000  1.0
  C  C119  1  0.60240000  0.44632000  0.07507000  1.0
  C  C120  1  0.10240000  0.55368000  0.57507000  1.0
  C  C121  1  0.39759000  0.55368000  0.92493000  1.0
  N  N122  1  0.04835000  0.17159000  0.17175000  1.0
  N  N123  1  0.45166000  0.17159000  0.32825000  1.0
  N  N124  1  0.95166000  0.82841000  0.82825000  1.0
  N  N125  1  0.54834000  0.82841000  0.67175000  1.0
  N  N126  1  0.75794000  0.13769000  0.09451000  1.0
  N  N127  1  0.74207000  0.13769000  0.40549000  1.0
  N  N128  1  0.24206000  0.86231000  0.90549000  1.0
  N  N129  1  0.25793000  0.86231000  0.59451000  1.0
  O  O130  1  0.56414000  0.06977000  0.87810000  1.0
  O  O131  1  0.93589000  0.06976000  0.62190000  1.0
  O  O132  1  0.43586000  0.93024000  0.12190000  1.0
  O  O133  1  0.06415000  0.93024000  0.37810000  1.0
  O  O134  1  0.09660000  0.32688000  0.32582000  1.0
  O  O135  1  0.40339000  0.32688000  0.17418000  1.0
  O  O136  1  0.90339000  0.67312000  0.67418000  1.0
  O  O137  1  0.59660000  0.67312000  0.82582000  1.0
  O  O138  1  0.37479000  0.40262000  0.38391000  1.0
  O  O139  1  0.12520000  0.40262000  0.11609000  1.0
  O  O140  1  0.62520000  0.59738000  0.61609000  1.0
  O  O141  1  0.87479000  0.59738000  0.88391000  1.0
