# generated using pymatgen
data_Cu3H9C15N16
_symmetry_space_group_name_H-M   'P 1'
_cell_length_a   24.24910000
_cell_length_b   26.86920000
_cell_length_c   26.87970000
_cell_angle_alpha   92.64840000
_cell_angle_beta   90.68660000
_cell_angle_gamma   102.19600000
_symmetry_Int_Tables_number   1
_chemical_formula_structural   Cu3H9C15N16
_chemical_formula_sum   'Cu12 H36 C60 N64'
_cell_volume   17095.77847983
_cell_formula_units_Z   4
loop_
 _symmetry_equiv_pos_site_id
 _symmetry_equiv_pos_as_xyz
  1  'x, y, z'
loop_
 _atom_site_type_symbol
 _atom_site_label
 _atom_site_symmetry_multiplicity
 _atom_site_fract_x
 _atom_site_fract_y
 _atom_site_fract_z
 _atom_site_occupancy
  Cu  Cu0  1  0.42412000  0.34595000  0.58427000  1.0
  Cu  Cu1  1  0.40788000  0.45110000  0.62893000  1.0
  Cu  Cu2  1  0.44551000  0.37482000  0.70057000  1.0
  Cu  Cu3  1  0.59757000  0.84661000  0.91615000  1.0
  Cu  Cu4  1  0.68171000  0.94027000  0.87418000  1.0
  Cu  Cu5  1  0.56141000  0.89050000  0.81821000  1.0
  Cu  Cu6  1  0.92313000  0.19240000  0.41211000  1.0
  Cu  Cu7  1  0.85158000  0.08006000  0.38265000  1.0
  Cu  Cu8  1  0.97601000  0.11646000  0.34411000  1.0
  Cu  Cu9  1  0.00822000  0.60469000  0.05950000  1.0
  Cu  Cu10  1  0.08508000  0.54525000  0.10845000  1.0
  Cu  Cu11  1  0.01489000  0.60036000  0.18290000  1.0
  H  H12  1  0.35341000  0.34215000  0.48102000  1.0
  H  H13  1  0.36758000  0.49950000  0.53316000  1.0
  H  H14  1  0.52557000  0.29965000  0.72737000  1.0
  H  H15  1  0.48955000  0.25640000  0.57114000  1.0
  H  H16  1  0.37337000  0.53034000  0.70539000  1.0
  H  H17  1  0.40808000  0.41887000  0.80626000  1.0
  H  H18  1  0.66253000  0.82900000  0.01329000  1.0
  H  H19  1  0.78261000  0.95614000  0.95739000  1.0
  H  H20  1  0.44389000  0.81014000  0.79119000  1.0
  H  H21  1  0.49727000  0.75236000  0.92762000  1.0
  H  H22  1  0.72712000  0.02946000  0.80214000  1.0
  H  H23  1  0.56410000  0.96559000  0.73212000  1.0
  H  H24  1  0.84399000  0.22872000  0.49253000  1.0
  H  H25  1  0.74945000  0.07539000  0.45604000  1.0
  H  H26  1  0.09565000  0.18645000  0.32249000  1.0
  H  H27  1  0.01993000  0.29333000  0.40951000  1.0
  H  H28  1  0.81282000  0.97552000  0.31793000  1.0
  H  H29  1  0.98627000  0.02183000  0.27247000  1.0
  H  H30  1  0.05956000  0.61509000  0.94752000  1.0
  H  H31  1  0.17020000  0.53436000  0.02327000  1.0
  H  H32  1  0.94519000  0.68544000  0.21010000  1.0
  H  H33  1  0.92134000  0.67236000  0.04974000  1.0
  H  H34  1  0.14414000  0.48571000  0.18019000  1.0
  H  H35  1  0.05561000  0.56178000  0.28894000  1.0
  H  H36  1  0.72873000  0.83595000  0.10111000  1.0
  H  H37  1  0.26003000  0.35906000  0.41615000  1.0
  H  H38  1  0.25785000  0.59519000  0.97109000  1.0
  H  H39  1  0.67515000  0.08897000  0.53828000  1.0
  H  H40  1  0.90494000  0.79019000  0.19742000  1.0
  H  H41  1  0.55293000  0.17541000  0.58347000  1.0
  H  H42  1  0.12396000  0.37170000  0.39283000  1.0
  H  H43  1  0.39508000  0.67953000  0.92670000  1.0
  H  H44  1  0.79783000  0.89893000  0.23204000  1.0
  H  H45  1  0.31144000  0.56915000  0.78456000  1.0
  H  H46  1  0.58154000  0.05045000  0.66822000  1.0
  H  H47  1  0.20880000  0.45868000  0.25419000  1.0
  C  C48  1  0.36143000  0.37898000  0.50121000  1.0
  C  C49  1  0.34707000  0.42479000  0.48851000  1.0
  C  C50  1  0.36937000  0.45962000  0.52781000  1.0
  C  C51  1  0.51040000  0.29498000  0.68896000  1.0
  C  C52  1  0.52285000  0.26223000  0.65050000  1.0
  C  C53  1  0.49197000  0.27240000  0.60913000  1.0
  C  C54  1  0.38473000  0.49841000  0.72329000  1.0
  C  C55  1  0.38138000  0.48590000  0.77339000  1.0
  C  C56  1  0.40285000  0.44137000  0.77475000  1.0
  C  C57  1  0.68544000  0.86073000  0.99316000  1.0
  C  C58  1  0.73842000  0.89251000  0.00376000  1.0
  C  C59  1  0.74692000  0.92553000  0.96423000  1.0
  C  C60  1  0.46502000  0.80304000  0.82511000  1.0
  C  C61  1  0.44908000  0.76385000  0.85817000  1.0
  C  C62  1  0.49192000  0.77346000  0.89506000  1.0
  C  C63  1  0.68563000  0.00737000  0.79114000  1.0
  C  C64  1  0.65023000  0.01419000  0.75145000  1.0
  C  C65  1  0.60227000  0.97503000  0.75520000  1.0
  C  C66  1  0.82757000  0.19037000  0.47707000  1.0
  C  C67  1  0.77958000  0.15490000  0.49064000  1.0
  C  C68  1  0.77895000  0.11198000  0.45871000  1.0
  C  C69  1  0.06903000  0.20571000  0.34512000  1.0
  C  C70  1  0.07930000  0.25674000  0.36325000  1.0
  C  C71  1  0.03065000  0.26070000  0.38961000  1.0
  C  C72  1  0.85643000  0.99403000  0.31219000  1.0
  C  C73  1  0.89663000  0.97947000  0.28070000  1.0
  C  C74  1  0.94532000  0.01790000  0.28943000  1.0
  C  C75  1  0.08032000  0.59426000  0.97286000  1.0
  C  C76  1  0.13117000  0.57764000  0.96761000  1.0
  C  C77  1  0.13723000  0.55346000  0.01189000  1.0
  C  C78  1  0.94507000  0.67625000  0.17034000  1.0
  C  C79  1  0.91910000  0.69565000  0.13087000  1.0
  C  C80  1  0.93277000  0.66887000  0.08836000  1.0
  C  C81  1  0.11879000  0.50836000  0.20036000  1.0
  C  C82  1  0.11157000  0.51473000  0.25177000  1.0
  C  C83  1  0.07316000  0.54715000  0.25580000  1.0
  C  C84  1  0.77585000  0.88947000  0.04531000  1.0
  C  C85  1  0.76531000  0.86151000  0.08730000  1.0
  C  C86  1  0.31451000  0.43432000  0.44589000  1.0
  C  C87  1  0.27545000  0.39989000  0.41626000  1.0
  C  C88  1  0.17389000  0.58677000  0.92984000  1.0
  C  C89  1  0.23131000  0.59394000  0.93821000  1.0
  C  C90  1  0.74240000  0.16128000  0.53100000  1.0
  C  C91  1  0.69669000  0.12755000  0.54906000  1.0
  C  C92  1  0.88671000  0.73513000  0.12938000  1.0
  C  C93  1  0.88421000  0.77622000  0.16214000  1.0
  C  C94  1  0.56101000  0.22773000  0.65342000  1.0
  C  C95  1  0.57072000  0.19023000  0.61964000  1.0
  C  C96  1  0.12820000  0.29584000  0.35318000  1.0
  C  C97  1  0.14270000  0.34675000  0.36866000  1.0
  C  C98  1  0.40094000  0.72160000  0.85482000  1.0
  C  C99  1  0.38184000  0.68584000  0.88935000  1.0
  C  C100  1  0.89019000  0.93752000  0.24389000  1.0
  C  C101  1  0.84243000  0.90440000  0.22466000  1.0
  C  C102  1  0.36201000  0.51401000  0.81435000  1.0
  C  C103  1  0.33107000  0.55168000  0.81353000  1.0
  C  C104  1  0.66064000  0.05353000  0.71573000  1.0
  C  C105  1  0.62498000  0.06561000  0.67977000  1.0
  C  C106  1  0.13807000  0.49077000  0.28980000  1.0
  C  C107  1  0.18201000  0.46557000  0.28453000  1.0
  N  N108  1  0.39482000  0.43605000  0.56168000  1.0
  N  N109  1  0.39006000  0.38606000  0.54516000  1.0
  N  N110  1  0.46319000  0.30867000  0.62205000  1.0
  N  N111  1  0.47462000  0.32258000  0.67160000  1.0
  N  N112  1  0.41764000  0.42830000  0.72855000  1.0
  N  N113  1  0.40657000  0.46376000  0.69673000  1.0
  N  N114  1  0.70194000  0.91409000  0.93253000  1.0
  N  N115  1  0.66391000  0.87393000  0.95053000  1.0
  N  N116  1  0.53053000  0.81536000  0.88471000  1.0
  N  N117  1  0.51392000  0.83373000  0.84142000  1.0
  N  N118  1  0.60862000  0.94694000  0.79433000  1.0
  N  N119  1  0.66032000  0.96706000  0.81667000  1.0
  N  N120  1  0.82360000  0.12118000  0.42845000  1.0
  N  N121  1  0.85371000  0.16981000  0.43993000  1.0
  N  N122  1  0.99409000  0.21521000  0.38718000  1.0
  N  N123  1  0.01795000  0.18118000  0.35965000  1.0
  N  N124  1  0.93463000  0.05287000  0.32343000  1.0
  N  N125  1  0.87955000  0.03810000  0.33765000  1.0
  N  N126  1  0.09346000  0.55584000  0.04153000  1.0
  N  N127  1  0.05818000  0.58123000  0.01753000  1.0
  N  N128  1  0.96487000  0.63620000  0.10145000  1.0
  N  N129  1  0.97251000  0.64054000  0.15242000  1.0
  N  N130  1  0.05894000  0.55929000  0.20984000  1.0
  N  N131  1  0.08721000  0.53506000  0.17562000  1.0
  N  N132  1  0.82712000  0.84437000  0.15339000  1.0
  N  N133  1  0.22234000  0.41398000  0.34015000  1.0
  N  N134  1  0.31060000  0.60779000  0.88394000  1.0
  N  N135  1  0.63765000  0.13369000  0.62119000  1.0
  N  N136  1  0.85704000  0.90249000  0.08691000  1.0
  N  N137  1  0.83206000  0.91435000  0.04739000  1.0
  N  N138  1  0.81615000  0.87094000  0.11197000  1.0
  N  N139  1  0.28202000  0.47975000  0.39100000  1.0
  N  N140  1  0.31681000  0.48233000  0.42942000  1.0
  N  N141  1  0.25649000  0.43030000  0.38407000  1.0
  N  N142  1  0.21236000  0.59830000  0.85610000  1.0
  N  N143  1  0.16453000  0.59012000  0.87930000  1.0
  N  N144  1  0.25345000  0.60097000  0.89213000  1.0
  N  N145  1  0.71401000  0.20147000  0.59603000  1.0
  N  N146  1  0.75047000  0.20596000  0.56038000  1.0
  N  N147  1  0.68099000  0.15401000  0.58902000  1.0
  N  N148  1  0.83223000  0.77866000  0.09256000  1.0
  N  N149  1  0.85440000  0.73830000  0.08775000  1.0
  N  N150  1  0.85110000  0.80194000  0.13679000  1.0
  N  N151  1  0.62815000  0.19573000  0.68752000  1.0
  N  N152  1  0.59634000  0.22887000  0.69439000  1.0
  N  N153  1  0.61245000  0.17202000  0.64229000  1.0
  N  N154  1  0.20679000  0.32692000  0.31443000  1.0
  N  N155  1  0.16909000  0.28569000  0.32081000  1.0
  N  N156  1  0.19139000  0.36447000  0.34363000  1.0
  N  N157  1  0.32840000  0.66818000  0.81855000  1.0
  N  N158  1  0.36659000  0.70936000  0.81253000  1.0
  N  N159  1  0.33678000  0.65398000  0.86584000  1.0
  N  N160  1  0.91994000  0.89075000  0.18442000  1.0
  N  N161  1  0.93620000  0.92666000  0.21875000  1.0
  N  N162  1  0.86251000  0.87598000  0.18839000  1.0
  N  N163  1  0.35653000  0.53965000  0.89280000  1.0
  N  N164  1  0.37564000  0.50763000  0.86354000  1.0
  N  N165  1  0.32868000  0.56637000  0.86270000  1.0
  N  N166  1  0.71026000  0.11966000  0.67905000  1.0
  N  N167  1  0.71221000  0.08705000  0.71315000  1.0
  N  N168  1  0.65745000  0.10638000  0.65833000  1.0
  N  N169  1  0.15016000  0.46096000  0.36328000  1.0
  N  N170  1  0.12069000  0.48735000  0.33860000  1.0
  N  N171  1  0.18805000  0.44800000  0.33048000  1.0
