# generated using pymatgen
data_CdH10C6S2(NO2)4
_symmetry_space_group_name_H-M   'P 1'
_cell_length_a   7.45142000
_cell_length_b   8.71995000
_cell_length_c   10.11750000
_cell_angle_alpha   89.99990000
_cell_angle_beta   89.99980000
_cell_angle_gamma   83.38710000
_symmetry_Int_Tables_number   1
_chemical_formula_structural   CdH10C6S2(NO2)4
_chemical_formula_sum   'Cd2 H20 C12 S4 N8 O16'
_cell_volume   653.02104166
_cell_formula_units_Z   2
loop_
 _symmetry_equiv_pos_site_id
 _symmetry_equiv_pos_as_xyz
  1  'x, y, z'
loop_
 _atom_site_type_symbol
 _atom_site_label
 _atom_site_symmetry_multiplicity
 _atom_site_fract_x
 _atom_site_fract_y
 _atom_site_fract_z
 _atom_site_occupancy
  Cd  Cd0  1  0.00000000  0.00000000  0.00000000  1.0
  Cd  Cd1  1  0.50000000  0.00000000  0.50000000  1.0
  H  H2  1  0.29162000  0.77285000  0.88188000  1.0
  H  H3  1  0.20837000  0.22715000  0.38188000  1.0
  H  H4  1  0.70837000  0.22715000  0.11812000  1.0
  H  H5  1  0.79162000  0.77285000  0.61812000  1.0
  H  H6  1  0.10813000  0.76021000  0.80401000  1.0
  H  H7  1  0.39187000  0.23979000  0.30401000  1.0
  H  H8  1  0.89187000  0.23979000  0.19600000  1.0
  H  H9  1  0.60813000  0.76021000  0.69600000  1.0
  H  H10  1  0.15879000  0.49873000  0.30357000  1.0
  H  H11  1  0.34121000  0.50127000  0.80358000  1.0
  H  H12  1  0.84120000  0.50127000  0.69642000  1.0
  H  H13  1  0.65880000  0.49873000  0.19642000  1.0
  H  H14  1  0.03878000  0.99730000  0.33696000  1.0
  H  H15  1  0.46121000  0.00269000  0.83696000  1.0
  H  H16  1  0.96121000  0.00269000  0.66305000  1.0
  H  H17  1  0.53879000  0.99731000  0.16304000  1.0
  H  H18  1  0.07481000  0.62797000  0.08386000  1.0
  H  H19  1  0.42519000  0.37202000  0.58386000  1.0
  H  H20  1  0.92519000  0.37203000  0.91614000  1.0
  H  H21  1  0.57482000  0.62797000  0.41614000  1.0
  C  C22  1  0.12382000  0.62174000  0.29070000  1.0
  C  C23  1  0.37618000  0.37826000  0.79071000  1.0
  C  C24  1  0.87617000  0.37825000  0.70929000  1.0
  C  C25  1  0.62383000  0.62175000  0.20929000  1.0
  C  C26  1  0.11300000  0.74411000  0.38040000  1.0
  C  C27  1  0.38700000  0.25588000  0.88040000  1.0
  C  C28  1  0.88699000  0.25588000  0.61961000  1.0
  C  C29  1  0.61301000  0.74412000  0.11960000  1.0
  C  C30  1  0.06108000  0.87801000  0.30561000  1.0
  C  C31  1  0.43892000  0.12199000  0.80561000  1.0
  C  C32  1  0.93892000  0.12199000  0.69439000  1.0
  C  C33  1  0.56108000  0.87801000  0.19439000  1.0
  S  S34  1  0.18180000  0.73706000  0.54567000  1.0
  S  S35  1  0.31820000  0.26294000  0.04568000  1.0
  S  S36  1  0.81820000  0.26294000  0.45433000  1.0
  S  S37  1  0.68180000  0.73707000  0.95432000  1.0
  N  N38  1  0.04054000  0.83976000  0.17908000  1.0
  N  N39  1  0.45946000  0.16024000  0.67908000  1.0
  N  N40  1  0.95946000  0.16024000  0.82092000  1.0
  N  N41  1  0.54054000  0.83976000  0.32092000  1.0
  N  N42  1  0.07981000  0.68442000  0.17220000  1.0
  N  N43  1  0.42019000  0.31558000  0.67220000  1.0
  N  N44  1  0.92019000  0.31558000  0.82780000  1.0
  N  N45  1  0.57981000  0.68442000  0.32780000  1.0
  O  O46  1  0.24370000  0.88970000  0.57077000  1.0
  O  O47  1  0.25630000  0.11030000  0.07078000  1.0
  O  O48  1  0.75629000  0.11030000  0.42922000  1.0
  O  O49  1  0.74371000  0.88970000  0.92922000  1.0
  O  O50  1  0.02402000  0.71977000  0.63195000  1.0
  O  O51  1  0.47598000  0.28023000  0.13195000  1.0
  O  O52  1  0.97598000  0.28023000  0.36805000  1.0
  O  O53  1  0.52402000  0.71977000  0.86805000  1.0
  O  O54  1  0.32278000  0.60744000  0.55628000  1.0
  O  O55  1  0.17722000  0.39256000  0.05628000  1.0
  O  O56  1  0.67722000  0.39256000  0.44372000  1.0
  O  O57  1  0.82278000  0.60745000  0.94372000  1.0
  O  O58  1  0.15828000  0.78745000  0.88994000  1.0
  O  O59  1  0.34172000  0.21255000  0.38994000  1.0
  O  O60  1  0.84172000  0.21255000  0.11006000  1.0
  O  O61  1  0.65828000  0.78745000  0.61006000  1.0
