# generated using pymatgen
data_Tb2H27C39(NO5)3
_symmetry_space_group_name_H-M   'P 1'
_cell_length_a   12.77030000
_cell_length_b   13.57430000
_cell_length_c   14.03890000
_cell_angle_alpha   66.43240000
_cell_angle_beta   66.93920000
_cell_angle_gamma   77.31270000
_symmetry_Int_Tables_number   1
_chemical_formula_structural   Tb2H27C39(NO5)3
_chemical_formula_sum   'Tb4 H54 C78 N6 O30'
_cell_volume   2046.63659864
_cell_formula_units_Z   2
loop_
 _symmetry_equiv_pos_site_id
 _symmetry_equiv_pos_as_xyz
  1  'x, y, z'
loop_
 _atom_site_type_symbol
 _atom_site_label
 _atom_site_symmetry_multiplicity
 _atom_site_fract_x
 _atom_site_fract_y
 _atom_site_fract_z
 _atom_site_occupancy
  Tb  Tb0  1  0.42482000  0.88499000  0.01044000  1.0
  Tb  Tb1  1  0.57518000  0.11501000  0.98956000  1.0
  Tb  Tb2  1  0.42754000  0.82154000  0.66371000  1.0
  Tb  Tb3  1  0.57246000  0.17846000  0.33629000  1.0
  H  H4  1  0.33635000  0.66219000  0.11011000  1.0
  H  H5  1  0.66365000  0.33780000  0.88989000  1.0
  H  H6  1  0.40225000  0.67618000  0.18210000  1.0
  H  H7  1  0.59775000  0.32382000  0.81790000  1.0
  H  H8  1  0.47175000  0.99970000  0.72913000  1.0
  H  H9  1  0.52825000  0.00030000  0.27087000  1.0
  H  H10  1  0.54553000  0.01660000  0.59895000  1.0
  H  H11  1  0.45447000  0.98340000  0.40105000  1.0
  H  H12  1  0.44955000  0.67526000  0.53299000  1.0
  H  H13  1  0.55045000  0.32474000  0.46701000  1.0
  H  H14  1  0.55619000  0.74389000  0.48156000  1.0
  H  H15  1  0.44381000  0.25611000  0.51844000  1.0
  H  H16  1  0.67777000  0.68325000  0.99339000  1.0
  H  H17  1  0.32223000  0.31674000  0.00661000  1.0
  H  H18  1  0.78117000  0.34971000  0.02628000  1.0
  H  H19  1  0.21883000  0.65029000  0.97373000  1.0
  H  H20  1  0.58492000  0.52713000  0.82831000  1.0
  H  H21  1  0.41508000  0.47287000  0.17169000  1.0
  H  H22  1  0.88931000  0.65207000  0.96296000  1.0
  H  H23  1  0.11069000  0.34793000  0.03705000  1.0
  H  H24  1  0.00730000  0.65664000  0.06483000  1.0
  H  H25  1  0.99270000  0.34336000  0.93517000  1.0
  H  H26  1  0.99572000  0.51349000  0.24813000  1.0
  H  H27  1  0.00428000  0.48651000  0.75187000  1.0
  H  H28  1  0.85957000  0.37056000  0.32840000  1.0
  H  H29  1  0.14043000  0.62944000  0.67161000  1.0
  H  H30  1  0.34355000  0.08212000  0.26024000  1.0
  H  H31  1  0.65645000  0.91788000  0.73976000  1.0
  H  H32  1  0.22998000  0.19652000  0.37103000  1.0
  H  H33  1  0.77002000  0.80348000  0.62897000  1.0
  H  H34  1  0.03492000  0.27341000  0.36531000  1.0
  H  H35  1  0.96507000  0.72658000  0.63469000  1.0
  H  H36  1  0.96030000  0.24084000  0.24357000  1.0
  H  H37  1  0.03970000  0.75916000  0.75643000  1.0
  H  H38  1  0.21614000  0.13893000  0.96787000  1.0
  H  H39  1  0.78386000  0.86108000  0.03213000  1.0
  H  H40  1  0.93182000  0.12432000  0.90256000  1.0
  H  H41  1  0.06818000  0.87568000  0.09744000  1.0
  H  H42  1  0.88416000  0.13141000  0.22014000  1.0
  H  H43  1  0.11584000  0.86859000  0.77986000  1.0
  H  H44  1  0.85107000  0.02319000  0.44438000  1.0
  H  H45  1  0.14893000  0.97682000  0.55562000  1.0
  H  H46  1  0.05809000  0.96281000  0.38706000  1.0
  H  H47  1  0.94191000  0.03719000  0.61294000  1.0
  H  H48  1  0.12423000  0.80999000  0.31651000  1.0
  H  H49  1  0.87577000  0.19001000  0.68349000  1.0
  H  H50  1  0.98373000  0.72039000  0.30211000  1.0
  H  H51  1  0.01627000  0.27961000  0.69789000  1.0
  H  H52  1  0.79553000  0.60164000  0.44478000  1.0
  H  H53  1  0.20447000  0.39836000  0.55522000  1.0
  H  H54  1  0.57386000  0.63594000  0.28096000  1.0
  H  H55  1  0.42614000  0.36407000  0.71904000  1.0
  H  H56  1  0.70521000  0.91994000  0.24495000  1.0
  H  H57  1  0.29479000  0.08006000  0.75505000  1.0
  C  C58  1  0.55962000  0.71798000  0.85499000  1.0
  C  C59  1  0.44038000  0.28202000  0.14501000  1.0
  C  C60  1  0.62539000  0.61744000  0.90391000  1.0
  C  C61  1  0.37461000  0.38256000  0.09609000  1.0
  C  C62  1  0.68086000  0.61205000  0.97430000  1.0
  C  C63  1  0.31914000  0.38795000  0.02571000  1.0
  C  C64  1  0.73940000  0.51562000  0.01988000  1.0
  C  C65  1  0.26060000  0.48438000  0.98012000  1.0
  C  C66  1  0.73717000  0.42702000  0.99298000  1.0
  C  C67  1  0.26283000  0.57298000  0.00702000  1.0
  C  C68  1  0.62911000  0.52512000  0.88185000  1.0
  C  C69  1  0.37089000  0.47488000  0.11815000  1.0
  C  C70  1  0.80561000  0.51128000  0.08796000  1.0
  C  C71  1  0.19438000  0.48872000  0.91204000  1.0
  C  C72  1  0.88154000  0.59163000  0.04435000  1.0
  C  C73  1  0.11846000  0.40838000  0.95565000  1.0
  C  C74  1  0.94934000  0.59307000  0.10095000  1.0
  C  C75  1  0.05066000  0.40693000  0.89905000  1.0
  C  C76  1  0.94291000  0.51312000  0.20318000  1.0
  C  C77  1  0.05709000  0.48688000  0.79682000  1.0
  C  C78  1  0.86811000  0.43277000  0.24765000  1.0
  C  C79  1  0.13189000  0.56723000  0.75235000  1.0
  C  C80  1  0.79921000  0.43059000  0.19166000  1.0
  C  C81  1  0.20079000  0.56941000  0.80834000  1.0
  C  C82  1  0.71758000  0.34412000  0.24886000  1.0
  C  C83  1  0.28242000  0.65588000  0.75114000  1.0
  C  C84  1  0.29090000  0.02441000  0.12755000  1.0
  C  C85  1  0.70910000  0.97558000  0.87245000  1.0
  C  C86  1  0.21792000  0.09857000  0.18681000  1.0
  C  C87  1  0.78208000  0.90143000  0.81319000  1.0
  C  C88  1  0.25950000  0.11745000  0.25619000  1.0
  C  C89  1  0.74050000  0.88255000  0.74381000  1.0
  C  C90  1  0.19498000  0.18079000  0.31966000  1.0
  C  C91  1  0.80502000  0.81921000  0.68034000  1.0
  C  C92  1  0.08670000  0.22446000  0.31529000  1.0
  C  C93  1  0.91330000  0.77554000  0.68471000  1.0
  C  C94  1  0.04464000  0.20569000  0.24695000  1.0
  C  C95  1  0.95536000  0.79430000  0.75304000  1.0
  C  C96  1  0.10879000  0.14317000  0.18095000  1.0
  C  C97  1  0.89121000  0.85682000  0.81905000  1.0
  C  C98  1  0.05909000  0.13218000  0.10697000  1.0
  C  C99  1  0.94091000  0.86782000  0.89303000  1.0
  C  C100  1  0.12393000  0.13264000  0.99946000  1.0
  C  C101  1  0.87607000  0.86736000  0.00054000  1.0
  C  C102  1  0.96674000  0.12769000  0.96077000  1.0
  C  C103  1  0.03326000  0.87231000  0.03923000  1.0
  C  C104  1  0.89342000  0.12959000  0.06507000  1.0
  C  C105  1  0.10658000  0.87041000  0.93492000  1.0
  C  C106  1  0.94073000  0.13068000  0.13878000  1.0
  C  C107  1  0.05927000  0.86932000  0.86121000  1.0
  C  C108  1  0.76679000  0.13186000  0.09679000  1.0
  C  C109  1  0.23321000  0.86814000  0.90321000  1.0
  C  C110  1  0.67734000  0.93250000  0.46447000  1.0
  C  C111  1  0.32266000  0.06750000  0.53553000  1.0
  C  C112  1  0.80078000  0.90295000  0.41083000  1.0
  C  C113  1  0.19922000  0.09706000  0.58917000  1.0
  C  C114  1  0.88138000  0.95601000  0.41406000  1.0
  C  C115  1  0.11862000  0.04400000  0.58594000  1.0
  C  C116  1  0.99685000  0.92153000  0.38268000  1.0
  C  C117  1  0.00315000  0.07847000  0.61732000  1.0
  C  C118  1  0.03361000  0.83482000  0.34491000  1.0
  C  C119  1  0.96638000  0.16519000  0.65509000  1.0
  C  C120  1  0.95456000  0.78390000  0.33777000  1.0
  C  C121  1  0.04544000  0.21611000  0.66223000  1.0
  C  C122  1  0.83792000  0.81659000  0.37021000  1.0
  C  C123  1  0.16208000  0.18342000  0.62979000  1.0
  C  C124  1  0.76005000  0.76763000  0.34936000  1.0
  C  C125  1  0.23995000  0.23238000  0.65064000  1.0
  C  C126  1  0.74934000  0.65623000  0.38996000  1.0
  C  C127  1  0.25066000  0.34378000  0.61003000  1.0
  C  C128  1  0.62569000  0.67471000  0.30010000  1.0
  C  C129  1  0.37431000  0.32529000  0.69990000  1.0
  C  C130  1  0.62875000  0.78731000  0.25582000  1.0
  C  C131  1  0.37125000  0.21269000  0.74418000  1.0
  C  C132  1  0.69814000  0.83330000  0.28038000  1.0
  C  C133  1  0.30186000  0.16670000  0.71963000  1.0
  C  C134  1  0.56088000  0.85833000  0.18382000  1.0
  C  C135  1  0.43912000  0.14167000  0.81617000  1.0
  N  N136  1  0.68324000  0.43137000  0.92628000  1.0
  N  N137  1  0.31675000  0.56863000  0.07373000  1.0
  N  N138  1  0.08016000  0.12960000  0.92826000  1.0
  N  N139  1  0.91985000  0.87040000  0.07174000  1.0
  N  N140  1  0.68348000  0.61001000  0.36689000  1.0
  N  N141  1  0.31652000  0.38999000  0.63311000  1.0
  O  O142  1  0.52082000  0.78355000  0.90709000  1.0
  O  O143  1  0.47918000  0.21645000  0.09291000  1.0
  O  O144  1  0.54701000  0.73112000  0.76575000  1.0
  O  O145  1  0.45300000  0.26888000  0.23425000  1.0
  O  O146  1  0.74407000  0.25311000  0.31408000  1.0
  O  O147  1  0.25593000  0.74689000  0.68592000  1.0
  O  O148  1  0.62176000  0.36240000  0.23316000  1.0
  O  O149  1  0.37824000  0.63760000  0.76684000  1.0
  O  O150  1  0.25579000  0.93703000  0.14464000  1.0
  O  O151  1  0.74421000  0.06298000  0.85536000  1.0
  O  O152  1  0.39248000  0.04977000  0.05918000  1.0
  O  O153  1  0.60752000  0.95023000  0.94082000  1.0
  O  O154  1  0.72910000  0.12776000  0.02758000  1.0
  O  O155  1  0.27090000  0.87224000  0.97241000  1.0
  O  O156  1  0.70465000  0.13931000  0.19032000  1.0
  O  O157  1  0.29535000  0.86070000  0.80967000  1.0
  O  O158  1  0.61015000  0.85723000  0.52111000  1.0
  O  O159  1  0.38985000  0.14277000  0.47889000  1.0
  O  O160  1  0.64670000  0.03111000  0.45736000  1.0
  O  O161  1  0.35330000  0.96889000  0.54264000  1.0
  O  O162  1  0.56356000  0.96039000  0.15605000  1.0
  O  O163  1  0.43644000  0.03961000  0.84395000  1.0
  O  O164  1  0.50592000  0.81497000  0.15447000  1.0
  O  O165  1  0.49408000  0.18503000  0.84553000  1.0
  O  O166  1  0.35511000  0.71474000  0.13640000  1.0
  O  O167  1  0.64489000  0.28526000  0.86360000  1.0
  O  O168  1  0.49227000  0.97177000  0.66840000  1.0
  O  O169  1  0.50773000  0.02823000  0.33160000  1.0
  O  O170  1  0.47375000  0.74375000  0.52047000  1.0
  O  O171  1  0.52625000  0.25625000  0.47954000  1.0
