# generated using pymatgen
data_Ni3H32(C22O7)2
_symmetry_space_group_name_H-M   'P 1'
_cell_length_a   6.21174000
_cell_length_b   21.28950000
_cell_length_c   21.48140000
_cell_angle_alpha   66.64100000
_cell_angle_beta   81.71560000
_cell_angle_gamma   81.63580000
_symmetry_Int_Tables_number   1
_chemical_formula_structural   Ni3H32(C22O7)2
_chemical_formula_sum   'Ni6 H64 C88 O28'
_cell_volume   2568.52442094
_cell_formula_units_Z   2
loop_
 _symmetry_equiv_pos_site_id
 _symmetry_equiv_pos_as_xyz
  1  'x, y, z'
loop_
 _atom_site_type_symbol
 _atom_site_label
 _atom_site_symmetry_multiplicity
 _atom_site_fract_x
 _atom_site_fract_y
 _atom_site_fract_z
 _atom_site_occupancy
  Ni  Ni0  1  0.51161000  0.55512000  0.92591000  1.0
  Ni  Ni1  1  0.99316000  0.94512000  0.57414000  1.0
  Ni  Ni2  1  0.48837000  0.44488000  0.07409000  1.0
  Ni  Ni3  1  0.00686000  0.05488000  0.42586000  1.0
  Ni  Ni4  1  0.99999000  0.50000000  0.00000000  1.0
  Ni  Ni5  1  0.50002000  0.00000000  0.50000000  1.0
  H  H6  1  0.42973000  0.74205000  0.43256000  1.0
  H  H7  1  0.08713000  0.75570000  0.53223000  1.0
  H  H8  1  0.07527000  0.65965000  0.49450000  1.0
  H  H9  1  0.43966000  0.83619000  0.47301000  1.0
  H  H10  1  0.29918000  0.54088000  0.64757000  1.0
  H  H11  1  0.71372000  0.57190000  0.15662000  1.0
  H  H12  1  0.52322000  0.62970000  0.56748000  1.0
  H  H13  1  0.57624000  0.59824000  0.25916000  1.0
  H  H14  1  0.35292000  0.50966000  0.22798000  1.0
  H  H15  1  0.92495000  0.66764000  0.34882000  1.0
  H  H16  1  0.21356000  0.53312000  0.33269000  1.0
  H  H17  1  0.62396000  0.67411000  0.87301000  1.0
  H  H18  1  0.83457000  0.62890000  0.90144000  1.0
  H  H19  1  0.23100000  0.62724000  0.83555000  1.0
  H  H20  1  0.21240000  0.54926000  0.85778000  1.0
  H  H21  1  0.64878000  0.55681000  0.02961000  1.0
  H  H22  1  0.60188000  0.75762000  0.06735000  1.0
  H  H23  1  0.37311000  0.74427000  0.96828000  1.0
  H  H24  1  0.22678000  0.84017000  0.00621000  1.0
  H  H25  1  0.74701000  0.66364000  0.02675000  1.0
  H  H26  1  0.48641000  0.95906000  0.85248000  1.0
  H  H27  1  0.44077000  0.92799000  0.34354000  1.0
  H  H28  1  0.71722000  0.86984000  0.93293000  1.0
  H  H29  1  0.43167000  0.90172000  0.24096000  1.0
  H  H30  1  0.08950000  0.98983000  0.27240000  1.0
  H  H31  1  0.93778000  0.83164000  0.15178000  1.0
  H  H32  1  0.07814000  0.96623000  0.16774000  1.0
  H  H33  1  0.17181000  0.82627000  0.62715000  1.0
  H  H34  1  0.36586000  0.87136000  0.59871000  1.0
  H  H35  1  0.69516000  0.87301000  0.66482000  1.0
  H  H36  1  0.62029000  0.95096000  0.64223000  1.0
  H  H37  1  0.23514000  0.94297000  0.47064000  1.0
  H  H38  1  0.57036000  0.25794000  0.56743000  1.0
  H  H39  1  0.91282000  0.24429000  0.46780000  1.0
  H  H40  1  0.92472000  0.34032000  0.50556000  1.0
  H  H41  1  0.56039000  0.16381000  0.52697000  1.0
  H  H42  1  0.70082000  0.45911000  0.35243000  1.0
  H  H43  1  0.28623000  0.42808000  0.84339000  1.0
  H  H44  1  0.47680000  0.37030000  0.43253000  1.0
  H  H45  1  0.42374000  0.40174000  0.74086000  1.0
  H  H46  1  0.64709000  0.49034000  0.77202000  1.0
  H  H47  1  0.07508000  0.33235000  0.65120000  1.0
  H  H48  1  0.78645000  0.46688000  0.66731000  1.0
  H  H49  1  0.37602000  0.32589000  0.12700000  1.0
  H  H50  1  0.16542000  0.37110000  0.09857000  1.0
  H  H51  1  0.76899000  0.37276000  0.16445000  1.0
  H  H52  1  0.78758000  0.45073000  0.14223000  1.0
  H  H53  1  0.35118000  0.44319000  0.97040000  1.0
  H  H54  1  0.39812000  0.24238000  0.93266000  1.0
  H  H55  1  0.62687000  0.25576000  0.03169000  1.0
  H  H56  1  0.77318000  0.15986000  0.99377000  1.0
  H  H57  1  0.25299000  0.33636000  0.97326000  1.0
  H  H58  1  0.51360000  0.04095000  0.14751000  1.0
  H  H59  1  0.55924000  0.07201000  0.65646000  1.0
  H  H60  1  0.28279000  0.13017000  0.06706000  1.0
  H  H61  1  0.56829000  0.09829000  0.75904000  1.0
  H  H62  1  0.91051000  0.01017000  0.72759000  1.0
  H  H63  1  0.06220000  0.16837000  0.84821000  1.0
  H  H64  1  0.92183000  0.03377000  0.83225000  1.0
  H  H65  1  0.82820000  0.17373000  0.37285000  1.0
  H  H66  1  0.63416000  0.12864000  0.40128000  1.0
  H  H67  1  0.30487000  0.12700000  0.33519000  1.0
  H  H68  1  0.37974000  0.04904000  0.35777000  1.0
  H  H69  1  0.76488000  0.05703000  0.52936000  1.0
  C  C70  1  0.57406000  0.74521000  0.45436000  1.0
  C  C71  1  0.94385000  0.75245000  0.51014000  1.0
  C  C72  1  0.93788000  0.69929000  0.48824000  1.0
  C  C73  1  0.76291000  0.80131000  0.50599000  1.0
  C  C74  1  0.57903000  0.79773000  0.47699000  1.0
  C  C75  1  0.43482000  0.47397000  0.52346000  1.0
  C  C76  1  0.37359000  0.53675000  0.60006000  1.0
  C  C77  1  0.82377000  0.56479000  0.19460000  1.0
  C  C78  1  0.49820000  0.58647000  0.55523000  1.0
  C  C79  1  0.76365000  0.85654000  0.53227000  1.0
  C  C80  1  0.59787000  0.58313000  0.49204000  1.0
  C  C81  1  0.74726000  0.57947000  0.25196000  1.0
  C  C82  1  0.75129000  0.69453000  0.46108000  1.0
  C  C83  1  0.12384000  0.51787000  0.12789000  1.0
  C  C84  1  0.33799000  0.47878000  0.58609000  1.0
  C  C85  1  0.18386000  0.53012000  0.23502000  1.0
  C  C86  1  0.82598000  0.62775000  0.38479000  1.0
  C  C87  1  0.04222000  0.53911000  0.18620000  1.0
  C  C88  1  0.10600000  0.54383000  0.29298000  1.0
  C  C89  1  0.88586000  0.56760000  0.30256000  1.0
  C  C90  1  0.72867000  0.63411000  0.44516000  1.0
  C  C91  1  0.79207000  0.57303000  0.36805000  1.0
  C  C92  1  0.77123000  0.75454000  0.04566000  1.0
  C  C93  1  0.20438000  0.74746000  0.99026000  1.0
  C  C94  1  0.12303000  0.80051000  0.01225000  1.0
  C  C95  1  0.06833000  0.69858000  0.99424000  1.0
  C  C96  1  0.85173000  0.70207000  0.02301000  1.0
  C  C97  1  0.43278000  0.02612000  0.97645000  1.0
  C  C98  1  0.50933000  0.96321000  0.89997000  1.0
  C  C99  1  0.58172000  0.93502000  0.30563000  1.0
  C  C100  1  0.63777000  0.91328000  0.94499000  1.0
  C  C101  1  0.15100000  0.64338000  0.96800000  1.0
  C  C102  1  0.67113000  0.91659000  0.00819000  1.0
  C  C103  1  0.57689000  0.92037000  0.24827000  1.0
  C  C104  1  0.90439000  0.80514000  0.03928000  1.0
  C  C105  1  0.76873000  0.98179000  0.37237000  1.0
  C  C106  1  0.40329000  0.02138000  0.91377000  1.0
  C  C107  1  0.94793000  0.96935000  0.26536000  1.0
  C  C108  1  0.83567000  0.87170000  0.11567000  1.0
  C  C109  1  0.76649000  0.96050000  0.31410000  1.0
  C  C110  1  0.94146000  0.95566000  0.20739000  1.0
  C  C111  1  0.75438000  0.93201000  0.19778000  1.0
  C  C112  1  0.80526000  0.86549000  0.05521000  1.0
  C  C113  1  0.73152000  0.92659000  0.13227000  1.0
  C  C114  1  0.42599000  0.25478000  0.54564000  1.0
  C  C115  1  0.05616000  0.24753000  0.48989000  1.0
  C  C116  1  0.06213000  0.30069000  0.51179000  1.0
  C  C117  1  0.23711000  0.19868000  0.49402000  1.0
  C  C118  1  0.42101000  0.20226000  0.52301000  1.0
  C  C119  1  0.56521000  0.52602000  0.47654000  1.0
  C  C120  1  0.62643000  0.46325000  0.39995000  1.0
  C  C121  1  0.17621000  0.43520000  0.80541000  1.0
  C  C122  1  0.50183000  0.41353000  0.44478000  1.0
  C  C123  1  0.23637000  0.14345000  0.46774000  1.0
  C  C124  1  0.40216000  0.41686000  0.50797000  1.0
  C  C125  1  0.25273000  0.42051000  0.74806000  1.0
  C  C126  1  0.24874000  0.30545000  0.53893000  1.0
  C  C127  1  0.87616000  0.48212000  0.87212000  1.0
  C  C128  1  0.66204000  0.52121000  0.41391000  1.0
  C  C129  1  0.81614000  0.46989000  0.76498000  1.0
  C  C130  1  0.17404000  0.37224000  0.61522000  1.0
  C  C131  1  0.95778000  0.46088000  0.81380000  1.0
  C  C132  1  0.89400000  0.45616000  0.70703000  1.0
  C  C133  1  0.11414000  0.43240000  0.69745000  1.0
  C  C134  1  0.27139000  0.36587000  0.55485000  1.0
  C  C135  1  0.20794000  0.42696000  0.63196000  1.0
  C  C136  1  0.22876000  0.24547000  0.95434000  1.0
  C  C137  1  0.79558000  0.25256000  0.00971000  1.0
  C  C138  1  0.87692000  0.19951000  0.98773000  1.0
  C  C139  1  0.93167000  0.30143000  0.00575000  1.0
  C  C140  1  0.14827000  0.29793000  0.97699000  1.0
  C  C141  1  0.56721000  0.97388000  0.02354000  1.0
  C  C142  1  0.49067000  0.03680000  0.10001000  1.0
  C  C143  1  0.41828000  0.06499000  0.69436000  1.0
  C  C144  1  0.36224000  0.08674000  0.05499000  1.0
  C  C145  1  0.84900000  0.35662000  0.03201000  1.0
  C  C146  1  0.32887000  0.08342000  0.99180000  1.0
  C  C147  1  0.42310000  0.07964000  0.75172000  1.0
  C  C148  1  0.09559000  0.19488000  0.96071000  1.0
  C  C149  1  0.23127000  0.01821000  0.62763000  1.0
  C  C150  1  0.59668000  0.97863000  0.08622000  1.0
  C  C151  1  0.05208000  0.03065000  0.73463000  1.0
  C  C152  1  0.16430000  0.12831000  0.88432000  1.0
  C  C153  1  0.23352000  0.03950000  0.68589000  1.0
  C  C154  1  0.05851000  0.04435000  0.79259000  1.0
  C  C155  1  0.24557000  0.06799000  0.80221000  1.0
  C  C156  1  0.19470000  0.13453000  0.94479000  1.0
  C  C157  1  0.26843000  0.07341000  0.86772000  1.0
  O  O158  1  0.72721000  0.63684000  0.86800000  1.0
  O  O159  1  0.67834000  0.52145000  0.01056000  1.0
  O  O160  1  0.58061000  0.89105000  0.53906000  1.0
  O  O161  1  0.32104000  0.58449000  0.84011000  1.0
  O  O162  1  0.94503000  0.86589000  0.54663000  1.0
  O  O163  1  0.32814000  0.51480000  0.11126000  1.0
  O  O164  1  0.98139000  0.50276000  0.09939000  1.0
  O  O165  1  0.23313000  0.86350000  0.63219000  1.0
  O  O166  1  0.21050000  0.97847000  0.48950000  1.0
  O  O167  1  0.00967000  0.60886000  0.96092000  1.0
  O  O168  1  0.74672000  0.91589000  0.66002000  1.0
  O  O169  1  0.35619000  0.63400000  0.95391000  1.0
  O  O170  1  0.95340000  0.98472000  0.38908000  1.0
  O  O171  1  0.58284000  0.99706000  0.40076000  1.0
  O  O172  1  0.27278000  0.36316000  0.13201000  1.0
  O  O173  1  0.32163000  0.47855000  0.98944000  1.0
  O  O174  1  0.41942000  0.10895000  0.46093000  1.0
  O  O175  1  0.67894000  0.41550000  0.15990000  1.0
  O  O176  1  0.05498000  0.13411000  0.45336000  1.0
  O  O177  1  0.67186000  0.48520000  0.88875000  1.0
  O  O178  1  0.01859000  0.49724000  0.90062000  1.0
  O  O179  1  0.76689000  0.13650000  0.36780000  1.0
  O  O180  1  0.78952000  0.02153000  0.51050000  1.0
  O  O181  1  0.99030000  0.39114000  0.03908000  1.0
  O  O182  1  0.25330000  0.08411000  0.33998000  1.0
  O  O183  1  0.64380000  0.36601000  0.04609000  1.0
  O  O184  1  0.04662000  0.01529000  0.61090000  1.0
  O  O185  1  0.41719000  0.00294000  0.59925000  1.0
