# generated using pymatgen
data_ZnH7C12O5
_symmetry_space_group_name_H-M   'P 1'
_cell_length_a   7.65611000
_cell_length_b   12.22700000
_cell_length_c   12.22700000
_cell_angle_alpha   85.28280000
_cell_angle_beta   86.55440000
_cell_angle_gamma   86.55450000
_symmetry_Int_Tables_number   1
_chemical_formula_structural   ZnH7C12O5
_chemical_formula_sum   'Zn4 H28 C48 O20'
_cell_volume   1136.89431246
_cell_formula_units_Z   4
loop_
 _symmetry_equiv_pos_site_id
 _symmetry_equiv_pos_as_xyz
  1  'x, y, z'
loop_
 _atom_site_type_symbol
 _atom_site_label
 _atom_site_symmetry_multiplicity
 _atom_site_fract_x
 _atom_site_fract_y
 _atom_site_fract_z
 _atom_site_occupancy
  Zn  Zn0  1  0.56595000  0.76466000  0.70225000  1.0
  Zn  Zn1  1  0.93405000  0.29775000  0.23534000  1.0
  Zn  Zn2  1  0.43405000  0.23534000  0.29775000  1.0
  Zn  Zn3  1  0.06595000  0.70225000  0.76466000  1.0
  H  H4  1  0.30603000  0.05269000  0.53815000  1.0
  H  H5  1  0.19397000  0.46185000  0.94731000  1.0
  H  H6  1  0.69397000  0.94731000  0.46185000  1.0
  H  H7  1  0.80603000  0.53815000  0.05269000  1.0
  H  H8  1  0.78868000  0.20927000  0.56027000  1.0
  H  H9  1  0.71132000  0.43973000  0.79073000  1.0
  H  H10  1  0.21132000  0.79073000  0.43973000  1.0
  H  H11  1  0.28868000  0.56027000  0.20927000  1.0
  H  H12  1  0.93051000  0.93878000  0.79362000  1.0
  H  H13  1  0.56949000  0.20638000  0.06122000  1.0
  H  H14  1  0.06949000  0.06122000  0.20638000  1.0
  H  H15  1  0.43050000  0.79362000  0.93878000  1.0
  H  H16  1  0.51005000  0.13341000  0.62686000  1.0
  H  H17  1  0.98995000  0.37314000  0.86659000  1.0
  H  H18  1  0.48995000  0.86659000  0.37314000  1.0
  H  H19  1  0.01005000  0.62686000  0.13341000  1.0
  H  H20  1  0.59027000  0.23737000  0.70203000  1.0
  H  H21  1  0.90972000  0.29798000  0.76263000  1.0
  H  H22  1  0.40973000  0.76263000  0.29797000  1.0
  H  H23  1  0.09027000  0.70202000  0.23737000  1.0
  H  H24  1  0.50512000  0.99760000  0.88220000  1.0
  H  H25  1  0.99487000  0.11780000  0.00239000  1.0
  H  H26  1  0.49487000  0.00240000  0.11780000  1.0
  H  H27  1  0.00513000  0.88220000  0.99761000  1.0
  H  H28  1  0.25000000  0.98273000  0.01727000  1.0
  H  H29  1  0.75000000  0.01727000  0.98273000  1.0
  H  H30  1  0.25000000  0.28256000  0.71744000  1.0
  H  H31  1  0.75000000  0.71743000  0.28256000  1.0
  C  C32  1  0.13249000  0.98535000  0.66957000  1.0
  C  C33  1  0.36750000  0.33043000  0.01465000  1.0
  C  C34  1  0.86751000  0.01465000  0.33043000  1.0
  C  C35  1  0.63249000  0.66957000  0.98535000  1.0
  C  C36  1  0.17704000  0.05933000  0.58004000  1.0
  C  C37  1  0.32296000  0.41996000  0.94067000  1.0
  C  C38  1  0.82296000  0.94067000  0.41996000  1.0
  C  C39  1  0.67704000  0.58004000  0.05933000  1.0
  C  C40  1  0.05342000  0.14013000  0.54311000  1.0
  C  C41  1  0.44658000  0.45689000  0.85987000  1.0
  C  C42  1  0.94658000  0.85987000  0.45689000  1.0
  C  C43  1  0.55342000  0.54311000  0.14013000  1.0
  C  C44  1  0.88393000  0.14773000  0.59374000  1.0
  C  C45  1  0.61607000  0.40626000  0.85227000  1.0
  C  C46  1  0.11607000  0.85227000  0.40626000  1.0
  C  C47  1  0.38393000  0.59374000  0.14773000  1.0
  C  C48  1  0.84256000  0.07575000  0.68532000  1.0
  C  C49  1  0.65744000  0.31468000  0.92425000  1.0
  C  C50  1  0.15744000  0.92425000  0.31468000  1.0
  C  C51  1  0.34256000  0.68532000  0.07575000  1.0
  C  C52  1  0.96698000  0.99467000  0.72314000  1.0
  C  C53  1  0.53302000  0.27686000  0.00533000  1.0
  C  C54  1  0.03302000  0.00533000  0.27686000  1.0
  C  C55  1  0.46698000  0.72314000  0.99467000  1.0
  C  C56  1  0.26058000  0.89598000  0.70663000  1.0
  C  C57  1  0.23943000  0.29337000  0.10402000  1.0
  C  C58  1  0.73942000  0.10402000  0.29337000  1.0
  C  C59  1  0.76058000  0.70663000  0.89598000  1.0
  C  C60  1  0.54718000  0.15229000  0.70895000  1.0
  C  C61  1  0.95281000  0.29105000  0.84771000  1.0
  C  C62  1  0.45281000  0.84771000  0.29105000  1.0
  C  C63  1  0.04718000  0.70895000  0.15229000  1.0
  C  C64  1  0.39457000  0.14154000  0.79192000  1.0
  C  C65  1  0.10542000  0.20808000  0.85846000  1.0
  C  C66  1  0.60543000  0.85846000  0.20808000  1.0
  C  C67  1  0.89457000  0.79192000  0.14154000  1.0
  C  C68  1  0.39353000  0.05676000  0.87618000  1.0
  C  C69  1  0.10646000  0.12382000  0.94324000  1.0
  C  C70  1  0.60647000  0.94324000  0.12382000  1.0
  C  C71  1  0.89353000  0.87618000  0.05676000  1.0
  C  C72  1  0.25000000  0.04853000  0.95147000  1.0
  C  C73  1  0.75000000  0.95147000  0.04853000  1.0
  C  C74  1  0.25000000  0.21659000  0.78341000  1.0
  C  C75  1  0.75000000  0.78341000  0.21659000  1.0
  C  C76  1  0.10342000  0.21562000  0.44531000  1.0
  C  C77  1  0.39659000  0.55469000  0.78438000  1.0
  C  C78  1  0.89659000  0.78438000  0.55469000  1.0
  C  C79  1  0.60341000  0.44531000  0.21562000  1.0
  O  O80  1  0.41346000  0.89280000  0.65775000  1.0
  O  O81  1  0.08654000  0.34225000  0.10720000  1.0
  O  O82  1  0.58654000  0.10720000  0.34225000  1.0
  O  O83  1  0.91346000  0.65775000  0.89280000  1.0
  O  O84  1  0.21809000  0.82465000  0.78490000  1.0
  O  O85  1  0.28191000  0.21510000  0.17535000  1.0
  O  O86  1  0.78191000  0.17535000  0.21510000  1.0
  O  O87  1  0.71809000  0.78490000  0.82465000  1.0
  O  O88  1  0.26619000  0.22793000  0.42600000  1.0
  O  O89  1  0.23381000  0.57401000  0.77207000  1.0
  O  O90  1  0.73381000  0.77207000  0.57401000  1.0
  O  O91  1  0.76619000  0.42600000  0.22793000  1.0
  O  O92  1  0.97896000  0.26214000  0.39021000  1.0
  O  O93  1  0.52105000  0.60979000  0.73786000  1.0
  O  O94  1  0.02105000  0.73786000  0.60979000  1.0
  O  O95  1  0.47896000  0.39021000  0.26214000  1.0
  O  O96  1  0.68646000  0.07709000  0.74459000  1.0
  O  O97  1  0.81353000  0.25541000  0.92291000  1.0
  O  O98  1  0.31353000  0.92291000  0.25541000  1.0
  O  O99  1  0.18647000  0.74459000  0.07709000  1.0
