# generated using pymatgen
data_Zn2H14C24N8OF4
_symmetry_space_group_name_H-M   'P 1'
_cell_length_a   14.80300000
_cell_length_b   14.83780000
_cell_length_c   14.84900000
_cell_angle_alpha   113.80200000
_cell_angle_beta   100.22600000
_cell_angle_gamma   114.19800000
_symmetry_Int_Tables_number   1
_chemical_formula_structural   Zn2H14C24N8OF4
_chemical_formula_sum   'Zn4 H28 C48 N16 O2 F8'
_cell_volume   2481.44072894
_cell_formula_units_Z   2
loop_
 _symmetry_equiv_pos_site_id
 _symmetry_equiv_pos_as_xyz
  1  'x, y, z'
loop_
 _atom_site_type_symbol
 _atom_site_label
 _atom_site_symmetry_multiplicity
 _atom_site_fract_x
 _atom_site_fract_y
 _atom_site_fract_z
 _atom_site_occupancy
  Zn  Zn0  1  0.01170000  0.87010000  0.86322000  1.0
  Zn  Zn1  1  0.15927000  0.15485000  0.00570000  1.0
  Zn  Zn2  1  0.01458000  0.15469000  0.15351000  1.0
  Zn  Zn3  1  0.86891000  0.87049000  0.01073000  1.0
  H  H4  1  0.16402000  0.81466000  0.98729000  1.0
  H  H5  1  0.25489000  0.20128000  0.83207000  1.0
  H  H6  1  0.08193000  0.82297000  0.49377000  1.0
  H  H7  1  0.50816000  0.18943000  0.25017000  1.0
  H  H8  1  0.25017000  0.19474000  0.50625000  1.0
  H  H9  1  0.49594000  0.82107000  0.06061000  1.0
  H  H10  1  0.50894000  0.75635000  0.68420000  1.0
  H  H11  1  0.34437000  0.60470000  0.51743000  1.0
  H  H12  1  0.54144000  0.56486000  0.34092000  1.0
  H  H13  1  0.70542000  0.71550000  0.50723000  1.0
  H  H14  1  0.18523000  0.19559000  0.35607000  1.0
  H  H15  1  0.64937000  0.82509000  0.05723000  1.0
  H  H16  1  0.38671000  0.41958000  0.18417000  1.0
  H  H17  1  0.86197000  0.85315000  0.66607000  1.0
  H  H18  1  0.75666000  0.59127000  0.94560000  1.0
  H  H19  1  0.84009000  0.18878000  0.03062000  1.0
  H  H20  1  0.99802000  0.81762000  0.16350000  1.0
  H  H21  1  0.83692000  0.20232000  0.24686000  1.0
  H  H22  1  0.35895000  0.19258000  0.17826000  1.0
  H  H23  1  0.05879000  0.82415000  0.64201000  1.0
  H  H24  1  0.90453000  0.24502000  0.74664000  1.0
  H  H25  1  0.93834000  0.43651000  0.77544000  1.0
  H  H26  1  0.99242000  0.50736000  0.03549000  1.0
  H  H27  1  0.99263000  0.42639000  0.09854000  1.0
  H  H28  1  0.91112000  0.48945000  0.11078000  1.0
  H  H29  1  0.59526000  0.27268000  0.66880000  1.0
  H  H30  1  0.61941000  0.41311000  0.75749000  1.0
  H  H31  1  0.55243000  0.29569000  0.77761000  1.0
  C  C32  1  0.19740000  0.90750000  0.02642000  1.0
  C  C33  1  0.20461000  0.10891000  0.80044000  1.0
  C  C34  1  0.11348000  0.00534000  0.30095000  1.0
  C  C35  1  0.70185000  0.01341000  0.16111000  1.0
  C  C36  1  0.33346000  0.46636000  0.32056000  1.0
  C  C37  1  0.71802000  0.81527000  0.71040000  1.0
  C  C38  1  0.83164000  0.53828000  0.83103000  1.0
  C  C39  1  0.91380000  0.21633000  0.91665000  1.0
  C  C40  1  0.87941000  0.29443000  0.80174000  1.0
  C  C41  1  0.87317000  0.38511000  0.79166000  1.0
  C  C42  1  0.87693000  0.28180000  0.88704000  1.0
  C  C43  1  0.80548000  0.42346000  0.81011000  1.0
  C  C44  1  0.11002000  0.90501000  0.40412000  1.0
  C  C45  1  0.59861000  0.10869000  0.22145000  1.0
  C  C46  1  0.12113000  0.90621000  0.49913000  1.0
  C  C47  1  0.50283000  0.10672000  0.20883000  1.0
  C  C48  1  0.17595000  0.01168000  0.59987000  1.0
  C  C49  1  0.40110000  0.00186000  0.13928000  1.0
  C  C50  1  0.22658000  0.11251000  0.59587000  1.0
  C  C51  1  0.40566000  0.90121000  0.09418000  1.0
  C  C52  1  0.21379000  0.11136000  0.50081000  1.0
  C  C53  1  0.50140000  0.90340000  0.10535000  1.0
  C  C54  1  0.13211000  0.10335000  0.29473000  1.0
  C  C55  1  0.71018000  0.91775000  0.10181000  1.0
  C  C56  1  0.14924000  0.00608000  0.39947000  1.0
  C  C57  1  0.60302000  0.00934000  0.16653000  1.0
  C  C58  1  0.51694000  0.71478000  0.60926000  1.0
  C  C59  1  0.42341000  0.62858000  0.51452000  1.0
  C  C60  1  0.42940000  0.56917000  0.41649000  1.0
  C  C61  1  0.62065000  0.74506000  0.61023000  1.0
  C  C62  1  0.53330000  0.60699000  0.41580000  1.0
  C  C63  1  0.62650000  0.69278000  0.51025000  1.0
  C  C64  1  0.32515000  0.40109000  0.21590000  1.0
  C  C65  1  0.82651000  0.85327000  0.72415000  1.0
  C  C66  1  0.80613000  0.61112000  0.90232000  1.0
  C  C67  1  0.89562000  0.18478000  0.99245000  1.0
  C  C68  1  0.22832000  0.39804000  0.31007000  1.0
  C  C69  1  0.72539000  0.83960000  0.81410000  1.0
  C  C70  1  0.89911000  0.61219000  0.80407000  1.0
  C  C71  1  0.99334000  0.19214000  0.89834000  1.0
  C  C72  1  0.03594000  0.91034000  0.19631000  1.0
  C  C73  1  0.80589000  0.11015000  0.19787000  1.0
  C  C74  1  0.29703000  0.10048000  0.12420000  1.0
  C  C75  1  0.10415000  0.91657000  0.70299000  1.0
  C  C76  1  0.30259000  0.00194000  0.10430000  1.0
  C  C77  1  0.16755000  0.01332000  0.69674000  1.0
  C  C78  1  0.94232000  0.44759000  0.05711000  1.0
  C  C79  1  0.61538000  0.33542000  0.75274000  1.0
  N  N80  1  0.13674000  0.94805000  0.00150000  1.0
  N  N81  1  0.16580000  0.07163000  0.86199000  1.0
  N  N82  1  0.06909000  0.06850000  0.19567000  1.0
  N  N83  1  0.80973000  0.95433000  0.10264000  1.0
  N  N84  1  0.22503000  0.30477000  0.15179000  1.0
  N  N85  1  0.88926000  0.89339000  0.82578000  1.0
  N  N86  1  0.85495000  0.71725000  0.91548000  1.0
  N  N87  1  0.95995000  0.14713000  0.01587000  1.0
  N  N88  1  0.16366000  0.30284000  0.21165000  1.0
  N  N89  1  0.82584000  0.88482000  0.88227000  1.0
  N  N90  1  0.91370000  0.71787000  0.85308000  1.0
  N  N91  1  0.02149000  0.15202000  0.95721000  1.0
  N  N92  1  0.00993000  0.95006000  0.13519000  1.0
  N  N93  1  0.86952000  0.07425000  0.16235000  1.0
  N  N94  1  0.19778000  0.06649000  0.06141000  1.0
  N  N95  1  0.10329000  0.95182000  0.80135000  1.0
  O  O96  1  0.84919000  0.34453000  0.96239000  1.0
  O  O97  1  0.71530000  0.36404000  0.82490000  1.0
  F  F98  1  0.05115000  0.79799000  0.30964000  1.0
  F  F99  1  0.69400000  0.21535000  0.28699000  1.0
  F  F100  1  0.28727000  0.21947000  0.69060000  1.0
  F  F101  1  0.31069000  0.79427000  0.02896000  1.0
  F  F102  1  0.18768000  0.41561000  0.38576000  1.0
  F  F103  1  0.64472000  0.81857000  0.84825000  1.0
  F  F104  1  0.94922000  0.58968000  0.73808000  1.0
  F  F105  1  0.04314000  0.20826000  0.83380000  1.0
