# generated using pymatgen
data_ZnH9C9N5O2
_symmetry_space_group_name_H-M   'P 1'
_cell_length_a   10.14900000
_cell_length_b   12.10680000
_cell_length_c   12.18490000
_cell_angle_alpha   84.62830000
_cell_angle_beta   66.28680000
_cell_angle_gamma   65.84110000
_symmetry_Int_Tables_number   1
_chemical_formula_structural   ZnH9C9N5O2
_chemical_formula_sum   'Zn4 H36 C36 N20 O8'
_cell_volume   1246.19186637
_cell_formula_units_Z   4
loop_
 _symmetry_equiv_pos_site_id
 _symmetry_equiv_pos_as_xyz
  1  'x, y, z'
loop_
 _atom_site_type_symbol
 _atom_site_label
 _atom_site_symmetry_multiplicity
 _atom_site_fract_x
 _atom_site_fract_y
 _atom_site_fract_z
 _atom_site_occupancy
  Zn  Zn0  1  0.84297000  0.34657000  0.13878000  1.0
  Zn  Zn1  1  0.65873000  0.85861000  0.65066000  1.0
  Zn  Zn2  1  0.15703000  0.65343000  0.86122000  1.0
  Zn  Zn3  1  0.34128000  0.14139000  0.34934000  1.0
  H  H4  1  0.70443000  0.78282000  0.01997000  1.0
  H  H5  1  0.79341000  0.98224000  0.21914000  1.0
  H  H6  1  0.29557000  0.21718000  0.98003000  1.0
  H  H7  1  0.20659000  0.01776000  0.78086000  1.0
  H  H8  1  0.83545000  0.55250000  0.99063000  1.0
  H  H9  1  0.66356000  0.01024000  0.44735000  1.0
  H  H10  1  0.16455000  0.44750000  0.00936000  1.0
  H  H11  1  0.33644000  0.98976000  0.55265000  1.0
  H  H12  1  0.61152000  0.52496000  0.35496000  1.0
  H  H13  1  0.89166000  0.64192000  0.47214000  1.0
  H  H14  1  0.38848000  0.47503000  0.64504000  1.0
  H  H15  1  0.10834000  0.35808000  0.52786000  1.0
  H  H16  1  0.47730000  0.75202000  0.39808000  1.0
  H  H17  1  0.02536000  0.60003000  0.24718000  1.0
  H  H18  1  0.52270000  0.24797000  0.60192000  1.0
  H  H19  1  0.97464000  0.39997000  0.75282000  1.0
  H  H20  1  0.04897000  0.08325000  0.16230000  1.0
  H  H21  1  0.45154000  0.83858000  0.91579000  1.0
  H  H22  1  0.95104000  0.91675000  0.83770000  1.0
  H  H23  1  0.54846000  0.16142000  0.08421000  1.0
  H  H24  1  0.23867000  0.02177000  0.16358000  1.0
  H  H25  1  0.26201000  0.83812000  0.97581000  1.0
  H  H26  1  0.76134000  0.97823000  0.83642000  1.0
  H  H27  1  0.73798000  0.16188000  0.02419000  1.0
  H  H28  1  0.12101000  0.01890000  0.39055000  1.0
  H  H29  1  0.37974000  0.60926000  0.97995000  1.0
  H  H30  1  0.87899000  0.98110000  0.60944000  1.0
  H  H31  1  0.62026000  0.39074000  0.02005000  1.0
  H  H32  1  0.06527000  0.93409000  0.32031000  1.0
  H  H33  1  0.43540000  0.67997000  0.06425000  1.0
  H  H34  1  0.93473000  0.06591000  0.67969000  1.0
  H  H35  1  0.56460000  0.32003000  0.93575000  1.0
  H  H36  1  0.92847000  0.08193000  0.39056000  1.0
  H  H37  1  0.57241000  0.60794000  0.91849000  1.0
  H  H38  1  0.07153000  0.91807000  0.60943000  1.0
  H  H39  1  0.42759000  0.39206000  0.08151000  1.0
  C  C40  1  0.57985000  0.78319000  0.21058000  1.0
  C  C41  1  0.92013000  0.78963000  0.21741000  1.0
  C  C42  1  0.42016000  0.21681000  0.78942000  1.0
  C  C43  1  0.07986000  0.21037000  0.78259000  1.0
  C  C44  1  0.68231000  0.72708000  0.09499000  1.0
  C  C45  1  0.81673000  0.90602000  0.27386000  1.0
  C  C46  1  0.31769000  0.27292000  0.90501000  1.0
  C  C47  1  0.18327000  0.09398000  0.72614000  1.0
  C  C48  1  0.75438000  0.60113000  0.07878000  1.0
  C  C49  1  0.74512000  0.92149000  0.39865000  1.0
  C  C50  1  0.24562000  0.39887000  0.92122000  1.0
  C  C51  1  0.25488000  0.07851000  0.60135000  1.0
  C  C52  1  0.62852000  0.58539000  0.28321000  1.0
  C  C53  1  0.87344000  0.71485000  0.41280000  1.0
  C  C54  1  0.37148000  0.41460000  0.71679000  1.0
  C  C55  1  0.12656000  0.28515000  0.58720000  1.0
  C  C56  1  0.55313000  0.71087000  0.30661000  1.0
  C  C57  1  0.94866000  0.69216000  0.28845000  1.0
  C  C58  1  0.44687000  0.28913000  0.69339000  1.0
  C  C59  1  0.05134000  0.30784000  0.71155000  1.0
  C  C60  1  0.50231000  0.91956000  0.22950000  1.0
  C  C61  1  0.99641000  0.77167000  0.08217000  1.0
  C  C62  1  0.49769000  0.08045000  0.77050000  1.0
  C  C63  1  0.00359000  0.22833000  0.91783000  1.0
  C  C64  1  0.10122000  0.20392000  0.23425000  1.0
  C  C65  1  0.39907000  0.76601000  0.79579000  1.0
  C  C66  1  0.89878000  0.79608000  0.76575000  1.0
  C  C67  1  0.60093000  0.23399000  0.20422000  1.0
  C  C68  1  0.11398000  0.07927000  0.21708000  1.0
  C  C69  1  0.38677000  0.78371000  0.91936000  1.0
  C  C70  1  0.88602000  0.92073000  0.78292000  1.0
  C  C71  1  0.61323000  0.21630000  0.08065000  1.0
  C  C72  1  0.05340000  0.02588000  0.33708000  1.0
  C  C73  1  0.44740000  0.66271000  0.97313000  1.0
  C  C74  1  0.94660000  0.97412000  0.66292000  1.0
  C  C75  1  0.55260000  0.33729000  0.02687000  1.0
  N  N76  1  0.72688000  0.53161000  0.17133000  1.0
  N  N77  1  0.77366000  0.82741000  0.46697000  1.0
  N  N78  1  0.27312000  0.46839000  0.82867000  1.0
  N  N79  1  0.22634000  0.17259000  0.53303000  1.0
  N  N80  1  0.00581000  0.30682000  0.20620000  1.0
  N  N81  1  0.49535000  0.79148000  0.69303000  1.0
  N  N82  1  0.99419000  0.69318000  0.79380000  1.0
  N  N83  1  0.50464000  0.20852000  0.30697000  1.0
  N  N84  1  0.02878000  0.40029000  0.23763000  1.0
  N  N85  1  0.46992000  0.76017000  0.60129000  1.0
  N  N86  1  0.97122000  0.59971000  0.76237000  1.0
  N  N87  1  0.53008000  0.23983000  0.39871000  1.0
  N  N88  1  0.18163000  0.23418000  0.28217000  1.0
  N  N89  1  0.31583000  0.71990000  0.76703000  1.0
  N  N90  1  0.81837000  0.76582000  0.71783000  1.0
  N  N91  1  0.68417000  0.28010000  0.23297000  1.0
  N  N92  1  0.13391000  0.35689000  0.28329000  1.0
  N  N93  1  0.36262000  0.71711000  0.64550000  1.0
  N  N94  1  0.86609000  0.64311000  0.71671000  1.0
  N  N95  1  0.63738000  0.28289000  0.35450000  1.0
  O  O96  1  0.52051000  0.98182000  0.14162000  1.0
  O  O97  1  0.97546000  0.86101000  0.02130000  1.0
  O  O98  1  0.47949000  0.01817000  0.85838000  1.0
  O  O99  1  0.02453000  0.13899000  0.97870000  1.0
  O  O100  1  0.41892000  0.96337000  0.34122000  1.0
  O  O101  1  0.08164000  0.65933000  0.03755000  1.0
  O  O102  1  0.58108000  0.03663000  0.65878000  1.0
  O  O103  1  0.91836000  0.34067000  0.96245000  1.0
