# generated using pymatgen
data_CuH8C9SN4(OF)3
_symmetry_space_group_name_H-M   'P 1'
_cell_length_a   8.15916000
_cell_length_b   8.21753000
_cell_length_c   10.81880000
_cell_angle_alpha   91.50140000
_cell_angle_beta   92.61910000
_cell_angle_gamma   113.92500000
_symmetry_Int_Tables_number   1
_chemical_formula_structural   CuH8C9SN4(OF)3
_chemical_formula_sum   'Cu2 H16 C18 S2 N8 O6 F6'
_cell_volume   661.56572648
_cell_formula_units_Z   2
loop_
 _symmetry_equiv_pos_site_id
 _symmetry_equiv_pos_as_xyz
  1  'x, y, z'
loop_
 _atom_site_type_symbol
 _atom_site_label
 _atom_site_symmetry_multiplicity
 _atom_site_fract_x
 _atom_site_fract_y
 _atom_site_fract_z
 _atom_site_occupancy
  Cu  Cu0  1  0.24289000  0.44722000  0.24224000  1.0
  Cu  Cu1  1  0.75712000  0.55276000  0.75775000  1.0
  H  H2  1  0.93077000  0.26315000  0.39846000  1.0
  H  H3  1  0.06923000  0.73685000  0.60155000  1.0
  H  H4  1  0.60840000  0.05426000  0.35338000  1.0
  H  H5  1  0.39160000  0.94574000  0.64662000  1.0
  H  H6  1  0.68371000  0.08218000  0.97533000  1.0
  H  H7  1  0.31629000  0.91782000  0.02467000  1.0
  H  H8  1  0.00419000  0.29391000  0.01946000  1.0
  H  H9  1  0.99580000  0.70609000  0.98054000  1.0
  H  H10  1  0.41794000  0.74107000  0.43824000  1.0
  H  H11  1  0.58205000  0.25892000  0.56176000  1.0
  H  H12  1  0.36590000  0.21727000  0.38086000  1.0
  H  H13  1  0.63410000  0.78272000  0.61914000  1.0
  H  H14  1  0.33839000  0.20757000  0.08111000  1.0
  H  H15  1  0.66161000  0.79242000  0.91889000  1.0
  H  H16  1  0.45982000  0.75157000  0.09536000  1.0
  H  H17  1  0.54018000  0.24843000  0.90463000  1.0
  C  C18  1  0.93557000  0.73892000  0.31985000  1.0
  C  C19  1  0.06444000  0.26110000  0.68016000  1.0
  C  C20  1  0.87543000  0.22371000  0.30358000  1.0
  C  C21  1  0.12457000  0.77630000  0.69642000  1.0
  C  C22  1  0.69646000  0.10717000  0.27789000  1.0
  C  C23  1  0.30354000  0.89284000  0.72211000  1.0
  C  C24  1  0.73750000  0.12242000  0.07070000  1.0
  C  C25  1  0.26250000  0.87758000  0.92930000  1.0
  C  C26  1  0.91618000  0.24008000  0.09463000  1.0
  C  C27  1  0.08382000  0.75993000  0.90537000  1.0
  C  C28  1  0.45519000  0.63323000  0.46529000  1.0
  C  C29  1  0.54480000  0.36675000  0.53469000  1.0
  C  C30  1  0.42678000  0.34461000  0.43334000  1.0
  C  C31  1  0.57322000  0.65538000  0.56665000  1.0
  C  C32  1  0.41034000  0.33827000  0.04425000  1.0
  C  C33  1  0.58965000  0.66173000  0.95575000  1.0
  C  C34  1  0.47648000  0.63876000  0.05163000  1.0
  C  C35  1  0.52352000  0.36122000  0.94837000  1.0
  S  S36  1  0.17558000  0.85464000  0.28276000  1.0
  S  S37  1  0.82443000  0.14537000  0.71724000  1.0
  N  N38  1  0.98613000  0.29152000  0.21166000  1.0
  N  N39  1  0.01387000  0.70848000  0.78835000  1.0
  N  N40  1  0.62603000  0.05572000  0.16169000  1.0
  N  N41  1  0.37396000  0.94428000  0.83831000  1.0
  N  N42  1  0.38024000  0.47750000  0.39677000  1.0
  N  N43  1  0.61976000  0.52249000  0.60322000  1.0
  N  N44  1  0.38519000  0.47695000  0.09687000  1.0
  N  N45  1  0.61481000  0.52305000  0.90312000  1.0
  O  O46  1  0.20694000  0.71545000  0.21306000  1.0
  O  O47  1  0.79306000  0.28455000  0.78695000  1.0
  O  O48  1  0.17635000  0.00151000  0.20994000  1.0
  O  O49  1  0.82365000  0.99849000  0.79006000  1.0
  O  O50  1  0.27103000  0.90580000  0.40456000  1.0
  O  O51  1  0.72898000  0.09420000  0.59545000  1.0
  F  F52  1  0.87958000  0.85173000  0.38053000  1.0
  F  F53  1  0.12043000  0.14830000  0.61947000  1.0
  F  F54  1  0.91153000  0.59984000  0.39348000  1.0
  F  F55  1  0.08847000  0.40018000  0.60653000  1.0
  F  F56  1  0.82716000  0.67259000  0.21489000  1.0
  F  F57  1  0.17283000  0.32742000  0.78512000  1.0
