# generated using pymatgen
data_CoH29C32N7O2
_symmetry_space_group_name_H-M   'P 1'
_cell_length_a   8.56772000
_cell_length_b   14.87380000
_cell_length_c   15.75534077
_cell_angle_alpha   61.82925202
_cell_angle_beta   75.01811672
_cell_angle_gamma   90.01740000
_symmetry_Int_Tables_number   1
_chemical_formula_structural   CoH29C32N7O2
_chemical_formula_sum   'Co2 H58 C64 N14 O4'
_cell_volume   1692.04008555
_cell_formula_units_Z   2
loop_
 _symmetry_equiv_pos_site_id
 _symmetry_equiv_pos_as_xyz
  1  'x, y, z'
loop_
 _atom_site_type_symbol
 _atom_site_label
 _atom_site_symmetry_multiplicity
 _atom_site_fract_x
 _atom_site_fract_y
 _atom_site_fract_z
 _atom_site_occupancy
  Co  Co0  1  0.50464000  0.34382000  0.43435000  1.0
  Co  Co1  1  0.49540000  0.77815000  0.56548000  1.0
  H  H2  1  0.67427000  0.44231000  0.53214000  1.0
  H  H3  1  0.62267000  0.34749000  0.73932000  1.0
  H  H4  1  0.30196000  0.18973000  0.67245000  1.0
  H  H5  1  0.72478000  0.20167000  0.57382000  1.0
  H  H6  1  0.92686000  0.08659000  0.50963000  1.0
  H  H7  1  0.63971000  0.22945000  0.31158000  1.0
  H  H8  1  0.43652000  0.56836000  0.35291000  1.0
  H  H9  1  0.97596000  0.47883000  0.33783000  1.0
  H  H10  1  0.12790000  0.30774000  0.42137000  1.0
  H  H11  1  0.31405000  0.04838000  0.82101000  1.0
  H  H12  1  0.16778000  0.93260000  1.00000000  1.0
  H  H13  1  0.27773000  0.16899000  0.06925000  1.0
  H  H14  1  0.41564000  0.28673000  0.88990000  1.0
  H  H15  1  0.40218000  0.90062000  0.14819000  1.0
  H  H16  1  0.43690000  0.71683000  0.22580000  1.0
  H  H17  1  0.91292000  0.63098000  0.32720000  1.0
  H  H18  1  0.88143000  0.81625000  0.24734000  1.0
  H  H19  1  0.08725000  0.89930000  0.34730000  1.0
  H  H20  1  0.94428000  0.96918000  0.45426000  1.0
  H  H21  1  0.83424000  0.21679000  0.19821000  1.0
  H  H22  1  0.96547000  0.14110000  0.09351000  1.0
  H  H23  1  0.89228000  0.61199000  0.18281000  1.0
  H  H24  1  0.94720000  0.51429000  0.15166000  1.0
  H  H25  1  0.88390000  0.65840000  0.00735000  1.0
  H  H26  1  0.73686000  0.54854000  0.06017000  1.0
  H  H27  1  0.54210000  0.61813000  0.14995000  1.0
  H  H28  1  0.68729000  0.72626000  0.10683000  1.0
  H  H29  1  0.64351000  0.69499000  0.94010000  1.0
  H  H30  1  0.64508000  0.80883000  0.94781000  1.0
  H  H31  1  0.32591000  0.97475000  0.46778000  1.0
  H  H32  1  0.37806000  0.08734000  0.26059000  1.0
  H  H33  1  0.69823000  0.86253000  0.32758000  1.0
  H  H34  1  0.27432000  0.77508000  0.42653000  1.0
  H  H35  1  0.07285000  0.59545000  0.49078000  1.0
  H  H36  1  0.35966000  0.54100000  0.68890000  1.0
  H  H37  1  0.56458000  0.92127000  0.64635000  1.0
  H  H38  1  0.02450000  0.81613000  0.66218000  1.0
  H  H39  1  0.87267000  0.72874000  0.57844000  1.0
  H  H40  1  0.68627000  0.86951000  0.17934000  1.0
  H  H41  1  0.83201000  0.93237000  0.00036000  1.0
  H  H42  1  0.72133000  0.23800000  0.93033000  1.0
  H  H43  1  0.58415000  0.17682000  0.10969000  1.0
  H  H44  1  0.59719000  0.04830000  0.85131000  1.0
  H  H45  1  0.56333000  0.94213000  0.77350000  1.0
  H  H46  1  0.08743000  0.95793000  0.67296000  1.0
  H  H47  1  0.11803000  0.06317000  0.75316000  1.0
  H  H48  1  0.91358000  0.24612000  0.65239000  1.0
  H  H49  1  0.05667000  0.42301000  0.54571000  1.0
  H  H50  1  0.16477000  0.41436000  0.80234000  1.0
  H  H51  1  0.03342000  0.23394000  0.90677000  1.0
  H  H52  1  0.10833000  0.79480000  0.81694000  1.0
  H  H53  1  0.05302000  0.66603000  0.84791000  1.0
  H  H54  1  0.11591000  0.66547000  0.99252000  1.0
  H  H55  1  0.26271000  0.60830000  0.93982000  1.0
  H  H56  1  0.45806000  0.76751000  0.85026000  1.0
  H  H57  1  0.31326000  0.83254000  0.89357000  1.0
  H  H58  1  0.35846000  0.63351000  0.05918000  1.0
  H  H59  1  0.35270000  0.75408000  0.05353000  1.0
  C  C60  1  0.58842000  0.37589000  0.59278000  1.0
  C  C61  1  0.56310000  0.33025000  0.69487000  1.0
  C  C62  1  0.39967000  0.24409000  0.66088000  1.0
  C  C63  1  0.73618000  0.18958000  0.50997000  1.0
  C  C64  1  0.83586000  0.13151000  0.47978000  1.0
  C  C65  1  0.68753000  0.20551000  0.37497000  1.0
  C  C66  1  0.33460000  0.52042000  0.35907000  1.0
  C  C67  1  0.09375000  0.47199000  0.35267000  1.0
  C  C68  1  0.17083000  0.38779000  0.39455000  1.0
  C  C69  1  0.71368000  0.47523000  0.26001000  1.0
  C  C70  1  0.37201000  0.17689000  0.84210000  1.0
  C  C71  1  0.30299000  0.07600000  0.87491000  1.0
  C  C72  1  0.22150000  0.01037000  0.97591000  1.0
  C  C73  1  0.20815000  0.04299000  0.04771000  1.0
  C  C74  1  0.28379000  0.14275000  0.01476000  1.0
  C  C75  1  0.36299000  0.20885000  0.91371000  1.0
  C  C76  1  0.13944000  0.87064000  0.19375000  1.0
  C  C77  1  0.29545000  0.84142000  0.18815000  1.0
  C  C78  1  0.31467000  0.73809000  0.23247000  1.0
  C  C79  1  0.17743000  0.66140000  0.28329000  1.0
  C  C80  1  0.02048000  0.68978000  0.28891000  1.0
  C  C81  1  0.00270000  0.79376000  0.24405000  1.0
  C  C82  1  0.03927000  0.01616000  0.21179000  1.0
  C  C83  1  0.03124000  0.96856000  0.31432000  1.0
  C  C84  1  0.95212000  0.00902000  0.37460000  1.0
  C  C85  1  0.88170000  0.09889000  0.33351000  1.0
  C  C86  1  0.88796000  0.14652000  0.23152000  1.0
  C  C87  1  0.96386000  0.10475000  0.17205000  1.0
  C  C88  1  0.84488000  0.55493000  0.16657000  1.0
  C  C89  1  0.78275000  0.60777000  0.07438000  1.0
  C  C90  1  0.64650000  0.67077000  0.08619000  1.0
  C  C91  1  0.59241000  0.72689000  0.99034000  1.0
  C  C92  1  0.41182000  0.96897000  0.40718000  1.0
  C  C93  1  0.43742000  0.02554000  0.30508000  1.0
  C  C94  1  0.60054000  0.90530000  0.33910000  1.0
  C  C95  1  0.26304000  0.69916000  0.49041000  1.0
  C  C96  1  0.16365000  0.61073000  0.52066000  1.0
  C  C97  1  0.31180000  0.58030000  0.62550000  1.0
  C  C98  1  0.66634000  0.87938000  0.64035000  1.0
  C  C99  1  0.90687000  0.82426000  0.64716000  1.0
  C  C100  1  0.82986000  0.78208000  0.60512000  1.0
  C  C101  1  0.28693000  0.73518000  0.73992000  1.0
  C  C102  1  0.62812000  0.01917000  0.15788000  1.0
  C  C103  1  0.69714000  0.95097000  0.12528000  1.0
  C  C104  1  0.77818000  0.98612000  0.02428000  1.0
  C  C105  1  0.79115000  0.09042000  0.95226000  1.0
  C  C106  1  0.71559000  0.15737000  0.98500000  1.0
  C  C107  1  0.63677000  0.12265000  0.08604000  1.0
  C  C108  1  0.85993000  0.06390000  0.80624000  1.0
  C  C109  1  0.70411000  0.02915000  0.81144000  1.0
  C  C110  1  0.68539000  0.97009000  0.76708000  1.0
  C  C111  1  0.82293000  0.94434000  0.71645000  1.0
  C  C112  1  0.97968000  0.97839000  0.71111000  1.0
  C  C113  1  0.99694000  0.03734000  0.75619000  1.0
  C  C114  1  0.96040000  0.22739000  0.78820000  1.0
  C  C115  1  0.96912000  0.28239000  0.68556000  1.0
  C  C116  1  0.04832000  0.38315000  0.62544000  1.0
  C  C117  1  0.11820000  0.43188000  0.66680000  1.0
  C  C118  1  0.11130000  0.37746000  0.76887000  1.0
  C  C119  1  0.03537000  0.27618000  0.82817000  1.0
  C  C120  1  0.15544000  0.72142000  0.83323000  1.0
  C  C121  1  0.21717000  0.68182000  0.92558000  1.0
  C  C122  1  0.35365000  0.75635000  0.91402000  1.0
  C  C123  1  0.40748000  0.71610000  0.00996000  1.0
  N  N124  1  0.48604000  0.32175000  0.57199000  1.0
  N  N125  1  0.44283000  0.24566000  0.73855000  1.0
  N  N126  1  0.64487000  0.23626000  0.44361000  1.0
  N  N127  1  0.80429000  0.14188000  0.39370000  1.0
  N  N128  1  0.32085000  0.41857000  0.39842000  1.0
  N  N129  1  0.19974000  0.55679000  0.32929000  1.0
  N  N130  1  0.12180000  0.97687000  0.14963000  1.0
  N  N131  1  0.51399000  0.89395000  0.42799000  1.0
  N  N132  1  0.55758000  0.98461000  0.26141000  1.0
  N  N133  1  0.35433000  0.67970000  0.55676000  1.0
  N  N134  1  0.19533000  0.53516000  0.60675000  1.0
  N  N135  1  0.68001000  0.81684000  0.60105000  1.0
  N  N136  1  0.80101000  0.88582000  0.67032000  1.0
  N  N137  1  0.87730000  0.12607000  0.85033000  1.0
  O  O138  1  0.62453000  0.41354000  0.25225000  1.0
  O  O139  1  0.69902000  0.47325000  0.34460000  1.0
  O  O140  1  0.37607000  0.66575000  0.74773000  1.0
  O  O141  1  0.30171000  0.81784000  0.65534000  1.0
