# generated using pymatgen
data_TiH26C34(NO2)2
_symmetry_space_group_name_H-M   'P 1'
_cell_length_a   8.12629000
_cell_length_b   11.46920000
_cell_length_c   15.42240000
_cell_angle_alpha   68.85500000
_cell_angle_beta   89.99990000
_cell_angle_gamma   89.99980000
_symmetry_Int_Tables_number   1
_chemical_formula_structural   TiH26C34(NO2)2
_chemical_formula_sum   'Ti2 H52 C68 N4 O8'
_cell_volume   1340.61986097
_cell_formula_units_Z   2
loop_
 _symmetry_equiv_pos_site_id
 _symmetry_equiv_pos_as_xyz
  1  'x, y, z'
loop_
 _atom_site_type_symbol
 _atom_site_label
 _atom_site_symmetry_multiplicity
 _atom_site_fract_x
 _atom_site_fract_y
 _atom_site_fract_z
 _atom_site_occupancy
  Ti  Ti0  1  0.50001000  0.50000000  0.00000000  1.0
  Ti  Ti1  1  0.00000000  0.50000000  0.50000000  1.0
  H  H2  1  0.27064000  0.21319000  0.24244000  1.0
  H  H3  1  0.77064000  0.78681000  0.25756000  1.0
  H  H4  1  0.72937000  0.78681000  0.75756000  1.0
  H  H5  1  0.22936000  0.21319000  0.74244000  1.0
  H  H6  1  0.15460000  0.20873000  0.39477000  1.0
  H  H7  1  0.65460000  0.79128000  0.10523000  1.0
  H  H8  1  0.84540000  0.79128000  0.60523000  1.0
  H  H9  1  0.34540000  0.20872000  0.89477000  1.0
  H  H10  1  0.23515000  0.60494000  0.30975000  1.0
  H  H11  1  0.73515000  0.39506000  0.19025000  1.0
  H  H12  1  0.76486000  0.39507000  0.69024000  1.0
  H  H13  1  0.26486000  0.60493000  0.80976000  1.0
  H  H14  1  0.35992000  0.60689000  0.16197000  1.0
  H  H15  1  0.85991000  0.39310000  0.33803000  1.0
  H  H16  1  0.64009000  0.39311000  0.83802000  1.0
  H  H17  1  0.14009000  0.60689000  0.66198000  1.0
  H  H18  1  0.12935000  0.52067000  0.04799000  1.0
  H  H19  1  0.62933000  0.47933000  0.45201000  1.0
  H  H20  1  0.87066000  0.47933000  0.95202000  1.0
  H  H21  1  0.37065000  0.52067000  0.54799000  1.0
  H  H22  1  0.90470000  0.67759000  0.01176000  1.0
  H  H23  1  0.40470000  0.32240000  0.48824000  1.0
  H  H24  1  0.09530000  0.32240000  0.98824000  1.0
  H  H25  1  0.59530000  0.67759000  0.51176000  1.0
  H  H26  1  0.71962000  0.80217000  0.92350000  1.0
  H  H27  1  0.21962000  0.19784000  0.57650000  1.0
  H  H28  1  0.28038000  0.19783000  0.07650000  1.0
  H  H29  1  0.78038000  0.80217000  0.42350000  1.0
  H  H30  1  0.51464000  0.97255000  0.89325000  1.0
  H  H31  1  0.01464000  0.02746000  0.60675000  1.0
  H  H32  1  0.48536000  0.02745000  0.10675000  1.0
  H  H33  1  0.98536000  0.97255000  0.39325000  1.0
  H  H34  1  0.90611000  0.24340000  0.83901000  1.0
  H  H35  1  0.40611000  0.75660000  0.66099000  1.0
  H  H36  1  0.09389000  0.75660000  0.16099000  1.0
  H  H37  1  0.59388000  0.24339000  0.33901000  1.0
  H  H38  1  0.10985000  0.07369000  0.87467000  1.0
  H  H39  1  0.60985000  0.92631000  0.62532000  1.0
  H  H40  1  0.89015000  0.92631000  0.12532000  1.0
  H  H41  1  0.39014000  0.07369000  0.37467000  1.0
  H  H42  1  0.24473000  0.94341000  0.82763000  1.0
  H  H43  1  0.74473000  0.05659000  0.67237000  1.0
  H  H44  1  0.75527000  0.05659000  0.17237000  1.0
  H  H45  1  0.25527000  0.94341000  0.32763000  1.0
  H  H46  1  0.45528000  0.77501000  0.87382000  1.0
  H  H47  1  0.95527000  0.22499000  0.62618000  1.0
  H  H48  1  0.54472000  0.22499000  0.12618000  1.0
  H  H49  1  0.04472000  0.77501000  0.37382000  1.0
  H  H50  1  0.60552000  0.19352000  0.84763000  1.0
  H  H51  1  0.10552000  0.80649000  0.65238000  1.0
  H  H52  1  0.39448000  0.80649000  0.15237000  1.0
  H  H53  1  0.89447000  0.19351000  0.34763000  1.0
  C  C54  1  0.32474000  0.40988000  0.19300000  1.0
  C  C55  1  0.82473000  0.59012000  0.30700000  1.0
  C  C56  1  0.67527000  0.59013000  0.80700000  1.0
  C  C57  1  0.17527000  0.40988000  0.69300000  1.0
  C  C58  1  0.26384000  0.29809000  0.25869000  1.0
  C  C59  1  0.76384000  0.70191000  0.24131000  1.0
  C  C60  1  0.73617000  0.70192000  0.74131000  1.0
  C  C61  1  0.23616000  0.29808000  0.75869000  1.0
  C  C62  1  0.19826000  0.29589000  0.34267000  1.0
  C  C63  1  0.69827000  0.70411000  0.15733000  1.0
  C  C64  1  0.80174000  0.70412000  0.65733000  1.0
  C  C65  1  0.30174000  0.29589000  0.84267000  1.0
  C  C66  1  0.18623000  0.40644000  0.36242000  1.0
  C  C67  1  0.68623000  0.59357000  0.13757000  1.0
  C  C68  1  0.81377000  0.59358000  0.63757000  1.0
  C  C69  1  0.31377000  0.40643000  0.86243000  1.0
  C  C70  1  0.24448000  0.51878000  0.29563000  1.0
  C  C71  1  0.74449000  0.48122000  0.20438000  1.0
  C  C72  1  0.75552000  0.48123000  0.70437000  1.0
  C  C73  1  0.25552000  0.51878000  0.79563000  1.0
  C  C74  1  0.31319000  0.52024000  0.21287000  1.0
  C  C75  1  0.81318000  0.47975000  0.28713000  1.0
  C  C76  1  0.68682000  0.47976000  0.78713000  1.0
  C  C77  1  0.18682000  0.52024000  0.71287000  1.0
  C  C78  1  0.14930000  0.61589000  0.99982000  1.0
  C  C79  1  0.64928000  0.38411000  0.50018000  1.0
  C  C80  1  0.85071000  0.38411000  0.00018000  1.0
  C  C81  1  0.35071000  0.61589000  0.49982000  1.0
  C  C82  1  0.02441000  0.70434000  0.97881000  1.0
  C  C83  1  0.52440000  0.29566000  0.52119000  1.0
  C  C84  1  0.97560000  0.29566000  0.02119000  1.0
  C  C85  1  0.47559000  0.70433000  0.47881000  1.0
  C  C86  1  0.05539000  0.82727000  0.91821000  1.0
  C  C87  1  0.55538000  0.17273000  0.58179000  1.0
  C  C88  1  0.94462000  0.17273000  0.08179000  1.0
  C  C89  1  0.44462000  0.82726000  0.41821000  1.0
  C  C90  1  0.76071000  0.89881000  0.90473000  1.0
  C  C91  1  0.26071000  0.10119000  0.59527000  1.0
  C  C92  1  0.23929000  0.10119000  0.09526000  1.0
  C  C93  1  0.73929000  0.89881000  0.40474000  1.0
  C  C94  1  0.64553000  0.99485000  0.88721000  1.0
  C  C95  1  0.14553000  0.00515000  0.61279000  1.0
  C  C96  1  0.35447000  0.00515000  0.11278000  1.0
  C  C97  1  0.85447000  0.99485000  0.38722000  1.0
  C  C98  1  0.69653000  0.11906000  0.86244000  1.0
  C  C99  1  0.19653000  0.88095000  0.63757000  1.0
  C  C100  1  0.30347000  0.88094000  0.13756000  1.0
  C  C101  1  0.80346000  0.11906000  0.36244000  1.0
  C  C102  1  0.86431000  0.14722000  0.85689000  1.0
  C  C103  1  0.36430000  0.85278000  0.64311000  1.0
  C  C104  1  0.13569000  0.85278000  0.14311000  1.0
  C  C105  1  0.63568000  0.14722000  0.35689000  1.0
  C  C106  1  0.97948000  0.05143000  0.87529000  1.0
  C  C107  1  0.47948000  0.94857000  0.62471000  1.0
  C  C108  1  0.02052000  0.94857000  0.12471000  1.0
  C  C109  1  0.52051000  0.05143000  0.37529000  1.0
  C  C110  1  0.93004000  0.92641000  0.89824000  1.0
  C  C111  1  0.43004000  0.07359000  0.60176000  1.0
  C  C112  1  0.06996000  0.07359000  0.10175000  1.0
  C  C113  1  0.56996000  0.92641000  0.39824000  1.0
  C  C114  1  0.21372000  0.85219000  0.87894000  1.0
  C  C115  1  0.71372000  0.14781000  0.62106000  1.0
  C  C116  1  0.78628000  0.14781000  0.12106000  1.0
  C  C117  1  0.28628000  0.85218000  0.37894000  1.0
  C  C118  1  0.33203000  0.75900000  0.90353000  1.0
  C  C119  1  0.83202000  0.24100000  0.59647000  1.0
  C  C120  1  0.66797000  0.24100000  0.09647000  1.0
  C  C121  1  0.16797000  0.75900000  0.40353000  1.0
  N  N122  1  0.30211000  0.64227000  0.96393000  1.0
  N  N123  1  0.80210000  0.35773000  0.53607000  1.0
  N  N124  1  0.69789000  0.35773000  0.03608000  1.0
  N  N125  1  0.19789000  0.64227000  0.46393000  1.0
  O  O126  1  0.38918000  0.41030000  0.11291000  1.0
  O  O127  1  0.88916000  0.58970000  0.38709000  1.0
  O  O128  1  0.61083000  0.58971000  0.88709000  1.0
  O  O129  1  0.11083000  0.41029000  0.61291000  1.0
  O  O130  1  0.12333000  0.40270000  0.44374000  1.0
  O  O131  1  0.62333000  0.59730000  0.05625000  1.0
  O  O132  1  0.87667000  0.59731000  0.55625000  1.0
  O  O133  1  0.37667000  0.40270000  0.94375000  1.0
