# generated using pymatgen
data_ZnH12C10NO4
_symmetry_space_group_name_H-M   'P 1'
_cell_length_a   9.80120000
_cell_length_b   10.90690000
_cell_length_c   11.30450000
_cell_angle_alpha   89.80830000
_cell_angle_beta   86.34310000
_cell_angle_gamma   76.55820000
_symmetry_Int_Tables_number   1
_chemical_formula_structural   ZnH12C10NO4
_chemical_formula_sum   'Zn2 H24 C20 N2 O8'
_cell_volume   1172.87997226
_cell_formula_units_Z   2
loop_
 _symmetry_equiv_pos_site_id
 _symmetry_equiv_pos_as_xyz
  1  'x, y, z'
loop_
 _atom_site_type_symbol
 _atom_site_label
 _atom_site_symmetry_multiplicity
 _atom_site_fract_x
 _atom_site_fract_y
 _atom_site_fract_z
 _atom_site_occupancy
  Zn  Zn0  1  0.35894000  0.52663000  0.48168000  1.0
  Zn  Zn1  1  0.63820000  0.46363000  0.51520000  1.0
  H  H2  1  0.69950000  0.07220000  0.57982000  1.0
  H  H3  1  0.39469000  0.89493000  0.67465000  1.0
  H  H4  1  0.47503000  0.08032000  0.68759000  1.0
  H  H5  1  0.61785000  0.47837000  0.89818000  1.0
  H  H6  1  0.37490000  0.51628000  0.09837000  1.0
  H  H7  1  0.29705000  0.51703000  0.88874000  1.0
  H  H8  1  0.69739000  0.45461000  0.10707000  1.0
  H  H9  1  0.12280000  0.42169000  0.57237000  1.0
  H  H10  1  0.86991000  0.58010000  0.43371000  1.0
  H  H11  1  0.09575000  0.62634000  0.40082000  1.0
  H  H12  1  0.57238000  0.90071000  0.31866000  1.0
  H  H13  1  0.90194000  0.36831000  0.59736000  1.0
  H  H14  1  0.48137000  0.11853000  0.30955000  1.0
  H  H15  1  0.32400000  0.11420000  0.39171000  1.0
  H  H16  1  0.28559000  0.95021000  0.55887000  1.0
  H  H17  1  0.66466000  0.86960000  0.62186000  1.0
  H  H18  1  0.73049000  0.83303000  0.47434000  1.0
  H  H19  1  0.71040000  0.04608000  0.42570000  1.0
  H  H20  1  0.25882000  0.90765000  0.36417000  1.0
  H  H21  1  0.34048000  0.94076000  0.22668000  1.0
  H  H22  1  0.38744000  0.78736000  0.28805000  1.0
  H  H23  1  0.20179000  0.18306000  0.56596000  1.0
  H  H24  1  0.21262000  0.13305000  0.71556000  1.0
  H  H25  1  0.27983000  0.26519000  0.66928000  1.0
  C  C26  1  0.55643000  0.48420000  0.26866000  1.0
  C  C27  1  0.49827000  0.11532000  0.50110000  1.0
  C  C28  1  0.41014000  0.08108000  0.61124000  1.0
  C  C29  1  0.64913000  0.03514000  0.50849000  1.0
  C  C30  1  0.58665000  0.47779000  0.13841000  1.0
  C  C31  1  0.48382000  0.49614000  0.06160000  1.0
  C  C32  1  0.40719000  0.50509000  0.85777000  1.0
  C  C33  1  0.50934000  0.49178000  0.93488000  1.0
  C  C34  1  0.92249000  0.50612000  0.49256000  1.0
  C  C35  1  0.07192000  0.49342000  0.51076000  1.0
  C  C36  1  0.50302000  0.73356000  0.49889000  1.0
  C  C37  1  0.43786000  0.50336000  0.72763000  1.0
  C  C38  1  0.49627000  0.25578000  0.49977000  1.0
  C  C39  1  0.47304000  0.93092000  0.37362000  1.0
  C  C40  1  0.43853000  0.07631000  0.38779000  1.0
  C  C41  1  0.39042000  0.94613000  0.59045000  1.0
  C  C42  1  0.64657000  0.89581000  0.52908000  1.0
  C  C43  1  0.50337000  0.87339000  0.49894000  1.0
  C  C44  1  0.35879000  0.88854000  0.30981000  1.0
  C  C45  1  0.26817000  0.17176000  0.64208000  1.0
  N  N46  1  0.84879000  0.43534000  0.54223000  1.0
  N  N47  1  0.14740000  0.56075000  0.45791000  1.0
  O  O48  1  0.43013000  0.53241000  0.30779000  1.0
  O  O49  1  0.66018000  0.44095000  0.33177000  1.0
  O  O50  1  0.38406000  0.70510000  0.51232000  1.0
  O  O51  1  0.62080000  0.65376000  0.48437000  1.0
  O  O52  1  0.33513000  0.50126000  0.66368000  1.0
  O  O53  1  0.56263000  0.50456000  0.68879000  1.0
  O  O54  1  0.38825000  0.33136000  0.46275000  1.0
  O  O55  1  0.60320000  0.28865000  0.53620000  1.0
