# generated using pymatgen
data_SrH4C(N3O2)2
_symmetry_space_group_name_H-M   'P 1'
_cell_length_a   6.52469000
_cell_length_b   8.80739000
_cell_length_c   13.41840446
_cell_angle_alpha   84.83469574
_cell_angle_beta   75.92802039
_cell_angle_gamma   68.26300000
_symmetry_Int_Tables_number   1
_chemical_formula_structural   SrH4C(N3O2)2
_chemical_formula_sum   'Sr4 H16 C4 N24 O16'
_cell_volume   694.77100214
_cell_formula_units_Z   4
loop_
 _symmetry_equiv_pos_site_id
 _symmetry_equiv_pos_as_xyz
  1  'x, y, z'
loop_
 _atom_site_type_symbol
 _atom_site_label
 _atom_site_symmetry_multiplicity
 _atom_site_fract_x
 _atom_site_fract_y
 _atom_site_fract_z
 _atom_site_occupancy
  Sr  Sr0  1  0.38040000  0.15855000  0.85901000  1.0
  Sr  Sr1  1  0.39799000  0.84150000  0.14099000  1.0
  Sr  Sr2  1  0.98944000  0.65850000  0.64099000  1.0
  Sr  Sr3  1  0.28904000  0.34148000  0.35900000  1.0
  H  H4  1  0.79561000  0.28059000  0.79437000  1.0
  H  H5  1  0.87047000  0.71933000  0.20571000  1.0
  H  H6  1  0.33993000  0.78065000  0.70572000  1.0
  H  H7  1  0.82624000  0.21943000  0.29432000  1.0
  H  H8  1  0.83790000  0.13911000  0.71645000  1.0
  H  H9  1  0.69341000  0.86091000  0.28355000  1.0
  H  H10  1  0.30439000  0.63908000  0.78356000  1.0
  H  H11  1  0.72699000  0.36097000  0.21647000  1.0
  H  H12  1  0.99945000  0.04092000  0.84591000  1.0
  H  H13  1  0.88634000  0.95905000  0.15422000  1.0
  H  H14  1  0.59525000  0.54101000  0.65408000  1.0
  H  H15  1  0.79061000  0.45904000  0.34575000  1.0
  H  H16  1  0.14236000  0.89393000  0.91185000  1.0
  H  H17  1  0.94813000  0.10603000  0.08826000  1.0
  H  H18  1  0.80403000  0.39399000  0.58815000  1.0
  H  H19  1  0.78654000  0.60598000  0.41172000  1.0
  C  C20  1  0.80469000  0.52763000  0.94269000  1.0
  C  C21  1  0.27492000  0.47237000  0.05734000  1.0
  C  C22  1  0.49712000  0.02757000  0.55729000  1.0
  C  C23  1  0.08238000  0.97239000  0.44272000  1.0
  N  N24  1  0.80764000  0.62620000  0.85683000  1.0
  N  N25  1  0.29077000  0.37376000  0.14319000  1.0
  N  N26  1  0.41433000  0.12619000  0.64314000  1.0
  N  N27  1  0.18412000  0.87381000  0.35685000  1.0
  N  N28  1  0.71660000  0.56505000  0.04379000  1.0
  N  N29  1  0.32530000  0.43495000  0.95624000  1.0
  N  N30  1  0.51016000  0.06497000  0.45619000  1.0
  N  N31  1  0.03162000  0.93497000  0.54380000  1.0
  N  N32  1  0.87913000  0.30080000  0.02363000  1.0
  N  N33  1  0.20363000  0.69918000  0.97640000  1.0
  N  N34  1  0.65273000  0.80074000  0.47636000  1.0
  N  N35  1  0.92983000  0.19922000  0.52363000  1.0
  N  N36  1  0.76830000  0.41969000  0.09156000  1.0
  N  N37  1  0.27950000  0.58030000  0.90847000  1.0
  N  N38  1  0.60977000  0.91962000  0.40843000  1.0
  N  N39  1  0.93786000  0.08033000  0.59156000  1.0
  N  N40  1  0.90708000  0.36357000  0.92898000  1.0
  N  N41  1  0.19971000  0.63641000  0.07104000  1.0
  N  N42  1  0.58594000  0.86353000  0.57100000  1.0
  N  N43  1  0.02070000  0.13643000  0.42900000  1.0
  N  N44  1  0.69830000  0.78214000  0.86630000  1.0
  N  N45  1  0.34679000  0.21786000  0.13370000  1.0
  N  N46  1  0.31466000  0.28213000  0.63366000  1.0
  N  N47  1  0.23063000  0.71788000  0.36630000  1.0
  O  O48  1  0.15048000  0.98258000  0.86130000  1.0
  O  O49  1  0.99435000  0.01747000  0.13885000  1.0
  O  O50  1  0.76167000  0.48266000  0.63867000  1.0
  O  O51  1  0.88331000  0.51740000  0.36114000  1.0
  O  O52  1  0.57973000  0.85985000  0.94913000  1.0
  O  O53  1  0.38836000  0.14023000  0.05088000  1.0
  O  O54  1  0.27878000  0.35981000  0.55083000  1.0
  O  O55  1  0.18940000  0.64023000  0.44910000  1.0
  O  O56  1  0.70992000  0.86730000  0.78303000  1.0
  O  O57  1  0.36072000  0.13259000  0.21692000  1.0
  O  O58  1  0.24332000  0.36737000  0.71689000  1.0
  O  O59  1  0.32771000  0.63268000  0.28305000  1.0
  O  O60  1  0.77400000  0.17731000  0.79049000  1.0
  O  O61  1  0.74183000  0.82267000  0.20951000  1.0
  O  O62  1  0.31447000  0.67736000  0.70954000  1.0
  O  O63  1  0.70137000  0.32273000  0.29051000  1.0
