# generated using pymatgen
data_AgH11C14N4O3
_symmetry_space_group_name_H-M   'P 1'
_cell_length_a   8.90075000
_cell_length_b   9.35100000
_cell_length_c   9.81487000
_cell_angle_alpha   102.90800000
_cell_angle_beta   116.22900000
_cell_angle_gamma   101.83900000
_symmetry_Int_Tables_number   1
_chemical_formula_structural   AgH11C14N4O3
_chemical_formula_sum   'Ag2 H22 C28 N8 O6'
_cell_volume   669.74292212
_cell_formula_units_Z   2
loop_
 _symmetry_equiv_pos_site_id
 _symmetry_equiv_pos_as_xyz
  1  'x, y, z'
loop_
 _atom_site_type_symbol
 _atom_site_label
 _atom_site_symmetry_multiplicity
 _atom_site_fract_x
 _atom_site_fract_y
 _atom_site_fract_z
 _atom_site_occupancy
  Ag  Ag0  1  0.73636000  0.71834000  0.23790000  1.0
  Ag  Ag1  1  0.26364000  0.28166000  0.76210000  1.0
  H  H2  1  0.03540000  0.78911000  0.58293000  1.0
  H  H3  1  0.96460000  0.21089000  0.41707000  1.0
  H  H4  1  0.58938000  0.41273000  0.10256000  1.0
  H  H5  1  0.41062000  0.58726000  0.89744000  1.0
  H  H6  1  0.06809000  0.12668000  0.91117000  1.0
  H  H7  1  0.93191000  0.87332000  0.08883000  1.0
  H  H8  1  0.13308000  0.12379000  0.18864000  1.0
  H  H9  1  0.86692000  0.87621000  0.81136000  1.0
  H  H10  1  0.43044000  0.28801000  0.42937000  1.0
  H  H11  1  0.56956000  0.71199000  0.57063000  1.0
  H  H12  1  0.77795000  0.37275000  0.61803000  1.0
  H  H13  1  0.22205000  0.62724000  0.38197000  1.0
  H  H14  1  0.03602000  0.43906000  0.86499000  1.0
  H  H15  1  0.96398000  0.56094000  0.13501000  1.0
  H  H16  1  0.27079000  0.53596000  0.15483000  1.0
  H  H17  1  0.72921000  0.46404000  0.84518000  1.0
  H  H18  1  0.48040000  0.81360000  0.29273000  1.0
  H  H19  1  0.51960000  0.18640000  0.70727000  1.0
  H  H20  1  0.45686000  0.98850000  0.13324000  1.0
  H  H21  1  0.54314000  0.01150000  0.86676000  1.0
  H  H22  1  0.22073000  0.89451000  0.84440000  1.0
  H  H23  1  0.77927000  0.10549000  0.15560000  1.0
  C  C24  1  0.48985000  0.35430000  0.12696000  1.0
  C  C25  1  0.51015000  0.64569000  0.87304000  1.0
  C  C26  1  0.19985000  0.18960000  0.01983000  1.0
  C  C27  1  0.80015000  0.81040000  0.98017000  1.0
  C  C28  1  0.23549000  0.19158000  0.17335000  1.0
  C  C29  1  0.76451000  0.80842000  0.82665000  1.0
  C  C30  1  0.40315000  0.28329000  0.30852000  1.0
  C  C31  1  0.59685000  0.71671000  0.69148000  1.0
  C  C32  1  0.53343000  0.37096000  0.28692000  1.0
  C  C33  1  0.46657000  0.62904000  0.71308000  1.0
  C  C34  1  0.70758000  0.47825000  0.42493000  1.0
  C  C35  1  0.29243000  0.52175000  0.57507000  1.0
  C  C36  1  0.80812000  0.46829000  0.57821000  1.0
  C  C37  1  0.19189000  0.53171000  0.42179000  1.0
  C  C38  1  0.96104000  0.60319000  0.66601000  1.0
  C  C39  1  0.03896000  0.39681000  0.33399000  1.0
  C  C40  1  0.10826000  0.65993000  0.83391000  1.0
  C  C41  1  0.89173000  0.34007000  0.16609000  1.0
  C  C42  1  0.12687000  0.55989000  0.92349000  1.0
  C  C43  1  0.87313000  0.44011000  0.07651000  1.0
  C  C44  1  0.26009000  0.61472000  0.08690000  1.0
  C  C45  1  0.73991000  0.38528000  0.91310000  1.0
  C  C46  1  0.37838000  0.76936000  0.16394000  1.0
  C  C47  1  0.62163000  0.23064000  0.83606000  1.0
  C  C48  1  0.36347000  0.86842000  0.07442000  1.0
  C  C49  1  0.63653000  0.13158000  0.92558000  1.0
  C  C50  1  0.23002000  0.81484000  0.91133000  1.0
  C  C51  1  0.76998000  0.18516000  0.08867000  1.0
  N  N52  1  0.32704000  0.26755000  0.99697000  1.0
  N  N53  1  0.67296000  0.73245000  0.00303000  1.0
  N  N54  1  0.79441000  0.61213000  0.41936000  1.0
  N  N55  1  0.20559000  0.38787000  0.58064000  1.0
  N  N56  1  0.94565000  0.68496000  0.56486000  1.0
  N  N57  1  0.05435000  0.31504000  0.43513000  1.0
  N  N58  1  0.82571000  0.04498000  0.52854000  1.0
  N  N59  1  0.17429000  0.95502000  0.47146000  1.0
  O  O60  1  0.82536000  0.03616000  0.39501000  1.0
  O  O61  1  0.17464000  0.96384000  0.60499000  1.0
  O  O62  1  0.73881000  0.92681000  0.53684000  1.0
  O  O63  1  0.26119000  0.07318000  0.46316000  1.0
  O  O64  1  0.91516000  0.17263000  0.64867000  1.0
  O  O65  1  0.08484000  0.82737000  0.35133000  1.0
