# generated using pymatgen
data_TbH10C18N3(Cl3O4)2
_symmetry_space_group_name_H-M   'P 1'
_cell_length_a   9.77586000
_cell_length_b   11.75220000
_cell_length_c   12.99570000
_cell_angle_alpha   116.86300000
_cell_angle_beta   111.49500000
_cell_angle_gamma   90.00690000
_symmetry_Int_Tables_number   1
_chemical_formula_structural   TbH10C18N3(Cl3O4)2
_chemical_formula_sum   'Tb2 H20 C36 N6 Cl12 O16'
_cell_volume   1214.35417101
_cell_formula_units_Z   2
loop_
 _symmetry_equiv_pos_site_id
 _symmetry_equiv_pos_as_xyz
  1  'x, y, z'
loop_
 _atom_site_type_symbol
 _atom_site_label
 _atom_site_symmetry_multiplicity
 _atom_site_fract_x
 _atom_site_fract_y
 _atom_site_fract_z
 _atom_site_occupancy
  Tb  Tb0  1  0.25002000  0.97005000  0.00001000  1.0
  Tb  Tb1  1  0.74997000  0.02995000  0.99999000  1.0
  H  H2  1  0.12785000  0.70569000  0.95828000  1.0
  H  H3  1  0.37208000  0.74748000  0.04179000  1.0
  H  H4  1  0.87215000  0.29431000  0.04172000  1.0
  H  H5  1  0.62792000  0.25252000  0.95821000  1.0
  H  H6  1  0.98586000  0.77442000  0.93167000  1.0
  H  H7  1  0.51415000  0.84273000  0.06840000  1.0
  H  H8  1  0.01414000  0.22558000  0.06833000  1.0
  H  H9  1  0.48584000  0.15727000  0.93160000  1.0
  H  H10  1  0.07370000  0.84875000  0.66400000  1.0
  H  H11  1  0.42640000  0.18488000  0.33607000  1.0
  H  H12  1  0.92630000  0.15125000  0.33600000  1.0
  H  H13  1  0.57360000  0.81512000  0.66393000  1.0
  H  H14  1  0.67363000  0.01277000  0.62115000  1.0
  H  H15  1  0.82647000  0.39178000  0.37890000  1.0
  H  H16  1  0.32637000  0.98723000  0.37885000  1.0
  H  H17  1  0.17352000  0.60822000  0.62109000  1.0
  H  H18  1  0.28400000  0.27232000  0.82664000  1.0
  H  H19  1  0.21628000  0.44581000  0.17379000  1.0
  H  H20  1  0.71600000  0.72768000  0.17336000  1.0
  H  H21  1  0.78372000  0.55419000  0.82621000  1.0
  C  C22  1  0.89317000  0.95930000  0.78719000  1.0
  C  C23  1  0.60682000  0.17233000  0.21287000  1.0
  C  C24  1  0.10683000  0.04070000  0.21281000  1.0
  C  C25  1  0.39317000  0.82767000  0.78712000  1.0
  C  C26  1  0.87570000  0.93410000  0.65812000  1.0
  C  C27  1  0.62435000  0.27618000  0.34191000  1.0
  C  C28  1  0.12431000  0.06590000  0.34189000  1.0
  C  C29  1  0.37565000  0.72382000  0.65809000  1.0
  C  C30  1  0.97684000  0.87308000  0.60847000  1.0
  C  C31  1  0.52324000  0.26475000  0.39157000  1.0
  C  C32  1  0.02317000  0.12692000  0.39153000  1.0
  C  C33  1  0.47675000  0.73525000  0.60843000  1.0
  C  C34  1  0.94499000  0.84202000  0.48409000  1.0
  C  C35  1  0.55502000  0.35802000  0.51594000  1.0
  C  C36  1  0.05502000  0.15798000  0.51592000  1.0
  C  C37  1  0.44498000  0.64198000  0.48407000  1.0
  C  C38  1  0.73865000  0.93278000  0.46338000  1.0
  C  C39  1  0.76132000  0.46949000  0.53659000  1.0
  C  C40  1  0.26136000  0.06722000  0.53662000  1.0
  C  C41  1  0.23869000  0.53051000  0.46341000  1.0
  C  C42  1  0.75430000  0.96624000  0.58514000  1.0
  C  C43  1  0.74575000  0.38125000  0.41486000  1.0
  C  C44  1  0.24571000  0.03376000  0.41486000  1.0
  C  C45  1  0.25425000  0.61875000  0.58514000  1.0
  C  C46  1  0.25010000  0.21583000  0.00007000  1.0
  C  C47  1  0.74990000  0.78417000  0.99993000  1.0
  C  C48  1  0.25017000  0.34385000  0.00019000  1.0
  C  C49  1  0.74983000  0.65615000  0.99981000  1.0
  C  C50  1  0.27190000  0.35550000  0.90456000  1.0
  C  C51  1  0.22835000  0.45105000  0.09582000  1.0
  C  C52  1  0.72810000  0.64450000  0.09544000  1.0
  C  C53  1  0.77165000  0.54895000  0.90418000  1.0
  C  C54  1  0.27231000  0.47692000  0.91061000  1.0
  C  C55  1  0.22776000  0.56636000  0.08962000  1.0
  C  C56  1  0.72770000  0.52308000  0.08939000  1.0
  C  C57  1  0.77225000  0.43364000  0.91038000  1.0
  N  N58  1  0.82945000  0.87026000  0.41198000  1.0
  N  N59  1  0.67052000  0.45838000  0.58802000  1.0
  N  N60  1  0.17055000  0.12974000  0.58802000  1.0
  N  N61  1  0.32948000  0.54161000  0.41198000  1.0
  N  N62  1  0.25000000  0.58096000  0.00009000  1.0
  N  N63  1  0.75000000  0.41905000  0.99991000  1.0
  Cl  Cl64  1  0.05870000  0.75839000  0.41231000  1.0
  Cl  Cl65  1  0.44131000  0.34613000  0.58774000  1.0
  Cl  Cl66  1  0.94131000  0.24161000  0.58770000  1.0
  Cl  Cl67  1  0.55869000  0.65388000  0.41226000  1.0
  Cl  Cl68  1  0.59028000  0.96799000  0.36651000  1.0
  Cl  Cl69  1  0.90971000  0.60155000  0.63352000  1.0
  Cl  Cl70  1  0.40973000  0.03202000  0.63349000  1.0
  Cl  Cl71  1  0.09029000  0.39844000  0.36648000  1.0
  Cl  Cl72  1  0.30503000  0.50078000  0.79952000  1.0
  Cl  Cl73  1  0.19491000  0.70123000  0.20056000  1.0
  Cl  Cl74  1  0.69498000  0.49922000  0.20048000  1.0
  Cl  Cl75  1  0.80509000  0.29877000  0.79944000  1.0
  O  O76  1  0.01858000  0.95531000  0.86078000  1.0
  O  O77  1  0.48137000  0.09479000  0.13936000  1.0
  O  O78  1  0.98140000  0.04468000  0.13921000  1.0
  O  O79  1  0.51861000  0.90521000  0.86064000  1.0
  O  O80  1  0.09095000  0.77497000  0.93995000  1.0
  O  O81  1  0.40907000  0.83508000  0.06015000  1.0
  O  O82  1  0.90905000  0.22503000  0.06005000  1.0
  O  O83  1  0.59093000  0.16493000  0.93985000  1.0
  O  O84  1  0.77968000  0.98096000  0.81339000  1.0
  O  O85  1  0.72028000  0.16764000  0.18662000  1.0
  O  O86  1  0.22031000  0.01903000  0.18661000  1.0
  O  O87  1  0.27972000  0.83236000  0.81338000  1.0
  O  O88  1  0.30726000  0.13040000  0.93438000  1.0
  O  O89  1  0.19287000  0.19590000  0.06565000  1.0
  O  O90  1  0.69274000  0.86960000  0.06562000  1.0
  O  O91  1  0.80712000  0.80410000  0.93435000  1.0
