# generated using pymatgen
data_Mn3H14C8(N9O)4
_symmetry_space_group_name_H-M   'P 1'
_cell_length_a   9.40917000
_cell_length_b   11.67590000
_cell_length_c   14.95120843
_cell_angle_alpha   112.96706628
_cell_angle_beta   108.33880059
_cell_angle_gamma   90.00380000
_symmetry_Int_Tables_number   1
_chemical_formula_structural   Mn3H14C8(N9O)4
_chemical_formula_sum   'Mn6 H28 C16 N72 O8'
_cell_volume   1421.28382333
_cell_formula_units_Z   2
loop_
 _symmetry_equiv_pos_site_id
 _symmetry_equiv_pos_as_xyz
  1  'x, y, z'
loop_
 _atom_site_type_symbol
 _atom_site_label
 _atom_site_symmetry_multiplicity
 _atom_site_fract_x
 _atom_site_fract_y
 _atom_site_fract_z
 _atom_site_occupancy
  Mn  Mn0  1  0.00000000  0.50000000  0.00000000  1.0
  Mn  Mn1  1  0.50000000  0.00000000  0.00000000  1.0
  Mn  Mn2  1  0.31232000  0.31231000  0.62448000  1.0
  Mn  Mn3  1  0.18763000  0.18758000  0.37557000  1.0
  Mn  Mn4  1  0.68768000  0.68769000  0.37552000  1.0
  Mn  Mn5  1  0.81237000  0.81242000  0.62443000  1.0
  H  H6  1  0.59989000  0.06398000  0.78868000  1.0
  H  H7  1  0.18895000  0.72492000  0.78867000  1.0
  H  H8  1  0.90027000  0.77506000  0.21116000  1.0
  H  H9  1  0.31108000  0.43600000  0.21139000  1.0
  H  H10  1  0.40011000  0.93602000  0.21132000  1.0
  H  H11  1  0.81105000  0.27509000  0.21134000  1.0
  H  H12  1  0.09973000  0.22494000  0.78884000  1.0
  H  H13  1  0.68892000  0.56399000  0.78860000  1.0
  H  H14  1  0.41275000  0.88052000  0.64458000  1.0
  H  H15  1  0.23196000  0.76412000  0.64433000  1.0
  H  H16  1  0.08742000  0.73569000  0.35535000  1.0
  H  H17  1  0.26802000  0.61941000  0.35555000  1.0
  H  H18  1  0.58724000  0.11948000  0.35542000  1.0
  H  H19  1  0.76803000  0.23588000  0.35567000  1.0
  H  H20  1  0.91257000  0.26431000  0.64465000  1.0
  H  H21  1  0.73198000  0.38059000  0.64445000  1.0
  H  H22  1  0.48877000  0.25019000  0.49988000  1.0
  H  H23  1  0.01116000  0.25001000  0.50013000  1.0
  H  H24  1  0.51123000  0.74981000  0.50012000  1.0
  H  H25  1  0.98884000  0.75001000  0.49988000  1.0
  H  H26  1  0.16165000  0.27212000  0.00028000  1.0
  H  H27  1  0.83836000  0.72788000  0.99973000  1.0
  H  H28  1  0.33832000  0.77188000  0.99967000  1.0
  H  H29  1  0.66167000  0.22811000  0.00032000  1.0
  H  H30  1  0.99319000  0.26350000  0.99990000  1.0
  H  H31  1  0.00681000  0.73651000  0.00011000  1.0
  H  H32  1  0.50684000  0.76365000  0.00019000  1.0
  H  H33  1  0.49316000  0.23634000  0.99980000  1.0
  C  C34  1  0.60636000  0.24555000  0.79628000  1.0
  C  C35  1  0.19016000  0.55103000  0.79643000  1.0
  C  C36  1  0.89375000  0.94903000  0.20354000  1.0
  C  C37  1  0.30987000  0.25439000  0.20368000  1.0
  C  C38  1  0.39364000  0.75445000  0.20372000  1.0
  C  C39  1  0.80984000  0.44899000  0.20358000  1.0
  C  C40  1  0.10625000  0.05098000  0.79647000  1.0
  C  C41  1  0.69013000  0.74561000  0.79632000  1.0
  C  C42  1  0.40074000  0.07623000  0.68941000  1.0
  C  C43  1  0.28873000  0.61334000  0.68938000  1.0
  C  C44  1  0.09933000  0.88659000  0.31048000  1.0
  C  C45  1  0.21124000  0.42367000  0.31065000  1.0
  C  C46  1  0.59926000  0.92377000  0.31060000  1.0
  C  C47  1  0.71127000  0.38666000  0.31062000  1.0
  C  C48  1  0.90067000  0.11341000  0.68952000  1.0
  C  C49  1  0.78876000  0.57633000  0.68935000  1.0
  N  N50  1  0.55483000  0.33358000  0.76144000  1.0
  N  N51  1  0.20661000  0.42812000  0.76153000  1.0
  N  N52  1  0.94521000  0.07190000  0.23843000  1.0
  N  N53  1  0.29335000  0.16635000  0.23855000  1.0
  N  N54  1  0.44517000  0.66641000  0.23855000  1.0
  N  N55  1  0.79339000  0.57188000  0.23847000  1.0
  N  N56  1  0.05478000  0.92811000  0.76158000  1.0
  N  N57  1  0.70665000  0.83365000  0.76145000  1.0
  N  N58  1  0.66570000  0.43283000  0.81811000  1.0
  N  N59  1  0.15253000  0.38563000  0.81832000  1.0
  N  N60  1  0.83429000  0.11448000  0.18177000  1.0
  N  N61  1  0.34740000  0.06710000  0.18176000  1.0
  N  N62  1  0.33430000  0.56717000  0.18189000  1.0
  N  N63  1  0.84747000  0.61437000  0.18168000  1.0
  N  N64  1  0.16570000  0.88551000  0.81822000  1.0
  N  N65  1  0.65260000  0.93290000  0.81824000  1.0
  N  N66  1  0.77566000  0.40350000  0.88260000  1.0
  N  N67  1  0.10736000  0.47952000  0.88293000  1.0
  N  N68  1  0.72437000  0.02068000  0.11725000  1.0
  N  N69  1  0.39263000  0.09642000  0.11717000  1.0
  N  N70  1  0.22434000  0.59650000  0.11740000  1.0
  N  N71  1  0.89264000  0.52048000  0.11707000  1.0
  N  N72  1  0.27563000  0.97932000  0.88275000  1.0
  N  N73  1  0.60737000  0.90358000  0.88283000  1.0
  N  N74  1  0.74181000  0.28621000  0.87203000  1.0
  N  N75  1  0.13073000  0.58622000  0.87232000  1.0
  N  N76  1  0.75829000  0.91395000  0.12779000  1.0
  N  N77  1  0.36932000  0.21372000  0.12779000  1.0
  N  N78  1  0.25819000  0.71379000  0.12797000  1.0
  N  N79  1  0.86927000  0.41379000  0.12769000  1.0
  N  N80  1  0.24172000  0.08605000  0.87221000  1.0
  N  N81  1  0.63068000  0.78627000  0.87220000  1.0
  N  N82  1  0.53875000  0.12528000  0.76059000  1.0
  N  N83  1  0.22201000  0.63556000  0.76062000  1.0
  N  N84  1  0.96140000  0.86441000  0.23923000  1.0
  N  N85  1  0.27803000  0.37469000  0.23946000  1.0
  N  N86  1  0.46125000  0.87473000  0.23941000  1.0
  N  N87  1  0.77799000  0.36445000  0.23939000  1.0
  N  N88  1  0.03860000  0.13559000  0.76077000  1.0
  N  N89  1  0.72197000  0.62531000  0.76054000  1.0
  N  N90  1  0.34997000  0.95231000  0.64843000  1.0
  N  N91  1  0.29861000  0.69621000  0.64830000  1.0
  N  N92  1  0.15017000  0.80367000  0.35153000  1.0
  N  N93  1  0.20137000  0.54759000  0.35165000  1.0
  N  N94  1  0.65003000  0.04769000  0.35157000  1.0
  N  N95  1  0.70140000  0.30378000  0.35170000  1.0
  N  N96  1  0.84982000  0.19633000  0.64847000  1.0
  N  N97  1  0.79863000  0.45241000  0.64835000  1.0
  N  N98  1  0.20251000  0.93209000  0.58589000  1.0
  N  N99  1  0.38342000  0.65372000  0.58571000  1.0
  N  N100  1  0.29755000  0.84613000  0.41420000  1.0
  N  N101  1  0.11650000  0.56774000  0.41421000  1.0
  N  N102  1  0.79749000  0.06791000  0.41411000  1.0
  N  N103  1  0.61658000  0.34627000  0.41429000  1.0
  N  N104  1  0.70245000  0.15387000  0.58580000  1.0
  N  N105  1  0.88350000  0.43226000  0.58579000  1.0
  N  N106  1  0.16752000  0.03997000  0.58876000  1.0
  N  N107  1  0.42117000  0.54871000  0.58864000  1.0
  N  N108  1  0.33245000  0.95118000  0.41135000  1.0
  N  N109  1  0.07871000  0.45983000  0.41133000  1.0
  N  N110  1  0.83248000  0.96004000  0.41125000  1.0
  N  N111  1  0.57883000  0.45128000  0.41136000  1.0
  N  N112  1  0.66755000  0.04882000  0.58865000  1.0
  N  N113  1  0.92129000  0.54017000  0.58867000  1.0
  N  N114  1  0.28846000  0.13306000  0.65152000  1.0
  N  N115  1  0.36301000  0.51854000  0.65149000  1.0
  N  N116  1  0.21152000  0.98141000  0.34848000  1.0
  N  N117  1  0.13690000  0.36680000  0.34855000  1.0
  N  N118  1  0.71154000  0.86694000  0.34848000  1.0
  N  N119  1  0.63700000  0.48146000  0.34851000  1.0
  N  N120  1  0.78848000  0.01859000  0.65152000  1.0
  N  N121  1  0.86310000  0.63320000  0.65145000  1.0
  O  O122  1  0.38581000  0.24994000  0.49996000  1.0
  O  O123  1  0.11414000  0.24992000  0.50009000  1.0
  O  O124  1  0.61419000  0.75006000  0.50004000  1.0
  O  O125  1  0.88586000  0.75007000  0.49991000  1.0
  O  O126  1  0.07339000  0.31646000  0.00007000  1.0
  O  O127  1  0.92661000  0.68353000  0.99992000  1.0
  O  O128  1  0.42665000  0.81644000  0.99996000  1.0
  O  O129  1  0.57336000  0.18356000  0.00004000  1.0
