# generated using pymatgen
data_CuH5C7N3
_symmetry_space_group_name_H-M   'P 1'
_cell_length_a   7.83435000
_cell_length_b   7.88834000
_cell_length_c   13.11510000
_cell_angle_alpha   89.99790000
_cell_angle_beta   89.99730000
_cell_angle_gamma   68.33000000
_symmetry_Int_Tables_number   1
_chemical_formula_structural   CuH5C7N3
_chemical_formula_sum   'Cu4 H20 C28 N12'
_cell_volume   753.23120631
_cell_formula_units_Z   4
loop_
 _symmetry_equiv_pos_site_id
 _symmetry_equiv_pos_as_xyz
  1  'x, y, z'
loop_
 _atom_site_type_symbol
 _atom_site_label
 _atom_site_symmetry_multiplicity
 _atom_site_fract_x
 _atom_site_fract_y
 _atom_site_fract_z
 _atom_site_occupancy
  Cu  Cu0  1  0.49998000  0.50000000  0.75064000  1.0
  Cu  Cu1  1  0.50004000  0.50000000  0.24935000  1.0
  Cu  Cu2  1  0.00002000  0.49999000  0.50000000  1.0
  Cu  Cu3  1  0.50000000  0.00001000  0.00000000  1.0
  H  H4  1  0.85184000  0.79152000  0.65754000  1.0
  H  H5  1  0.14817000  0.20843000  0.65752000  1.0
  H  H6  1  0.78792000  0.85052000  0.84264000  1.0
  H  H7  1  0.21212000  0.14941000  0.84262000  1.0
  H  H8  1  0.14815000  0.20850000  0.34246000  1.0
  H  H9  1  0.85183000  0.79155000  0.34248000  1.0
  H  H10  1  0.21206000  0.14950000  0.15739000  1.0
  H  H11  1  0.78788000  0.85057000  0.15740000  1.0
  H  H12  1  0.66460000  0.12800000  0.66481000  1.0
  H  H13  1  0.33542000  0.87194000  0.66481000  1.0
  H  H14  1  0.12658000  0.66273000  0.83527000  1.0
  H  H15  1  0.87339000  0.33722000  0.83527000  1.0
  H  H16  1  0.33536000  0.87206000  0.33515000  1.0
  H  H17  1  0.66463000  0.12801000  0.33515000  1.0
  H  H18  1  0.87342000  0.33727000  0.16477000  1.0
  H  H19  1  0.12659000  0.66278000  0.16478000  1.0
  H  H20  1  0.56838000  0.29916000  0.49996000  1.0
  H  H21  1  0.43163000  0.70083000  0.49996000  1.0
  H  H22  1  0.29874000  0.56651000  0.00003000  1.0
  H  H23  1  0.70126000  0.43348000  0.00002000  1.0
  C  C24  1  0.70505000  0.48144000  0.66276000  1.0
  C  C25  1  0.29496000  0.51853000  0.66278000  1.0
  C  C26  1  0.47930000  0.70212000  0.83898000  1.0
  C  C27  1  0.52076000  0.29792000  0.83898000  1.0
  C  C28  1  0.29496000  0.51854000  0.33722000  1.0
  C  C29  1  0.70505000  0.48149000  0.33722000  1.0
  C  C30  1  0.52070000  0.29788000  0.16102000  1.0
  C  C31  1  0.47926000  0.70208000  0.16101000  1.0
  C  C32  1  0.80692000  0.87293000  0.58865000  1.0
  C  C33  1  0.19310000  0.12702000  0.58863000  1.0
  C  C34  1  0.87002000  0.80521000  0.91140000  1.0
  C  C35  1  0.12999000  0.19476000  0.91138000  1.0
  C  C36  1  0.19310000  0.12709000  0.41134000  1.0
  C  C37  1  0.80689000  0.87295000  0.41136000  1.0
  C  C38  1  0.12998000  0.19479000  0.08864000  1.0
  C  C39  1  0.87000000  0.80523000  0.08865000  1.0
  C  C40  1  0.70316000  0.05901000  0.59160000  1.0
  C  C41  1  0.29684000  0.94095000  0.59161000  1.0
  C  C42  1  0.05711000  0.70120000  0.90844000  1.0
  C  C43  1  0.94290000  0.29877000  0.90841000  1.0
  C  C44  1  0.29685000  0.94102000  0.40837000  1.0
  C  C45  1  0.70314000  0.05902000  0.40837000  1.0
  C  C46  1  0.94289000  0.29880000  0.09160000  1.0
  C  C47  1  0.05709000  0.70123000  0.09162000  1.0
  C  C48  1  0.64994000  0.15356000  0.49998000  1.0
  C  C49  1  0.35006000  0.84643000  0.49997000  1.0
  C  C50  1  0.15222000  0.64799000  0.00002000  1.0
  C  C51  1  0.84777000  0.35201000  0.00002000  1.0
  N  N52  1  0.82615000  0.47480000  0.60810000  1.0
  N  N53  1  0.17385000  0.52520000  0.60812000  1.0
  N  N54  1  0.46793000  0.82848000  0.88992000  1.0
  N  N55  1  0.53206000  0.17159000  0.88990000  1.0
  N  N56  1  0.17387000  0.52519000  0.39188000  1.0
  N  N57  1  0.82612000  0.47483000  0.39188000  1.0
  N  N58  1  0.53206000  0.17156000  0.11006000  1.0
  N  N59  1  0.46795000  0.82840000  0.11008000  1.0
  N  N60  1  0.85621000  0.78320000  0.50000000  1.0
  N  N61  1  0.14380000  0.21681000  0.50000000  1.0
  N  N62  1  0.77967000  0.85457000  0.00003000  1.0
  N  N63  1  0.22033000  0.14544000  0.00000000  1.0
