# generated using pymatgen
data_SrH11C11NO6
_symmetry_space_group_name_H-M   'P 1'
_cell_length_a   9.83686000
_cell_length_b   10.57800000
_cell_length_c   10.57860992
_cell_angle_alpha   60.00372148
_cell_angle_beta   89.99670009
_cell_angle_gamma   89.99790000
_symmetry_Int_Tables_number   1
_chemical_formula_structural   SrH11C11NO6
_chemical_formula_sum   'Sr3 H33 C33 N3 O18'
_cell_volume   953.31312455
_cell_formula_units_Z   3
loop_
 _symmetry_equiv_pos_site_id
 _symmetry_equiv_pos_as_xyz
  1  'x, y, z'
loop_
 _atom_site_type_symbol
 _atom_site_label
 _atom_site_symmetry_multiplicity
 _atom_site_fract_x
 _atom_site_fract_y
 _atom_site_fract_z
 _atom_site_occupancy
  Sr  Sr0  1  0.33852000  0.12723000  0.96816000  1.0
  Sr  Sr1  1  0.00521000  0.90454000  0.12728000  1.0
  Sr  Sr2  1  0.67187000  0.96810000  0.90464000  1.0
  H  H3  1  0.73332000  0.33115000  0.51304000  1.0
  H  H4  1  0.39980000  0.15588000  0.33116000  1.0
  H  H5  1  0.06667000  0.51306000  0.15567000  1.0
  H  H6  1  0.62873000  0.67519000  0.22025000  1.0
  H  H7  1  0.29529000  0.10455000  0.67520000  1.0
  H  H8  1  0.96222000  0.22021000  0.10437000  1.0
  H  H9  1  0.22049000  0.59908000  0.39121000  1.0
  H  H10  1  0.88697000  0.00981000  0.59910000  1.0
  H  H11  1  0.55395000  0.39112000  0.00986000  1.0
  H  H12  1  0.29552000  0.35986000  0.60089000  1.0
  H  H13  1  0.96203000  0.03927000  0.35988000  1.0
  H  H14  1  0.62896000  0.60076000  0.03932000  1.0
  H  H15  1  0.30544000  0.43383000  0.02002000  1.0
  H  H16  1  0.97211000  0.54604000  0.43389000  1.0
  H  H17  1  0.63880000  0.02008000  0.54606000  1.0
  H  H18  1  0.31500000  0.63289000  0.02219000  1.0
  H  H19  1  0.98156000  0.34488000  0.63296000  1.0
  H  H20  1  0.64839000  0.02215000  0.34494000  1.0
  H  H21  1  0.19702000  0.76435000  0.89772000  1.0
  H  H22  1  0.86357000  0.33796000  0.76439000  1.0
  H  H23  1  0.53044000  0.89770000  0.33790000  1.0
  H  H24  1  0.37528000  0.78999000  0.86044000  1.0
  H  H25  1  0.04185000  0.34951000  0.79006000  1.0
  H  H26  1  0.70871000  0.86040000  0.34959000  1.0
  H  H27  1  0.35431000  0.79163000  0.62370000  1.0
  H  H28  1  0.02098000  0.58473000  0.79158000  1.0
  H  H29  1  0.68757000  0.62369000  0.58471000  1.0
  H  H30  1  0.17528000  0.77696000  0.64299000  1.0
  H  H31  1  0.84194000  0.58014000  0.77691000  1.0
  H  H32  1  0.50853000  0.64299000  0.58015000  1.0
  H  H33  1  0.26859000  0.64051000  0.62570000  1.0
  H  H34  1  0.93528000  0.73382000  0.64042000  1.0
  H  H35  1  0.60190000  0.62577000  0.73382000  1.0
  C  C36  1  0.50261000  0.38190000  0.52744000  1.0
  C  C37  1  0.16906000  0.09084000  0.38185000  1.0
  C  C38  1  0.83606000  0.52741000  0.09062000  1.0
  C  C39  1  0.59724000  0.47234000  0.41798000  1.0
  C  C40  1  0.26369000  0.10985000  0.47228000  1.0
  C  C41  1  0.93069000  0.41798000  0.10950000  1.0
  C  C42  1  0.55435000  0.60672000  0.30196000  1.0
  C  C43  1  0.22082000  0.09150000  0.60667000  1.0
  C  C44  1  0.88783000  0.30193000  0.09115000  1.0
  C  C45  1  0.41980000  0.65139000  0.29232000  1.0
  C  C46  1  0.08627000  0.05650000  0.65135000  1.0
  C  C47  1  0.75324000  0.29221000  0.05626000  1.0
  C  C48  1  0.32522000  0.56233000  0.40044000  1.0
  C  C49  1  0.99168000  0.03743000  0.56230000  1.0
  C  C50  1  0.65867000  0.40032000  0.03731000  1.0
  C  C51  1  0.36740000  0.42956000  0.51628000  1.0
  C  C52  1  0.03385000  0.05430000  0.42955000  1.0
  C  C53  1  0.70085000  0.51618000  0.05420000  1.0
  C  C54  1  0.54783000  0.23958000  0.64939000  1.0
  C  C55  1  0.21427000  0.11115000  0.23954000  1.0
  C  C56  1  0.88120000  0.64933000  0.11108000  1.0
  C  C57  1  0.37797000  0.79671000  0.16716000  1.0
  C  C58  1  0.04457000  0.03615000  0.79677000  1.0
  C  C59  1  0.71133000  0.16701000  0.03617000  1.0
  C  C60  1  0.29355000  0.48170000  0.90091000  1.0
  C  C61  1  0.96023000  0.61731000  0.48174000  1.0
  C  C62  1  0.62686000  0.90097000  0.61732000  1.0
  C  C63  1  0.29370000  0.70850000  0.90659000  1.0
  C  C64  1  0.96028000  0.38487000  0.70856000  1.0
  C  C65  1  0.62709000  0.90656000  0.38490000  1.0
  C  C66  1  0.26999000  0.71363000  0.67093000  1.0
  C  C67  1  0.93666000  0.61548000  0.71360000  1.0
  C  C68  1  0.60328000  0.67093000  0.61549000  1.0
  N  N69  1  0.28622000  0.62782000  0.82860000  1.0
  N  N70  1  0.95287000  0.54355000  0.62785000  1.0
  N  N71  1  0.61955000  0.82861000  0.54356000  1.0
  O  O72  1  0.46643000  0.15721000  0.75127000  1.0
  O  O73  1  0.13290000  0.09146000  0.15727000  1.0
  O  O74  1  0.79975000  0.75115000  0.09167000  1.0
  O  O75  1  0.67266000  0.20052000  0.65036000  1.0
  O  O76  1  0.33905000  0.14933000  0.20043000  1.0
  O  O77  1  0.00603000  0.65033000  0.14915000  1.0
  O  O78  1  0.46488000  0.87140000  0.06667000  1.0
  O  O79  1  0.13155000  0.06186000  0.87146000  1.0
  O  O80  1  0.79817000  0.06646000  0.06200000  1.0
  O  O81  1  0.25874000  0.84388000  0.16555000  1.0
  O  O82  1  0.92540000  0.99043000  0.84407000  1.0
  O  O83  1  0.59208000  0.16545000  0.99060000  1.0
  O  O84  1  0.72853000  0.43329000  0.42277000  1.0
  O  O85  1  0.39500000  0.14401000  0.43328000  1.0
  O  O86  1  0.06196000  0.42283000  0.14372000  1.0
  O  O87  1  0.28722000  0.40254000  0.84389000  1.0
  O  O88  1  0.95396000  0.75349000  0.40258000  1.0
  O  O89  1  0.62050000  0.84398000  0.75349000  1.0
