# generated using pymatgen
data_Hf3H38C63N3O16
_symmetry_space_group_name_H-M   'P 1'
_cell_length_a   17.17580000
_cell_length_b   17.19490000
_cell_length_c   17.20440000
_cell_angle_alpha   91.88800000
_cell_angle_beta   91.89600000
_cell_angle_gamma   92.06320000
_symmetry_Int_Tables_number   1
_chemical_formula_structural   Hf3H38C63N3O16
_chemical_formula_sum   'Hf6 H76 C126 N6 O32'
_cell_volume   5072.04260918
_cell_formula_units_Z   2
loop_
 _symmetry_equiv_pos_site_id
 _symmetry_equiv_pos_as_xyz
  1  'x, y, z'
loop_
 _atom_site_type_symbol
 _atom_site_label
 _atom_site_symmetry_multiplicity
 _atom_site_fract_x
 _atom_site_fract_y
 _atom_site_fract_z
 _atom_site_occupancy
  Hf  Hf0  1  0.84528000  0.80848000  0.95280000  1.0
  Hf  Hf1  1  0.00629000  0.75565000  0.84529000  1.0
  Hf  Hf2  1  0.92633000  0.99727000  0.98004000  1.0
  Hf  Hf3  1  0.89813000  0.91578000  0.79151000  1.0
  Hf  Hf4  1  0.03463000  0.83781000  0.03322000  1.0
  Hf  Hf5  1  0.08686000  0.94504000  0.87259000  1.0
  H  H6  1  0.59071000  0.14785000  0.25665000  1.0
  H  H7  1  0.43815000  0.16121000  0.23455000  1.0
  H  H8  1  0.34138000  0.61129000  0.56700000  1.0
  H  H9  1  0.49359000  0.59882000  0.59231000  1.0
  H  H10  1  0.24011000  0.21956000  0.53364000  1.0
  H  H11  1  0.25427000  0.20105000  0.38087000  1.0
  H  H12  1  0.70277000  0.52646000  0.29021000  1.0
  H  H13  1  0.68920000  0.54917000  0.44259000  1.0
  H  H14  1  0.31047000  0.49857000  0.18592000  1.0
  H  H15  1  0.29106000  0.34567000  0.19997000  1.0
  H  H16  1  0.61521000  0.25367000  0.64810000  1.0
  H  H17  1  0.63836000  0.40617000  0.63435000  1.0
  H  H18  1  0.84873000  0.75839000  0.79546000  1.0
  H  H19  1  0.89886000  0.88613000  0.09522000  1.0
  H  H20  1  0.97508000  0.05912000  0.84434000  1.0
  H  H21  1  0.14936000  0.80977000  0.92163000  1.0
  H  H22  1  0.59101000  0.13131000  0.71623000  1.0
  H  H23  1  0.66912000  0.28472000  0.90936000  1.0
  H  H24  1  0.76953000  0.19106000  0.94586000  1.0
  H  H25  1  0.69839000  0.04273000  0.74927000  1.0
  H  H26  1  0.71329000  0.49733000  0.67481000  1.0
  H  H27  1  0.63036000  0.48232000  0.90887000  1.0
  H  H28  1  0.73575000  0.57560000  0.95424000  1.0
  H  H29  1  0.82325000  0.58197000  0.72346000  1.0
  H  H30  1  0.20652000  0.17100000  0.87921000  1.0
  H  H31  1  0.10816000  0.16937000  0.10524000  1.0
  H  H32  1  0.21500000  0.25663000  0.15688000  1.0
  H  H33  1  0.30900000  0.26640000  0.92691000  1.0
  H  H34  1  0.33223000  0.62072000  0.11775000  1.0
  H  H35  1  0.26168000  0.46501000  0.92400000  1.0
  H  H36  1  0.15924000  0.55565000  0.88504000  1.0
  H  H37  1  0.22329000  0.70635000  0.08226000  1.0
  H  H38  1  0.43072000  0.27161000  0.00643000  1.0
  H  H39  1  0.39654000  0.50056000  0.91915000  1.0
  H  H40  1  0.50250000  0.48249000  0.83043000  1.0
  H  H41  1  0.53622000  0.25333000  0.91749000  1.0
  H  H42  1  0.96459000  0.57995000  0.32134000  1.0
  H  H43  1  0.77145000  0.50151000  0.16778000  1.0
  H  H44  1  0.80482000  0.60879000  0.07896000  1.0
  H  H45  1  0.00125000  0.68065000  0.22775000  1.0
  H  H46  1  0.96491000  0.54468000  0.51466000  1.0
  H  H47  1  0.72817000  0.61783000  0.53884000  1.0
  H  H48  1  0.77583000  0.72830000  0.62286000  1.0
  H  H49  1  0.00971000  0.64988000  0.60810000  1.0
  H  H50  1  0.93301000  0.11718000  0.20614000  1.0
  H  H51  1  0.15972000  0.02041000  0.20345000  1.0
  H  H52  1  0.21152000  0.12703000  0.29057000  1.0
  H  H53  1  0.98078000  0.21925000  0.30174000  1.0
  H  H54  1  0.97786000  0.17149000  0.49954000  1.0
  H  H55  1  0.17141000  0.24162000  0.65609000  1.0
  H  H56  1  0.13485000  0.13285000  0.74171000  1.0
  H  H57  1  0.93817000  0.06879000  0.58992000  1.0
  H  H58  1  0.97482000  0.30723000  0.53636000  1.0
  H  H59  1  0.06018000  0.34124000  0.30661000  1.0
  H  H60  1  0.97160000  0.44687000  0.28903000  1.0
  H  H61  1  0.88655000  0.41352000  0.51908000  1.0
  H  H62  1  0.27843000  0.91286000  0.71119000  1.0
  H  H63  1  0.13145000  0.71255000  0.64755000  1.0
  H  H64  1  0.21953000  0.67735000  0.54042000  1.0
  H  H65  1  0.37126000  0.87496000  0.61039000  1.0
  H  H66  1  0.59680000  0.63678000  0.65134000  1.0
  H  H67  1  0.55950000  0.87450000  0.58817000  1.0
  H  H68  1  0.65338000  0.91967000  0.69288000  1.0
  H  H69  1  0.68033000  0.68407000  0.76225000  1.0
  H  H70  1  0.25295000  0.07265000  0.06221000  1.0
  H  H71  1  0.27050000  0.84005000  0.14267000  1.0
  H  H72  1  0.36689000  0.88598000  0.24468000  1.0
  H  H73  1  0.33953000  0.12177000  0.17027000  1.0
  H  H74  1  0.71249000  0.08105000  0.27839000  1.0
  H  H75  1  0.55803000  0.88418000  0.21321000  1.0
  H  H76  1  0.64723000  0.84572000  0.10924000  1.0
  H  H77  1  0.79692000  0.04545000  0.16856000  1.0
  H  H78  1  0.59513000  0.89068000  0.35277000  1.0
  H  H79  1  0.35688000  0.95908000  0.36861000  1.0
  H  H80  1  0.33767000  0.86967000  0.47313000  1.0
  H  H81  1  0.57620000  0.80167000  0.45804000  1.0
  C  C82  1  0.56096000  0.02670000  0.28412000  1.0
  C  C83  1  0.54652000  0.10420000  0.27052000  1.0
  C  C84  1  0.46534000  0.11064000  0.25807000  1.0
  C  C85  1  0.42941000  0.03731000  0.26415000  1.0
  C  C86  1  0.37123000  0.73249000  0.53981000  1.0
  C  C87  1  0.38567000  0.65512000  0.55386000  1.0
  C  C88  1  0.46668000  0.64906000  0.56781000  1.0
  C  C89  1  0.50258000  0.72245000  0.56206000  1.0
  C  C90  1  0.11861000  0.24612000  0.50438000  1.0
  C  C91  1  0.19636000  0.23362000  0.48979000  1.0
  C  C92  1  0.20320000  0.22294000  0.40856000  1.0
  C  C93  1  0.12987000  0.22897000  0.37277000  1.0
  C  C94  1  0.82502000  0.50326000  0.31970000  1.0
  C  C95  1  0.74707000  0.51449000  0.33428000  1.0
  C  C96  1  0.74048000  0.52721000  0.41534000  1.0
  C  C97  1  0.81414000  0.52352000  0.45100000  1.0
  C  C98  1  0.33648000  0.46938000  0.06441000  1.0
  C  C99  1  0.32414000  0.45470000  0.14209000  1.0
  C  C100  1  0.31295000  0.37342000  0.14889000  1.0
  C  C101  1  0.31846000  0.33775000  0.07556000  1.0
  C  C102  1  0.59234000  0.28314000  0.77024000  1.0
  C  C103  1  0.60355000  0.29779000  0.69239000  1.0
  C  C104  1  0.61661000  0.37889000  0.68573000  1.0
  C  C105  1  0.61329000  0.41453000  0.75931000  1.0
  C  C106  1  0.76828000  0.93402000  0.05779000  1.0
  C  C107  1  0.84943000  0.64136000  0.87225000  1.0
  C  C108  1  0.73058000  0.83471000  0.79674000  1.0
  C  C109  1  0.91226000  0.72505000  0.10580000  1.0
  C  C110  1  0.15888000  0.82249000  0.76060000  1.0
  C  C111  1  0.08832000  0.10804000  0.95694000  1.0
  C  C112  1  0.92557000  0.75913000  0.67811000  1.0
  C  C113  1  0.11159000  0.67912000  0.97138000  1.0
  C  C114  1  0.01129000  0.99979000  0.14284000  1.0
  C  C115  1  0.81394000  0.06897000  0.85730000  1.0
  C  C116  1  0.02399000  0.02102000  0.71388000  1.0
  C  C117  1  0.19819000  0.92265000  0.03401000  1.0
  C  C118  1  0.62999000  0.14455000  0.76662000  1.0
  C  C119  1  0.62477000  0.21630000  0.80810000  1.0
  C  C120  1  0.67227000  0.22979000  0.87634000  1.0
  C  C121  1  0.72980000  0.17862000  0.89594000  1.0
  C  C122  1  0.74236000  0.11371000  0.84723000  1.0
  C  C123  1  0.68947000  0.09508000  0.78480000  1.0
  C  C124  1  0.71720000  0.51367000  0.73655000  1.0
  C  C125  1  0.66249000  0.48166000  0.78766000  1.0
  C  C126  1  0.67072000  0.50524000  0.86701000  1.0
  C  C127  1  0.73129000  0.55617000  0.89329000  1.0
  C  C128  1  0.78839000  0.58266000  0.84289000  1.0
  C  C129  1  0.78028000  0.56089000  0.76376000  1.0
  C  C130  1  0.20818000  0.19175000  0.93976000  1.0
  C  C131  1  0.14907000  0.16588000  0.98818000  1.0
  C  C132  1  0.15307000  0.18987000  0.06682000  1.0
  C  C133  1  0.21434000  0.23846000  0.09564000  1.0
  C  C134  1  0.27129000  0.26955000  0.04636000  1.0
  C  C135  1  0.26704000  0.24398000  0.96745000  1.0
  C  C136  1  0.29441000  0.60633000  0.06676000  1.0
  C  C137  1  0.30239000  0.53483000  0.02564000  1.0
  C  C138  1  0.25631000  0.51983000  0.95667000  1.0
  C  C139  1  0.19767000  0.56932000  0.93571000  1.0
  C  C140  1  0.18263000  0.63402000  0.98381000  1.0
  C  C141  1  0.23395000  0.65407000  0.04728000  1.0
  C  C142  1  0.44534000  0.31800000  0.96719000  1.0
  C  C143  1  0.40318000  0.38651000  0.96918000  1.0
  C  C144  1  0.42625000  0.44578000  0.91953000  1.0
  C  C145  1  0.48763000  0.43594000  0.86943000  1.0
  C  C146  1  0.52928000  0.36713000  0.86694000  1.0
  C  C147  1  0.50653000  0.30810000  0.91698000  1.0
  C  C148  1  0.93161000  0.58317000  0.26639000  1.0
  C  C149  1  0.86318000  0.53567000  0.25291000  1.0
  C  C150  1  0.82184000  0.54067000  0.18107000  1.0
  C  C151  1  0.84015000  0.60013000  0.13151000  1.0
  C  C152  1  0.90255000  0.65324000  0.15030000  1.0
  C  C153  1  0.95131000  0.64079000  0.21523000  1.0
  C  C154  1  0.92236000  0.58287000  0.53966000  1.0
  C  C155  1  0.84247000  0.57214000  0.51837000  1.0
  C  C156  1  0.79043000  0.62408000  0.55289000  1.0
  C  C157  1  0.81702000  0.68736000  0.59997000  1.0
  C  C158  1  0.89664000  0.69809000  0.61937000  1.0
  C  C159  1  0.94821000  0.64340000  0.59067000  1.0
  C  C160  1  0.99377000  0.11917000  0.22663000  1.0
  C  C161  1  0.04236000  0.06053000  0.20054000  1.0
  C  C162  1  0.12120000  0.06492000  0.22421000  1.0
  C  C163  1  0.15007000  0.12605000  0.27274000  1.0
  C  C164  1  0.10062000  0.18236000  0.30434000  1.0
  C  C165  1  0.02149000  0.17780000  0.27898000  1.0
  C  C166  1  0.01033000  0.16594000  0.55448000  1.0
  C  C167  1  0.07949000  0.21193000  0.56971000  1.0
  C  C168  1  0.12028000  0.20388000  0.64142000  1.0
  C  C169  1  0.10021000  0.14348000  0.68918000  1.0
  C  C170  1  0.03666000  0.09215000  0.66882000  1.0
  C  C171  1  0.98891000  0.10722000  0.60384000  1.0
  C  C172  1  0.97486000  0.33698000  0.48156000  1.0
  C  C173  1  0.02378000  0.31368000  0.42185000  1.0
  C  C174  1  0.02140000  0.35586000  0.35336000  1.0
  C  C175  1  0.97141000  0.41721000  0.34385000  1.0
  C  C176  1  0.92192000  0.44006000  0.40326000  1.0
  C  C177  1  0.92499000  0.39850000  0.47216000  1.0
  C  C178  1  0.26612000  0.86169000  0.67312000  1.0
  C  C179  1  0.20212000  0.81226000  0.68812000  1.0
  C  C180  1  0.18339000  0.74838000  0.63702000  1.0
  C  C181  1  0.23255000  0.72907000  0.57763000  1.0
  C  C182  1  0.30405000  0.77104000  0.57073000  1.0
  C  C183  1  0.31689000  0.84112000  0.61551000  1.0
  C  C184  1  0.60762000  0.69933000  0.66001000  1.0
  C  C185  1  0.56970000  0.75157000  0.61070000  1.0
  C  C186  1  0.58746000  0.83183000  0.62412000  1.0
  C  C187  1  0.63861000  0.85775000  0.68450000  1.0
  C  C188  1  0.67082000  0.80563000  0.73662000  1.0
  C  C189  1  0.65468000  0.72572000  0.72341000  1.0
  C  C190  1  0.27716000  0.03220000  0.10310000  1.0
  C  C191  1  0.25733000  0.95265000  0.09404000  1.0
  C  C192  1  0.28778000  0.90162000  0.14827000  1.0
  C  C193  1  0.34044000  0.92814000  0.20707000  1.0
  C  C194  1  0.36142000  0.00813000  0.21678000  1.0
  C  C195  1  0.32569000  0.05949000  0.16494000  1.0
  C  C196  1  0.69801000  0.02947000  0.24143000  1.0
  C  C197  1  0.62677000  0.98779000  0.25073000  1.0
  C  C198  1  0.61220000  0.91779000  0.20620000  1.0
  C  C199  1  0.66090000  0.89701000  0.14680000  1.0
  C  C200  1  0.72464000  0.94603000  0.12983000  1.0
  C  C201  1  0.74508000  0.00998000  0.18038000  1.0
  C  C202  1  0.53808000  0.88673000  0.37823000  1.0
  C  C203  1  0.47687000  0.93143000  0.35017000  1.0
  C  C204  1  0.40534000  0.92406000  0.38699000  1.0
  C  C205  1  0.39476000  0.87348000  0.44776000  1.0
  C  C206  1  0.45588000  0.82863000  0.47570000  1.0
  C  C207  1  0.52761000  0.83637000  0.43928000  1.0
  N  N208  1  0.48787000  0.98717000  0.29106000  1.0
  N  N209  1  0.44434000  0.77241000  0.53434000  1.0
  N  N210  1  0.07919000  0.25408000  0.43164000  1.0
  N  N211  1  0.86514000  0.49829000  0.39252000  1.0
  N  N212  1  0.34383000  0.39661000  0.02490000  1.0
  N  N213  1  0.58767000  0.35605000  0.81030000  1.0
  O  O214  1  0.81188000  0.99071000  0.03748000  1.0
  O  O215  1  0.91655000  0.64636000  0.84345000  1.0
  O  O216  1  0.73611000  0.80604000  0.86371000  1.0
  O  O217  1  0.85489000  0.74287000  0.06197000  1.0
  O  O218  1  0.97654000  0.76555000  0.11612000  1.0
  O  O219  1  0.77732000  0.88707000  0.77075000  1.0
  O  O220  1  0.82448000  0.68793000  0.92508000  1.0
  O  O221  1  0.76047000  0.86745000  0.02121000  1.0
  O  O222  1  0.96145000  0.78230000  0.95107000  1.0
  O  O223  1  0.87143000  0.91435000  0.90740000  1.0
  O  O224  1  0.88235000  0.79223000  0.82910000  1.0
  O  O225  1  0.91553000  0.88375000  0.04192000  1.0
  O  O226  1  0.11551000  0.76509000  0.77979000  1.0
  O  O227  1  0.02145000  0.10248000  0.98595000  1.0
  O  O228  1  0.89638000  0.82591000  0.68301000  1.0
  O  O229  1  0.09249000  0.72375000  0.02750000  1.0
  O  O230  1  0.04066000  0.93322000  0.13742000  1.0
  O  O231  1  0.83185000  0.02466000  0.80040000  1.0
  O  O232  1  0.08039000  0.00189000  0.75822000  1.0
  O  O233  1  0.19208000  0.95206000  0.96751000  1.0
  O  O234  1  0.95737000  0.98420000  0.70644000  1.0
  O  O235  1  0.15448000  0.86652000  0.05826000  1.0
  O  O236  1  0.97842000  0.73437000  0.72481000  1.0
  O  O237  1  0.85416000  0.07961000  0.92154000  1.0
  O  O238  1  0.95454000  0.02305000  0.09954000  1.0
  O  O239  1  0.07468000  0.67128000  0.90499000  1.0
  O  O240  1  0.16966000  0.88698000  0.80036000  1.0
  O  O241  1  0.11187000  0.06483000  0.90032000  1.0
  O  O242  1  0.02981000  0.94071000  0.97573000  1.0
  O  O243  1  0.00432000  0.87147000  0.81806000  1.0
  O  O244  1  0.97278000  0.00587000  0.86124000  1.0
  O  O245  1  0.09604000  0.82649000  0.91959000  1.0
