# generated using pymatgen
data_CuH2C3IN2
_symmetry_space_group_name_H-M   'P 1'
_cell_length_a   5.19880000
_cell_length_b   15.39680000
_cell_length_c   19.62130000
_cell_angle_alpha   90.00030000
_cell_angle_beta   89.99980000
_cell_angle_gamma   89.99950000
_symmetry_Int_Tables_number   1
_chemical_formula_structural   CuH2C3IN2
_chemical_formula_sum   'Cu12 H24 C36 I12 N24'
_cell_volume   1570.58467920
_cell_formula_units_Z   12
loop_
 _symmetry_equiv_pos_site_id
 _symmetry_equiv_pos_as_xyz
  1  'x, y, z'
loop_
 _atom_site_type_symbol
 _atom_site_label
 _atom_site_symmetry_multiplicity
 _atom_site_fract_x
 _atom_site_fract_y
 _atom_site_fract_z
 _atom_site_occupancy
  Cu  Cu0  1  0.61978000  0.62158000  0.75000000  1.0
  Cu  Cu1  1  0.11978000  0.87842000  0.25000000  1.0
  Cu  Cu2  1  0.38022000  0.37842000  0.25000000  1.0
  Cu  Cu3  1  0.88022000  0.12159000  0.75000000  1.0
  Cu  Cu4  1  0.16244000  0.51027000  0.67089000  1.0
  Cu  Cu5  1  0.66243000  0.98973000  0.32911000  1.0
  Cu  Cu6  1  0.83756000  0.48973000  0.17089000  1.0
  Cu  Cu7  1  0.33757000  0.01027000  0.82911000  1.0
  Cu  Cu8  1  0.83756000  0.48973000  0.32911000  1.0
  Cu  Cu9  1  0.33758000  0.01027000  0.67089000  1.0
  Cu  Cu10  1  0.16244000  0.51027000  0.82911000  1.0
  Cu  Cu11  1  0.66243000  0.98973000  0.17089000  1.0
  H  H12  1  0.92920000  0.68881000  0.61936000  1.0
  H  H13  1  0.42919000  0.81119000  0.38064000  1.0
  H  H14  1  0.07080000  0.31119000  0.11936000  1.0
  H  H15  1  0.57080000  0.18881000  0.88064000  1.0
  H  H16  1  0.07081000  0.31119000  0.38064000  1.0
  H  H17  1  0.57081000  0.18881000  0.61936000  1.0
  H  H18  1  0.92920000  0.68880000  0.88064000  1.0
  H  H19  1  0.42920000  0.81119000  0.11936000  1.0
  H  H20  1  0.30126000  0.55110000  0.52115000  1.0
  H  H21  1  0.80126000  0.94890000  0.47884000  1.0
  H  H22  1  0.69872000  0.44890000  0.02116000  1.0
  H  H23  1  0.19873000  0.05109000  0.97884000  1.0
  H  H24  1  0.69873000  0.44891000  0.47884000  1.0
  H  H25  1  0.19874000  0.05110000  0.52116000  1.0
  H  H26  1  0.30125000  0.55110000  0.97885000  1.0
  H  H27  1  0.80127000  0.94891000  0.02116000  1.0
  H  H28  1  0.70062000  0.37653000  0.63925000  1.0
  H  H29  1  0.20061000  0.12346000  0.36075000  1.0
  H  H30  1  0.29937000  0.62346000  0.13925000  1.0
  H  H31  1  0.79940000  0.87655000  0.86075000  1.0
  H  H32  1  0.29940000  0.62346000  0.36075000  1.0
  H  H33  1  0.79940000  0.87654000  0.63925000  1.0
  H  H34  1  0.70062000  0.37654000  0.86075000  1.0
  H  H35  1  0.20061000  0.12346000  0.13926000  1.0
  C  C36  1  0.75958000  0.65126000  0.60642000  1.0
  C  C37  1  0.25957000  0.84873000  0.39358000  1.0
  C  C38  1  0.24042000  0.34874000  0.10642000  1.0
  C  C39  1  0.74042000  0.15126000  0.89358000  1.0
  C  C40  1  0.24042000  0.34874000  0.39358000  1.0
  C  C41  1  0.74042000  0.15127000  0.60642000  1.0
  C  C42  1  0.75958000  0.65126000  0.89358000  1.0
  C  C43  1  0.25958000  0.84874000  0.10642000  1.0
  C  C44  1  0.66155000  0.62779000  0.54262000  1.0
  C  C45  1  0.16154000  0.87220000  0.45738000  1.0
  C  C46  1  0.33844000  0.37221000  0.04262000  1.0
  C  C47  1  0.83844000  0.12779000  0.95738000  1.0
  C  C48  1  0.33844000  0.37221000  0.45738000  1.0
  C  C49  1  0.83844000  0.12779000  0.54262000  1.0
  C  C50  1  0.66154000  0.62779000  0.95738000  1.0
  C  C51  1  0.16155000  0.87221000  0.04262000  1.0
  C  C52  1  0.43745000  0.58057000  0.55601000  1.0
  C  C53  1  0.93743000  0.91944000  0.44400000  1.0
  C  C54  1  0.56255000  0.41944000  0.05601000  1.0
  C  C55  1  0.06254000  0.08056000  0.94399000  1.0
  C  C56  1  0.56255000  0.41944000  0.44399000  1.0
  C  C57  1  0.06255000  0.08056000  0.55601000  1.0
  C  C58  1  0.43745000  0.58056000  0.94399000  1.0
  C  C59  1  0.93745000  0.91943000  0.05601000  1.0
  C  C60  1  0.73717000  0.38640000  0.69313000  1.0
  C  C61  1  0.23715000  0.11360000  0.30687000  1.0
  C  C62  1  0.26283000  0.61360000  0.19313000  1.0
  C  C63  1  0.76286000  0.88641000  0.80687000  1.0
  C  C64  1  0.26285000  0.61360000  0.30687000  1.0
  C  C65  1  0.76286000  0.88641000  0.69313000  1.0
  C  C66  1  0.73717000  0.38640000  0.80687000  1.0
  C  C67  1  0.23715000  0.11360000  0.19313000  1.0
  C  C68  1  0.61721000  0.34941000  0.75000000  1.0
  C  C69  1  0.11719000  0.15059000  0.25000000  1.0
  C  C70  1  0.38280000  0.65059000  0.25000000  1.0
  C  C71  1  0.88283000  0.84941000  0.75000000  1.0
  I  I72  1  0.33018000  0.25400000  0.75000000  1.0
  I  I73  1  0.83015000  0.24599000  0.25001000  1.0
  I  I74  1  0.66983000  0.74599000  0.25000000  1.0
  I  I75  1  0.16984000  0.75401000  0.75000000  1.0
  I  I76  1  0.80489000  0.66041000  0.44732000  1.0
  I  I77  1  0.30489000  0.83959000  0.55269000  1.0
  I  I78  1  0.19510000  0.33959000  0.94732000  1.0
  I  I79  1  0.69510000  0.16041000  0.05268000  1.0
  I  I80  1  0.19511000  0.33959000  0.55268000  1.0
  I  I81  1  0.69510000  0.16041000  0.44731000  1.0
  I  I82  1  0.80490000  0.66041000  0.05269000  1.0
  I  I83  1  0.30491000  0.83960000  0.94732000  1.0
  N  N84  1  0.60222000  0.61924000  0.65524000  1.0
  N  N85  1  0.10223000  0.88076000  0.34476000  1.0
  N  N86  1  0.39777000  0.38076000  0.15524000  1.0
  N  N87  1  0.89777000  0.11923000  0.84476000  1.0
  N  N88  1  0.39777000  0.38077000  0.34476000  1.0
  N  N89  1  0.89778000  0.11924000  0.65524000  1.0
  N  N90  1  0.60223000  0.61923000  0.84476000  1.0
  N  N91  1  0.10223000  0.88077000  0.15524000  1.0
  N  N92  1  0.40459000  0.57548000  0.62415000  1.0
  N  N93  1  0.90460000  0.92453000  0.37585000  1.0
  N  N94  1  0.59540000  0.42453000  0.12415000  1.0
  N  N95  1  0.09540000  0.07547000  0.87585000  1.0
  N  N96  1  0.59540000  0.42453000  0.37585000  1.0
  N  N97  1  0.09541000  0.07548000  0.62415000  1.0
  N  N98  1  0.40460000  0.57547000  0.87585000  1.0
  N  N99  1  0.90460000  0.92453000  0.12415000  1.0
  N  N100  1  0.92077000  0.44189000  0.71504000  1.0
  N  N101  1  0.42076000  0.05811000  0.28496000  1.0
  N  N102  1  0.07923000  0.55811000  0.21504000  1.0
  N  N103  1  0.57925000  0.94190000  0.78496000  1.0
  N  N104  1  0.07924000  0.55811000  0.28496000  1.0
  N  N105  1  0.57925000  0.94190000  0.71504000  1.0
  N  N106  1  0.92077000  0.44189000  0.78496000  1.0
  N  N107  1  0.42076000  0.05811000  0.21504000  1.0
