# generated using pymatgen
data_H12PbC14O5
_symmetry_space_group_name_H-M   'P 1'
_cell_length_a   7.45150000
_cell_length_b   11.38060000
_cell_length_c   15.41100000
_cell_angle_alpha   91.28680000
_cell_angle_beta   90.00000000
_cell_angle_gamma   90.00000000
_symmetry_Int_Tables_number   1
_chemical_formula_structural   H12PbC14O5
_chemical_formula_sum   'H48 Pb4 C56 O20'
_cell_volume   1306.56237218
_cell_formula_units_Z   4
loop_
 _symmetry_equiv_pos_site_id
 _symmetry_equiv_pos_as_xyz
  1  'x, y, z'
loop_
 _atom_site_type_symbol
 _atom_site_label
 _atom_site_symmetry_multiplicity
 _atom_site_fract_x
 _atom_site_fract_y
 _atom_site_fract_z
 _atom_site_occupancy
  H  H0  1  0.41579000  0.57233000  0.54650000  1.0
  H  H1  1  0.91580000  0.92770000  0.45349000  1.0
  H  H2  1  0.58423000  0.42769000  0.45350000  1.0
  H  H3  1  0.08425000  0.07232000  0.54651000  1.0
  H  H4  1  0.37859000  0.54609000  0.44497000  1.0
  H  H5  1  0.87858000  0.95393000  0.55502000  1.0
  H  H6  1  0.62141000  0.45393000  0.55503000  1.0
  H  H7  1  0.12144000  0.04610000  0.44497000  1.0
  H  H8  1  0.69102000  0.71643000  0.24114000  1.0
  H  H9  1  0.19102000  0.78356000  0.75886000  1.0
  H  H10  1  0.30897000  0.28357000  0.75887000  1.0
  H  H11  1  0.80898000  0.21643000  0.24114000  1.0
  H  H12  1  0.65767000  0.67249000  0.08309000  1.0
  H  H13  1  0.15767000  0.82750000  0.91691000  1.0
  H  H14  1  0.34231000  0.32751000  0.91692000  1.0
  H  H15  1  0.84233000  0.17249000  0.08309000  1.0
  H  H16  1  0.80846000  0.49769000  0.01625000  1.0
  H  H17  1  0.30846000  0.00230000  0.98375000  1.0
  H  H18  1  0.19153000  0.50231000  0.98375000  1.0
  H  H19  1  0.69153000  0.99770000  0.01625000  1.0
  H  H20  1  0.98297000  0.36167000  0.11013000  1.0
  H  H21  1  0.48298000  0.13832000  0.88987000  1.0
  H  H22  1  0.01702000  0.63833000  0.88987000  1.0
  H  H23  1  0.51702000  0.86168000  0.11013000  1.0
  H  H24  1  0.01040000  0.40557000  0.26784000  1.0
  H  H25  1  0.51041000  0.09442000  0.73217000  1.0
  H  H26  1  0.98959000  0.59442000  0.73217000  1.0
  H  H27  1  0.48960000  0.90557000  0.26784000  1.0
  H  H28  1  0.98546000  0.95846000  0.20624000  1.0
  H  H29  1  0.48546000  0.54154000  0.79375000  1.0
  H  H30  1  0.01454000  0.04155000  0.79376000  1.0
  H  H31  1  0.51453000  0.45846000  0.20624000  1.0
  H  H32  1  0.01596000  0.88685000  0.05254000  1.0
  H  H33  1  0.51594000  0.61314000  0.94746000  1.0
  H  H34  1  0.98404000  0.11315000  0.94746000  1.0
  H  H35  1  0.48404000  0.38686000  0.05254000  1.0
  H  H36  1  0.19221000  0.70451000  0.01944000  1.0
  H  H37  1  0.69220000  0.79548000  0.98055000  1.0
  H  H38  1  0.80776000  0.29549000  0.98056000  1.0
  H  H39  1  0.30779000  0.20451000  0.01944000  1.0
  H  H40  1  0.33056000  0.59384000  0.13937000  1.0
  H  H41  1  0.83057000  0.90615000  0.86062000  1.0
  H  H42  1  0.66941000  0.40615000  0.86063000  1.0
  H  H43  1  0.16943000  0.09384000  0.13938000  1.0
  H  H44  1  0.30159000  0.66725000  0.29171000  1.0
  H  H45  1  0.80159000  0.83274000  0.70829000  1.0
  H  H46  1  0.69840000  0.33275000  0.70830000  1.0
  H  H47  1  0.19841000  0.16725000  0.29171000  1.0
  Pb  Pb48  1  0.03308000  0.68768000  0.52643000  1.0
  Pb  Pb49  1  0.53307000  0.81234000  0.47357000  1.0
  Pb  Pb50  1  0.96700000  0.31232000  0.47356000  1.0
  Pb  Pb51  1  0.46699000  0.18770000  0.52644000  1.0
  C  C52  1  0.85033000  0.56280000  0.26418000  1.0
  C  C53  1  0.35034000  0.93720000  0.73582000  1.0
  C  C54  1  0.14966000  0.43720000  0.73582000  1.0
  C  C55  1  0.64966000  0.06279000  0.26419000  1.0
  C  C56  1  0.75080000  0.63779000  0.21187000  1.0
  C  C57  1  0.25080000  0.86221000  0.78813000  1.0
  C  C58  1  0.24919000  0.36221000  0.78814000  1.0
  C  C59  1  0.74920000  0.13779000  0.21187000  1.0
  C  C60  1  0.73410000  0.61309000  0.12336000  1.0
  C  C61  1  0.23410000  0.88691000  0.87664000  1.0
  C  C62  1  0.26589000  0.38690000  0.87664000  1.0
  C  C63  1  0.76590000  0.11309000  0.12336000  1.0
  C  C64  1  0.81757000  0.51423000  0.08612000  1.0
  C  C65  1  0.31757000  0.98577000  0.91388000  1.0
  C  C66  1  0.18242000  0.48577000  0.91388000  1.0
  C  C67  1  0.68242000  0.01423000  0.08613000  1.0
  C  C68  1  0.91514000  0.43831000  0.13836000  1.0
  C  C69  1  0.41514000  0.06169000  0.86164000  1.0
  C  C70  1  0.08485000  0.56169000  0.86164000  1.0
  C  C71  1  0.58486000  0.93831000  0.13836000  1.0
  C  C72  1  0.93064000  0.46239000  0.22709000  1.0
  C  C73  1  0.43065000  0.03761000  0.77292000  1.0
  C  C74  1  0.06935000  0.53761000  0.77292000  1.0
  C  C75  1  0.56936000  0.96239000  0.22709000  1.0
  C  C76  1  0.88257000  0.59567000  0.35712000  1.0
  C  C77  1  0.38258000  0.90434000  0.64288000  1.0
  C  C78  1  0.11744000  0.40433000  0.64288000  1.0
  C  C79  1  0.61743000  0.09567000  0.35712000  1.0
  C  C80  1  0.14559000  0.81954000  0.25758000  1.0
  C  C81  1  0.64559000  0.68045000  0.74241000  1.0
  C  C82  1  0.85440000  0.18046000  0.74242000  1.0
  C  C83  1  0.35441000  0.31954000  0.25759000  1.0
  C  C84  1  0.06363000  0.88018000  0.19011000  1.0
  C  C85  1  0.56363000  0.61981000  0.80989000  1.0
  C  C86  1  0.93636000  0.11982000  0.80989000  1.0
  C  C87  1  0.43637000  0.38018000  0.19011000  1.0
  C  C88  1  0.08081000  0.83937000  0.10465000  1.0
  C  C89  1  0.58081000  0.66062000  0.89534000  1.0
  C  C90  1  0.91918000  0.16064000  0.89535000  1.0
  C  C91  1  0.41918000  0.33937000  0.10465000  1.0
  C  C92  1  0.17848000  0.73700000  0.08617000  1.0
  C  C93  1  0.67848000  0.76299000  0.91382000  1.0
  C  C94  1  0.82150000  0.26300000  0.91382000  1.0
  C  C95  1  0.32151000  0.23700000  0.08618000  1.0
  C  C96  1  0.25793000  0.67511000  0.15333000  1.0
  C  C97  1  0.75793000  0.82488000  0.84667000  1.0
  C  C98  1  0.74205000  0.32489000  0.84667000  1.0
  C  C99  1  0.24207000  0.17512000  0.15333000  1.0
  C  C100  1  0.24198000  0.71614000  0.23890000  1.0
  C  C101  1  0.74198000  0.78385000  0.76110000  1.0
  C  C102  1  0.75801000  0.28386000  0.76110000  1.0
  C  C103  1  0.25802000  0.21614000  0.23890000  1.0
  C  C104  1  0.12746000  0.86431000  0.34915000  1.0
  C  C105  1  0.62747000  0.63568000  0.65085000  1.0
  C  C106  1  0.87253000  0.13567000  0.65085000  1.0
  C  C107  1  0.37254000  0.36432000  0.34915000  1.0
  O  O108  1  0.35481000  0.60332000  0.49396000  1.0
  O  O109  1  0.85483000  0.89669000  0.50603000  1.0
  O  O110  1  0.64519000  0.39670000  0.50604000  1.0
  O  O111  1  0.14520000  0.10333000  0.49397000  1.0
  O  O112  1  0.81604000  0.69100000  0.38797000  1.0
  O  O113  1  0.31603000  0.80901000  0.61202000  1.0
  O  O114  1  0.18398000  0.30901000  0.61202000  1.0
  O  O115  1  0.68396000  0.19100000  0.38798000  1.0
  O  O116  1  0.98653000  0.53108000  0.40237000  1.0
  O  O117  1  0.48654000  0.96892000  0.59763000  1.0
  O  O118  1  0.01348000  0.46892000  0.59762000  1.0
  O  O119  1  0.51349000  0.03108000  0.40238000  1.0
  O  O120  1  0.03974000  0.95870000  0.36386000  1.0
  O  O121  1  0.53976000  0.54129000  0.63614000  1.0
  O  O122  1  0.96023000  0.04128000  0.63615000  1.0
  O  O123  1  0.46027000  0.45871000  0.36385000  1.0
  O  O124  1  0.20162000  0.80400000  0.40886000  1.0
  O  O125  1  0.70163000  0.69600000  0.59114000  1.0
  O  O126  1  0.79840000  0.19600000  0.59114000  1.0
  O  O127  1  0.29839000  0.30400000  0.40886000  1.0
