# generated using pymatgen
data_CuH7C7N2O
_symmetry_space_group_name_H-M   'P 1'
_cell_length_a   9.02569000
_cell_length_b   9.02575000
_cell_length_c   9.92165000
_cell_angle_alpha   104.38100000
_cell_angle_beta   104.38100000
_cell_angle_gamma   109.31500000
_symmetry_Int_Tables_number   1
_chemical_formula_structural   CuH7C7N2O
_chemical_formula_sum   'Cu4 H28 C28 N8 O4'
_cell_volume   688.87458446
_cell_formula_units_Z   4
loop_
 _symmetry_equiv_pos_site_id
 _symmetry_equiv_pos_as_xyz
  1  'x, y, z'
loop_
 _atom_site_type_symbol
 _atom_site_label
 _atom_site_symmetry_multiplicity
 _atom_site_fract_x
 _atom_site_fract_y
 _atom_site_fract_z
 _atom_site_occupancy
  Cu  Cu0  1  0.04915000  0.95085000  0.75000000  1.0
  Cu  Cu1  1  0.95085000  0.04915000  0.25000000  1.0
  Cu  Cu2  1  0.88286000  0.11715000  0.75000000  1.0
  Cu  Cu3  1  0.11715000  0.88285000  0.25000000  1.0
  H  H4  1  0.98581000  0.63819000  0.56054000  1.0
  H  H5  1  0.36180000  0.01418000  0.93946000  1.0
  H  H6  1  0.01419000  0.36181000  0.43946000  1.0
  H  H7  1  0.63820000  0.98582000  0.06054000  1.0
  H  H8  1  0.82310000  0.45112000  0.29117000  1.0
  H  H9  1  0.54888000  0.17689000  0.20883000  1.0
  H  H10  1  0.17690000  0.54888000  0.70883000  1.0
  H  H11  1  0.45112000  0.82311000  0.79117000  1.0
  H  H12  1  0.62010000  0.53588000  0.13684000  1.0
  H  H13  1  0.46412000  0.37989000  0.36316000  1.0
  H  H14  1  0.37990000  0.46412000  0.86316000  1.0
  H  H15  1  0.53588000  0.62011000  0.63685000  1.0
  H  H16  1  0.59822000  0.80087000  0.25377000  1.0
  H  H17  1  0.19914000  0.40178000  0.24624000  1.0
  H  H18  1  0.40178000  0.19914000  0.74623000  1.0
  H  H19  1  0.80086000  0.59822000  0.75376000  1.0
  H  H20  1  0.71398000  0.34285000  0.49022000  1.0
  H  H21  1  0.65715000  0.28602000  0.00978000  1.0
  H  H22  1  0.28602000  0.65715000  0.50978000  1.0
  H  H23  1  0.34284000  0.71397000  0.99022000  1.0
  H  H24  1  0.80334000  0.31919000  0.66190000  1.0
  H  H25  1  0.68081000  0.19666000  0.83810000  1.0
  H  H26  1  0.19666000  0.68081000  0.33810000  1.0
  H  H27  1  0.31918000  0.80333000  0.16190000  1.0
  H  H28  1  0.58276000  0.20975000  0.55904000  1.0
  H  H29  1  0.79026000  0.41724000  0.94096000  1.0
  H  H30  1  0.41723000  0.79025000  0.44096000  1.0
  H  H31  1  0.20974000  0.58276000  0.05904000  1.0
  C  C32  1  0.89963000  0.66900000  0.48615000  1.0
  C  C33  1  0.33100000  0.10037000  0.01385000  1.0
  C  C34  1  0.10037000  0.33100000  0.51385000  1.0
  C  C35  1  0.66900000  0.89964000  0.98616000  1.0
  C  C36  1  0.80771000  0.56539000  0.33843000  1.0
  C  C37  1  0.43461000  0.19228000  0.16156000  1.0
  C  C38  1  0.19229000  0.43461000  0.66156000  1.0
  C  C39  1  0.56539000  0.80772000  0.83844000  1.0
  C  C40  1  0.69699000  0.61401000  0.25336000  1.0
  C  C41  1  0.38600000  0.30301000  0.24664000  1.0
  C  C42  1  0.30302000  0.38600000  0.74664000  1.0
  C  C43  1  0.61400000  0.69699000  0.75336000  1.0
  C  C44  1  0.68389000  0.76158000  0.31765000  1.0
  C  C45  1  0.23841000  0.31611000  0.18235000  1.0
  C  C46  1  0.31611000  0.23841000  0.68235000  1.0
  C  C47  1  0.76159000  0.68390000  0.81765000  1.0
  C  C48  1  0.78581000  0.86574000  0.46766000  1.0
  C  C49  1  0.13425000  0.21419000  0.03234000  1.0
  C  C50  1  0.21419000  0.13425000  0.53234000  1.0
  C  C51  1  0.86575000  0.78581000  0.96766000  1.0
  C  C52  1  0.73132000  0.10648000  0.46079000  1.0
  C  C53  1  0.89352000  0.26868000  0.03922000  1.0
  C  C54  1  0.26868000  0.89352000  0.53921000  1.0
  C  C55  1  0.10648000  0.73132000  0.96078000  1.0
  C  C56  1  0.70719000  0.25402000  0.54873000  1.0
  C  C57  1  0.74599000  0.29282000  0.95127000  1.0
  C  C58  1  0.29281000  0.74598000  0.45127000  1.0
  C  C59  1  0.25401000  0.70718000  0.04873000  1.0
  N  N60  1  0.89239000  0.81648000  0.55006000  1.0
  N  N61  1  0.18352000  0.10761000  0.94994000  1.0
  N  N62  1  0.10761000  0.18352000  0.44994000  1.0
  N  N63  1  0.81648000  0.89239000  0.05006000  1.0
  N  N64  1  0.78029000  0.01570000  0.54019000  1.0
  N  N65  1  0.98430000  0.21971000  0.95982000  1.0
  N  N66  1  0.21971000  0.98430000  0.45981000  1.0
  N  N67  1  0.01570000  0.78029000  0.04019000  1.0
  O  O68  1  0.70926000  0.07792000  0.32517000  1.0
  O  O69  1  0.92208000  0.29076000  0.17483000  1.0
  O  O70  1  0.29075000  0.92208000  0.67483000  1.0
  O  O71  1  0.07792000  0.70925000  0.82517000  1.0
