# generated using pymatgen
data_Tb2H22C15O14
_symmetry_space_group_name_H-M   'P 1'
_cell_length_a   7.92191000
_cell_length_b   8.40854611
_cell_length_c   19.46820000
_cell_angle_alpha   88.17256268
_cell_angle_beta   86.09370000
_cell_angle_gamma   61.91048650
_symmetry_Int_Tables_number   1
_chemical_formula_structural   Tb2H22C15O14
_chemical_formula_sum   'Tb4 H44 C30 O28'
_cell_volume   1141.40548678
_cell_formula_units_Z   2
loop_
 _symmetry_equiv_pos_site_id
 _symmetry_equiv_pos_as_xyz
  1  'x, y, z'
loop_
 _atom_site_type_symbol
 _atom_site_label
 _atom_site_symmetry_multiplicity
 _atom_site_fract_x
 _atom_site_fract_y
 _atom_site_fract_z
 _atom_site_occupancy
  Tb  Tb0  1  0.21575000  0.07432000  0.48955000  1.0
  Tb  Tb1  1  0.71003000  0.07427000  0.01048000  1.0
  Tb  Tb2  1  0.78425000  0.92568000  0.51045000  1.0
  Tb  Tb3  1  0.28998000  0.92572000  0.98951000  1.0
  H  H4  1  0.92380000  0.42540000  0.56351000  1.0
  H  H5  1  0.65100000  0.42541000  0.93642000  1.0
  H  H6  1  0.07619000  0.57461000  0.43649000  1.0
  H  H7  1  0.34901000  0.57459000  0.06358000  1.0
  H  H8  1  0.84884000  0.27847000  0.56703000  1.0
  H  H9  1  0.87295000  0.27872000  0.93303000  1.0
  H  H10  1  0.15115000  0.72154000  0.43297000  1.0
  H  H11  1  0.12707000  0.72127000  0.06697000  1.0
  H  H12  1  0.70814000  0.45770000  0.46552000  1.0
  H  H13  1  0.83271000  0.45795000  0.03473000  1.0
  H  H14  1  0.29185000  0.54230000  0.53448000  1.0
  H  H15  1  0.16728000  0.54205000  0.96527000  1.0
  H  H16  1  0.80735000  0.55989000  0.40767000  1.0
  H  H17  1  0.63179000  0.56057000  0.09274000  1.0
  H  H18  1  0.19264000  0.44012000  0.59234000  1.0
  H  H19  1  0.36821000  0.43944000  0.90726000  1.0
  H  H20  1  0.31729000  0.17201000  0.23086000  1.0
  H  H21  1  0.51016000  0.17184000  0.26924000  1.0
  H  H22  1  0.68272000  0.82798000  0.76914000  1.0
  H  H23  1  0.48984000  0.82816000  0.73076000  1.0
  H  H24  1  0.75869000  0.23112000  0.29432000  1.0
  H  H25  1  0.01020000  0.23117000  0.20565000  1.0
  H  H26  1  0.24132000  0.76888000  0.70568000  1.0
  H  H27  1  0.98980000  0.76883000  0.79434000  1.0
  H  H28  1  0.92820000  0.28126000  0.33094000  1.0
  H  H29  1  0.79060000  0.28095000  0.16912000  1.0
  H  H30  1  0.07180000  0.71875000  0.66907000  1.0
  H  H31  1  0.20941000  0.71904000  0.83087000  1.0
  H  H32  1  0.27155000  0.48226000  0.32387000  1.0
  H  H33  1  0.24626000  0.48197000  0.17613000  1.0
  H  H34  1  0.72844000  0.51774000  0.67613000  1.0
  H  H35  1  0.75374000  0.51802000  0.82387000  1.0
  H  H36  1  0.08619000  0.45382000  0.29308000  1.0
  H  H37  1  0.45979000  0.45373000  0.20711000  1.0
  H  H38  1  0.91381000  0.54618000  0.70692000  1.0
  H  H39  1  0.54021000  0.54626000  0.79289000  1.0
  H  H40  1  0.59788000  0.55613000  0.31568000  1.0
  H  H41  1  0.84554000  0.55618000  0.18453000  1.0
  H  H42  1  0.40212000  0.44387000  0.68433000  1.0
  H  H43  1  0.15446000  0.44382000  0.81547000  1.0
  H  H44  1  0.49824000  0.45490000  0.37500000  1.0
  H  H45  1  0.04611000  0.45551000  0.12505000  1.0
  H  H46  1  0.50175000  0.54510000  0.62500000  1.0
  H  H47  1  0.95389000  0.54450000  0.87495000  1.0
  C  C48  1  0.80984000  0.14563000  0.39768000  1.0
  C  C49  1  0.04446000  0.14585000  0.10229000  1.0
  C  C50  1  0.19017000  0.85437000  0.60233000  1.0
  C  C51  1  0.95556000  0.85415000  0.89770000  1.0
  C  C52  1  0.52035000  0.72782000  0.44430000  1.0
  C  C53  1  0.75126000  0.72796000  0.05579000  1.0
  C  C54  1  0.47966000  0.27217000  0.55570000  1.0
  C  C55  1  0.24875000  0.27204000  0.94421000  1.0
  C  C56  1  0.22975000  0.27202000  0.37266000  1.0
  C  C57  1  0.49844000  0.27180000  0.12746000  1.0
  C  C58  1  0.77025000  0.72798000  0.62734000  1.0
  C  C59  1  0.50156000  0.72820000  0.87254000  1.0
  C  C60  1  0.67707000  0.54756000  0.42030000  1.0
  C  C61  1  0.77446000  0.54791000  0.07995000  1.0
  C  C62  1  0.32293000  0.45244000  0.57970000  1.0
  C  C63  1  0.22554000  0.45209000  0.92005000  1.0
  C  C64  1  0.36891000  0.26178000  0.25004000  1.0
  C  C65  1  0.63109000  0.73822000  0.74995000  1.0
  C  C66  1  0.79194000  0.27826000  0.34100000  1.0
  C  C67  1  0.92966000  0.27832000  0.15902000  1.0
  C  C68  1  0.20807000  0.72174000  0.65900000  1.0
  C  C69  1  0.07033000  0.72169000  0.84098000  1.0
  C  C70  1  0.23496000  0.37767000  0.30899000  1.0
  C  C71  1  0.38732000  0.37748000  0.19111000  1.0
  C  C72  1  0.76504000  0.62233000  0.69101000  1.0
  C  C73  1  0.61268000  0.62251000  0.80889000  1.0
  C  C74  1  0.62852000  0.46622000  0.36066000  1.0
  C  C75  1  0.90470000  0.46647000  0.13948000  1.0
  C  C76  1  0.37148000  0.53378000  0.63935000  1.0
  C  C77  1  0.09530000  0.53353000  0.86052000  1.0
  O  O78  1  0.15305000  0.35724000  0.43011000  1.0
  O  O79  1  0.49009000  0.35711000  0.07005000  1.0
  O  O80  1  0.84695000  0.64276000  0.56989000  1.0
  O  O81  1  0.50991000  0.64289000  0.92995000  1.0
  O  O82  1  0.94831000  0.08764000  0.43854000  1.0
  O  O83  1  0.96404000  0.08771000  0.06143000  1.0
  O  O84  1  0.05169000  0.91236000  0.56146000  1.0
  O  O85  1  0.03598000  0.91228000  0.93857000  1.0
  O  O86  1  0.29368000  0.10315000  0.37009000  1.0
  O  O87  1  0.60336000  0.10295000  0.13000000  1.0
  O  O88  1  0.70632000  0.89685000  0.62991000  1.0
  O  O89  1  0.39664000  0.89705000  0.86999000  1.0
  O  O90  1  0.68089000  0.09742000  0.40653000  1.0
  O  O91  1  0.22149000  0.09779000  0.09341000  1.0
  O  O92  1  0.31912000  0.90257000  0.59347000  1.0
  O  O93  1  0.77852000  0.90222000  0.90658000  1.0
  O  O94  1  0.56435000  0.84393000  0.46705000  1.0
  O  O95  1  0.59132000  0.84399000  0.03299000  1.0
  O  O96  1  0.43564000  0.15607000  0.53296000  1.0
  O  O97  1  0.40870000  0.15601000  0.96701000  1.0
  O  O98  1  0.96659000  0.29190000  0.56184000  1.0
  O  O99  1  0.74183000  0.29199000  0.93821000  1.0
  O  O100  1  0.03340000  0.70811000  0.43816000  1.0
  O  O101  1  0.25817000  0.70801000  0.06178000  1.0
  O  O102  1  0.34390000  0.76754000  0.44425000  1.0
  O  O103  1  0.88818000  0.76751000  0.05573000  1.0
  O  O104  1  0.65610000  0.23246000  0.55575000  1.0
  O  O105  1  0.11184000  0.23248000  0.94427000  1.0
