# generated using pymatgen
data_Al2H8C16O15F4
_symmetry_space_group_name_H-M   'P 1'
_cell_length_a   6.69809000
_cell_length_b   13.09060000
_cell_length_c   17.24100000
_cell_angle_alpha   90.18250000
_cell_angle_beta   90.57800000
_cell_angle_gamma   98.74270000
_symmetry_Int_Tables_number   1
_chemical_formula_structural   Al2H8C16O15F4
_chemical_formula_sum   'Al4 H16 C32 O30 F8'
_cell_volume   1494.06768316
_cell_formula_units_Z   2
loop_
 _symmetry_equiv_pos_site_id
 _symmetry_equiv_pos_as_xyz
  1  'x, y, z'
loop_
 _atom_site_type_symbol
 _atom_site_label
 _atom_site_symmetry_multiplicity
 _atom_site_fract_x
 _atom_site_fract_y
 _atom_site_fract_z
 _atom_site_occupancy
  Al  Al0  1  0.88034000  0.49401000  0.49863000  1.0
  Al  Al1  1  0.37912000  0.49164000  0.49904000  1.0
  Al  Al2  1  0.22159000  0.00498000  0.99618000  1.0
  Al  Al3  1  0.72160000  0.00548000  0.99713000  1.0
  H  H4  1  0.81980000  0.27333000  0.85280000  1.0
  H  H5  1  0.81419000  0.27676000  0.14476000  1.0
  H  H6  1  0.24350000  0.85736000  0.85451000  1.0
  H  H7  1  0.34429000  0.75295000  0.21278000  1.0
  H  H8  1  0.74818000  0.72305000  0.71688000  1.0
  H  H9  1  0.75029000  0.72496000  0.27404000  1.0
  H  H10  1  0.61909000  0.82782000  0.82325000  1.0
  H  H11  1  0.65170000  0.83985000  0.16087000  1.0
  H  H12  1  0.15671000  0.00555000  0.66201000  1.0
  H  H13  1  0.15742000  0.00941000  0.33302000  1.0
  H  H14  1  0.14537000  0.32460000  0.62772000  1.0
  H  H15  1  0.12439000  0.32013000  0.37701000  1.0
  H  H16  1  0.66530000  0.61423000  0.53713000  1.0
  H  H17  1  0.08183000  0.35277000  0.50953000  1.0
  H  H18  1  0.43007000  0.87686000  0.02605000  1.0
  H  H19  1  0.00916000  0.12249000  0.04053000  1.0
  C  C20  1  0.59891000  0.37218000  0.60696000  1.0
  C  C21  1  0.59664000  0.37929000  0.38785000  1.0
  C  C22  1  0.16272000  0.60956000  0.39210000  1.0
  C  C23  1  0.16661000  0.61108000  0.60652000  1.0
  C  C24  1  0.18775000  0.67892000  0.67479000  1.0
  C  C25  1  0.17931000  0.67133000  0.32113000  1.0
  C  C26  1  0.03359000  0.71690000  0.71271000  1.0
  C  C27  1  0.03017000  0.70985000  0.27970000  1.0
  C  C28  1  0.90530000  0.81924000  0.81915000  1.0
  C  C29  1  0.91775000  0.81170000  0.16934000  1.0
  C  C30  1  0.06419000  0.78332000  0.78213000  1.0
  C  C31  1  0.06783000  0.77013000  0.20764000  1.0
  C  C32  1  0.41214000  0.23969000  0.69446000  1.0
  C  C33  1  0.40720000  0.24456000  0.30036000  1.0
  C  C34  1  0.58196000  0.31270000  0.68068000  1.0
  C  C35  1  0.57555000  0.31911000  0.31427000  1.0
  C  C36  1  0.72316000  0.32328000  0.74204000  1.0
  C  C37  1  0.71630000  0.32897000  0.25388000  1.0
  C  C38  1  0.69943000  0.26334000  0.80925000  1.0
  C  C39  1  0.69478000  0.26631000  0.18765000  1.0
  C  C40  1  0.52631000  0.19047000  0.82077000  1.0
  C  C41  1  0.52488000  0.19093000  0.17625000  1.0
  C  C42  1  0.38105000  0.18084000  0.76136000  1.0
  C  C43  1  0.37898000  0.18278000  0.23427000  1.0
  C  C44  1  0.18125000  0.12109000  0.73177000  1.0
  C  C45  1  0.18022000  0.12270000  0.26239000  1.0
  C  C46  1  0.21403000  0.19396000  0.65699000  1.0
  C  C47  1  0.21066000  0.19721000  0.33701000  1.0
  C  C48  1  0.50612000  0.12354000  0.10603000  1.0
  C  C49  1  0.50604000  0.12537000  0.89173000  1.0
  C  C50  1  0.93195000  0.88715000  0.88630000  1.0
  C  C51  1  0.94235000  0.87766000  0.10031000  1.0
  O  O52  1  0.43178000  0.39558000  0.41872000  1.0
  O  O53  1  0.43093000  0.39275000  0.57949000  1.0
  O  O54  1  0.77151000  0.39468000  0.57708000  1.0
  O  O55  1  0.77270000  0.40632000  0.41489000  1.0
  O  O56  1  0.98945000  0.58298000  0.57916000  1.0
  O  O57  1  0.98932000  0.58934000  0.42247000  1.0
  O  O58  1  0.64658000  0.55397000  0.50323000  1.0
  O  O59  1  0.32566000  0.58156000  0.41740000  1.0
  O  O60  1  0.32904000  0.58496000  0.57949000  1.0
  O  O61  1  0.10930000  0.42568000  0.49686000  1.0
  O  O62  1  0.66814000  0.10161000  0.92045000  1.0
  O  O63  1  0.66880000  0.10088000  0.07783000  1.0
  O  O64  1  0.32767000  0.09470000  0.08010000  1.0
  O  O65  1  0.32877000  0.09862000  0.91758000  1.0
  O  O66  1  0.11384000  0.90137000  0.06952000  1.0
  O  O67  1  0.11277000  0.91531000  0.91301000  1.0
  O  O68  1  0.45311000  0.94046000  0.99642000  1.0
  O  O69  1  0.77227000  0.91359000  0.91508000  1.0
  O  O70  1  0.77512000  0.90658000  0.07699000  1.0
  O  O71  1  0.99031000  0.06724000  0.00217000  1.0
  O  O72  1  0.25478000  0.80955000  0.80940000  1.0
  O  O73  1  0.25686000  0.78572000  0.17763000  1.0
  O  O74  1  0.84407000  0.69211000  0.68397000  1.0
  O  O75  1  0.84120000  0.69101000  0.30741000  1.0
  O  O76  1  0.71002000  0.79130000  0.79314000  1.0
  O  O77  1  0.72184000  0.79634000  0.19583000  1.0
  O  O78  1  0.17485000  0.01683000  0.71792000  1.0
  O  O79  1  0.17331000  0.01877000  0.27700000  1.0
  O  O80  1  0.07311000  0.25640000  0.64211000  1.0
  O  O81  1  0.06383000  0.25545000  0.35125000  1.0
  F  F82  1  0.23583000  0.13199000  0.59012000  1.0
  F  F83  1  0.24113000  0.13635000  0.40388000  1.0
  F  F84  1  0.38121000  0.70346000  0.70096000  1.0
  F  F85  1  0.37575000  0.68977000  0.29350000  1.0
  F  F86  1  0.88875000  0.39650000  0.73844000  1.0
  F  F87  1  0.87964000  0.40365000  0.25747000  1.0
  F  F88  1  0.01441000  0.13564000  0.77580000  1.0
  F  F89  1  0.01359000  0.13600000  0.21602000  1.0
