# generated using pymatgen
data_HgH10C10N2(ClO)2
_symmetry_space_group_name_H-M   'P 1'
_cell_length_a   8.12961000
_cell_length_b   10.31150000
_cell_length_c   14.81710000
_cell_angle_alpha   89.99990000
_cell_angle_beta   89.04580000
_cell_angle_gamma   89.99980000
_symmetry_Int_Tables_number   1
_chemical_formula_structural   HgH10C10N2(ClO)2
_chemical_formula_sum   'Hg4 H40 C40 N8 Cl8 O8'
_cell_volume   1241.92262925
_cell_formula_units_Z   4
loop_
 _symmetry_equiv_pos_site_id
 _symmetry_equiv_pos_as_xyz
  1  'x, y, z'
loop_
 _atom_site_type_symbol
 _atom_site_label
 _atom_site_symmetry_multiplicity
 _atom_site_fract_x
 _atom_site_fract_y
 _atom_site_fract_z
 _atom_site_occupancy
  Hg  Hg0  1  0.75000000  0.94067000  0.50000000  1.0
  Hg  Hg1  1  0.25000000  0.05934000  0.50000000  1.0
  Hg  Hg2  1  0.99999000  0.50000000  0.50000000  1.0
  Hg  Hg3  1  0.50000000  0.50000000  0.50000000  1.0
  H  H4  1  0.08637000  0.54625000  0.94549000  1.0
  H  H5  1  0.41363000  0.54625000  0.05451000  1.0
  H  H6  1  0.91364000  0.45374000  0.05451000  1.0
  H  H7  1  0.58636000  0.45374000  0.94549000  1.0
  H  H8  1  0.86611000  0.03484000  0.93379000  1.0
  H  H9  1  0.63390000  0.03484000  0.06621000  1.0
  H  H10  1  0.13390000  0.96516000  0.06621000  1.0
  H  H11  1  0.36610000  0.96516000  0.93379000  1.0
  H  H12  1  0.91650000  0.79670000  0.94873000  1.0
  H  H13  1  0.58351000  0.79670000  0.05127000  1.0
  H  H14  1  0.08351000  0.20330000  0.05127000  1.0
  H  H15  1  0.41649000  0.20330000  0.94873000  1.0
  H  H16  1  0.89459000  0.65048000  0.81719000  1.0
  H  H17  1  0.60542000  0.65048000  0.18281000  1.0
  H  H18  1  0.10542000  0.34952000  0.18281000  1.0
  H  H19  1  0.39458000  0.34952000  0.81719000  1.0
  H  H20  1  0.82088000  0.73404000  0.66567000  1.0
  H  H21  1  0.67912000  0.73404000  0.33433000  1.0
  H  H22  1  0.17913000  0.26596000  0.33433000  1.0
  H  H23  1  0.32087000  0.26596000  0.66566000  1.0
  H  H24  1  0.71098000  0.21080000  0.62752000  1.0
  H  H25  1  0.78901000  0.21080000  0.37248000  1.0
  H  H26  1  0.28901000  0.78920000  0.37248000  1.0
  H  H27  1  0.21099000  0.78919000  0.62752000  1.0
  H  H28  1  0.73772000  0.23799000  0.87868000  1.0
  H  H29  1  0.76228000  0.23799000  0.12132000  1.0
  H  H30  1  0.26228000  0.76201000  0.12132000  1.0
  H  H31  1  0.23772000  0.76201000  0.87868000  1.0
  H  H32  1  0.70343000  0.32901000  0.77916000  1.0
  H  H33  1  0.79657000  0.32901000  0.22084000  1.0
  H  H34  1  0.29656000  0.67099000  0.22084000  1.0
  H  H35  1  0.20343000  0.67099000  0.77916000  1.0
  H  H36  1  0.04848000  0.22934000  0.81940000  1.0
  H  H37  1  0.45152000  0.22934000  0.18060000  1.0
  H  H38  1  0.95152000  0.77066000  0.18059000  1.0
  H  H39  1  0.54848000  0.77066000  0.81941000  1.0
  H  H40  1  0.99675000  0.36513000  0.75342000  1.0
  H  H41  1  0.50325000  0.36513000  0.24658000  1.0
  H  H42  1  0.00325000  0.63487000  0.24658000  1.0
  H  H43  1  0.49675000  0.63487000  0.75342000  1.0
  C  C44  1  0.81510000  0.01578000  0.79040000  1.0
  C  C45  1  0.68490000  0.01578000  0.20960000  1.0
  C  C46  1  0.18490000  0.98422000  0.20960000  1.0
  C  C47  1  0.31510000  0.98422000  0.79040000  1.0
  C  C48  1  0.85609000  0.97027000  0.87588000  1.0
  C  C49  1  0.64392000  0.97027000  0.12412000  1.0
  C  C50  1  0.14392000  0.02974000  0.12412000  1.0
  C  C51  1  0.35609000  0.02973000  0.87588000  1.0
  C  C52  1  0.88376000  0.83715000  0.88351000  1.0
  C  C53  1  0.61625000  0.83715000  0.11649000  1.0
  C  C54  1  0.11625000  0.16285000  0.11649000  1.0
  C  C55  1  0.38375000  0.16285000  0.88351000  1.0
  C  C56  1  0.87193000  0.75371000  0.80847000  1.0
  C  C57  1  0.62808000  0.75371000  0.19153000  1.0
  C  C58  1  0.12808000  0.24630000  0.19153000  1.0
  C  C59  1  0.37192000  0.24629000  0.80847000  1.0
  C  C60  1  0.83133000  0.79918000  0.72317000  1.0
  C  C61  1  0.66867000  0.79919000  0.27683000  1.0
  C  C62  1  0.16867000  0.20082000  0.27683000  1.0
  C  C63  1  0.33132000  0.20081000  0.72317000  1.0
  C  C64  1  0.80207000  0.93208000  0.71505000  1.0
  C  C65  1  0.69793000  0.93208000  0.28495000  1.0
  C  C66  1  0.19793000  0.06793000  0.28495000  1.0
  C  C67  1  0.30207000  0.06792000  0.71505000  1.0
  C  C68  1  0.74454000  0.12870000  0.66935000  1.0
  C  C69  1  0.75546000  0.12871000  0.33065000  1.0
  C  C70  1  0.25545000  0.87130000  0.33065000  1.0
  C  C71  1  0.24455000  0.87130000  0.66935000  1.0
  C  C72  1  0.78518000  0.25832000  0.81044000  1.0
  C  C73  1  0.71482000  0.25832000  0.18956000  1.0
  C  C74  1  0.21482000  0.74168000  0.18956000  1.0
  C  C75  1  0.28518000  0.74168000  0.81043000  1.0
  C  C76  1  0.96130000  0.31079000  0.81443000  1.0
  C  C77  1  0.53870000  0.31079000  0.18557000  1.0
  C  C78  1  0.03871000  0.68921000  0.18557000  1.0
  C  C79  1  0.46129000  0.68921000  0.81443000  1.0
  C  C80  1  0.98666000  0.39180000  0.89721000  1.0
  C  C81  1  0.51334000  0.39180000  0.10280000  1.0
  C  C82  1  0.01334000  0.60819000  0.10280000  1.0
  C  C83  1  0.48666000  0.60819000  0.89720000  1.0
  N  N84  1  0.77745000  0.13893000  0.75857000  1.0
  N  N85  1  0.72255000  0.13893000  0.24143000  1.0
  N  N86  1  0.22254000  0.86107000  0.24143000  1.0
  N  N87  1  0.27746000  0.86106000  0.75857000  1.0
  N  N88  1  0.75729000  0.00658000  0.64130000  1.0
  N  N89  1  0.74271000  0.00658000  0.35870000  1.0
  N  N90  1  0.24271000  0.99342000  0.35870000  1.0
  N  N91  1  0.25729000  0.99342000  0.64130000  1.0
  Cl  Cl92  1  0.00109000  0.78188000  0.48955000  1.0
  Cl  Cl93  1  0.49891000  0.78188000  0.51045000  1.0
  Cl  Cl94  1  0.99891000  0.21812000  0.51045000  1.0
  Cl  Cl95  1  0.50109000  0.21812000  0.48955000  1.0
  Cl  Cl96  1  0.81660000  0.48544000  0.37416000  1.0
  Cl  Cl97  1  0.68340000  0.48544000  0.62584000  1.0
  Cl  Cl98  1  0.18339000  0.51456000  0.62584000  1.0
  Cl  Cl99  1  0.31660000  0.51457000  0.37416000  1.0
  O  O100  1  0.92007000  0.36321000  0.97093000  1.0
  O  O101  1  0.57993000  0.36321000  0.02907000  1.0
  O  O102  1  0.07995000  0.63678000  0.02907000  1.0
  O  O103  1  0.42005000  0.63678000  0.97093000  1.0
  O  O104  1  0.08512000  0.49272000  0.88648000  1.0
  O  O105  1  0.41488000  0.49272000  0.11352000  1.0
  O  O106  1  0.91488000  0.50728000  0.11352000  1.0
  O  O107  1  0.58512000  0.50728000  0.88649000  1.0
