# generated using pymatgen
data_ZnH16C22N3O4
_symmetry_space_group_name_H-M   'P 1'
_cell_length_a   10.18680000
_cell_length_b   14.13210000
_cell_length_c   14.49942904
_cell_angle_alpha   93.78063827
_cell_angle_beta   110.55756084
_cell_angle_gamma   90.04690000
_symmetry_Int_Tables_number   1
_chemical_formula_structural   ZnH16C22N3O4
_chemical_formula_sum   'Zn4 H64 C88 N12 O16'
_cell_volume   1949.53253266
_cell_formula_units_Z   4
loop_
 _symmetry_equiv_pos_site_id
 _symmetry_equiv_pos_as_xyz
  1  'x, y, z'
loop_
 _atom_site_type_symbol
 _atom_site_label
 _atom_site_symmetry_multiplicity
 _atom_site_fract_x
 _atom_site_fract_y
 _atom_site_fract_z
 _atom_site_occupancy
  Zn  Zn0  1  0.40272000  0.60481000  0.18451000  1.0
  Zn  Zn1  1  0.21866000  0.89532000  0.81549000  1.0
  Zn  Zn2  1  0.59727000  0.39520000  0.81549000  1.0
  Zn  Zn3  1  0.78134000  0.10469000  0.18451000  1.0
  H  H4  1  0.24606000  0.67258000  0.41824000  1.0
  H  H5  1  0.82785000  0.82766000  0.58163000  1.0
  H  H6  1  0.75393000  0.32743000  0.58175000  1.0
  H  H7  1  0.17216000  0.17234000  0.41837000  1.0
  H  H8  1  0.97464000  0.89144000  0.46580000  1.0
  H  H9  1  0.50822000  0.60898000  0.53435000  1.0
  H  H10  1  0.02536000  0.10856000  0.53420000  1.0
  H  H11  1  0.49179000  0.39102000  0.46565000  1.0
  H  H12  1  0.02696000  0.84935000  0.18424000  1.0
  H  H13  1  0.84287000  0.65059000  0.81557000  1.0
  H  H14  1  0.97303000  0.15065000  0.81576000  1.0
  H  H15  1  0.15713000  0.34941000  0.18443000  1.0
  H  H16  1  0.92567000  0.63932000  0.58076000  1.0
  H  H17  1  0.34467000  0.86075000  0.41880000  1.0
  H  H18  1  0.07434000  0.36068000  0.41924000  1.0
  H  H19  1  0.65534000  0.13925000  0.58120000  1.0
  H  H20  1  0.21566000  0.66975000  0.66540000  1.0
  H  H21  1  0.55027000  0.83037000  0.33455000  1.0
  H  H22  1  0.78433000  0.33025000  0.33459000  1.0
  H  H23  1  0.44974000  0.16963000  0.66545000  1.0
  H  H24  1  0.29490000  0.64911000  0.57576000  1.0
  H  H25  1  0.71910000  0.85116000  0.42422000  1.0
  H  H26  1  0.70510000  0.35089000  0.42424000  1.0
  H  H27  1  0.28091000  0.14884000  0.57578000  1.0
  H  H28  1  0.69435000  0.60625000  0.34773000  1.0
  H  H29  1  0.34715000  0.89401000  0.65232000  1.0
  H  H30  1  0.30564000  0.39375000  0.65227000  1.0
  H  H31  1  0.65285000  0.10599000  0.34768000  1.0
  H  H32  1  0.77984000  0.62466000  0.03553000  1.0
  H  H33  1  0.74477000  0.87518000  0.96441000  1.0
  H  H34  1  0.22015000  0.37534000  0.96447000  1.0
  H  H35  1  0.25522000  0.12482000  0.03558000  1.0
  H  H36  1  0.23935000  0.49657000  0.49086000  1.0
  H  H37  1  0.74858000  0.00352000  0.50938000  1.0
  H  H38  1  0.76066000  0.50343000  0.50914000  1.0
  H  H39  1  0.25143000  0.99648000  0.49062000  1.0
  H  H40  1  0.59892000  0.62105000  0.91128000  1.0
  H  H41  1  0.68790000  0.87890000  0.08875000  1.0
  H  H42  1  0.40108000  0.37895000  0.08872000  1.0
  H  H43  1  0.31210000  0.12110000  0.91125000  1.0
  H  H44  1  0.14765000  0.62776000  0.80642000  1.0
  H  H45  1  0.34135000  0.87236000  0.19357000  1.0
  H  H46  1  0.85235000  0.37224000  0.19358000  1.0
  H  H47  1  0.65865000  0.12764000  0.80643000  1.0
  H  H48  1  0.94291000  0.60273000  0.35073000  1.0
  H  H49  1  0.59264000  0.89717000  0.64922000  1.0
  H  H50  1  0.05709000  0.39727000  0.64928000  1.0
  H  H51  1  0.40736000  0.10283000  0.35078000  1.0
  H  H52  1  0.16151000  0.63078000  0.98399000  1.0
  H  H53  1  0.17781000  0.86917000  0.01599000  1.0
  H  H54  1  0.83849000  0.36922000  0.01601000  1.0
  H  H55  1  0.82219000  0.13083000  0.98401000  1.0
  H  H56  1  0.37488000  0.62087000  0.77232000  1.0
  H  H57  1  0.60275000  0.87923000  0.22773000  1.0
  H  H58  1  0.62512000  0.37913000  0.22768000  1.0
  H  H59  1  0.39725000  0.12077000  0.77227000  1.0
  H  H60  1  0.98302000  0.61198000  0.18851000  1.0
  H  H61  1  0.79497000  0.88785000  0.81137000  1.0
  H  H62  1  0.01697000  0.38802000  0.81149000  1.0
  H  H63  1  0.20504000  0.11215000  0.18864000  1.0
  H  H64  1  0.08710000  0.78759000  0.59066000  1.0
  H  H65  1  0.49615000  0.71264000  0.40941000  1.0
  H  H66  1  0.91290000  0.21240000  0.40934000  1.0
  H  H67  1  0.50385000  0.28736000  0.59059000  1.0
  C  C68  1  0.17330000  0.72961000  0.39236000  1.0
  C  C69  1  0.78095000  0.77059000  0.60758000  1.0
  C  C70  1  0.82669000  0.27039000  0.60763000  1.0
  C  C71  1  0.21904000  0.22940000  0.39241000  1.0
  C  C72  1  0.14420000  0.75707000  0.29626000  1.0
  C  C73  1  0.84805000  0.74306000  0.70364000  1.0
  C  C74  1  0.85579000  0.24293000  0.70373000  1.0
  C  C75  1  0.15195000  0.25694000  0.29636000  1.0
  C  C76  1  0.02041000  0.85137000  0.41817000  1.0
  C  C77  1  0.60185000  0.64894000  0.58190000  1.0
  C  C78  1  0.97958000  0.14864000  0.58183000  1.0
  C  C79  1  0.39816000  0.35106000  0.41810000  1.0
  C  C80  1  0.11063000  0.77608000  0.45499000  1.0
  C  C81  1  0.65545000  0.72418000  0.54504000  1.0
  C  C82  1  0.88936000  0.22392000  0.54500000  1.0
  C  C83  1  0.34455000  0.27582000  0.45496000  1.0
  C  C84  1  0.99043000  0.87720000  0.32187000  1.0
  C  C85  1  0.66835000  0.62297000  0.67811000  1.0
  C  C86  1  0.00957000  0.12280000  0.67813000  1.0
  C  C87  1  0.33165000  0.37703000  0.32189000  1.0
  C  C88  1  0.21537000  0.70948000  0.23213000  1.0
  C  C89  1  0.98348000  0.79057000  0.76779000  1.0
  C  C90  1  0.78463000  0.29052000  0.76787000  1.0
  C  C91  1  0.01652000  0.20943000  0.23221000  1.0
  C  C92  1  0.05074000  0.82932000  0.25942000  1.0
  C  C93  1  0.79135000  0.67075000  0.74047000  1.0
  C  C94  1  0.94926000  0.17068000  0.74058000  1.0
  C  C95  1  0.20865000  0.32925000  0.25953000  1.0
  C  C96  1  0.09417000  0.57800000  0.54082000  1.0
  C  C97  1  0.55330000  0.92213000  0.45909000  1.0
  C  C98  1  0.90583000  0.42200000  0.45918000  1.0
  C  C99  1  0.44671000  0.07787000  0.54092000  1.0
  C  C100  1  0.49977000  0.62408000  0.02187000  1.0
  C  C101  1  0.47825000  0.87593000  0.97816000  1.0
  C  C102  1  0.50024000  0.37592000  0.97814000  1.0
  C  C103  1  0.52175000  0.12407000  0.02184000  1.0
  C  C104  1  0.62882000  0.62108000  0.10989000  1.0
  C  C105  1  0.51938000  0.87898000  0.89014000  1.0
  C  C106  1  0.37117000  0.37892000  0.89011000  1.0
  C  C107  1  0.48062000  0.12102000  0.10986000  1.0
  C  C108  1  0.95910000  0.57815000  0.54561000  1.0
  C  C109  1  0.41337000  0.92189000  0.45414000  1.0
  C  C110  1  0.04090000  0.42185000  0.45439000  1.0
  C  C111  1  0.58664000  0.07811000  0.54586000  1.0
  C  C112  1  0.19398000  0.66229000  0.58562000  1.0
  C  C113  1  0.60830000  0.83793000  0.41432000  1.0
  C  C114  1  0.80601000  0.33771000  0.41437000  1.0
  C  C115  1  0.39171000  0.16206000  0.58568000  1.0
  C  C116  1  0.71933000  0.61072000  0.28099000  1.0
  C  C117  1  0.43883000  0.88943000  0.71904000  1.0
  C  C118  1  0.28067000  0.38928000  0.71901000  1.0
  C  C119  1  0.56117000  0.11057000  0.28096000  1.0
  C  C120  1  0.76358000  0.62064000  0.10549000  1.0
  C  C121  1  0.65853000  0.87929000  0.89449000  1.0
  C  C122  1  0.23642000  0.37936000  0.89451000  1.0
  C  C123  1  0.34147000  0.12070000  0.10551000  1.0
  C  C124  1  0.13410000  0.49877000  0.49460000  1.0
  C  C125  1  0.63956000  0.00130000  0.50554000  1.0
  C  C126  1  0.86591000  0.50122000  0.50540000  1.0
  C  C127  1  0.36044000  0.99870000  0.49446000  1.0
  C  C128  1  0.50123000  0.62411000  0.92593000  1.0
  C  C129  1  0.57557000  0.87583000  0.07410000  1.0
  C  C130  1  0.49877000  0.37589000  0.07407000  1.0
  C  C131  1  0.42443000  0.12417000  0.92590000  1.0
  C  C132  1  0.24884000  0.62682000  0.86595000  1.0
  C  C133  1  0.38308000  0.87318000  0.13405000  1.0
  C  C134  1  0.75116000  0.37318000  0.13405000  1.0
  C  C135  1  0.61692000  0.12682000  0.86595000  1.0
  C  C136  1  0.85619000  0.60839000  0.28147000  1.0
  C  C137  1  0.57520000  0.89158000  0.71851000  1.0
  C  C138  1  0.14381000  0.39162000  0.71854000  1.0
  C  C139  1  0.42480000  0.10842000  0.28149000  1.0
  C  C140  1  0.25479000  0.62735000  0.96353000  1.0
  C  C141  1  0.29155000  0.87263000  0.03646000  1.0
  C  C142  1  0.74521000  0.37265000  0.03647000  1.0
  C  C143  1  0.70845000  0.12737000  0.96354000  1.0
  C  C144  1  0.37417000  0.62408000  0.84735000  1.0
  C  C145  1  0.52702000  0.87592000  0.15268000  1.0
  C  C146  1  0.62584000  0.37592000  0.15266000  1.0
  C  C147  1  0.47297000  0.12408000  0.84731000  1.0
  C  C148  1  0.89430000  0.95799000  0.28705000  1.0
  C  C149  1  0.60716000  0.54204000  0.71295000  1.0
  C  C150  1  0.10570000  0.04202000  0.71295000  1.0
  C  C151  1  0.39284000  0.45796000  0.28705000  1.0
  C  C152  1  0.87824000  0.61338000  0.19225000  1.0
  C  C153  1  0.68644000  0.88650000  0.80771000  1.0
  C  C154  1  0.12176000  0.38662000  0.80775000  1.0
  C  C155  1  0.31356000  0.11350000  0.19229000  1.0
  N  N156  1  0.60909000  0.61640000  0.19712000  1.0
  N  N157  1  0.41245000  0.88382000  0.80294000  1.0
  N  N158  1  0.39091000  0.38360000  0.80288000  1.0
  N  N159  1  0.58755000  0.11618000  0.19706000  1.0
  N  N160  1  0.37717000  0.62458000  0.03900000  1.0
  N  N161  1  0.33851000  0.87542000  0.96099000  1.0
  N  N162  1  0.62282000  0.37542000  0.96100000  1.0
  N  N163  1  0.66148000  0.12458000  0.03901000  1.0
  N  N164  1  0.13888000  0.75289000  0.55026000  1.0
  N  N165  1  0.58843000  0.74734000  0.44977000  1.0
  N  N166  1  0.86112000  0.24711000  0.44974000  1.0
  N  N167  1  0.41157000  0.25266000  0.55023000  1.0
  O  O168  1  0.87077000  0.97958000  0.19636000  1.0
  O  O169  1  0.67452000  0.52045000  0.80359000  1.0
  O  O170  1  0.12922000  0.02042000  0.80364000  1.0
  O  O171  1  0.32548000  0.47955000  0.19641000  1.0
  O  O172  1  0.34699000  0.68991000  0.27681000  1.0
  O  O173  1  0.07047000  0.81022000  0.72312000  1.0
  O  O174  1  0.65301000  0.31009000  0.72319000  1.0
  O  O175  1  0.92953000  0.18978000  0.27688000  1.0
  O  O176  1  0.15149000  0.69028000  0.14180000  1.0
  O  O177  1  0.01006000  0.80962000  0.85816000  1.0
  O  O178  1  0.84851000  0.30972000  0.85820000  1.0
  O  O179  1  0.98994000  0.19038000  0.14184000  1.0
  O  O180  1  0.84170000  0.00139000  0.34335000  1.0
  O  O181  1  0.49828000  0.49849000  0.65670000  1.0
  O  O182  1  0.15830000  0.99861000  0.65665000  1.0
  O  O183  1  0.50172000  0.50151000  0.34330000  1.0
