# generated using pymatgen
data_Zn4H26C45BrN5O13
_symmetry_space_group_name_H-M   'P 1'
_cell_length_a   15.61800000
_cell_length_b   19.11870000
_cell_length_c   19.34680000
_cell_angle_alpha   95.09330000
_cell_angle_beta   102.11000000
_cell_angle_gamma   97.01290000
_symmetry_Int_Tables_number   1
_chemical_formula_structural   Zn4H26C45BrN5O13
_chemical_formula_sum   'Zn4 H26 C45 Br1 N5 O13'
_cell_volume   5566.97827551
_cell_formula_units_Z   1
loop_
 _symmetry_equiv_pos_site_id
 _symmetry_equiv_pos_as_xyz
  1  'x, y, z'
loop_
 _atom_site_type_symbol
 _atom_site_label
 _atom_site_symmetry_multiplicity
 _atom_site_fract_x
 _atom_site_fract_y
 _atom_site_fract_z
 _atom_site_occupancy
  Zn  Zn0  1  0.42968000  0.55263000  0.55133000  1.0
  Zn  Zn1  1  0.56807000  0.44784000  0.57187000  1.0
  Zn  Zn2  1  0.57725000  0.55637000  0.45676000  1.0
  Zn  Zn3  1  0.41746000  0.42754000  0.42412000  1.0
  H  H4  1  0.83906000  0.53784000  0.68065000  1.0
  H  H5  1  0.35648000  0.42427000  0.06889000  1.0
  H  H6  1  0.14199000  0.53185000  0.67829000  1.0
  H  H7  1  0.36557000  0.41377000  0.19892000  1.0
  H  H8  1  0.62397000  0.47279000  0.78536000  1.0
  H  H9  1  0.64431000  0.48112000  0.91818000  1.0
  H  H10  1  0.57921000  0.58708000  0.25143000  1.0
  H  H11  1  0.00359000  0.54278000  0.71270000  1.0
  H  H12  1  0.84113000  0.50435000  0.45915000  1.0
  H  H13  1  0.15241000  0.43437000  0.33583000  1.0
  H  H14  1  0.90507000  0.46560000  0.38874000  1.0
  H  H15  1  0.57340000  0.10392000  0.58464000  1.0
  H  H16  1  0.98826000  0.43026000  0.30027000  1.0
  H  H17  1  0.22720000  0.50980000  0.58785000  1.0
  H  H18  1  0.57246000  0.23571000  0.59038000  1.0
  H  H19  1  0.61318000  0.64864000  0.16730000  1.0
  H  H20  1  0.49527000  0.64926000  0.03399000  1.0
  H  H21  1  0.59460000  0.62161000  0.01813000  1.0
  H  H22  1  0.59829000  0.70486000  0.07024000  1.0
  H  H23  1  0.44936000  0.90105000  0.60563000  1.0
  H  H24  1  0.44984000  0.76893000  0.60173000  1.0
  H  H25  1  0.43754000  0.21133000  0.37000000  1.0
  H  H26  1  0.57983000  0.90480000  0.43095000  1.0
  H  H27  1  0.44551000  0.08004000  0.36256000  1.0
  H  H28  1  0.58646000  0.77381000  0.43082000  1.0
  H  H29  1  0.37994000  0.53152000  0.89778000  1.0
  C  C30  1  0.50126000  0.30885000  0.48574000  1.0
  C  C31  1  0.87853000  0.51101000  0.51410000  1.0
  C  C32  1  0.87691000  0.53111000  0.63979000  1.0
  C  C33  1  0.51737000  0.68571000  0.51376000  1.0
  C  C34  1  0.16071000  0.47323000  0.44465000  1.0
  C  C35  1  0.51764000  0.76399000  0.51576000  1.0
  C  C36  1  0.55533000  0.80211000  0.46796000  1.0
  C  C37  1  0.55194000  0.87432000  0.46801000  1.0
  C  C38  1  0.51264000  0.90948000  0.51752000  1.0
  C  C39  1  0.47802000  0.87207000  0.56715000  1.0
  C  C40  1  0.47873000  0.79938000  0.56516000  1.0
  C  C41  1  0.02322000  0.44810000  0.35515000  1.0
  C  C42  1  0.54438000  0.12827000  0.53813000  1.0
  C  C43  1  0.54346000  0.20089000  0.54122000  1.0
  C  C44  1  0.50797000  0.08486000  0.47348000  1.0
  C  C45  1  0.49054000  0.49824000  0.68892000  1.0
  C  C46  1  0.50401000  0.23078000  0.48075000  1.0
  C  C47  1  0.46777000  0.18732000  0.41637000  1.0
  C  C48  1  0.47176000  0.11485000  0.41223000  1.0
  C  C49  1  0.47569000  0.49908000  0.23225000  1.0
  C  C50  1  0.53132000  0.55088000  0.21058000  1.0
  C  C51  1  0.52650000  0.55923000  0.13807000  1.0
  C  C52  1  0.97661000  0.46830000  0.40522000  1.0
  C  C53  1  0.46481000  0.50846000  0.08654000  1.0
  C  C54  1  0.40472000  0.45955000  0.11017000  1.0
  C  C55  1  0.40999000  0.45330000  0.18138000  1.0
  C  C56  1  0.43355000  0.51958000  0.87276000  1.0
  C  C57  1  0.48485000  0.49415000  0.31015000  1.0
  C  C58  1  0.42464000  0.51804000  0.79964000  1.0
  C  C59  1  0.51282000  0.50611000  0.91556000  1.0
  C  C60  1  0.49317000  0.50105000  0.76686000  1.0
  C  C61  1  0.57152000  0.48663000  0.81097000  1.0
  C  C62  1  0.58273000  0.49072000  0.88429000  1.0
  C  C63  1  0.01955000  0.49014000  0.47711000  1.0
  C  C64  1  0.73442000  0.51850000  0.54796000  1.0
  C  C65  1  0.25958000  0.47861000  0.46028000  1.0
  C  C66  1  0.96745000  0.53313000  0.65717000  1.0
  C  C67  1  0.83228000  0.52128000  0.56734000  1.0
  C  C68  1  0.11521000  0.45019000  0.37492000  1.0
  C  C69  1  0.56585000  0.64965000  0.05796000  1.0
  C  C70  1  0.11355000  0.49214000  0.49780000  1.0
  C  C71  1  0.97019000  0.50778000  0.53070000  1.0
  C  C72  1  0.01545000  0.52136000  0.60380000  1.0
  C  C73  1  0.10875000  0.52154000  0.62207000  1.0
  C  C74  1  0.15607000  0.50866000  0.57172000  1.0
  Br  Br75  1  0.31380000  0.53697000  0.74756000  1.0
  N  N76  1  0.50751000  0.98284000  0.52278000  1.0
  N  N77  1  0.50722000  0.01055000  0.46568000  1.0
  N  N78  1  0.45643000  0.49965000  0.01306000  1.0
  N  N79  1  0.52737000  0.51078000  0.99045000  1.0
  N  N80  1  0.57771000  0.61702000  0.12330000  1.0
  O  O81  1  0.49698000  0.49541000  0.49945000  1.0
  O  O82  1  0.69162000  0.49474000  0.59261000  1.0
  O  O83  1  0.29231000  0.43250000  0.42572000  1.0
  O  O84  1  0.70045000  0.53909000  0.48845000  1.0
  O  O85  1  0.30360000  0.53002000  0.50550000  1.0
  O  O86  1  0.44496000  0.53895000  0.65282000  1.0
  O  O87  1  0.42990000  0.44797000  0.32816000  1.0
  O  O88  1  0.55395000  0.34648000  0.53933000  1.0
  O  O89  1  0.56425000  0.65719000  0.47551000  1.0
  O  O90  1  0.44666000  0.33124000  0.43670000  1.0
  O  O91  1  0.46936000  0.65365000  0.55047000  1.0
  O  O92  1  0.53707000  0.45531000  0.66517000  1.0
  O  O93  1  0.54717000  0.53665000  0.35246000  1.0
