# generated using pymatgen
data_H8PbC14(SN2)2
_symmetry_space_group_name_H-M   'P 1'
_cell_length_a   6.75709000
_cell_length_b   10.77890000
_cell_length_c   10.77840000
_cell_angle_alpha   77.33900000
_cell_angle_beta   74.44940000
_cell_angle_gamma   74.42650000
_symmetry_Int_Tables_number   1
_chemical_formula_structural   H8PbC14(SN2)2
_chemical_formula_sum   'H16 Pb2 C28 S4 N8'
_cell_volume   719.30711773
_cell_formula_units_Z   2
loop_
 _symmetry_equiv_pos_site_id
 _symmetry_equiv_pos_as_xyz
  1  'x, y, z'
loop_
 _atom_site_type_symbol
 _atom_site_label
 _atom_site_symmetry_multiplicity
 _atom_site_fract_x
 _atom_site_fract_y
 _atom_site_fract_z
 _atom_site_occupancy
  H  H0  1  0.59146000  0.04287000  0.58399000  1.0
  H  H1  1  0.90843000  0.41589000  0.95701000  1.0
  H  H2  1  0.40859000  0.95713000  0.41593000  1.0
  H  H3  1  0.09184000  0.58397000  0.04308000  1.0
  H  H4  1  0.70401000  0.11136000  0.34235000  1.0
  H  H5  1  0.79605000  0.65760000  0.88867000  1.0
  H  H6  1  0.29584000  0.88866000  0.65750000  1.0
  H  H7  1  0.20404000  0.34230000  0.11146000  1.0
  H  H8  1  0.57263000  0.34247000  0.24607000  1.0
  H  H9  1  0.92736000  0.75398000  0.65764000  1.0
  H  H10  1  0.42720000  0.65762000  0.75391000  1.0
  H  H11  1  0.07263000  0.24593000  0.34246000  1.0
  H  H12  1  0.37032000  0.56955000  0.28227000  1.0
  H  H13  1  0.12957000  0.71786000  0.43064000  1.0
  H  H14  1  0.62949000  0.43053000  0.71778000  1.0
  H  H15  1  0.87020000  0.28215000  0.56953000  1.0
  Pb  Pb16  1  0.24996000  0.14355000  0.85619000  1.0
  Pb  Pb17  1  0.74991000  0.85651000  0.14345000  1.0
  C  C18  1  0.87752000  0.03181000  0.76413000  1.0
  C  C19  1  0.62230000  0.23580000  0.96808000  1.0
  C  C20  1  0.12273000  0.96813000  0.23577000  1.0
  C  C21  1  0.37771000  0.76412000  0.03197000  1.0
  C  C22  1  0.53221000  0.14192000  0.53779000  1.0
  C  C23  1  0.96779000  0.46215000  0.85804000  1.0
  C  C24  1  0.46777000  0.85809000  0.46214000  1.0
  C  C25  1  0.03241000  0.53780000  0.14208000  1.0
  C  C26  1  0.59662000  0.18123000  0.40291000  1.0
  C  C27  1  0.90338000  0.59705000  0.81880000  1.0
  C  C28  1  0.40336000  0.81881000  0.59702000  1.0
  C  C29  1  0.09662000  0.40287000  0.18131000  1.0
  C  C30  1  0.52359000  0.30918000  0.35040000  1.0
  C  C31  1  0.97638000  0.64961000  0.69090000  1.0
  C  C32  1  0.47627000  0.69088000  0.64957000  1.0
  C  C33  1  0.02367000  0.35032000  0.30922000  1.0
  C  C34  1  0.38730000  0.39727000  0.43239000  1.0
  C  C35  1  0.11259000  0.56763000  0.60279000  1.0
  C  C36  1  0.61257000  0.60277000  0.56760000  1.0
  C  C37  1  0.88735000  0.43235000  0.39730000  1.0
  C  C38  1  0.32308000  0.34731000  0.56689000  1.0
  C  C39  1  0.17684000  0.43309000  0.65268000  1.0
  C  C40  1  0.67688000  0.65271000  0.43309000  1.0
  C  C41  1  0.82313000  0.56688000  0.34736000  1.0
  C  C42  1  0.31590000  0.53254000  0.38524000  1.0
  C  C43  1  0.18406000  0.61487000  0.46758000  1.0
  C  C44  1  0.68404000  0.46753000  0.61482000  1.0
  C  C45  1  0.81582000  0.38515000  0.53251000  1.0
  S  S46  1  0.70155000  0.94318000  0.81924000  1.0
  S  S47  1  0.79838000  0.18087000  0.05670000  1.0
  S  S48  1  0.29858000  0.05685000  0.18068000  1.0
  S  S49  1  0.20166000  0.81916000  0.94335000  1.0
  N  N50  1  0.00851000  0.09448000  0.72396000  1.0
  N  N51  1  0.49148000  0.27601000  0.90522000  1.0
  N  N52  1  0.99155000  0.90561000  0.27596000  1.0
  N  N53  1  0.50881000  0.72409000  0.09464000  1.0
  N  N54  1  0.39809000  0.22159000  0.61673000  1.0
  N  N55  1  0.10183000  0.38320000  0.77833000  1.0
  N  N56  1  0.60193000  0.77841000  0.38319000  1.0
  N  N57  1  0.89821000  0.61677000  0.22171000  1.0
