# generated using pymatgen
data_TiZnP2H7C6NO11
_symmetry_space_group_name_H-M   'P 1'
_cell_length_a   5.09060000
_cell_length_b   8.47397000
_cell_length_c   14.92700000
_cell_angle_alpha   83.74630000
_cell_angle_beta   83.07900000
_cell_angle_gamma   89.94000000
_symmetry_Int_Tables_number   1
_chemical_formula_structural   TiZnP2H7C6NO11
_chemical_formula_sum   'Ti2 Zn2 P4 H14 C12 N2 O22'
_cell_volume   635.37135601
_cell_formula_units_Z   2
loop_
 _symmetry_equiv_pos_site_id
 _symmetry_equiv_pos_as_xyz
  1  'x, y, z'
loop_
 _atom_site_type_symbol
 _atom_site_label
 _atom_site_symmetry_multiplicity
 _atom_site_fract_x
 _atom_site_fract_y
 _atom_site_fract_z
 _atom_site_occupancy
  Ti  Ti0  1  0.25772000  0.74312000  0.02677000  1.0
  Ti  Ti1  1  0.74228000  0.25688000  0.97322000  1.0
  Zn  Zn2  1  0.12203000  0.75310000  0.74120000  1.0
  Zn  Zn3  1  0.87797000  0.24690000  0.25880000  1.0
  P  P4  1  0.27974000  0.46081000  0.88005000  1.0
  P  P5  1  0.72026000  0.53918000  0.11995000  1.0
  P  P6  1  0.81356000  0.90371000  0.90314000  1.0
  P  P7  1  0.18644000  0.09629000  0.09686000  1.0
  H  H8  1  0.74887000  0.88966000  0.39582000  1.0
  H  H9  1  0.25113000  0.11034000  0.60418000  1.0
  H  H10  1  0.34600000  0.58801000  0.50028000  1.0
  H  H11  1  0.65400000  0.41199000  0.49972000  1.0
  H  H12  1  0.56076000  0.89152000  0.75644000  1.0
  H  H13  1  0.43925000  0.10848000  0.24356000  1.0
  H  H14  1  0.28787000  0.65227000  0.21953000  1.0
  H  H15  1  0.71214000  0.34773000  0.78047000  1.0
  H  H16  1  0.92562000  0.82420000  0.23738000  1.0
  H  H17  1  0.07438000  0.17580000  0.76262000  1.0
  H  H18  1  0.54273000  0.88895000  0.65300000  1.0
  H  H19  1  0.45727000  0.11105000  0.34699000  1.0
  H  H20  1  0.49832000  0.53100000  0.33582000  1.0
  H  H21  1  0.50168000  0.46900000  0.66418000  1.0
  C  C22  1  0.93774000  0.77717000  0.55443000  1.0
  C  C23  1  0.06225000  0.22283000  0.44557000  1.0
  C  C24  1  0.33485000  0.60841000  0.35536000  1.0
  C  C25  1  0.66515000  0.39159000  0.64464000  1.0
  C  C26  1  0.24979000  0.64005000  0.44316000  1.0
  C  C27  1  0.75021000  0.35995000  0.55684000  1.0
  C  C28  1  0.03646000  0.74151000  0.45887000  1.0
  C  C29  1  0.96354000  0.25849000  0.54113000  1.0
  C  C30  1  0.91397000  0.80964000  0.38531000  1.0
  C  C31  1  0.08602000  0.19036000  0.61469000  1.0
  C  C32  1  0.00704000  0.77558000  0.29846000  1.0
  C  C33  1  0.99296000  0.22442000  0.70154000  1.0
  N  N34  1  0.21235000  0.67682000  0.28624000  1.0
  N  N35  1  0.78766000  0.32318000  0.71376000  1.0
  O  O36  1  0.25752000  0.55032000  0.78617000  1.0
  O  O37  1  0.74249000  0.44968000  0.21383000  1.0
  O  O38  1  0.07000000  0.32561000  0.89931000  1.0
  O  O39  1  0.93000000  0.67439000  0.10069000  1.0
  O  O40  1  0.24468000  0.56858000  0.95685000  1.0
  O  O41  1  0.75533000  0.43142000  0.04315000  1.0
  O  O42  1  0.56026000  0.38618000  0.87646000  1.0
  O  O43  1  0.43974000  0.61382000  0.12354000  1.0
  O  O44  1  0.59974000  0.80365000  0.96545000  1.0
  O  O45  1  0.40026000  0.19635000  0.03455000  1.0
  O  O46  1  0.74154000  0.08063000  0.89793000  1.0
  O  O47  1  0.25846000  0.91937000  0.10207000  1.0
  O  O48  1  0.08659000  0.87610000  0.93684000  1.0
  O  O49  1  0.91341000  0.12390000  0.06316000  1.0
  O  O50  1  0.82553000  0.85368000  0.80552000  1.0
  O  O51  1  0.17447000  0.14632000  0.19448000  1.0
  O  O52  1  0.06797000  0.71007000  0.61617000  1.0
  O  O53  1  0.93203000  0.28993000  0.38383000  1.0
  O  O54  1  0.74039000  0.86532000  0.56357000  1.0
  O  O55  1  0.25961000  0.13468000  0.43643000  1.0
  O  O56  1  0.42833000  0.90728000  0.71122000  1.0
  O  O57  1  0.57167000  0.09272000  0.28878000  1.0
