# generated using pymatgen
data_AgH6C4N3
_symmetry_space_group_name_H-M   'P 1'
_cell_length_a   11.70440000
_cell_length_b   11.93650000
_cell_length_c   21.21120000
_cell_angle_alpha   90.00010000
_cell_angle_beta   90.00000000
_cell_angle_gamma   115.79200000
_symmetry_Int_Tables_number   1
_chemical_formula_structural   AgH6C4N3
_chemical_formula_sum   'Ag16 H96 C64 N48'
_cell_volume   2668.19158859
_cell_formula_units_Z   16
loop_
 _symmetry_equiv_pos_site_id
 _symmetry_equiv_pos_as_xyz
  1  'x, y, z'
loop_
 _atom_site_type_symbol
 _atom_site_label
 _atom_site_symmetry_multiplicity
 _atom_site_fract_x
 _atom_site_fract_y
 _atom_site_fract_z
 _atom_site_occupancy
  Ag  Ag0  1  0.52713000  0.58201000  0.18691000  1.0
  Ag  Ag1  1  0.97288000  0.41799000  0.68691000  1.0
  Ag  Ag2  1  0.47288000  0.41799000  0.81309000  1.0
  Ag  Ag3  1  0.02712000  0.58201000  0.31309000  1.0
  Ag  Ag4  1  0.34840000  0.68005000  0.05176000  1.0
  Ag  Ag5  1  0.15160000  0.31995000  0.55176000  1.0
  Ag  Ag6  1  0.65160000  0.31996000  0.94824000  1.0
  Ag  Ag7  1  0.84840000  0.68005000  0.44824000  1.0
  Ag  Ag8  1  0.45303000  0.90922000  0.18780000  1.0
  Ag  Ag9  1  0.04697000  0.09078000  0.68779000  1.0
  Ag  Ag10  1  0.54697000  0.09078000  0.81221000  1.0
  Ag  Ag11  1  0.95303000  0.90922000  0.31221000  1.0
  Ag  Ag12  1  0.63920000  0.81396000  0.05137000  1.0
  Ag  Ag13  1  0.86080000  0.18604000  0.55137000  1.0
  Ag  Ag14  1  0.36081000  0.18604000  0.94863000  1.0
  Ag  Ag15  1  0.13920000  0.81396000  0.44863000  1.0
  H  H16  1  0.29486000  0.52981000  0.29577000  1.0
  H  H17  1  0.20514000  0.47019000  0.79577000  1.0
  H  H18  1  0.70514000  0.47019000  0.70423000  1.0
  H  H19  1  0.79486000  0.52981000  0.20423000  1.0
  H  H20  1  0.14615000  0.74664000  0.12184000  1.0
  H  H21  1  0.35385000  0.25336000  0.62184000  1.0
  H  H22  1  0.85385000  0.25336000  0.87816000  1.0
  H  H23  1  0.64615000  0.74664000  0.37816000  1.0
  H  H24  1  0.03735000  0.68209000  0.18457000  1.0
  H  H25  1  0.46265000  0.31792000  0.68457000  1.0
  H  H26  1  0.96265000  0.31792000  0.81543000  1.0
  H  H27  1  0.53735000  0.68209000  0.31543000  1.0
  H  H28  1  0.93415000  0.58843000  0.08135000  1.0
  H  H29  1  0.56585000  0.41157000  0.58135000  1.0
  H  H30  1  0.06585000  0.41157000  0.91865000  1.0
  H  H31  1  0.43415000  0.58843000  0.41865000  1.0
  H  H32  1  0.05512000  0.53972000  0.06593000  1.0
  H  H33  1  0.44488000  0.46028000  0.56593000  1.0
  H  H34  1  0.94488000  0.46028000  0.93407000  1.0
  H  H35  1  0.55513000  0.53972000  0.43407000  1.0
  H  H36  1  0.94743000  0.47187000  0.12904000  1.0
  H  H37  1  0.55257000  0.52813000  0.62904000  1.0
  H  H38  1  0.05257000  0.52813000  0.87096000  1.0
  H  H39  1  0.44743000  0.47187000  0.37096000  1.0
  H  H40  1  0.37138000  0.11970000  0.10340000  1.0
  H  H41  1  0.12862000  0.88030000  0.60340000  1.0
  H  H42  1  0.62863000  0.88030000  0.89660000  1.0
  H  H43  1  0.87138000  0.11970000  0.39660000  1.0
  H  H44  1  0.35821000  0.80478000  0.92698000  1.0
  H  H45  1  0.14179000  0.19523000  0.42698000  1.0
  H  H46  1  0.64179000  0.19522000  0.07302000  1.0
  H  H47  1  0.85821000  0.80478000  0.57302000  1.0
  H  H48  1  0.36541000  0.94554000  0.89590000  1.0
  H  H49  1  0.13459000  0.05446000  0.39590000  1.0
  H  H50  1  0.63459000  0.05446000  0.10410000  1.0
  H  H51  1  0.86541000  0.94554000  0.60410000  1.0
  H  H52  1  0.16071000  0.76686000  0.86489000  1.0
  H  H53  1  0.33929000  0.23314000  0.36489000  1.0
  H  H54  1  0.83929000  0.23314000  0.13511000  1.0
  H  H55  1  0.66071000  0.76686000  0.63511000  1.0
  H  H56  1  0.12339000  0.72679000  0.94562000  1.0
  H  H57  1  0.37661000  0.27321000  0.44562000  1.0
  H  H58  1  0.87661000  0.27321000  0.05438000  1.0
  H  H59  1  0.62339000  0.72679000  0.55438000  1.0
  H  H60  1  0.13034000  0.86904000  0.91577000  1.0
  H  H61  1  0.36967000  0.13097000  0.41577000  1.0
  H  H62  1  0.86967000  0.13097000  0.08423000  1.0
  H  H63  1  0.63033000  0.86903000  0.58423000  1.0
  H  H64  1  0.68599000  0.96498000  0.29574000  1.0
  H  H65  1  0.81401000  0.03502000  0.79573000  1.0
  H  H66  1  0.31401000  0.03502000  0.70427000  1.0
  H  H67  1  0.18599000  0.96497000  0.20426000  1.0
  H  H68  1  0.83444000  0.74654000  0.12213000  1.0
  H  H69  1  0.66556000  0.25346000  0.62213000  1.0
  H  H70  1  0.16556000  0.25346000  0.87787000  1.0
  H  H71  1  0.33444000  0.74654000  0.37787000  1.0
  H  H72  1  0.94132000  0.80843000  0.18581000  1.0
  H  H73  1  0.55867000  0.19157000  0.68581000  1.0
  H  H74  1  0.05867000  0.19157000  0.81419000  1.0
  H  H75  1  0.44132000  0.80843000  0.31419000  1.0
  H  H76  1  0.04860000  0.90357000  0.08386000  1.0
  H  H77  1  0.45140000  0.09643000  0.58386000  1.0
  H  H78  1  0.95140000  0.09643000  0.91614000  1.0
  H  H79  1  0.54861000  0.90357000  0.41614000  1.0
  H  H80  1  0.03548000  0.02003000  0.13176000  1.0
  H  H81  1  0.46452000  0.97997000  0.63176000  1.0
  H  H82  1  0.96452000  0.97997000  0.86824000  1.0
  H  H83  1  0.53548000  0.02003000  0.36824000  1.0
  H  H84  1  0.92983000  0.95489000  0.06759000  1.0
  H  H85  1  0.57017000  0.04511000  0.56759000  1.0
  H  H86  1  0.07017000  0.04511000  0.93241000  1.0
  H  H87  1  0.42983000  0.95489000  0.43241000  1.0
  H  H88  1  0.60374000  0.36859000  0.10166000  1.0
  H  H89  1  0.89625000  0.63141000  0.60165000  1.0
  H  H90  1  0.39625000  0.63141000  0.89835000  1.0
  H  H91  1  0.10374000  0.36859000  0.39835000  1.0
  H  H92  1  0.66874000  0.56706000  0.89675000  1.0
  H  H93  1  0.83126000  0.43294000  0.39675000  1.0
  H  H94  1  0.33126000  0.43294000  0.10325000  1.0
  H  H95  1  0.16874000  0.56706000  0.60325000  1.0
  H  H96  1  0.66286000  0.70277000  0.92707000  1.0
  H  H97  1  0.83713000  0.29723000  0.42707000  1.0
  H  H98  1  0.33714000  0.29723000  0.07293000  1.0
  H  H99  1  0.16287000  0.70277000  0.57293000  1.0
  H  H100  1  0.87929000  0.75083000  0.88160000  1.0
  H  H101  1  0.62071000  0.24917000  0.38160000  1.0
  H  H102  1  0.12071000  0.24917000  0.11840000  1.0
  H  H103  1  0.37929000  0.75083000  0.61840000  1.0
  H  H104  1  0.89490000  0.64449000  0.93540000  1.0
  H  H105  1  0.60510000  0.35551000  0.43540000  1.0
  H  H106  1  0.10510000  0.35551000  0.06460000  1.0
  H  H107  1  0.39490000  0.64449000  0.56460000  1.0
  H  H108  1  0.88978000  0.78245000  0.96393000  1.0
  H  H109  1  0.61022000  0.21755000  0.46393000  1.0
  H  H110  1  0.11022000  0.21755000  0.03607000  1.0
  H  H111  1  0.38978000  0.78245000  0.53607000  1.0
  C  C112  1  0.18318000  0.62464000  0.18164000  1.0
  C  C113  1  0.31682000  0.37536000  0.68164000  1.0
  C  C114  1  0.81682000  0.37536000  0.81836000  1.0
  C  C115  1  0.68318000  0.62464000  0.31836000  1.0
  C  C116  1  0.27282000  0.56228000  0.25168000  1.0
  C  C117  1  0.22719000  0.43772000  0.75168000  1.0
  C  C118  1  0.72718000  0.43772000  0.74833000  1.0
  C  C119  1  0.77281000  0.56228000  0.24832000  1.0
  C  C120  1  0.09183000  0.66042000  0.14828000  1.0
  C  C121  1  0.40817000  0.33958000  0.64828000  1.0
  C  C122  1  0.90817000  0.33958000  0.85172000  1.0
  C  C123  1  0.59183000  0.66042000  0.35172000  1.0
  C  C124  1  0.00181000  0.55936000  0.10362000  1.0
  C  C125  1  0.49820000  0.44063000  0.60362000  1.0
  C  C126  1  0.99820000  0.44064000  0.89638000  1.0
  C  C127  1  0.50180000  0.55937000  0.39638000  1.0
  C  C128  1  0.33820000  0.92388000  0.99451000  1.0
  C  C129  1  0.16180000  0.07612000  0.49451000  1.0
  C  C130  1  0.66181000  0.07612000  0.00549000  1.0
  C  C131  1  0.83819000  0.92388000  0.50549000  1.0
  C  C132  1  0.36200000  0.04158000  0.07410000  1.0
  C  C133  1  0.13800000  0.95842000  0.57410000  1.0
  C  C134  1  0.63800000  0.95843000  0.92590000  1.0
  C  C135  1  0.86200000  0.04158000  0.42590000  1.0
  C  C136  1  0.31532000  0.87039000  0.92980000  1.0
  C  C137  1  0.18469000  0.12962000  0.42980000  1.0
  C  C138  1  0.68469000  0.12962000  0.07020000  1.0
  C  C139  1  0.81531000  0.87039000  0.57020000  1.0
  C  C140  1  0.17409000  0.80436000  0.91308000  1.0
  C  C141  1  0.32592000  0.19564000  0.41308000  1.0
  C  C142  1  0.82592000  0.19564000  0.08692000  1.0
  C  C143  1  0.67408000  0.80436000  0.58692000  1.0
  C  C144  1  0.79715000  0.86805000  0.18224000  1.0
  C  C145  1  0.70285000  0.13195000  0.68224000  1.0
  C  C146  1  0.20285000  0.13195000  0.81776000  1.0
  C  C147  1  0.29715000  0.86805000  0.31776000  1.0
  C  C148  1  0.70778000  0.93158000  0.25186000  1.0
  C  C149  1  0.79222000  0.06842000  0.75186000  1.0
  C  C150  1  0.29222000  0.06842000  0.74814000  1.0
  C  C151  1  0.20778000  0.93158000  0.24814000  1.0
  C  C152  1  0.88860000  0.83183000  0.14928000  1.0
  C  C153  1  0.61140000  0.16817000  0.64928000  1.0
  C  C154  1  0.11140000  0.16817000  0.85072000  1.0
  C  C155  1  0.38860000  0.83183000  0.35072000  1.0
  C  C156  1  0.98107000  0.93339000  0.10564000  1.0
  C  C157  1  0.51893000  0.06660000  0.60564000  1.0
  C  C158  1  0.01893000  0.06661000  0.89436000  1.0
  C  C159  1  0.48107000  0.93339000  0.39436000  1.0
  C  C160  1  0.66492000  0.57700000  0.99618000  1.0
  C  C161  1  0.83508000  0.42300000  0.49618000  1.0
  C  C162  1  0.33508000  0.42300000  0.00382000  1.0
  C  C163  1  0.16492000  0.57700000  0.50382000  1.0
  C  C164  1  0.62073000  0.45014000  0.07338000  1.0
  C  C165  1  0.87926000  0.54987000  0.57338000  1.0
  C  C166  1  0.37926000  0.54987000  0.92662000  1.0
  C  C167  1  0.12073000  0.45013000  0.42662000  1.0
  C  C168  1  0.70632000  0.63835000  0.93375000  1.0
  C  C169  1  0.79368000  0.36165000  0.43375000  1.0
  C  C170  1  0.29368000  0.36165000  0.06625000  1.0
  C  C171  1  0.20632000  0.63835000  0.56625000  1.0
  C  C172  1  0.85102000  0.70825000  0.92840000  1.0
  C  C173  1  0.64897000  0.29175000  0.42840000  1.0
  C  C174  1  0.14898000  0.29175000  0.07160000  1.0
  C  C175  1  0.35102000  0.70825000  0.57160000  1.0
  N  N176  1  0.28897000  0.62860000  0.15538000  1.0
  N  N177  1  0.21103000  0.37140000  0.65538000  1.0
  N  N178  1  0.71103000  0.37140000  0.84462000  1.0
  N  N179  1  0.78897000  0.62860000  0.34462000  1.0
  N  N180  1  0.34681000  0.58813000  0.20064000  1.0
  N  N181  1  0.15320000  0.41187000  0.70064000  1.0
  N  N182  1  0.65320000  0.41187000  0.79936000  1.0
  N  N183  1  0.84680000  0.58813000  0.29936000  1.0
  N  N184  1  0.16952000  0.58322000  0.24221000  1.0
  N  N185  1  0.33048000  0.41678000  0.74221000  1.0
  N  N186  1  0.83048000  0.41678000  0.75779000  1.0
  N  N187  1  0.66952000  0.58322000  0.25779000  1.0
  N  N188  1  0.35368000  0.86499000  0.04516000  1.0
  N  N189  1  0.14632000  0.13501000  0.54516000  1.0
  N  N190  1  0.64633000  0.13501000  0.95484000  1.0
  N  N191  1  0.85367000  0.86499000  0.45484000  1.0
  N  N192  1  0.36893000  0.94048000  0.09645000  1.0
  N  N193  1  0.13107000  0.05952000  0.59645000  1.0
  N  N194  1  0.63108000  0.05952000  0.90355000  1.0
  N  N195  1  0.86893000  0.94048000  0.40355000  1.0
  N  N196  1  0.34303000  0.03603000  0.01088000  1.0
  N  N197  1  0.15697000  0.96397000  0.51088000  1.0
  N  N198  1  0.65697000  0.96397000  0.98912000  1.0
  N  N199  1  0.84303000  0.03603000  0.48912000  1.0
  N  N200  1  0.69101000  0.86309000  0.15596000  1.0
  N  N201  1  0.80899000  0.13691000  0.65596000  1.0
  N  N202  1  0.30899000  0.13691000  0.84404000  1.0
  N  N203  1  0.19101000  0.86309000  0.34404000  1.0
  N  N204  1  0.63341000  0.90436000  0.20091000  1.0
  N  N205  1  0.86659000  0.09564000  0.70090000  1.0
  N  N206  1  0.36659000  0.09564000  0.79910000  1.0
  N  N207  1  0.13341000  0.90435000  0.29909000  1.0
  N  N208  1  0.81109000  0.91071000  0.24254000  1.0
  N  N209  1  0.68891000  0.08929000  0.74254000  1.0
  N  N210  1  0.18891000  0.08928000  0.75746000  1.0
  N  N211  1  0.31109000  0.91071000  0.25746000  1.0
  N  N212  1  0.63632000  0.63003000  0.04550000  1.0
  N  N213  1  0.86367000  0.36997000  0.54550000  1.0
  N  N214  1  0.36367000  0.36997000  0.95450000  1.0
  N  N215  1  0.13632000  0.63003000  0.45450000  1.0
  N  N216  1  0.60805000  0.54866000  0.09528000  1.0
  N  N217  1  0.89195000  0.45134000  0.59528000  1.0
  N  N218  1  0.39195000  0.45134000  0.90472000  1.0
  N  N219  1  0.10805000  0.54866000  0.40472000  1.0
  N  N220  1  0.65599000  0.46304000  0.01191000  1.0
  N  N221  1  0.84400000  0.53696000  0.51190000  1.0
  N  N222  1  0.34400000  0.53696000  0.98810000  1.0
  N  N223  1  0.15599000  0.46304000  0.48810000  1.0
