# generated using pymatgen
data_CdH14C12(NO)4
_symmetry_space_group_name_H-M   'P 1'
_cell_length_a   8.89755000
_cell_length_b   11.94690000
_cell_length_c   13.21500000
_cell_angle_alpha   90.00000000
_cell_angle_beta   90.00000000
_cell_angle_gamma   90.00000000
_symmetry_Int_Tables_number   1
_chemical_formula_structural   CdH14C12(NO)4
_chemical_formula_sum   'Cd4 H56 C48 N16 O16'
_cell_volume   1404.72992136
_cell_formula_units_Z   4
loop_
 _symmetry_equiv_pos_site_id
 _symmetry_equiv_pos_as_xyz
  1  'x, y, z'
loop_
 _atom_site_type_symbol
 _atom_site_label
 _atom_site_symmetry_multiplicity
 _atom_site_fract_x
 _atom_site_fract_y
 _atom_site_fract_z
 _atom_site_occupancy
  Cd  Cd0  1  0.32608000  0.74710000  0.02125000  1.0
  Cd  Cd1  1  0.17392000  0.25290000  0.52125000  1.0
  Cd  Cd2  1  0.82608000  0.75290000  0.97875000  1.0
  Cd  Cd3  1  0.67392000  0.24710000  0.47875000  1.0
  H  H4  1  0.13626000  0.51021000  0.98088000  1.0
  H  H5  1  0.36375000  0.48979000  0.48087000  1.0
  H  H6  1  0.63625000  0.98979000  0.01913000  1.0
  H  H7  1  0.86375000  0.01021000  0.51913000  1.0
  H  H8  1  0.21753000  0.34887000  0.83749000  1.0
  H  H9  1  0.28247000  0.65113000  0.33749000  1.0
  H  H10  1  0.71753000  0.15113000  0.16251000  1.0
  H  H11  1  0.78247000  0.84886000  0.66251000  1.0
  H  H12  1  0.53626000  0.61157000  0.83529000  1.0
  H  H13  1  0.96374000  0.38843000  0.33529000  1.0
  H  H14  1  0.03625000  0.88843000  0.16471000  1.0
  H  H15  1  0.46374000  0.11157000  0.66471000  1.0
  H  H16  1  0.56227000  0.46991000  0.70285000  1.0
  H  H17  1  0.93773000  0.53009000  0.20285000  1.0
  H  H18  1  0.06227000  0.03008000  0.29715000  1.0
  H  H19  1  0.43773000  0.96991000  0.79715000  1.0
  H  H20  1  0.65082000  0.34633000  0.84130000  1.0
  H  H21  1  0.84918000  0.65367000  0.34130000  1.0
  H  H22  1  0.15082000  0.15367000  0.15870000  1.0
  H  H23  1  0.34918000  0.84633000  0.65870000  1.0
  H  H24  1  0.64705000  0.27346000  0.72303000  1.0
  H  H25  1  0.85295000  0.72654000  0.22303000  1.0
  H  H26  1  0.14705000  0.22654000  0.27697000  1.0
  H  H27  1  0.35295000  0.77346000  0.77697000  1.0
  H  H28  1  0.50461000  0.24798000  0.81439000  1.0
  H  H29  1  0.99539000  0.75202000  0.31439000  1.0
  H  H30  1  0.00461000  0.25202000  0.18561000  1.0
  H  H31  1  0.49539000  0.74798000  0.68561000  1.0
  H  H32  1  0.21866000  0.18655000  0.94864000  1.0
  H  H33  1  0.28134000  0.81346000  0.44864000  1.0
  H  H34  1  0.71866000  0.31345000  0.05136000  1.0
  H  H35  1  0.78134000  0.68655000  0.55136000  1.0
  H  H36  1  0.37166000  0.02098000  0.05477000  1.0
  H  H37  1  0.12834000  0.97902000  0.55477000  1.0
  H  H38  1  0.87166000  0.47902000  0.94523000  1.0
  H  H39  1  0.62834000  0.52098000  0.44523000  1.0
  H  H40  1  0.06588000  0.86703000  0.85425000  1.0
  H  H41  1  0.43413000  0.13297000  0.35425000  1.0
  H  H42  1  0.56587000  0.63297000  0.14575000  1.0
  H  H43  1  0.93412000  0.36703000  0.64575000  1.0
  H  H44  1  0.93891000  0.02828000  0.77812000  1.0
  H  H45  1  0.56109000  0.97172000  0.27812000  1.0
  H  H46  1  0.43891000  0.47172000  0.22188000  1.0
  H  H47  1  0.06109000  0.52828000  0.72188000  1.0
  H  H48  1  0.84564000  0.14636000  0.91769000  1.0
  H  H49  1  0.65436000  0.85364000  0.41769000  1.0
  H  H50  1  0.34564000  0.35364000  0.08231000  1.0
  H  H51  1  0.15436000  0.64636000  0.58231000  1.0
  H  H52  1  0.83881000  0.21849000  0.79939000  1.0
  H  H53  1  0.66119000  0.78151000  0.29939000  1.0
  H  H54  1  0.33881000  0.28151000  0.20061000  1.0
  H  H55  1  0.16119000  0.71849000  0.70061000  1.0
  H  H56  1  0.98028000  0.25266000  0.88876000  1.0
  H  H57  1  0.51972000  0.74734000  0.38876000  1.0
  H  H58  1  0.48028000  0.24734000  0.11124000  1.0
  H  H59  1  0.01972000  0.75266000  0.61124000  1.0
  C  C60  1  0.23154000  0.50655000  0.93011000  1.0
  C  C61  1  0.26846000  0.49345000  0.43011000  1.0
  C  C62  1  0.73153000  0.99345000  0.06989000  1.0
  C  C63  1  0.76847000  0.00655000  0.56989000  1.0
  C  C64  1  0.27052000  0.42608000  0.86089000  1.0
  C  C65  1  0.22949000  0.57392000  0.36089000  1.0
  C  C66  1  0.77051000  0.07392000  0.13911000  1.0
  C  C67  1  0.72948000  0.92607000  0.63911000  1.0
  C  C68  1  0.43585000  0.56477000  0.85530000  1.0
  C  C69  1  0.06415000  0.43523000  0.35530000  1.0
  C  C70  1  0.93585000  0.93523000  0.14470000  1.0
  C  C71  1  0.56415000  0.06477000  0.64470000  1.0
  C  C72  1  0.48562000  0.40704000  0.73528000  1.0
  C  C73  1  0.01437000  0.59296000  0.23528000  1.0
  C  C74  1  0.98563000  0.09296000  0.26471000  1.0
  C  C75  1  0.51438000  0.90704000  0.76472000  1.0
  C  C76  1  0.38254000  0.36423000  0.64981000  1.0
  C  C77  1  0.11746000  0.63577000  0.14981000  1.0
  C  C78  1  0.88254000  0.13577000  0.35019000  1.0
  C  C79  1  0.61746000  0.86423000  0.85019000  1.0
  C  C80  1  0.57802000  0.31251000  0.78175000  1.0
  C  C81  1  0.92198000  0.68749000  0.28175000  1.0
  C  C82  1  0.07802000  0.18749000  0.21825000  1.0
  C  C83  1  0.42198000  0.81251000  0.71825000  1.0
  C  C84  1  0.21007000  0.09626000  0.94565000  1.0
  C  C85  1  0.28993000  0.90374000  0.44565000  1.0
  C  C86  1  0.71007000  0.40374000  0.05435000  1.0
  C  C87  1  0.78993000  0.59626000  0.55435000  1.0
  C  C88  1  0.28618000  0.01379000  0.99673000  1.0
  C  C89  1  0.21382000  0.98621000  0.49673000  1.0
  C  C90  1  0.78618000  0.48621000  0.00327000  1.0
  C  C91  1  0.71382000  0.51379000  0.50327000  1.0
  C  C92  1  0.13006000  0.93042000  0.89444000  1.0
  C  C93  1  0.36994000  0.06958000  0.39444000  1.0
  C  C94  1  0.63006000  0.56958000  0.10556000  1.0
  C  C95  1  0.86994000  0.43042000  0.60556000  1.0
  C  C96  1  0.01216000  0.09493000  0.80768000  1.0
  C  C97  1  0.48784000  0.90507000  0.30768000  1.0
  C  C98  1  0.51216000  0.40506000  0.19232000  1.0
  C  C99  1  0.98784000  0.59493000  0.69232000  1.0
  C  C100  1  0.10429000  0.14243000  0.71780000  1.0
  C  C101  1  0.39570000  0.85757000  0.21781000  1.0
  C  C102  1  0.60430000  0.35757000  0.28219000  1.0
  C  C103  1  0.89570000  0.64243000  0.78219000  1.0
  C  C104  1  0.91330000  0.18373000  0.85703000  1.0
  C  C105  1  0.58670000  0.81627000  0.35703000  1.0
  C  C106  1  0.41330000  0.31627000  0.14297000  1.0
  C  C107  1  0.08670000  0.68373000  0.64297000  1.0
  N  N108  1  0.33528000  0.59252000  0.92568000  1.0
  N  N109  1  0.16473000  0.40748000  0.42568000  1.0
  N  N110  1  0.83527000  0.90748000  0.07432000  1.0
  N  N111  1  0.66473000  0.09252000  0.57432000  1.0
  N  N112  1  0.39926000  0.46484000  0.81359000  1.0
  N  N113  1  0.10074000  0.53517000  0.31359000  1.0
  N  N114  1  0.89926000  0.03516000  0.18641000  1.0
  N  N115  1  0.60074000  0.96483000  0.68641000  1.0
  N  N116  1  0.23526000  0.91083000  0.96402000  1.0
  N  N117  1  0.26474000  0.08917000  0.46402000  1.0
  N  N118  1  0.73526000  0.58916000  0.03598000  1.0
  N  N119  1  0.76474000  0.41083000  0.53598000  1.0
  N  N120  1  0.11104000  0.04209000  0.88180000  1.0
  N  N121  1  0.38896000  0.95791000  0.38180000  1.0
  N  N122  1  0.61104000  0.45791000  0.11820000  1.0
  N  N123  1  0.88896000  0.54209000  0.61820000  1.0
  O  O124  1  0.44185000  0.30294000  0.58174000  1.0
  O  O125  1  0.05815000  0.69706000  0.08174000  1.0
  O  O126  1  0.94185000  0.19706000  0.41826000  1.0
  O  O127  1  0.55815000  0.80294000  0.91826000  1.0
  O  O128  1  0.24474000  0.38993000  0.65166000  1.0
  O  O129  1  0.25526000  0.61007000  0.15166000  1.0
  O  O130  1  0.74475000  0.11007000  0.34834000  1.0
  O  O131  1  0.75526000  0.88993000  0.84834000  1.0
  O  O132  1  0.24417000  0.13229000  0.71757000  1.0
  O  O133  1  0.25583000  0.86771000  0.21757000  1.0
  O  O134  1  0.74417000  0.36771000  0.28243000  1.0
  O  O135  1  0.75583000  0.63229000  0.78243000  1.0
  O  O136  1  0.02372000  0.18862000  0.64861000  1.0
  O  O137  1  0.47628000  0.81138000  0.14861000  1.0
  O  O138  1  0.52372000  0.31138000  0.35139000  1.0
  O  O139  1  0.97628000  0.68862000  0.85139000  1.0
