# generated using pymatgen
data_ZnH4(CN)8
_symmetry_space_group_name_H-M   'P 1'
_cell_length_a   5.61203000
_cell_length_b   9.87958000
_cell_length_c   18.38190000
_cell_angle_alpha   90.00050000
_cell_angle_beta   90.00040000
_cell_angle_gamma   100.30500000
_symmetry_Int_Tables_number   1
_chemical_formula_structural   ZnH4(CN)8
_chemical_formula_sum   'Zn4 H16 C32 N32'
_cell_volume   1002.73536565
_cell_formula_units_Z   4
loop_
 _symmetry_equiv_pos_site_id
 _symmetry_equiv_pos_as_xyz
  1  'x, y, z'
loop_
 _atom_site_type_symbol
 _atom_site_label
 _atom_site_symmetry_multiplicity
 _atom_site_fract_x
 _atom_site_fract_y
 _atom_site_fract_z
 _atom_site_occupancy
  Zn  Zn0  1  0.72049000  0.30094000  0.15132000  1.0
  Zn  Zn1  1  0.27951000  0.19906000  0.65132000  1.0
  Zn  Zn2  1  0.27951000  0.69906000  0.84868000  1.0
  Zn  Zn3  1  0.72049000  0.80095000  0.34868000  1.0
  H  H4  1  0.20336000  0.42579000  0.90608000  1.0
  H  H5  1  0.79663000  0.07421000  0.40608000  1.0
  H  H6  1  0.79665000  0.57421000  0.09392000  1.0
  H  H7  1  0.20337000  0.92579000  0.59392000  1.0
  H  H8  1  0.72513000  0.29225000  0.76218000  1.0
  H  H9  1  0.27487000  0.20777000  0.26219000  1.0
  H  H10  1  0.27486000  0.70775000  0.23781000  1.0
  H  H11  1  0.72513000  0.79224000  0.73781000  1.0
  H  H12  1  0.87853000  0.17151000  0.86466000  1.0
  H  H13  1  0.12147000  0.32850000  0.36466000  1.0
  H  H14  1  0.12145000  0.82847000  0.13534000  1.0
  H  H15  1  0.87854000  0.67151000  0.63534000  1.0
  H  H16  1  0.69567000  0.17487000  0.98776000  1.0
  H  H17  1  0.30434000  0.32513000  0.48776000  1.0
  H  H18  1  0.30432000  0.82511000  0.01224000  1.0
  H  H19  1  0.69568000  0.67488000  0.51223000  1.0
  C  C20  1  0.44506000  0.30681000  0.95541000  1.0
  C  C21  1  0.55494000  0.19319000  0.45541000  1.0
  C  C22  1  0.55494000  0.69319000  0.04459000  1.0
  C  C23  1  0.44507000  0.80681000  0.54459000  1.0
  C  C24  1  0.35678000  0.37416000  0.89690000  1.0
  C  C25  1  0.64321000  0.12584000  0.39689000  1.0
  C  C26  1  0.64322000  0.62584000  0.10311000  1.0
  C  C27  1  0.35679000  0.87416000  0.60311000  1.0
  C  C28  1  0.45478000  0.36884000  0.82729000  1.0
  C  C29  1  0.54522000  0.13116000  0.32729000  1.0
  C  C30  1  0.54521000  0.63115000  0.17271000  1.0
  C  C31  1  0.45479000  0.86884000  0.67271000  1.0
  C  C32  1  0.64637000  0.29702000  0.81618000  1.0
  C  C33  1  0.35362000  0.20298000  0.31618000  1.0
  C  C34  1  0.35360000  0.70297000  0.18382000  1.0
  C  C35  1  0.64638000  0.79701000  0.68382000  1.0
  C  C36  1  0.73243000  0.22872000  0.87424000  1.0
  C  C37  1  0.26757000  0.27129000  0.37424000  1.0
  C  C38  1  0.26755000  0.77127000  0.12576000  1.0
  C  C39  1  0.73244000  0.72871000  0.62576000  1.0
  C  C40  1  0.63130000  0.23196000  0.94349000  1.0
  C  C41  1  0.36870000  0.26804000  0.44350000  1.0
  C  C42  1  0.36869000  0.76803000  0.05651000  1.0
  C  C43  1  0.63131000  0.73197000  0.55650000  1.0
  C  C44  1  0.32459000  0.31120000  0.02565000  1.0
  C  C45  1  0.67540000  0.18879000  0.52565000  1.0
  C  C46  1  0.67541000  0.68880000  0.97435000  1.0
  C  C47  1  0.32460000  0.81121000  0.47435000  1.0
  C  C48  1  0.34429000  0.43347000  0.76766000  1.0
  C  C49  1  0.65570000  0.06653000  0.26765000  1.0
  C  C50  1  0.65570000  0.56653000  0.23234000  1.0
  C  C51  1  0.34430000  0.93347000  0.73234000  1.0
  N  N52  1  0.41489000  0.29872000  0.09366000  1.0
  N  N53  1  0.58511000  0.20128000  0.59366000  1.0
  N  N54  1  0.58512000  0.70129000  0.90634000  1.0
  N  N55  1  0.41489000  0.79872000  0.40634000  1.0
  N  N56  1  0.23512000  0.30590000  0.14075000  1.0
  N  N57  1  0.76487000  0.19410000  0.64075000  1.0
  N  N58  1  0.76488000  0.69410000  0.85925000  1.0
  N  N59  1  0.23513000  0.80591000  0.35925000  1.0
  N  N60  1  0.04577000  0.32291000  0.10195000  1.0
  N  N61  1  0.95423000  0.17709000  0.60195000  1.0
  N  N62  1  0.95423000  0.67709000  0.89805000  1.0
  N  N63  1  0.04578000  0.82293000  0.39805000  1.0
  N  N64  1  0.09301000  0.32738000  0.03070000  1.0
  N  N65  1  0.90699000  0.17261000  0.53070000  1.0
  N  N66  1  0.90699000  0.67262000  0.96930000  1.0
  N  N67  1  0.09301000  0.82739000  0.46930000  1.0
  N  N68  1  0.25896000  0.55213000  0.77267000  1.0
  N  N69  1  0.74104000  0.94788000  0.27267000  1.0
  N  N70  1  0.74104000  0.44787000  0.22733000  1.0
  N  N71  1  0.25897000  0.05212000  0.72733000  1.0
  N  N72  1  0.15539000  0.57241000  0.70777000  1.0
  N  N73  1  0.84460000  0.92759000  0.20777000  1.0
  N  N74  1  0.84460000  0.42759000  0.29223000  1.0
  N  N75  1  0.15540000  0.07241000  0.79223000  1.0
  N  N76  1  0.17638000  0.47147000  0.66458000  1.0
  N  N77  1  0.82360000  0.02853000  0.16458000  1.0
  N  N78  1  0.82361000  0.52853000  0.33542000  1.0
  N  N79  1  0.17639000  0.97147000  0.83542000  1.0
  N  N80  1  0.29402000  0.38225000  0.70042000  1.0
  N  N81  1  0.70597000  0.11775000  0.20042000  1.0
  N  N82  1  0.70598000  0.61775000  0.29958000  1.0
  N  N83  1  0.29403000  0.88225000  0.79958000  1.0
