# generated using pymatgen
data_CuSiH20C14SN2Cl2O
_symmetry_space_group_name_H-M   'P 1'
_cell_length_a   11.72260000
_cell_length_b   11.72270000
_cell_length_c   15.19520000
_cell_angle_alpha   90.00040000
_cell_angle_beta   89.99930000
_cell_angle_gamma   89.99970000
_symmetry_Int_Tables_number   1
_chemical_formula_structural   CuSiH20C14SN2Cl2O
_chemical_formula_sum   'Cu4 Si4 H80 C56 S4 N8 Cl8 O4'
_cell_volume   2088.13233116
_cell_formula_units_Z   4
loop_
 _symmetry_equiv_pos_site_id
 _symmetry_equiv_pos_as_xyz
  1  'x, y, z'
loop_
 _atom_site_type_symbol
 _atom_site_label
 _atom_site_symmetry_multiplicity
 _atom_site_fract_x
 _atom_site_fract_y
 _atom_site_fract_z
 _atom_site_occupancy
  Cu  Cu0  1  0.67566000  0.04704000  0.53823000  1.0
  Cu  Cu1  1  0.32434000  0.95296000  0.03823000  1.0
  Cu  Cu2  1  0.04704000  0.32435000  0.28823000  1.0
  Cu  Cu3  1  0.95297000  0.67565000  0.78823000  1.0
  Si  Si4  1  0.15932000  0.19607000  0.69306000  1.0
  Si  Si5  1  0.84068000  0.80394000  0.19306000  1.0
  Si  Si6  1  0.19608000  0.84069000  0.44305000  1.0
  Si  Si7  1  0.80392000  0.15932000  0.94306000  1.0
  H  H8  1  0.57889000  0.09834000  0.70806000  1.0
  H  H9  1  0.42111000  0.90165000  0.20806000  1.0
  H  H10  1  0.09835000  0.42111000  0.45806000  1.0
  H  H11  1  0.90166000  0.57889000  0.95806000  1.0
  H  H12  1  0.39311000  0.15273000  0.77341000  1.0
  H  H13  1  0.60689000  0.84727000  0.27341000  1.0
  H  H14  1  0.15274000  0.60689000  0.52341000  1.0
  H  H15  1  0.84727000  0.39311000  0.02341000  1.0
  H  H16  1  0.25906000  0.17056000  0.50752000  1.0
  H  H17  1  0.74094000  0.82943000  0.00751000  1.0
  H  H18  1  0.17057000  0.74094000  0.25751000  1.0
  H  H19  1  0.82942000  0.25907000  0.75751000  1.0
  H  H20  1  0.44857000  0.10526000  0.45535000  1.0
  H  H21  1  0.55143000  0.89473000  0.95534000  1.0
  H  H22  1  0.10525000  0.55143000  0.20535000  1.0
  H  H23  1  0.89474000  0.44857000  0.70535000  1.0
  H  H24  1  0.09317000  0.36749000  0.61503000  1.0
  H  H25  1  0.90683000  0.63250000  0.11503000  1.0
  H  H26  1  0.36751000  0.90684000  0.36502000  1.0
  H  H27  1  0.63250000  0.09317000  0.86502000  1.0
  H  H28  1  0.97983000  0.26782000  0.62539000  1.0
  H  H29  1  0.02017000  0.73218000  0.12539000  1.0
  H  H30  1  0.26783000  0.02017000  0.37538000  1.0
  H  H31  1  0.73218000  0.97983000  0.87539000  1.0
  H  H32  1  0.08515000  0.24624000  0.54399000  1.0
  H  H33  1  0.91486000  0.75375000  0.04398000  1.0
  H  H34  1  0.24627000  0.91486000  0.29398000  1.0
  H  H35  1  0.75375000  0.08514000  0.79398000  1.0
  H  H36  1  0.21031000  0.35765000  0.79070000  1.0
  H  H37  1  0.78968000  0.64235000  0.29068000  1.0
  H  H38  1  0.35766000  0.78968000  0.54068000  1.0
  H  H39  1  0.64233000  0.21032000  0.04068000  1.0
  H  H40  1  0.22910000  0.22391000  0.84639000  1.0
  H  H41  1  0.77088000  0.77608000  0.34638000  1.0
  H  H42  1  0.22392000  0.77089000  0.59637000  1.0
  H  H43  1  0.77606000  0.22912000  0.09638000  1.0
  H  H44  1  0.09034000  0.28232000  0.83182000  1.0
  H  H45  1  0.90965000  0.71768000  0.33181000  1.0
  H  H46  1  0.28233000  0.90965000  0.58181000  1.0
  H  H47  1  0.71766000  0.09035000  0.08181000  1.0
  H  H48  1  0.25632000  0.97662000  0.76473000  1.0
  H  H49  1  0.74368000  0.02339000  0.26471000  1.0
  H  H50  1  0.97664000  0.74368000  0.51471000  1.0
  H  H51  1  0.02337000  0.25632000  0.01473000  1.0
  H  H52  1  0.17173000  0.78635000  0.79403000  1.0
  H  H53  1  0.82827000  0.21366000  0.29402000  1.0
  H  H54  1  0.78636000  0.82827000  0.54402000  1.0
  H  H55  1  0.21365000  0.17173000  0.04402000  1.0
  H  H56  1  0.85035000  0.89337000  0.71662000  1.0
  H  H57  1  0.14966000  0.10663000  0.21662000  1.0
  H  H58  1  0.89337000  0.14966000  0.46661000  1.0
  H  H59  1  0.10662000  0.85034000  0.96662000  1.0
  H  H60  1  0.92186000  0.08411000  0.67508000  1.0
  H  H61  1  0.07814000  0.91589000  0.17508000  1.0
  H  H62  1  0.08411000  0.07815000  0.42507000  1.0
  H  H63  1  0.91588000  0.92186000  0.92508000  1.0
  H  H64  1  0.66906000  0.67741000  0.59152000  1.0
  H  H65  1  0.33094000  0.32258000  0.09152000  1.0
  H  H66  1  0.67742000  0.33094000  0.34153000  1.0
  H  H67  1  0.32258000  0.66906000  0.84153000  1.0
  H  H68  1  0.56321000  0.62329000  0.66585000  1.0
  H  H69  1  0.43679000  0.37670000  0.16585000  1.0
  H  H70  1  0.62329000  0.43679000  0.41585000  1.0
  H  H71  1  0.37671000  0.56321000  0.91585000  1.0
  H  H72  1  0.69520000  0.68187000  0.70909000  1.0
  H  H73  1  0.30480000  0.31812000  0.20909000  1.0
  H  H74  1  0.68188000  0.30480000  0.45909000  1.0
  H  H75  1  0.31812000  0.69520000  0.95909000  1.0
  H  H76  1  0.48327000  0.90835000  0.78715000  1.0
  H  H77  1  0.51673000  0.09164000  0.28715000  1.0
  H  H78  1  0.90836000  0.51674000  0.53714000  1.0
  H  H79  1  0.09164000  0.48326000  0.03714000  1.0
  H  H80  1  0.59549000  0.80740000  0.81365000  1.0
  H  H81  1  0.40451000  0.19259000  0.31365000  1.0
  H  H82  1  0.80741000  0.40452000  0.56365000  1.0
  H  H83  1  0.19259000  0.59548000  0.06365000  1.0
  H  H84  1  0.45681000  0.75800000  0.77745000  1.0
  H  H85  1  0.54318000  0.24199000  0.27745000  1.0
  H  H86  1  0.75801000  0.54320000  0.52745000  1.0
  H  H87  1  0.24199000  0.45680000  0.02745000  1.0
  C  C88  1  0.50480000  0.11382000  0.66666667  1.0
  C  C89  1  0.49519000  0.88617000  0.16667000  1.0
  C  C90  1  0.11383000  0.49521000  0.41667000  1.0
  C  C91  1  0.88618000  0.50479000  0.91668000  1.0
  C  C92  1  0.40017000  0.14578000  0.70197000  1.0
  C  C93  1  0.59983000  0.85422000  0.20196000  1.0
  C  C94  1  0.14578000  0.59984000  0.45196000  1.0
  C  C95  1  0.85422000  0.40017000  0.95196000  1.0
  C  C96  1  0.30637000  0.16577000  0.64651000  1.0
  C  C97  1  0.69363000  0.83423000  0.14651000  1.0
  C  C98  1  0.16577000  0.69364000  0.39650000  1.0
  C  C99  1  0.83423000  0.30637000  0.89651000  1.0
  C  C100  1  0.32580000  0.15377000  0.55588000  1.0
  C  C101  1  0.67421000  0.84623000  0.05588000  1.0
  C  C102  1  0.15377000  0.67421000  0.30587000  1.0
  C  C103  1  0.84622000  0.32579000  0.80588000  1.0
  C  C104  1  0.43234000  0.11966000  0.52503000  1.0
  C  C105  1  0.56766000  0.88033000  0.02503000  1.0
  C  C106  1  0.11966000  0.56767000  0.27502000  1.0
  C  C107  1  0.88033000  0.43234000  0.77503000  1.0
  C  C108  1  0.07139000  0.27638000  0.61160000  1.0
  C  C109  1  0.92862000  0.72362000  0.11160000  1.0
  C  C110  1  0.27639000  0.92862000  0.36159000  1.0
  C  C111  1  0.72362000  0.07138000  0.86160000  1.0
  C  C112  1  0.17436000  0.27205000  0.80081000  1.0
  C  C113  1  0.82563000  0.72795000  0.30080000  1.0
  C  C114  1  0.27206000  0.82563000  0.55079000  1.0
  C  C115  1  0.72793000  0.17437000  0.05080000  1.0
  C  C116  1  0.09716000  0.04942000  0.71594000  1.0
  C  C117  1  0.90285000  0.95058000  0.21593000  1.0
  C  C118  1  0.04944000  0.90285000  0.46593000  1.0
  C  C119  1  0.95056000  0.09716000  0.96594000  1.0
  C  C120  1  0.16619000  0.96247000  0.75058000  1.0
  C  C121  1  0.83381000  0.03753000  0.25057000  1.0
  C  C122  1  0.96248000  0.83382000  0.50057000  1.0
  C  C123  1  0.03752000  0.16619000  0.00058000  1.0
  C  C124  1  0.12028000  0.85582000  0.76830000  1.0
  C  C125  1  0.87972000  0.14419000  0.26829000  1.0
  C  C126  1  0.85583000  0.87972000  0.51829000  1.0
  C  C127  1  0.14417000  0.12028000  0.01829000  1.0
  C  C128  1  0.94047000  0.91443000  0.72421000  1.0
  C  C129  1  0.05954000  0.08557000  0.22421000  1.0
  C  C130  1  0.91444000  0.05954000  0.47420000  1.0
  C  C131  1  0.08555000  0.94046000  0.97421000  1.0
  C  C132  1  0.98191000  0.02240000  0.70254000  1.0
  C  C133  1  0.01810000  0.97760000  0.20254000  1.0
  C  C134  1  0.02241000  0.01810000  0.45253000  1.0
  C  C135  1  0.97758000  0.98190000  0.95254000  1.0
  C  C136  1  0.63056000  0.68733000  0.65681000  1.0
  C  C137  1  0.36944000  0.31267000  0.15681000  1.0
  C  C138  1  0.68733000  0.36944000  0.40682000  1.0
  C  C139  1  0.31267000  0.63056000  0.90682000  1.0
  C  C140  1  0.52144000  0.82532000  0.77152000  1.0
  C  C141  1  0.47855000  0.17467000  0.27152000  1.0
  C  C142  1  0.82533000  0.47857000  0.52151000  1.0
  C  C143  1  0.17467000  0.52143000  0.02151000  1.0
  S  S144  1  0.56860000  0.82860000  0.65865000  1.0
  S  S145  1  0.43140000  0.17140000  0.15865000  1.0
  S  S146  1  0.82860000  0.43141000  0.40865000  1.0
  S  S147  1  0.17140000  0.56859000  0.90865000  1.0
  N  N148  1  0.52033000  0.09898000  0.57950000  1.0
  N  N149  1  0.47967000  0.90102000  0.07949000  1.0
  N  N150  1  0.09898000  0.47967000  0.32950000  1.0
  N  N151  1  0.90102000  0.52033000  0.82950000  1.0
  N  N152  1  0.00900000  0.83220000  0.75624000  1.0
  N  N153  1  0.99100000  0.16780000  0.25623000  1.0
  N  N154  1  0.83221000  0.99100000  0.50623000  1.0
  N  N155  1  0.16779000  0.00900000  0.00623000  1.0
  Cl  Cl156  1  0.59950000  0.93773000  0.42711000  1.0
  Cl  Cl157  1  0.40050000  0.06227000  0.92712000  1.0
  Cl  Cl158  1  0.93774000  0.40050000  0.17711000  1.0
  Cl  Cl159  1  0.06226000  0.59950000  0.67711000  1.0
  Cl  Cl160  1  0.75188000  0.20329000  0.60827000  1.0
  Cl  Cl161  1  0.24812000  0.79671000  0.10827000  1.0
  Cl  Cl162  1  0.20329000  0.24813000  0.35827000  1.0
  Cl  Cl163  1  0.79671000  0.75187000  0.85827000  1.0
  O  O164  1  0.66928000  0.90984000  0.65556000  1.0
  O  O165  1  0.33072000  0.09015000  0.15556000  1.0
  O  O166  1  0.90985000  0.33073000  0.40556000  1.0
  O  O167  1  0.09016000  0.66927000  0.90557000  1.0
