# generated using pymatgen
data_CdH24C36(BrN3)2
_symmetry_space_group_name_H-M   'P 1'
_cell_length_a   8.04387000
_cell_length_b   10.16140000
_cell_length_c   22.74500000
_cell_angle_alpha   89.99990000
_cell_angle_beta   91.20560000
_cell_angle_gamma   89.99990000
_symmetry_Int_Tables_number   1
_chemical_formula_structural   CdH24C36(BrN3)2
_chemical_formula_sum   'Cd2 H48 C72 Br4 N12'
_cell_volume   1858.69607688
_cell_formula_units_Z   2
loop_
 _symmetry_equiv_pos_site_id
 _symmetry_equiv_pos_as_xyz
  1  'x, y, z'
loop_
 _atom_site_type_symbol
 _atom_site_label
 _atom_site_symmetry_multiplicity
 _atom_site_fract_x
 _atom_site_fract_y
 _atom_site_fract_z
 _atom_site_occupancy
  Cd  Cd0  1  0.75000000  0.45125000  0.75000000  1.0
  Cd  Cd1  1  0.25000000  0.54875000  0.25000000  1.0
  H  H2  1  0.63829000  0.16975000  0.59376000  1.0
  H  H3  1  0.86172000  0.16977000  0.90624000  1.0
  H  H4  1  0.36173000  0.83023000  0.40624000  1.0
  H  H5  1  0.13828000  0.83024000  0.09375000  1.0
  H  H6  1  0.37430000  0.15573000  0.64315000  1.0
  H  H7  1  0.12571000  0.15574000  0.85685000  1.0
  H  H8  1  0.62571000  0.84427000  0.35685000  1.0
  H  H9  1  0.87430000  0.84427000  0.14315000  1.0
  H  H10  1  0.30908000  0.75632000  0.57946000  1.0
  H  H11  1  0.19091000  0.75633000  0.92053000  1.0
  H  H12  1  0.69093000  0.24367000  0.42054000  1.0
  H  H13  1  0.80908000  0.24368000  0.07946000  1.0
  H  H14  1  0.57919000  0.76912000  0.53204000  1.0
  H  H15  1  0.92080000  0.76914000  0.96795000  1.0
  H  H16  1  0.42080000  0.23086000  0.46796000  1.0
  H  H17  1  0.07919000  0.23087000  0.03204000  1.0
  H  H18  1  0.92861000  0.35904000  0.62224000  1.0
  H  H19  1  0.57140000  0.35904000  0.87775000  1.0
  H  H20  1  0.07140000  0.64096000  0.37775000  1.0
  H  H21  1  0.42858000  0.64097000  0.12224000  1.0
  H  H22  1  0.09368000  0.17062000  0.58220000  1.0
  H  H23  1  0.40632000  0.17062000  0.91780000  1.0
  H  H24  1  0.90634000  0.82938000  0.41780000  1.0
  H  H25  1  0.59365000  0.82938000  0.08219000  1.0
  H  H26  1  0.06578000  0.98962000  0.75376000  1.0
  H  H27  1  0.43424000  0.98961000  0.74625000  1.0
  H  H28  1  0.93423000  0.01039000  0.24625000  1.0
  H  H29  1  0.56578000  0.01037000  0.25376000  1.0
  H  H30  1  0.91545000  0.19053000  0.78741000  1.0
  H  H31  1  0.58457000  0.19051000  0.71259000  1.0
  H  H32  1  0.08457000  0.80948000  0.21259000  1.0
  H  H33  1  0.41544000  0.80947000  0.28741000  1.0
  H  H34  1  0.69540000  0.70880000  0.67526000  1.0
  H  H35  1  0.80459000  0.70880000  0.82474000  1.0
  H  H36  1  0.30460000  0.29121000  0.32474000  1.0
  H  H37  1  0.19539000  0.29119000  0.17526000  1.0
  H  H38  1  0.84301000  0.91121000  0.64309000  1.0
  H  H39  1  0.65698000  0.91121000  0.85692000  1.0
  H  H40  1  0.15699000  0.08880000  0.35692000  1.0
  H  H41  1  0.34301000  0.08879000  0.14309000  1.0
  H  H42  1  0.30711000  0.70545000  0.67914000  1.0
  H  H43  1  0.19288000  0.70546000  0.82086000  1.0
  H  H44  1  0.69288000  0.29454000  0.32086000  1.0
  H  H45  1  0.80711000  0.29454000  0.17914000  1.0
  H  H46  1  0.13994000  0.51935000  0.71402000  1.0
  H  H47  1  0.36006000  0.51935000  0.78598000  1.0
  H  H48  1  0.86005000  0.48065000  0.28598000  1.0
  H  H49  1  0.63993000  0.48065000  0.21402000  1.0
  C  C50  1  0.92453000  0.99212000  0.51162000  1.0
  C  C51  1  0.57548000  0.99213000  0.98838000  1.0
  C  C52  1  0.07549000  0.00789000  0.48839000  1.0
  C  C53  1  0.42453000  0.00788000  0.01161000  1.0
  C  C54  1  0.78597000  0.97875000  0.53263000  1.0
  C  C55  1  0.71403000  0.97878000  0.96737000  1.0
  C  C56  1  0.21403000  0.02124000  0.46738000  1.0
  C  C57  1  0.28597000  0.02124000  0.03263000  1.0
  C  C58  1  0.63089000  0.96957000  0.55965000  1.0
  C  C59  1  0.86912000  0.96958000  0.94035000  1.0
  C  C60  1  0.36911000  0.03042000  0.44035000  1.0
  C  C61  1  0.13089000  0.03043000  0.05964000  1.0
  C  C62  1  0.56813000  0.07797000  0.59117000  1.0
  C  C63  1  0.93188000  0.07799000  0.90883000  1.0
  C  C64  1  0.43188000  0.92201000  0.40884000  1.0
  C  C65  1  0.06812000  0.92202000  0.09116000  1.0
  C  C66  1  0.41748000  0.06969000  0.61929000  1.0
  C  C67  1  0.08253000  0.06970000  0.88071000  1.0
  C  C68  1  0.58253000  0.93030000  0.38072000  1.0
  C  C69  1  0.91748000  0.93030000  0.11928000  1.0
  C  C70  1  0.32209000  0.95349000  0.61638000  1.0
  C  C71  1  0.17792000  0.95350000  0.88362000  1.0
  C  C72  1  0.67793000  0.04650000  0.38362000  1.0
  C  C73  1  0.82208000  0.04651000  0.11638000  1.0
  C  C74  1  0.38205000  0.84608000  0.58388000  1.0
  C  C75  1  0.11795000  0.84610000  0.91611000  1.0
  C  C76  1  0.61796000  0.15391000  0.41612000  1.0
  C  C77  1  0.88204000  0.15391000  0.08388000  1.0
  C  C78  1  0.53435000  0.85347000  0.55670000  1.0
  C  C79  1  0.96564000  0.85348000  0.94330000  1.0
  C  C80  1  0.46565000  0.14652000  0.44330000  1.0
  C  C81  1  0.03435000  0.14653000  0.05670000  1.0
  C  C82  1  0.96486000  0.27593000  0.65012000  1.0
  C  C83  1  0.53515000  0.27592000  0.84988000  1.0
  C  C84  1  0.03515000  0.72407000  0.34988000  1.0
  C  C85  1  0.46484000  0.72407000  0.15012000  1.0
  C  C86  1  0.05517000  0.17086000  0.62777000  1.0
  C  C87  1  0.44484000  0.17086000  0.87223000  1.0
  C  C88  1  0.94485000  0.82914000  0.37223000  1.0
  C  C89  1  0.55515000  0.82914000  0.12777000  1.0
  C  C90  1  0.08968000  0.06375000  0.66480000  1.0
  C  C91  1  0.41032000  0.06374000  0.83520000  1.0
  C  C92  1  0.91033000  0.93625000  0.33520000  1.0
  C  C93  1  0.58967000  0.93625000  0.16480000  1.0
  C  C94  1  0.03934000  0.07012000  0.72335000  1.0
  C  C95  1  0.46067000  0.07011000  0.77665000  1.0
  C  C96  1  0.96067000  0.92989000  0.27665000  1.0
  C  C97  1  0.53934000  0.92988000  0.22335000  1.0
  C  C98  1  0.95360000  0.18012000  0.74196000  1.0
  C  C99  1  0.54641000  0.18011000  0.75804000  1.0
  C  C100  1  0.04641000  0.81989000  0.25804000  1.0
  C  C101  1  0.45360000  0.81988000  0.24196000  1.0
  C  C102  1  0.83094000  0.71501000  0.67711000  1.0
  C  C103  1  0.66905000  0.71501000  0.82289000  1.0
  C  C104  1  0.16905000  0.28499000  0.32289000  1.0
  C  C105  1  0.33094000  0.28498000  0.17711000  1.0
  C  C106  1  0.91357000  0.82636000  0.65853000  1.0
  C  C107  1  0.58643000  0.82636000  0.84147000  1.0
  C  C108  1  0.08643000  0.17365000  0.34148000  1.0
  C  C109  1  0.41356000  0.17364000  0.15853000  1.0
  C  C110  1  0.08850000  0.82854000  0.65989000  1.0
  C  C111  1  0.41149000  0.82854000  0.84012000  1.0
  C  C112  1  0.91149000  0.17146000  0.34012000  1.0
  C  C113  1  0.58850000  0.17146000  0.15988000  1.0
  C  C114  1  0.17215000  0.71387000  0.67810000  1.0
  C  C115  1  0.32785000  0.71387000  0.82190000  1.0
  C  C116  1  0.82785000  0.28613000  0.32190000  1.0
  C  C117  1  0.67215000  0.28613000  0.17810000  1.0
  C  C118  1  0.07816000  0.60773000  0.69726000  1.0
  C  C119  1  0.42183000  0.60773000  0.80274000  1.0
  C  C120  1  0.92183000  0.39227000  0.30274000  1.0
  C  C121  1  0.57816000  0.39226000  0.19726000  1.0
  Br  Br122  1  0.51848000  0.45170000  0.65830000  1.0
  Br  Br123  1  0.98150000  0.45169000  0.84171000  1.0
  Br  Br124  1  0.48150000  0.54831000  0.34171000  1.0
  Br  Br125  1  0.01849000  0.54830000  0.15830000  1.0
  N  N126  1  0.16912000  0.94715000  0.64516000  1.0
  N  N127  1  0.33089000  0.94716000  0.85484000  1.0
  N  N128  1  0.83090000  0.05285000  0.35484000  1.0
  N  N129  1  0.66911000  0.05285000  0.14516000  1.0
  N  N130  1  0.91391000  0.28045000  0.70589000  1.0
  N  N131  1  0.58610000  0.28044000  0.79411000  1.0
  N  N132  1  0.08609000  0.71955000  0.29411000  1.0
  N  N133  1  0.41391000  0.71955000  0.20589000  1.0
  N  N134  1  0.91119000  0.60778000  0.69771000  1.0
  N  N135  1  0.58880000  0.60778000  0.80229000  1.0
  N  N136  1  0.08881000  0.39222000  0.30229000  1.0
  N  N137  1  0.41118000  0.39222000  0.19771000  1.0
