# generated using pymatgen
data_Hg3H14C14I6(N2O)2
_symmetry_space_group_name_H-M   'P 1'
_cell_length_a   5.00973000
_cell_length_b   13.66800000
_cell_length_c   19.94150000
_cell_angle_alpha   89.99990000
_cell_angle_beta   93.23090000
_cell_angle_gamma   90.00000000
_symmetry_Int_Tables_number   1
_chemical_formula_structural   Hg3H14C14I6(N2O)2
_chemical_formula_sum   'Hg6 H28 C28 I12 N8 O4'
_cell_volume   1363.28375279
_cell_formula_units_Z   2
loop_
 _symmetry_equiv_pos_site_id
 _symmetry_equiv_pos_as_xyz
  1  'x, y, z'
loop_
 _atom_site_type_symbol
 _atom_site_label
 _atom_site_symmetry_multiplicity
 _atom_site_fract_x
 _atom_site_fract_y
 _atom_site_fract_z
 _atom_site_occupancy
  Hg  Hg0  1  0.47907000  0.33463000  0.64986000  1.0
  Hg  Hg1  1  0.52093000  0.83462000  0.85014000  1.0
  Hg  Hg2  1  0.52093000  0.66538000  0.35014000  1.0
  Hg  Hg3  1  0.47907000  0.16537000  0.14986000  1.0
  Hg  Hg4  1  0.00000000  0.50000000  0.50000000  1.0
  Hg  Hg5  1  0.00000000  0.00000000  0.00000000  1.0
  H  H6  1  0.85721000  0.44107000  0.96035000  1.0
  H  H7  1  0.14278000  0.94107000  0.53965000  1.0
  H  H8  1  0.14278000  0.55893000  0.03965000  1.0
  H  H9  1  0.85721000  0.05893000  0.46035000  1.0
  H  H10  1  0.21978000  0.19076000  0.75591000  1.0
  H  H11  1  0.78023000  0.69076000  0.74409000  1.0
  H  H12  1  0.78023000  0.80924000  0.24409000  1.0
  H  H13  1  0.21978000  0.30924000  0.25591000  1.0
  H  H14  1  0.90220000  0.18427000  0.84814000  1.0
  H  H15  1  0.09781000  0.68427000  0.65186000  1.0
  H  H16  1  0.09781000  0.81573000  0.15186000  1.0
  H  H17  1  0.90220000  0.31573000  0.34814000  1.0
  H  H18  1  0.80577000  0.49720000  0.82702000  1.0
  H  H19  1  0.19423000  0.99720000  0.67298000  1.0
  H  H20  1  0.19423000  0.50280000  0.17298000  1.0
  H  H21  1  0.80577000  0.00280000  0.32702000  1.0
  H  H22  1  0.12667000  0.49074000  0.73555000  1.0
  H  H23  1  0.87332000  0.99074000  0.76445000  1.0
  H  H24  1  0.87332000  0.50926000  0.26445000  1.0
  H  H25  1  0.12667000  0.00926000  0.23555000  1.0
  H  H26  1  0.42287000  0.34362000  0.87676000  1.0
  H  H27  1  0.57713000  0.84362000  0.62324000  1.0
  H  H28  1  0.57713000  0.65638000  0.12324000  1.0
  H  H29  1  0.42287000  0.15638000  0.37676000  1.0
  H  H30  1  0.64150000  0.26739000  0.92555000  1.0
  H  H31  1  0.35851000  0.76739000  0.57445000  1.0
  H  H32  1  0.35851000  0.73261000  0.07445000  1.0
  H  H33  1  0.64149000  0.23261000  0.42555000  1.0
  C  C34  1  0.12122000  0.25679000  0.77294000  1.0
  C  C35  1  0.87879000  0.75679000  0.72706000  1.0
  C  C36  1  0.87879000  0.74321000  0.22706000  1.0
  C  C37  1  0.12122000  0.24321000  0.27294000  1.0
  C  C38  1  0.94483000  0.25389000  0.82431000  1.0
  C  C39  1  0.05517000  0.75389000  0.67569000  1.0
  C  C40  1  0.05517000  0.74611000  0.17569000  1.0
  C  C41  1  0.94483000  0.24611000  0.32431000  1.0
  C  C42  1  0.82484000  0.34037000  0.84484000  1.0
  C  C43  1  0.17516000  0.84037000  0.65516000  1.0
  C  C44  1  0.17516000  0.65963000  0.15516000  1.0
  C  C45  1  0.82484000  0.15963000  0.34484000  1.0
  C  C46  1  0.89095000  0.42740000  0.81255000  1.0
  C  C47  1  0.10905000  0.92740000  0.68745000  1.0
  C  C48  1  0.10905000  0.57260000  0.18745000  1.0
  C  C49  1  0.89095000  0.07260000  0.31255000  1.0
  C  C50  1  0.06937000  0.42446000  0.76168000  1.0
  C  C51  1  0.93063000  0.92445000  0.73831000  1.0
  C  C52  1  0.93063000  0.57554000  0.23831000  1.0
  C  C53  1  0.06937000  0.07555000  0.26169000  1.0
  C  C54  1  0.62837000  0.33822000  0.89913000  1.0
  C  C55  1  0.37163000  0.83822000  0.60087000  1.0
  C  C56  1  0.37163000  0.66178000  0.10087000  1.0
  C  C57  1  0.62837000  0.16178000  0.39913000  1.0
  C  C58  1  0.45967000  0.45798000  0.97598000  1.0
  C  C59  1  0.54032000  0.95798000  0.52402000  1.0
  C  C60  1  0.54032000  0.54202000  0.02402000  1.0
  C  C61  1  0.45967000  0.04202000  0.47598000  1.0
  I  I62  1  0.54793000  0.52864000  0.62578000  1.0
  I  I63  1  0.45206000  0.02864000  0.87422000  1.0
  I  I64  1  0.45206000  0.47136000  0.37422000  1.0
  I  I65  1  0.54793000  0.97136000  0.12578000  1.0
  I  I66  1  0.63468000  0.14701000  0.65191000  1.0
  I  I67  1  0.36532000  0.64701000  0.84809000  1.0
  I  I68  1  0.36532000  0.85299000  0.34809000  1.0
  I  I69  1  0.63468000  0.35299000  0.15191000  1.0
  I  I70  1  0.07401000  0.30915000  0.52018000  1.0
  I  I71  1  0.92599000  0.80915000  0.97982000  1.0
  I  I72  1  0.92599000  0.69085000  0.47982000  1.0
  I  I73  1  0.07401000  0.19085000  0.02018000  1.0
  N  N74  1  0.18244000  0.34059000  0.74224000  1.0
  N  N75  1  0.81757000  0.84059000  0.75776000  1.0
  N  N76  1  0.81757000  0.65941000  0.25776000  1.0
  N  N77  1  0.18244000  0.15941000  0.24224000  1.0
  N  N78  1  0.66639000  0.41830000  0.94622000  1.0
  N  N79  1  0.33361000  0.91831000  0.55378000  1.0
  N  N80  1  0.33361000  0.58169000  0.05378000  1.0
  N  N81  1  0.66639000  0.08170000  0.44622000  1.0
  O  O82  1  0.22298000  0.43122000  0.96634000  1.0
  O  O83  1  0.77702000  0.93122000  0.53366000  1.0
  O  O84  1  0.77702000  0.56878000  0.03366000  1.0
  O  O85  1  0.22298000  0.06878000  0.46634000  1.0
