# generated using pymatgen
data_CuH36C58(N3O5)2
_symmetry_space_group_name_H-M   'P 1'
_cell_length_a   9.26257000
_cell_length_b   10.63660000
_cell_length_c   13.09750000
_cell_angle_alpha   108.67100000
_cell_angle_beta   94.74520000
_cell_angle_gamma   105.88700000
_symmetry_Int_Tables_number   1
_chemical_formula_structural   CuH36C58(N3O5)2
_chemical_formula_sum   'Cu1 H36 C58 N6 O10'
_cell_volume   1155.05729206
_cell_formula_units_Z   1
loop_
 _symmetry_equiv_pos_site_id
 _symmetry_equiv_pos_as_xyz
  1  'x, y, z'
loop_
 _atom_site_type_symbol
 _atom_site_label
 _atom_site_symmetry_multiplicity
 _atom_site_fract_x
 _atom_site_fract_y
 _atom_site_fract_z
 _atom_site_occupancy
  Cu  Cu0  1  0.50000000  0.00000000  0.00000000  1.0
  H  H1  1  0.50052000  0.61807000  0.89074000  1.0
  H  H2  1  0.49949000  0.38193000  0.10927000  1.0
  H  H3  1  0.49254000  0.75512000  0.27670000  1.0
  H  H4  1  0.50746000  0.24488000  0.72330000  1.0
  H  H5  1  0.56200000  0.80806000  0.10990000  1.0
  H  H6  1  0.43800000  0.19194000  0.89010000  1.0
  H  H7  1  0.37472000  0.13092000  0.18056000  1.0
  H  H8  1  0.62527000  0.86907000  0.81944000  1.0
  H  H9  1  0.30505000  0.09657000  0.35185000  1.0
  H  H10  1  0.69495000  0.90342000  0.64814000  1.0
  H  H11  1  0.29187000  0.07931000  0.49678000  1.0
  H  H12  1  0.70813000  0.92069000  0.50321000  1.0
  H  H13  1  0.16067000  0.76243000  0.64126000  1.0
  H  H14  1  0.83932000  0.23757000  0.35874000  1.0
  H  H15  1  0.35785000  0.63331000  0.67354000  1.0
  H  H16  1  0.64215000  0.36670000  0.32646000  1.0
  H  H17  1  0.35978000  0.39236000  0.64990000  1.0
  H  H18  1  0.64022000  0.60765000  0.35010000  1.0
  H  H19  1  0.19258000  0.24819000  0.31586000  1.0
  H  H20  1  0.80742000  0.75181000  0.68415000  1.0
  H  H21  1  0.19410000  0.48651000  0.32435000  1.0
  H  H22  1  0.80590000  0.51349000  0.67566000  1.0
  H  H23  1  0.11779000  0.13660000  0.54497000  1.0
  H  H24  1  0.88220000  0.86340000  0.45503000  1.0
  H  H25  1  0.99983000  0.29230000  0.66399000  1.0
  H  H26  1  0.00016000  0.70770000  0.33601000  1.0
  H  H27  1  0.02458000  0.09391000  0.90195000  1.0
  H  H28  1  0.97542000  0.90609000  0.09805000  1.0
  H  H29  1  0.14825000  0.93933000  0.78455000  1.0
  H  H30  1  0.85175000  0.06067000  0.21545000  1.0
  H  H31  1  0.19749000  0.47231000  0.86328000  1.0
  H  H32  1  0.80251000  0.52769000  0.13672000  1.0
  H  H33  1  0.00599000  0.80780000  0.90828000  1.0
  H  H34  1  0.99400000  0.19219000  0.09173000  1.0
  H  H35  1  0.71734000  0.39561000  0.87022000  1.0
  H  H36  1  0.28266000  0.60438000  0.12979000  1.0
  C  C37  1  0.46581000  0.83982000  0.25817000  1.0
  C  C38  1  0.53419000  0.16018000  0.74183000  1.0
  C  C39  1  0.50404000  0.86823000  0.16579000  1.0
  C  C40  1  0.49596000  0.13178000  0.83421000  1.0
  C  C41  1  0.40108000  0.05078000  0.20663000  1.0
  C  C42  1  0.59891000  0.94922000  0.79336000  1.0
  C  C43  1  0.36104000  0.02914000  0.30079000  1.0
  C  C44  1  0.63896000  0.97085000  0.69920000  1.0
  C  C45  1  0.38995000  0.91949000  0.32709000  1.0
  C  C46  1  0.61005000  0.08051000  0.67291000  1.0
  C  C47  1  0.33504000  0.88431000  0.42063000  1.0
  C  C48  1  0.66496000  0.11569000  0.57937000  1.0
  C  C49  1  0.28185000  0.97581000  0.49908000  1.0
  C  C50  1  0.71815000  0.02419000  0.50091000  1.0
  C  C51  1  0.21386000  0.93414000  0.57991000  1.0
  C  C52  1  0.78614000  0.06587000  0.42009000  1.0
  C  C53  1  0.21378000  0.80303000  0.58219000  1.0
  C  C54  1  0.78622000  0.19697000  0.41781000  1.0
  C  C55  1  0.27576000  0.72012000  0.50333000  1.0
  C  C56  1  0.72424000  0.27988000  0.49667000  1.0
  C  C57  1  0.27479000  0.57917000  0.49956000  1.0
  C  C58  1  0.72521000  0.42083000  0.50044000  1.0
  C  C59  1  0.31987000  0.55120000  0.59247000  1.0
  C  C60  1  0.68013000  0.44880000  0.40753000  1.0
  C  C61  1  0.32089000  0.41588000  0.57914000  1.0
  C  C62  1  0.67911000  0.58413000  0.42086000  1.0
  C  C63  1  0.23037000  0.33636000  0.39403000  1.0
  C  C64  1  0.76964000  0.66364000  0.60597000  1.0
  C  C65  1  0.22946000  0.46837000  0.39825000  1.0
  C  C66  1  0.77055000  0.53164000  0.60175000  1.0
  C  C67  1  0.14238000  0.02467000  0.65433000  1.0
  C  C68  1  0.85762000  0.97533000  0.34566000  1.0
  C  C69  1  0.10032000  0.12673000  0.62354000  1.0
  C  C70  1  0.89968000  0.87327000  0.37646000  1.0
  C  C71  1  0.03348000  0.21548000  0.69042000  1.0
  C  C72  1  0.96652000  0.78452000  0.30958000  1.0
  C  C73  1  0.00584000  0.20256000  0.79037000  1.0
  C  C74  1  0.99417000  0.79744000  0.20963000  1.0
  C  C75  1  0.04517000  0.10152000  0.82317000  1.0
  C  C76  1  0.95484000  0.89848000  0.17682000  1.0
  C  C77  1  0.11307000  0.01362000  0.75542000  1.0
  C  C78  1  0.88693000  0.98638000  0.24458000  1.0
  C  C79  1  0.95377000  0.41856000  0.86230000  1.0
  C  C80  1  0.04624000  0.58144000  0.13771000  1.0
  C  C81  1  0.09827000  0.50870000  0.86795000  1.0
  C  C82  1  0.90173000  0.49130000  0.13205000  1.0
  C  C83  1  0.11669000  0.64938000  0.88499000  1.0
  C  C84  1  0.88331000  0.35062000  0.11502000  1.0
  C  C85  1  0.99113000  0.69815000  0.89392000  1.0
  C  C86  1  0.00886000  0.30185000  0.10608000  1.0
  C  C87  1  0.84716000  0.60706000  0.88802000  1.0
  C  C88  1  0.15284000  0.39293000  0.11199000  1.0
  C  C89  1  0.82817000  0.46673000  0.87282000  1.0
  C  C90  1  0.17184000  0.53327000  0.12719000  1.0
  C  C91  1  0.27375000  0.75094000  0.90531000  1.0
  C  C92  1  0.72625000  0.24906000  0.09469000  1.0
  C  C93  1  0.71787000  0.66535000  0.89969000  1.0
  C  C94  1  0.28213000  0.33465000  0.10031000  1.0
  N  N95  1  0.46968000  0.97052000  0.13950000  1.0
  N  N96  1  0.53032000  0.02948000  0.86050000  1.0
  N  N97  1  0.33222000  0.75791000  0.42237000  1.0
  N  N98  1  0.66777000  0.24209000  0.57763000  1.0
  N  N99  1  0.27646000  0.30893000  0.48232000  1.0
  N  N100  1  0.72355000  0.69108000  0.51768000  1.0
  O  O101  1  0.28268000  0.88087000  0.93479000  1.0
  O  O102  1  0.71732000  0.11913000  0.06521000  1.0
  O  O103  1  0.38878000  0.70915000  0.89761000  1.0
  O  O104  1  0.61122000  0.29085000  0.10239000  1.0
  O  O105  1  0.73697000  0.79103000  0.92145000  1.0
  O  O106  1  0.26302000  0.20896000  0.07854000  1.0
  O  O107  1  0.58117000  0.56945000  0.88411000  1.0
  O  O108  1  0.41883000  0.43055000  0.11590000  1.0
  O  O109  1  0.93082000  0.28222000  0.85678000  1.0
  O  O110  1  0.06919000  0.71778000  0.14322000  1.0
