# generated using pymatgen
data_LiH13C9N2
_symmetry_space_group_name_H-M   'P 1'
_cell_length_a   10.68870000
_cell_length_b   16.46740000
_cell_length_c   16.79720000
_cell_angle_alpha   64.87040000
_cell_angle_beta   81.07120000
_cell_angle_gamma   84.53290000
_symmetry_Int_Tables_number   1
_chemical_formula_structural   LiH13C9N2
_chemical_formula_sum   'Li10 H130 C90 N20'
_cell_volume   2642.85892629
_cell_formula_units_Z   10
loop_
 _symmetry_equiv_pos_site_id
 _symmetry_equiv_pos_as_xyz
  1  'x, y, z'
loop_
 _atom_site_type_symbol
 _atom_site_label
 _atom_site_symmetry_multiplicity
 _atom_site_fract_x
 _atom_site_fract_y
 _atom_site_fract_z
 _atom_site_occupancy
  Li  Li0  1  0.32467000  0.37609000  0.11391000  1.0
  Li  Li1  1  0.67533000  0.62392000  0.88608000  1.0
  Li  Li2  1  0.10527000  0.33461000  0.14274000  1.0
  Li  Li3  1  0.89473000  0.66537000  0.85727000  1.0
  Li  Li4  1  0.03715000  0.34987000  0.28715000  1.0
  Li  Li5  1  0.96284000  0.65012000  0.71286000  1.0
  Li  Li6  1  0.04462000  0.18967000  0.39801000  1.0
  Li  Li7  1  0.95538000  0.81033000  0.60200000  1.0
  Li  Li8  1  0.95184000  0.40027000  0.40659000  1.0
  Li  Li9  1  0.04816000  0.59973000  0.59342000  1.0
  H  H10  1  0.69139000  0.01685000  0.09019000  1.0
  H  H11  1  0.30860000  0.98315000  0.90980000  1.0
  H  H12  1  0.75282000  0.91381000  0.16680000  1.0
  H  H13  1  0.24716000  0.08620000  0.83320000  1.0
  H  H14  1  0.71748000  0.92221000  0.06300000  1.0
  H  H15  1  0.28250000  0.07779000  0.93699000  1.0
  H  H16  1  0.82457000  0.10877000  0.96025000  1.0
  H  H17  1  0.17541000  0.89124000  0.03975000  1.0
  H  H18  1  0.86512000  0.02077000  0.92402000  1.0
  H  H19  1  0.13486000  0.97924000  0.07598000  1.0
  H  H20  1  0.95183000  0.87479000  0.03255000  1.0
  H  H21  1  0.04816000  0.12521000  0.96745000  1.0
  H  H22  1  0.96946000  0.86803000  0.13932000  1.0
  H  H23  1  0.03052000  0.13197000  0.86068000  1.0
  H  H24  1  0.54934000  0.27292000  0.12740000  1.0
  H  H25  1  0.45066000  0.72709000  0.87260000  1.0
  H  H26  1  0.55675000  0.32704000  0.19860000  1.0
  H  H27  1  0.44325000  0.67296000  0.80139000  1.0
  H  H28  1  0.68140000  0.33934000  0.11089000  1.0
  H  H29  1  0.31860000  0.66067000  0.88911000  1.0
  H  H30  1  0.51171000  0.36431000  0.97468000  1.0
  H  H31  1  0.48829000  0.63570000  0.02531000  1.0
  H  H32  1  0.64059000  0.43394000  0.95728000  1.0
  H  H33  1  0.35941000  0.56607000  0.04272000  1.0
  H  H34  1  0.63873000  0.50696000  0.06335000  1.0
  H  H35  1  0.36127000  0.49305000  0.93664000  1.0
  H  H36  1  0.50990000  0.48442000  0.14960000  1.0
  H  H37  1  0.49010000  0.51559000  0.85039000  1.0
  H  H38  1  0.88545000  0.28461000  0.09593000  1.0
  H  H39  1  0.11453000  0.71537000  0.90407000  1.0
  H  H40  1  0.02057000  0.28072000  0.02089000  1.0
  H  H41  1  0.97942000  0.71927000  0.97911000  1.0
  H  H42  1  0.88276000  0.34533000  0.97860000  1.0
  H  H43  1  0.11724000  0.65467000  0.02140000  1.0
  H  H44  1  0.83666000  0.42246000  0.12011000  1.0
  H  H45  1  0.16333000  0.57753000  0.87991000  1.0
  H  H46  1  0.82045000  0.47463000  0.00464000  1.0
  H  H47  1  0.17953000  0.52535000  0.99538000  1.0
  H  H48  1  0.00946000  0.46972000  0.89699000  1.0
  H  H49  1  0.99053000  0.53026000  0.10303000  1.0
  H  H50  1  0.14832000  0.41324000  0.93917000  1.0
  H  H51  1  0.85167000  0.58675000  0.06084000  1.0
  H  H52  1  0.28187000  0.10944000  0.40307000  1.0
  H  H53  1  0.71812000  0.89056000  0.59693000  1.0
  H  H54  1  0.29005000  0.01337000  0.50626000  1.0
  H  H55  1  0.70994000  0.98662000  0.49374000  1.0
  H  H56  1  0.24291000  0.12059000  0.50585000  1.0
  H  H57  1  0.75708000  0.87940000  0.49415000  1.0
  H  H58  1  0.14912000  0.93904000  0.46086000  1.0
  H  H59  1  0.85087000  0.06096000  0.53914000  1.0
  H  H60  1  0.13528000  0.03472000  0.35945000  1.0
  H  H61  1  0.86470000  0.96528000  0.64054000  1.0
  H  H62  1  0.04763000  0.06242000  0.59920000  1.0
  H  H63  1  0.95236000  0.93757000  0.40079000  1.0
  H  H64  1  0.09712000  0.95564000  0.60177000  1.0
  H  H65  1  0.90287000  0.04435000  0.39823000  1.0
  H  H66  1  0.71685000  0.48078000  0.43450000  1.0
  H  H67  1  0.28315000  0.51922000  0.56551000  1.0
  H  H68  1  0.70017000  0.48966000  0.53845000  1.0
  H  H69  1  0.29984000  0.51033000  0.46156000  1.0
  H  H70  1  0.73131000  0.38239000  0.53492000  1.0
  H  H71  1  0.26869000  0.61760000  0.46510000  1.0
  H  H72  1  0.92154000  0.35361000  0.60505000  1.0
  H  H73  1  0.07846000  0.64638000  0.39496000  1.0
  H  H74  1  0.89329000  0.45706000  0.61599000  1.0
  H  H75  1  0.10671000  0.54293000  0.38402000  1.0
  H  H76  1  0.86985000  0.59586000  0.48435000  1.0
  H  H77  1  0.13015000  0.40414000  0.51565000  1.0
  H  H78  1  0.87944000  0.59197000  0.37899000  1.0
  H  H79  1  0.12056000  0.40802000  0.62101000  1.0
  H  H80  1  0.24381000  0.29758000  0.02543000  1.0
  H  H81  1  0.75619000  0.70243000  0.97456000  1.0
  H  H82  1  0.27384000  0.16055000  0.02024000  1.0
  H  H83  1  0.72616000  0.83946000  0.97975000  1.0
  H  H84  1  0.35212000  0.00350000  0.09069000  1.0
  H  H85  1  0.64788000  0.99651000  0.90929000  1.0
  H  H86  1  0.42664000  0.94287000  0.24002000  1.0
  H  H87  1  0.57337000  0.05714000  0.75995000  1.0
  H  H88  1  0.42069000  0.04491000  0.31648000  1.0
  H  H89  1  0.57933000  0.95509000  0.68350000  1.0
  H  H90  1  0.34630000  0.20228000  0.24544000  1.0
  H  H91  1  0.65371000  0.79772000  0.75455000  1.0
  H  H92  1  0.14490000  0.48339000  0.14938000  1.0
  H  H93  1  0.85511000  0.51660000  0.85063000  1.0
  H  H94  1  0.31349000  0.28873000  0.29771000  1.0
  H  H95  1  0.68653000  0.71127000  0.70231000  1.0
  H  H96  1  0.46108000  0.30148000  0.39089000  1.0
  H  H97  1  0.53893000  0.69853000  0.60912000  1.0
  H  H98  1  0.49703000  0.45084000  0.38794000  1.0
  H  H99  1  0.50298000  0.54918000  0.61206000  1.0
  H  H100  1  0.38196000  0.58671000  0.28870000  1.0
  H  H101  1  0.61804000  0.41330000  0.71129000  1.0
  H  H102  1  0.23614000  0.57472000  0.19417000  1.0
  H  H103  1  0.76388000  0.42528000  0.80583000  1.0
  H  H104  1  0.12198000  0.20635000  0.24930000  1.0
  H  H105  1  0.87802000  0.79364000  0.75071000  1.0
  H  H106  1  0.05599000  0.11756000  0.19176000  1.0
  H  H107  1  0.94401000  0.88243000  0.80825000  1.0
  H  H108  1  0.87875000  0.04212000  0.17684000  1.0
  H  H109  1  0.12125000  0.95788000  0.82315000  1.0
  H  H110  1  0.65601000  0.06756000  0.23821000  1.0
  H  H111  1  0.34398000  0.93246000  0.76175000  1.0
  H  H112  1  0.61748000  0.17157000  0.31315000  1.0
  H  H113  1  0.38252000  0.82845000  0.68682000  1.0
  H  H114  1  0.79496000  0.25018000  0.32523000  1.0
  H  H115  1  0.20504000  0.74982000  0.67477000  1.0
  H  H116  1  0.16640000  0.30589000  0.42136000  1.0
  H  H117  1  0.83360000  0.69410000  0.57864000  1.0
  H  H118  1  0.19821000  0.23975000  0.56972000  1.0
  H  H119  1  0.80180000  0.76025000  0.43029000  1.0
  H  H120  1  0.10658000  0.15762000  0.72504000  1.0
  H  H121  1  0.89343000  0.84240000  0.27497000  1.0
  H  H122  1  0.87766000  0.11744000  0.76327000  1.0
  H  H123  1  0.12235000  0.88257000  0.23674000  1.0
  H  H124  1  0.74359000  0.16306000  0.64162000  1.0
  H  H125  1  0.25641000  0.83695000  0.35839000  1.0
  H  H126  1  0.83431000  0.24546000  0.48498000  1.0
  H  H127  1  0.16569000  0.75455000  0.51503000  1.0
  H  H128  1  0.80341000  0.38372000  0.30704000  1.0
  H  H129  1  0.19658000  0.61627000  0.69296000  1.0
  H  H130  1  0.64967000  0.48692000  0.24307000  1.0
  H  H131  1  0.35032000  0.51309000  0.75692000  1.0
  H  H132  1  0.58835000  0.64636000  0.16255000  1.0
  H  H133  1  0.41167000  0.35365000  0.83744000  1.0
  H  H134  1  0.74242000  0.76662000  0.12581000  1.0
  H  H135  1  0.25761000  0.23339000  0.87417000  1.0
  H  H136  1  0.95989000  0.72188000  0.17066000  1.0
  H  H137  1  0.04012000  0.27811000  0.82935000  1.0
  H  H138  1  0.02158000  0.56252000  0.25061000  1.0
  H  H139  1  0.97842000  0.43747000  0.74940000  1.0
  C  C140  1  0.75539000  0.95881000  0.09599000  1.0
  C  C141  1  0.24458000  0.04120000  0.90401000  1.0
  C  C142  1  0.89168000  0.05215000  0.96585000  1.0
  C  C143  1  0.10831000  0.94785000  0.03415000  1.0
  C  C144  1  0.97445000  0.91370000  0.06861000  1.0
  C  C145  1  0.02553000  0.08630000  0.93139000  1.0
  C  C146  1  0.57812000  0.33386000  0.13009000  1.0
  C  C147  1  0.42189000  0.66614000  0.86991000  1.0
  C  C148  1  0.53744000  0.42508000  0.97933000  1.0
  C  C149  1  0.46255000  0.57493000  0.02067000  1.0
  C  C150  1  0.53605000  0.49425000  0.08038000  1.0
  C  C151  1  0.46395000  0.50576000  0.91961000  1.0
  C  C152  1  0.94237000  0.32399000  0.03299000  1.0
  C  C153  1  0.05762000  0.67600000  0.96702000  1.0
  C  C154  1  0.88785000  0.45920000  0.05374000  1.0
  C  C155  1  0.11214000  0.54079000  0.94628000  1.0
  C  C156  1  0.06684000  0.45420000  0.95127000  1.0
  C  C157  1  0.93314000  0.54578000  0.04875000  1.0
  C  C158  1  0.23705000  0.07704000  0.47203000  1.0
  C  C159  1  0.76294000  0.92295000  0.52797000  1.0
  C  C160  1  0.09370000  0.00232000  0.42924000  1.0
  C  C161  1  0.90629000  0.99768000  0.57076000  1.0
  C  C162  1  0.04332000  0.01820000  0.56607000  1.0
  C  C163  1  0.95667000  0.98180000  0.43393000  1.0
  C  C164  1  0.75129000  0.45417000  0.49955000  1.0
  C  C165  1  0.24871000  0.54583000  0.50046000  1.0
  C  C166  1  0.94078000  0.42554000  0.57202000  1.0
  C  C167  1  0.05921000  0.57445000  0.42798000  1.0
  C  C168  1  0.91724000  0.56161000  0.44288000  1.0
  C  C169  1  0.08276000  0.43838000  0.55713000  1.0
  C  C170  1  0.30311000  0.19578000  0.12619000  1.0
  C  C171  1  0.69689000  0.80423000  0.87380000  1.0
  C  C172  1  0.30697000  0.13542000  0.08513000  1.0
  C  C173  1  0.69303000  0.86460000  0.91486000  1.0
  C  C174  1  0.35043000  0.04676000  0.12531000  1.0
  C  C175  1  0.64956000  0.95325000  0.87467000  1.0
  C  C176  1  0.39181000  0.01223000  0.20912000  1.0
  C  C177  1  0.60821000  0.98777000  0.79085000  1.0
  C  C178  1  0.38818000  0.06962000  0.25144000  1.0
  C  C179  1  0.61184000  0.93039000  0.74854000  1.0
  C  C180  1  0.34504000  0.15863000  0.21152000  1.0
  C  C181  1  0.65499000  0.84137000  0.78846000  1.0
  C  C182  1  0.26281000  0.43061000  0.23733000  1.0
  C  C183  1  0.73720000  0.56939000  0.76268000  1.0
  C  C184  1  0.32952000  0.35451000  0.29477000  1.0
  C  C185  1  0.67049000  0.64549000  0.70524000  1.0
  C  C186  1  0.41181000  0.36183000  0.34802000  1.0
  C  C187  1  0.58820000  0.63819000  0.65199000  1.0
  C  C188  1  0.43180000  0.44497000  0.34699000  1.0
  C  C189  1  0.56821000  0.55504000  0.65301000  1.0
  C  C190  1  0.36717000  0.52100000  0.29104000  1.0
  C  C191  1  0.63284000  0.47901000  0.70896000  1.0
  C  C192  1  0.28467000  0.51440000  0.23783000  1.0
  C  C193  1  0.71533000  0.48560000  0.76218000  1.0
  C  C194  1  0.94027000  0.19029000  0.25953000  1.0
  C  C195  1  0.05973000  0.80969000  0.74048000  1.0
  C  C196  1  0.95965000  0.12943000  0.21873000  1.0
  C  C197  1  0.04035000  0.87055000  0.78129000  1.0
  C  C198  1  0.85935000  0.08623000  0.21119000  1.0
  C  C199  1  0.14066000  0.91376000  0.78881000  1.0
  C  C200  1  0.73490000  0.10060000  0.24492000  1.0
  C  C201  1  0.26510000  0.89942000  0.75505000  1.0
  C  C202  1  0.71368000  0.15958000  0.28617000  1.0
  C  C203  1  0.28632000  0.84043000  0.71381000  1.0
  C  C204  1  0.81357000  0.20415000  0.29294000  1.0
  C  C205  1  0.18643000  0.79584000  0.70706000  1.0
  C  C206  1  0.02442000  0.24955000  0.51406000  1.0
  C  C207  1  0.97559000  0.75044000  0.48595000  1.0
  C  C208  1  0.09816000  0.22322000  0.58523000  1.0
  C  C209  1  0.90185000  0.77678000  0.41477000  1.0
  C  C210  1  0.04579000  0.17742000  0.67288000  1.0
  C  C211  1  0.95422000  0.82258000  0.32713000  1.0
  C  C212  1  0.91772000  0.15538000  0.69471000  1.0
  C  C213  1  0.08229000  0.84463000  0.30530000  1.0
  C  C214  1  0.84300000  0.18088000  0.62609000  1.0
  C  C215  1  0.15701000  0.81912000  0.37391000  1.0
  C  C216  1  0.89435000  0.22691000  0.53778000  1.0
  C  C217  1  0.10566000  0.77308000  0.46222000  1.0
  C  C218  1  0.84063000  0.51088000  0.25380000  1.0
  C  C219  1  0.15936000  0.48912000  0.74621000  1.0
  C  C220  1  0.71812000  0.53853000  0.22678000  1.0
  C  C221  1  0.28188000  0.46148000  0.77322000  1.0
  C  C222  1  0.68385000  0.62858000  0.18155000  1.0
  C  C223  1  0.31616000  0.37142000  0.81844000  1.0
  C  C224  1  0.76975000  0.69615000  0.16042000  1.0
  C  C225  1  0.23027000  0.30385000  0.83957000  1.0
  C  C226  1  0.89108000  0.67066000  0.18635000  1.0
  C  C227  1  0.10893000  0.32934000  0.81365000  1.0
  C  C228  1  0.92598000  0.58081000  0.23180000  1.0
  C  C229  1  0.07402000  0.41919000  0.76820000  1.0
  N  N230  1  0.88379000  0.98839000  0.05876000  1.0
  N  N231  1  0.11619000  0.01161000  0.94123000  1.0
  N  N232  1  0.50771000  0.41251000  0.07230000  1.0
  N  N233  1  0.49229000  0.58749000  0.92770000  1.0
  N  N234  1  0.99315000  0.40181000  0.03718000  1.0
  N  N235  1  0.00684000  0.59818000  0.96284000  1.0
  N  N236  1  0.10343000  0.06188000  0.47325000  1.0
  N  N237  1  0.89656000  0.93812000  0.52675000  1.0
  N  N238  1  0.88887000  0.46538000  0.48658000  1.0
  N  N239  1  0.11113000  0.53461000  0.51343000  1.0
  N  N240  1  0.26126000  0.28378000  0.08828000  1.0
  N  N241  1  0.73875000  0.71623000  0.91171000  1.0
  N  N242  1  0.18400000  0.42127000  0.18405000  1.0
  N  N243  1  0.81601000  0.57872000  0.81597000  1.0
  N  N244  1  0.03878000  0.23447000  0.26785000  1.0
  N  N245  1  0.96122000  0.76551000  0.73216000  1.0
  N  N246  1  0.07258000  0.29432000  0.42576000  1.0
  N  N247  1  0.92743000  0.70567000  0.57425000  1.0
  N  N248  1  0.87771000  0.42286000  0.29858000  1.0
  N  N249  1  0.12228000  0.57714000  0.70143000  1.0
