# generated using pymatgen
data_Zr3H10C26O17F5
_symmetry_space_group_name_H-M   'P 1'
_cell_length_a   14.78200000
_cell_length_b   14.80120000
_cell_length_c   14.78552385
_cell_angle_alpha   60.04934324
_cell_angle_beta   89.91246321
_cell_angle_gamma   119.93970000
_symmetry_Int_Tables_number   1
_chemical_formula_structural   Zr3H10C26O17F5
_chemical_formula_sum   'Zr6 H20 C52 O34 F10'
_cell_volume   2289.49215556
_cell_formula_units_Z   2
loop_
 _symmetry_equiv_pos_site_id
 _symmetry_equiv_pos_as_xyz
  1  'x, y, z'
loop_
 _atom_site_type_symbol
 _atom_site_label
 _atom_site_symmetry_multiplicity
 _atom_site_fract_x
 _atom_site_fract_y
 _atom_site_fract_z
 _atom_site_occupancy
  Zr  Zr0  1  0.88299000  0.50258000  0.62084000  1.0
  Zr  Zr1  1  0.12271000  0.49983000  0.38383000  1.0
  Zr  Zr2  1  0.88181000  0.26195000  0.62309000  1.0
  Zr  Zr3  1  0.12321000  0.73966000  0.38210000  1.0
  Zr  Zr4  1  0.88364000  0.50022000  0.38274000  1.0
  Zr  Zr5  1  0.12172000  0.50050000  0.62283000  1.0
  H  H6  1  0.72027000  0.31523000  0.59385000  1.0
  H  H7  1  0.09640000  0.68599000  0.22007000  1.0
  H  H8  1  0.09626000  0.31153000  0.59912000  1.0
  H  H9  1  0.09746000  0.68992000  0.59585000  1.0
  H  H10  1  0.56660000  0.45135000  0.39250000  1.0
  H  H11  1  0.46956000  0.61056000  0.57576000  1.0
  H  H12  1  0.12491000  0.46349000  0.93079000  1.0
  H  H13  1  0.85978000  0.49731000  0.09464000  1.0
  H  H14  1  0.07318000  0.03714000  0.14799000  1.0
  H  H15  1  0.89017000  0.95605000  0.88993000  1.0
  H  H16  1  0.41659000  0.05251000  0.35741000  1.0
  H  H17  1  0.61013000  0.94914000  0.62581000  1.0
  H  H18  1  0.57610000  0.28478000  0.73932000  1.0
  H  H19  1  0.24220000  0.95199000  0.07993000  1.0
  H  H20  1  0.48231000  0.81063000  0.14991000  1.0
  H  H21  1  0.65195000  0.98090000  0.98033000  1.0
  H  H22  1  0.85374000  0.76951000  0.63594000  1.0
  H  H23  1  0.13015000  0.23226000  0.34802000  1.0
  H  H24  1  0.34114000  0.29347000  0.74910000  1.0
  H  H25  1  0.17448000  0.07495000  0.97656000  1.0
  C  C26  1  0.70939000  0.52094000  0.49228000  1.0
  C  C27  1  0.99956000  0.48725000  0.20617000  1.0
  C  C28  1  0.31221000  0.51217000  0.49532000  1.0
  C  C29  1  0.99459000  0.49152000  0.81022000  1.0
  C  C30  1  0.69769000  0.19795000  0.80539000  1.0
  C  C31  1  0.00088000  0.80840000  0.49202000  1.0
  C  C32  1  0.30708000  0.80534000  0.19826000  1.0
  C  C33  1  0.99393000  0.19363000  0.50228000  1.0
  C  C34  1  0.70425000  0.20005000  0.49489000  1.0
  C  C35  1  0.99291000  0.19878000  0.81661000  1.0
  C  C36  1  0.31288000  0.80101000  0.49810000  1.0
  C  C37  1  0.99290000  0.80052000  0.20444000  1.0
  C  C38  1  0.41921000  0.52488000  0.48599000  1.0
  C  C39  1  0.61556000  0.53450000  0.48398000  1.0
  C  C40  1  0.45030000  0.48307000  0.43292000  1.0
  C  C41  1  0.58738000  0.58202000  0.53228000  1.0
  C  C42  1  0.54611000  0.48759000  0.43165000  1.0
  C  C43  1  0.49112000  0.57696000  0.53423000  1.0
  C  C44  1  0.99603000  0.47986000  0.10893000  1.0
  C  C45  1  0.98998000  0.48348000  0.91516000  1.0
  C  C46  1  0.06890000  0.46836000  0.06149000  1.0
  C  C47  1  0.91481000  0.49089000  0.96465000  1.0
  C  C48  1  0.06657000  0.47082000  0.96665000  1.0
  C  C49  1  0.91783000  0.48954000  0.05892000  1.0
  C  C50  1  0.98381000  0.09562000  0.92421000  1.0
  C  C51  1  0.98307000  0.89853000  0.11099000  1.0
  C  C52  1  0.03177000  0.11447000  0.00058000  1.0
  C  C53  1  0.92926000  0.87773000  0.03821000  1.0
  C  C54  1  0.03272000  0.01893000  0.09162000  1.0
  C  C55  1  0.92970000  0.97385000  0.94679000  1.0
  C  C56  1  0.60761000  0.10012000  0.48979000  1.0
  C  C57  1  0.41770000  0.90130000  0.49479000  1.0
  C  C58  1  0.55189000  0.12628000  0.41369000  1.0
  C  C59  1  0.47573000  0.87538000  0.56840000  1.0
  C  C60  1  0.45914000  0.02955000  0.41617000  1.0
  C  C61  1  0.56790000  0.97200000  0.56665000  1.0
  C  C62  1  0.59267000  0.09705000  0.90176000  1.0
  C  C63  1  0.50274000  0.10887000  0.90546000  1.0
  C  C64  1  0.58376000  0.98969000  0.98746000  1.0
  C  C65  1  0.50327000  0.20860000  0.81334000  1.0
  C  C66  1  0.41225000  0.21214000  0.81635000  1.0
  C  C67  1  0.40293000  0.90664000  0.09274000  1.0
  C  C68  1  0.48904000  0.89459000  0.08240000  1.0
  C  C69  1  0.40602000  0.01203000  0.00379000  1.0
  C  C70  1  0.31479000  0.02113000  0.00554000  1.0
  C  C71  1  0.31756000  0.11766000  0.91389000  1.0
  C  C72  1  0.98907000  0.09250000  0.49784000  1.0
  C  C73  1  0.99654000  0.90930000  0.48773000  1.0
  C  C74  1  0.91073000  0.96052000  0.57691000  1.0
  C  C75  1  0.07207000  0.04115000  0.40611000  1.0
  C  C76  1  0.91444000  0.87102000  0.57256000  1.0
  C  C77  1  0.06920000  0.13072000  0.41115000  1.0
  O  O78  1  0.74439000  0.51389000  0.57279000  1.0
  O  O79  1  0.07806000  0.49198000  0.24398000  1.0
  O  O80  1  0.26892000  0.50736000  0.42194000  1.0
  O  O81  1  0.92070000  0.49571000  0.76763000  1.0
  O  O82  1  0.73961000  0.16029000  0.76843000  1.0
  O  O83  1  0.07961000  0.84427000  0.41815000  1.0
  O  O84  1  0.26688000  0.84138000  0.23942000  1.0
  O  O85  1  0.92041000  0.15781000  0.58126000  1.0
  O  O86  1  0.74214000  0.31634000  0.42124000  1.0
  O  O87  1  0.07445000  0.31339000  0.77450000  1.0
  O  O88  1  0.26968000  0.68490000  0.57737000  1.0
  O  O89  1  0.92125000  0.68464000  0.24100000  1.0
  O  O90  1  0.91990000  0.16099000  0.77405000  1.0
  O  O91  1  0.27294000  0.83999000  0.42248000  1.0
  O  O92  1  0.07365000  0.84226000  0.23814000  1.0
  O  O93  1  0.74057000  0.16103000  0.57403000  1.0
  O  O94  1  0.73910000  0.31456000  0.76606000  1.0
  O  O95  1  0.07338000  0.30887000  0.42710000  1.0
  O  O96  1  0.27107000  0.68950000  0.24088000  1.0
  O  O97  1  0.92619000  0.69319000  0.57181000  1.0
  O  O98  1  0.07424000  0.49570000  0.76999000  1.0
  O  O99  1  0.74368000  0.51113000  0.42057000  1.0
  O  O100  1  0.92446000  0.49182000  0.24229000  1.0
  O  O101  1  0.27188000  0.50583000  0.57642000  1.0
  O  O102  1  0.07082000  0.63662000  0.56892000  1.0
  O  O103  1  0.06950000  0.36502000  0.57244000  1.0
  O  O104  1  0.07007000  0.63454000  0.30030000  1.0
  O  O105  1  0.80053000  0.36787000  0.56849000  1.0
  O  O106  1  0.95324000  0.40102000  0.45389000  1.0
  O  O107  1  0.95401000  0.60090000  0.45168000  1.0
  O  O108  1  0.15116000  0.59903000  0.45364000  1.0
  O  O109  1  0.95283000  0.40287000  0.65085000  1.0
  O  O110  1  0.41086000  0.30538000  0.72715000  1.0
  O  O111  1  0.23371000  0.13379000  0.90512000  1.0
  F  F112  1  0.38444000  0.43099000  0.38503000  1.0
  F  F113  1  0.65410000  0.63404000  0.57967000  1.0
  F  F114  1  0.14457000  0.45460000  0.10684000  1.0
  F  F115  1  0.83755000  0.50195000  0.92089000  1.0
  F  F116  1  0.07973000  0.22786000  0.98686000  1.0
  F  F117  1  0.87907000  0.76418000  0.05193000  1.0
  F  F118  1  0.58566000  0.24748000  0.33565000  1.0
  F  F119  1  0.44339000  0.75419000  0.64447000  1.0
  F  F120  1  0.82885000  0.91532000  0.66189000  1.0
  F  F121  1  0.15159000  0.08602000  0.31906000  1.0
