# generated using pymatgen
data_CdH21C27N7Cl2
_symmetry_space_group_name_H-M   'P 1'
_cell_length_a   15.03540000
_cell_length_b   17.91170000
_cell_length_c   25.71770000
_cell_angle_alpha   89.99990000
_cell_angle_beta   89.99990000
_cell_angle_gamma   89.99990000
_symmetry_Int_Tables_number   1
_chemical_formula_structural   CdH21C27N7Cl2
_chemical_formula_sum   'Cd8 H168 C216 N56 Cl16'
_cell_volume   6926.02283586
_cell_formula_units_Z   8
loop_
 _symmetry_equiv_pos_site_id
 _symmetry_equiv_pos_as_xyz
  1  'x, y, z'
loop_
 _atom_site_type_symbol
 _atom_site_label
 _atom_site_symmetry_multiplicity
 _atom_site_fract_x
 _atom_site_fract_y
 _atom_site_fract_z
 _atom_site_occupancy
  Cd  Cd0  1  0.42178000  0.45625000  0.19207000  1.0
  Cd  Cd1  1  0.57822000  0.45624000  0.30793000  1.0
  Cd  Cd2  1  0.07821000  0.04375000  0.19207000  1.0
  Cd  Cd3  1  0.92178000  0.04375000  0.30793000  1.0
  Cd  Cd4  1  0.57822000  0.54375000  0.80793000  1.0
  Cd  Cd5  1  0.42178000  0.54375000  0.69207000  1.0
  Cd  Cd6  1  0.92178000  0.95625000  0.80793000  1.0
  Cd  Cd7  1  0.07822000  0.95624000  0.69207000  1.0
  H  H8  1  0.80819000  0.96226000  0.91927000  1.0
  H  H9  1  0.19181000  0.96226000  0.58073000  1.0
  H  H10  1  0.69181000  0.53774000  0.91927000  1.0
  H  H11  1  0.30819000  0.53774000  0.58073000  1.0
  H  H12  1  0.19181000  0.03774000  0.08073000  1.0
  H  H13  1  0.80819000  0.03774000  0.41927000  1.0
  H  H14  1  0.30819000  0.46226000  0.08073000  1.0
  H  H15  1  0.69181000  0.46226000  0.41927000  1.0
  H  H16  1  0.34139000  0.15773000  0.20002000  1.0
  H  H17  1  0.65861000  0.15773000  0.29998000  1.0
  H  H18  1  0.15860000  0.34227000  0.20002000  1.0
  H  H19  1  0.84140000  0.34227000  0.29998000  1.0
  H  H20  1  0.65860000  0.84227000  0.79998000  1.0
  H  H21  1  0.34140000  0.84227000  0.70002000  1.0
  H  H22  1  0.84140000  0.65773000  0.79998000  1.0
  H  H23  1  0.15861000  0.65773000  0.70002000  1.0
  H  H24  1  0.50181000  0.95435000  0.17533000  1.0
  H  H25  1  0.49819000  0.95435000  0.32467000  1.0
  H  H26  1  0.99819000  0.54565000  0.17533000  1.0
  H  H27  1  0.00181000  0.54565000  0.32467000  1.0
  H  H28  1  0.49819000  0.04565000  0.82467000  1.0
  H  H29  1  0.50181000  0.04565000  0.67533000  1.0
  H  H30  1  0.00181000  0.45435000  0.82467000  1.0
  H  H31  1  0.99819000  0.45435000  0.67533000  1.0
  H  H32  1  0.41168000  0.06658000  0.18761000  1.0
  H  H33  1  0.58832000  0.06657000  0.31239000  1.0
  H  H34  1  0.08832000  0.43342000  0.18761000  1.0
  H  H35  1  0.91168000  0.43342000  0.31239000  1.0
  H  H36  1  0.58832000  0.93342000  0.81239000  1.0
  H  H37  1  0.41168000  0.93342000  0.68761000  1.0
  H  H38  1  0.91168000  0.56658000  0.81239000  1.0
  H  H39  1  0.08832000  0.56658000  0.68761000  1.0
  H  H40  1  0.56666000  0.29901000  0.18006000  1.0
  H  H41  1  0.43334000  0.29901000  0.31994000  1.0
  H  H42  1  0.93334000  0.20099000  0.18006000  1.0
  H  H43  1  0.06666000  0.20099000  0.31994000  1.0
  H  H44  1  0.43334000  0.70099000  0.81994000  1.0
  H  H45  1  0.56666000  0.70099000  0.68006000  1.0
  H  H46  1  0.06666000  0.79901000  0.81994000  1.0
  H  H47  1  0.93334000  0.79901000  0.68006000  1.0
  H  H48  1  0.56369000  0.61158000  0.39602000  1.0
  H  H49  1  0.43632000  0.61158000  0.10398000  1.0
  H  H50  1  0.93631000  0.88842000  0.39601000  1.0
  H  H51  1  0.06368000  0.88842000  0.10399000  1.0
  H  H52  1  0.43631000  0.38842000  0.60398000  1.0
  H  H53  1  0.56369000  0.38842000  0.89602000  1.0
  H  H54  1  0.06369000  0.11158000  0.60398000  1.0
  H  H55  1  0.93632000  0.11158000  0.89602000  1.0
  H  H56  1  0.61284000  0.61084000  0.23555000  1.0
  H  H57  1  0.38716000  0.61084000  0.26445000  1.0
  H  H58  1  0.88716000  0.88916000  0.23555000  1.0
  H  H59  1  0.11284000  0.88916000  0.26445000  1.0
  H  H60  1  0.38716000  0.38916000  0.76445000  1.0
  H  H61  1  0.61284000  0.38916000  0.73555000  1.0
  H  H62  1  0.11284000  0.11084000  0.76445000  1.0
  H  H63  1  0.88716000  0.11084000  0.73555000  1.0
  H  H64  1  0.67318000  0.83996000  0.31805000  1.0
  H  H65  1  0.32683000  0.83996000  0.18195000  1.0
  H  H66  1  0.82683000  0.66004000  0.31805000  1.0
  H  H67  1  0.17317000  0.66004000  0.18195000  1.0
  H  H68  1  0.32683000  0.16004000  0.68195000  1.0
  H  H69  1  0.67317000  0.16004000  0.81805000  1.0
  H  H70  1  0.17318000  0.33996000  0.68195000  1.0
  H  H71  1  0.82683000  0.33996000  0.81805000  1.0
  H  H72  1  0.61901000  0.81230000  0.12823000  1.0
  H  H73  1  0.38099000  0.81230000  0.37177000  1.0
  H  H74  1  0.88099000  0.68770000  0.12823000  1.0
  H  H75  1  0.11901000  0.68770000  0.37177000  1.0
  H  H76  1  0.38099000  0.18770000  0.87177000  1.0
  H  H77  1  0.61901000  0.18770000  0.62823000  1.0
  H  H78  1  0.11901000  0.31230000  0.87177000  1.0
  H  H79  1  0.88100000  0.31230000  0.62823000  1.0
  H  H80  1  0.59534000  0.75837000  0.36481000  1.0
  H  H81  1  0.40467000  0.75837000  0.13519000  1.0
  H  H82  1  0.90466000  0.74163000  0.36481000  1.0
  H  H83  1  0.09533000  0.74163000  0.13519000  1.0
  H  H84  1  0.40466000  0.24163000  0.63519000  1.0
  H  H85  1  0.59534000  0.24162000  0.86481000  1.0
  H  H86  1  0.09534000  0.25837000  0.63519000  1.0
  H  H87  1  0.90467000  0.25837000  0.86481000  1.0
  H  H88  1  0.69977000  0.94619000  0.25966000  1.0
  H  H89  1  0.30024000  0.94619000  0.24034000  1.0
  H  H90  1  0.80024000  0.55381000  0.25966000  1.0
  H  H91  1  0.19976000  0.55381000  0.24034000  1.0
  H  H92  1  0.30024000  0.05381000  0.74034000  1.0
  H  H93  1  0.69976000  0.05381000  0.75966000  1.0
  H  H94  1  0.19977000  0.44619000  0.74034000  1.0
  H  H95  1  0.80024000  0.44619000  0.75966000  1.0
  H  H96  1  0.90593000  0.84178000  0.06597000  1.0
  H  H97  1  0.09407000  0.84178000  0.43403000  1.0
  H  H98  1  0.59407000  0.65822000  0.06597000  1.0
  H  H99  1  0.40592000  0.65822000  0.43403000  1.0
  H  H100  1  0.09407000  0.15822000  0.93403000  1.0
  H  H101  1  0.90593000  0.15822000  0.56597000  1.0
  H  H102  1  0.40592000  0.34178000  0.93403000  1.0
  H  H103  1  0.59407000  0.34179000  0.56597000  1.0
  H  H104  1  0.80887000  0.85131000  0.14306000  1.0
  H  H105  1  0.19113000  0.85131000  0.35694000  1.0
  H  H106  1  0.69113000  0.64869000  0.14306000  1.0
  H  H107  1  0.30887000  0.64869000  0.35694000  1.0
  H  H108  1  0.19113000  0.14869000  0.85694000  1.0
  H  H109  1  0.80887000  0.14869000  0.64306000  1.0
  H  H110  1  0.30886000  0.35131000  0.85694000  1.0
  H  H111  1  0.69114000  0.35131000  0.64306000  1.0
  H  H112  1  0.29268000  0.30781000  0.20902000  1.0
  H  H113  1  0.70731000  0.30780000  0.29098000  1.0
  H  H114  1  0.20731000  0.19219000  0.20902000  1.0
  H  H115  1  0.79269000  0.19220000  0.29098000  1.0
  H  H116  1  0.70731000  0.69219000  0.79098000  1.0
  H  H117  1  0.29269000  0.69220000  0.70902000  1.0
  H  H118  1  0.79269000  0.80780000  0.79098000  1.0
  H  H119  1  0.20731000  0.80781000  0.70902000  1.0
  H  H120  1  0.64958000  0.20219000  0.17625000  1.0
  H  H121  1  0.35042000  0.20219000  0.32375000  1.0
  H  H122  1  0.85042000  0.29781000  0.17625000  1.0
  H  H123  1  0.14958000  0.29781000  0.32375000  1.0
  H  H124  1  0.35042000  0.79781000  0.82375000  1.0
  H  H125  1  0.64958000  0.79781000  0.67625000  1.0
  H  H126  1  0.14958000  0.70219000  0.82375000  1.0
  H  H127  1  0.85042000  0.70219000  0.67625000  1.0
  H  H128  1  0.58440000  0.70735000  0.18745000  1.0
  H  H129  1  0.41560000  0.70735000  0.31255000  1.0
  H  H130  1  0.91560000  0.79265000  0.18745000  1.0
  H  H131  1  0.08440000  0.79265000  0.31255000  1.0
  H  H132  1  0.41560000  0.29265000  0.81255000  1.0
  H  H133  1  0.58440000  0.29265000  0.68746000  1.0
  H  H134  1  0.08440000  0.20735000  0.81254000  1.0
  H  H135  1  0.91560000  0.20735000  0.68745000  1.0
  H  H136  1  0.73930000  0.08748000  0.16385000  1.0
  H  H137  1  0.26070000  0.08748000  0.33615000  1.0
  H  H138  1  0.76070000  0.41252000  0.16385000  1.0
  H  H139  1  0.23930000  0.41252000  0.33615000  1.0
  H  H140  1  0.26070000  0.91252000  0.83615000  1.0
  H  H141  1  0.73930000  0.91252000  0.66385000  1.0
  H  H142  1  0.23930000  0.58748000  0.83615000  1.0
  H  H143  1  0.76071000  0.58748000  0.66385000  1.0
  H  H144  1  0.08223000  0.91745000  0.91285000  1.0
  H  H145  1  0.91777000  0.91745000  0.58715000  1.0
  H  H146  1  0.41777000  0.58255000  0.91285000  1.0
  H  H147  1  0.58223000  0.58255000  0.58715000  1.0
  H  H148  1  0.91777000  0.08255000  0.08715000  1.0
  H  H149  1  0.08223000  0.08255000  0.41285000  1.0
  H  H150  1  0.58223000  0.41745000  0.08715000  1.0
  H  H151  1  0.41777000  0.41745000  0.41285000  1.0
  H  H152  1  0.76429000  0.02409000  0.99455000  1.0
  H  H153  1  0.23571000  0.02409000  0.50545000  1.0
  H  H154  1  0.73571000  0.47591000  0.99455000  1.0
  H  H155  1  0.26429000  0.47591000  0.50546000  1.0
  H  H156  1  0.23571000  0.97591000  0.00545000  1.0
  H  H157  1  0.76429000  0.97591000  0.49455000  1.0
  H  H158  1  0.26429000  0.52409000  0.00545000  1.0
  H  H159  1  0.73571000  0.52409000  0.49455000  1.0
  H  H160  1  0.66437000  0.03088000  0.07027000  1.0
  H  H161  1  0.33563000  0.03088000  0.42973000  1.0
  H  H162  1  0.83563000  0.46912000  0.07027000  1.0
  H  H163  1  0.16437000  0.46912000  0.42973000  1.0
  H  H164  1  0.33563000  0.96912000  0.92973000  1.0
  H  H165  1  0.66437000  0.96912000  0.57027000  1.0
  H  H166  1  0.16437000  0.53088000  0.92973000  1.0
  H  H167  1  0.83563000  0.53088000  0.57027000  1.0
  H  H168  1  0.02504000  0.89808000  0.01517000  1.0
  H  H169  1  0.97496000  0.89808000  0.48483000  1.0
  H  H170  1  0.47496000  0.60192000  0.01517000  1.0
  H  H171  1  0.52504000  0.60192000  0.48483000  1.0
  H  H172  1  0.97496000  0.10192000  0.98483000  1.0
  H  H173  1  0.02504000  0.10192000  0.51517000  1.0
  H  H174  1  0.52504000  0.39808000  0.98483000  1.0
  H  H175  1  0.47496000  0.39809000  0.51517000  1.0
  C  C176  1  0.87556000  0.94972000  0.93173000  1.0
  C  C177  1  0.12444000  0.94972000  0.56827000  1.0
  C  C178  1  0.62444000  0.55028000  0.93173000  1.0
  C  C179  1  0.37556000  0.55028000  0.56827000  1.0
  C  C180  1  0.12444000  0.05028000  0.06826000  1.0
  C  C181  1  0.87556000  0.05028000  0.43174000  1.0
  C  C182  1  0.37556000  0.44972000  0.06826000  1.0
  C  C183  1  0.62444000  0.44972000  0.43173000  1.0
  C  C184  1  0.62601000  0.01387000  0.16666000  1.0
  C  C185  1  0.37398000  0.01387000  0.33333333  1.0
  C  C186  1  0.87399000  0.48613000  0.16666000  1.0
  C  C187  1  0.12601000  0.48613000  0.33333333  1.0
  C  C188  1  0.37399000  0.98613000  0.83334000  1.0
  C  C189  1  0.62601000  0.98613000  0.66666667  1.0
  C  C190  1  0.12601000  0.51387000  0.83334000  1.0
  C  C191  1  0.87399000  0.51387000  0.66666667  1.0
  C  C192  1  0.38033000  0.20872000  0.19819000  1.0
  C  C193  1  0.61968000  0.20872000  0.30182000  1.0
  C  C194  1  0.11967000  0.29128000  0.19819000  1.0
  C  C195  1  0.88033000  0.29128000  0.30181000  1.0
  C  C196  1  0.61968000  0.79128000  0.80182000  1.0
  C  C197  1  0.38032000  0.79128000  0.69818000  1.0
  C  C198  1  0.88033000  0.70872000  0.80182000  1.0
  C  C199  1  0.11968000  0.70872000  0.69819000  1.0
  C  C200  1  0.53422000  0.00881000  0.17498000  1.0
  C  C201  1  0.46578000  0.00881000  0.32502000  1.0
  C  C202  1  0.96577000  0.49119000  0.17498000  1.0
  C  C203  1  0.03422000  0.49119000  0.32502000  1.0
  C  C204  1  0.46577000  0.99119000  0.82502000  1.0
  C  C205  1  0.53423000  0.99119000  0.67498000  1.0
  C  C206  1  0.03422000  0.50881000  0.82502000  1.0
  C  C207  1  0.96578000  0.50881000  0.67498000  1.0
  C  C208  1  0.48334000  0.07269000  0.18246000  1.0
  C  C209  1  0.51666000  0.07268000  0.31754000  1.0
  C  C210  1  0.01666000  0.42732000  0.18246000  1.0
  C  C211  1  0.98334000  0.42731000  0.31754000  1.0
  C  C212  1  0.51666000  0.92731000  0.81754000  1.0
  C  C213  1  0.48334000  0.92732000  0.68246000  1.0
  C  C214  1  0.98334000  0.57269000  0.81754000  1.0
  C  C215  1  0.01666000  0.57269000  0.68246000  1.0
  C  C216  1  0.49871000  0.28111000  0.18627000  1.0
  C  C217  1  0.50129000  0.28111000  0.31373000  1.0
  C  C218  1  0.00129000  0.21889000  0.18628000  1.0
  C  C219  1  0.99871000  0.21889000  0.31373000  1.0
  C  C220  1  0.50129000  0.71889000  0.81373000  1.0
  C  C221  1  0.49871000  0.71888000  0.68627000  1.0
  C  C222  1  0.99871000  0.78111000  0.81373000  1.0
  C  C223  1  0.00129000  0.78111000  0.68628000  1.0
  C  C224  1  0.57867000  0.63406000  0.35791000  1.0
  C  C225  1  0.42134000  0.63406000  0.14209000  1.0
  C  C226  1  0.92133000  0.86594000  0.35791000  1.0
  C  C227  1  0.07866000  0.86594000  0.14209000  1.0
  C  C228  1  0.42133000  0.36594000  0.64209000  1.0
  C  C229  1  0.57867000  0.36594000  0.85791000  1.0
  C  C230  1  0.07867000  0.13406000  0.64209000  1.0
  C  C231  1  0.92133000  0.13406000  0.85791000  1.0
  C  C232  1  0.52405000  0.14292000  0.18158000  1.0
  C  C233  1  0.47595000  0.14291000  0.31842000  1.0
  C  C234  1  0.97595000  0.35708000  0.18158000  1.0
  C  C235  1  0.02405000  0.35708000  0.31842000  1.0
  C  C236  1  0.47595000  0.85709000  0.81842000  1.0
  C  C237  1  0.52405000  0.85709000  0.68158000  1.0
  C  C238  1  0.02405000  0.64291000  0.81842000  1.0
  C  C239  1  0.97595000  0.64292000  0.68158000  1.0
  C  C240  1  0.66150000  0.88600000  0.18992000  1.0
  C  C241  1  0.33850000  0.88600000  0.31008000  1.0
  C  C242  1  0.83850000  0.61400000  0.18992000  1.0
  C  C243  1  0.16150000  0.61400000  0.31008000  1.0
  C  C244  1  0.33850000  0.11400000  0.81008000  1.0
  C  C245  1  0.66150000  0.11400000  0.68992000  1.0
  C  C246  1  0.16151000  0.38600000  0.81008000  1.0
  C  C247  1  0.83850000  0.38600000  0.68992000  1.0
  C  C248  1  0.60246000  0.63132000  0.27477000  1.0
  C  C249  1  0.39755000  0.63132000  0.22523000  1.0
  C  C250  1  0.89754000  0.86868000  0.27477000  1.0
  C  C251  1  0.10245000  0.86868000  0.22523000  1.0
  C  C252  1  0.39754000  0.36868000  0.72523000  1.0
  C  C253  1  0.60246000  0.36868000  0.77477000  1.0
  C  C254  1  0.10246000  0.13132000  0.72523000  1.0
  C  C255  1  0.89754000  0.13132000  0.77477000  1.0
  C  C256  1  0.65886000  0.83364000  0.27671000  1.0
  C  C257  1  0.34114000  0.83364000  0.22329000  1.0
  C  C258  1  0.84114000  0.66636000  0.27671000  1.0
  C  C259  1  0.15886000  0.66636000  0.22329000  1.0
  C  C260  1  0.34114000  0.16636000  0.72329000  1.0
  C  C261  1  0.65886000  0.16636000  0.77671000  1.0
  C  C262  1  0.15887000  0.33364000  0.72329000  1.0
  C  C263  1  0.84114000  0.33364000  0.77671000  1.0
  C  C264  1  0.63067000  0.81790000  0.16991000  1.0
  C  C265  1  0.36933000  0.81789000  0.33009000  1.0
  C  C266  1  0.86933000  0.68210000  0.16991000  1.0
  C  C267  1  0.13067000  0.68210000  0.33009000  1.0
  C  C268  1  0.36933000  0.18210000  0.83009000  1.0
  C  C269  1  0.63067000  0.18211000  0.66991000  1.0
  C  C270  1  0.13067000  0.31790000  0.83009000  1.0
  C  C271  1  0.86933000  0.31790000  0.66991000  1.0
  C  C272  1  0.59509000  0.70653000  0.34321000  1.0
  C  C273  1  0.40492000  0.70653000  0.15679000  1.0
  C  C274  1  0.90491000  0.79347000  0.34321000  1.0
  C  C275  1  0.09508000  0.79347000  0.15679000  1.0
  C  C276  1  0.40491000  0.29347000  0.65679000  1.0
  C  C277  1  0.59509000  0.29347000  0.84321000  1.0
  C  C278  1  0.09509000  0.20653000  0.65679000  1.0
  C  C279  1  0.90491000  0.20653000  0.84321000  1.0
  C  C280  1  0.67501000  0.89359000  0.24358000  1.0
  C  C281  1  0.32500000  0.89359000  0.25642000  1.0
  C  C282  1  0.82500000  0.60641000  0.24358000  1.0
  C  C283  1  0.17500000  0.60641000  0.25642000  1.0
  C  C284  1  0.32500000  0.10641000  0.75642000  1.0
  C  C285  1  0.67500000  0.10641000  0.74358000  1.0
  C  C286  1  0.17501000  0.39359000  0.75642000  1.0
  C  C287  1  0.82500000  0.39359000  0.74358000  1.0
  C  C288  1  0.62759000  0.76593000  0.25663000  1.0
  C  C289  1  0.37241000  0.76594000  0.24337000  1.0
  C  C290  1  0.87241000  0.73407000  0.25663000  1.0
  C  C291  1  0.12759000  0.73406000  0.24337000  1.0
  C  C292  1  0.37241000  0.23407000  0.74337000  1.0
  C  C293  1  0.62759000  0.23406000  0.75663000  1.0
  C  C294  1  0.12760000  0.26593000  0.74337000  1.0
  C  C295  1  0.87241000  0.26593000  0.75663000  1.0
  C  C296  1  0.73003000  0.94222000  0.11275000  1.0
  C  C297  1  0.26998000  0.94222000  0.38726000  1.0
  C  C298  1  0.76998000  0.55778000  0.11274000  1.0
  C  C299  1  0.23002000  0.55778000  0.38726000  1.0
  C  C300  1  0.26998000  0.05778000  0.88726000  1.0
  C  C301  1  0.73002000  0.05778000  0.61274000  1.0
  C  C302  1  0.23003000  0.44222000  0.88726000  1.0
  C  C303  1  0.76998000  0.44222000  0.61274000  1.0
  C  C304  1  0.85366000  0.88395000  0.06707000  1.0
  C  C305  1  0.14635000  0.88395000  0.43293000  1.0
  C  C306  1  0.64634000  0.61605000  0.06707000  1.0
  C  C307  1  0.35365000  0.61605000  0.43293000  1.0
  C  C308  1  0.14634000  0.11605000  0.93293000  1.0
  C  C309  1  0.85365000  0.11605000  0.56707000  1.0
  C  C310  1  0.35365000  0.38395000  0.93293000  1.0
  C  C311  1  0.64635000  0.38395000  0.56707000  1.0
  C  C312  1  0.79879000  0.88896000  0.11040000  1.0
  C  C313  1  0.20121000  0.88896000  0.38960000  1.0
  C  C314  1  0.70121000  0.61104000  0.11040000  1.0
  C  C315  1  0.29879000  0.61104000  0.38960000  1.0
  C  C316  1  0.20121000  0.11104000  0.88960000  1.0
  C  C317  1  0.79879000  0.11104000  0.61040000  1.0
  C  C318  1  0.29879000  0.38896000  0.88960000  1.0
  C  C319  1  0.70121000  0.38896000  0.61040000  1.0
  C  C320  1  0.84225000  0.93283000  0.02521000  1.0
  C  C321  1  0.15775000  0.93283000  0.47479000  1.0
  C  C322  1  0.65775000  0.56718000  0.02520000  1.0
  C  C323  1  0.34225000  0.56718000  0.47479000  1.0
  C  C324  1  0.15775000  0.06717000  0.97479000  1.0
  C  C325  1  0.84225000  0.06718000  0.52520000  1.0
  C  C326  1  0.34225000  0.43283000  0.97479000  1.0
  C  C327  1  0.65775000  0.43283000  0.52521000  1.0
  C  C328  1  0.35682000  0.28241000  0.20211000  1.0
  C  C329  1  0.64317000  0.28241000  0.29789000  1.0
  C  C330  1  0.14317000  0.21759000  0.20211000  1.0
  C  C331  1  0.85683000  0.21759000  0.29789000  1.0
  C  C332  1  0.64317000  0.71759000  0.79789000  1.0
  C  C333  1  0.35683000  0.71759000  0.70211000  1.0
  C  C334  1  0.85683000  0.78241000  0.79789000  1.0
  C  C335  1  0.14317000  0.78241000  0.70211000  1.0
  C  C336  1  0.61643000  0.14820000  0.17484000  1.0
  C  C337  1  0.38357000  0.14820000  0.32516000  1.0
  C  C338  1  0.88357000  0.35180000  0.17484000  1.0
  C  C339  1  0.11643000  0.35180000  0.32516000  1.0
  C  C340  1  0.38357000  0.85180000  0.82516000  1.0
  C  C341  1  0.61643000  0.85180000  0.67484000  1.0
  C  C342  1  0.11643000  0.64820000  0.82516000  1.0
  C  C343  1  0.88357000  0.64820000  0.67484000  1.0
  C  C344  1  0.61284000  0.75854000  0.20309000  1.0
  C  C345  1  0.38716000  0.75854000  0.29691000  1.0
  C  C346  1  0.88716000  0.74146000  0.20308000  1.0
  C  C347  1  0.11284000  0.74146000  0.29692000  1.0
  C  C348  1  0.38716000  0.24146000  0.79692000  1.0
  C  C349  1  0.61284000  0.24146000  0.70308000  1.0
  C  C350  1  0.11284000  0.25854000  0.79692000  1.0
  C  C351  1  0.88716000  0.25854000  0.70308000  1.0
  C  C352  1  0.66716000  0.08409000  0.16767000  1.0
  C  C353  1  0.33284000  0.08409000  0.33233000  1.0
  C  C354  1  0.83284000  0.41591000  0.16767000  1.0
  C  C355  1  0.16716000  0.41591000  0.33233000  1.0
  C  C356  1  0.33284000  0.91591000  0.83233000  1.0
  C  C357  1  0.66716000  0.91591000  0.66767000  1.0
  C  C358  1  0.16716000  0.58409000  0.83233000  1.0
  C  C359  1  0.83285000  0.58409000  0.66767000  1.0
  C  C360  1  0.01649000  0.92341000  0.92967000  1.0
  C  C361  1  0.98352000  0.92341000  0.57033000  1.0
  C  C362  1  0.48352000  0.57659000  0.92967000  1.0
  C  C363  1  0.51649000  0.57659000  0.57033000  1.0
  C  C364  1  0.98351000  0.07659000  0.07033000  1.0
  C  C365  1  0.01649000  0.07659000  0.42967000  1.0
  C  C366  1  0.51648000  0.42341000  0.07033000  1.0
  C  C367  1  0.48351000  0.42341000  0.42967000  1.0
  C  C368  1  0.77371000  0.98565000  0.02694000  1.0
  C  C369  1  0.22629000  0.98565000  0.47306000  1.0
  C  C370  1  0.72629000  0.51435000  0.02694000  1.0
  C  C371  1  0.27371000  0.51435000  0.47307000  1.0
  C  C372  1  0.22629000  0.01435000  0.97306000  1.0
  C  C373  1  0.77371000  0.01435000  0.52693000  1.0
  C  C374  1  0.27371000  0.48565000  0.97306000  1.0
  C  C375  1  0.72629000  0.48565000  0.52694000  1.0
  C  C376  1  0.71767000  0.98977000  0.06973000  1.0
  C  C377  1  0.28233000  0.98977000  0.43027000  1.0
  C  C378  1  0.78233000  0.51023000  0.06973000  1.0
  C  C379  1  0.21766000  0.51023000  0.43027000  1.0
  C  C380  1  0.28233000  0.01023000  0.93027000  1.0
  C  C381  1  0.71766000  0.01023000  0.56973000  1.0
  C  C382  1  0.21767000  0.48977000  0.93027000  1.0
  C  C383  1  0.78233000  0.48977000  0.56973000  1.0
  C  C384  1  0.98919000  0.91297000  0.98019000  1.0
  C  C385  1  0.01081000  0.91297000  0.51981000  1.0
  C  C386  1  0.51081000  0.58703000  0.98019000  1.0
  C  C387  1  0.48919000  0.58703000  0.51981000  1.0
  C  C388  1  0.01081000  0.08703000  0.01981000  1.0
  C  C389  1  0.98919000  0.08703000  0.48019000  1.0
  C  C390  1  0.48919000  0.41297000  0.01981000  1.0
  C  C391  1  0.51081000  0.41297000  0.48019000  1.0
  N  N392  1  0.60987000  0.70445000  0.28987000  1.0
  N  N393  1  0.39013000  0.70445000  0.21012000  1.0
  N  N394  1  0.89013000  0.79555000  0.28988000  1.0
  N  N395  1  0.10987000  0.79555000  0.21013000  1.0
  N  N396  1  0.39012000  0.29555000  0.71012000  1.0
  N  N397  1  0.60987000  0.29555000  0.78988000  1.0
  N  N398  1  0.10987000  0.20445000  0.71012000  1.0
  N  N399  1  0.89013000  0.20445000  0.78988000  1.0
  N  N400  1  0.67609000  0.94810000  0.15679000  1.0
  N  N401  1  0.32391000  0.94809000  0.34321000  1.0
  N  N402  1  0.82391000  0.55191000  0.15680000  1.0
  N  N403  1  0.17609000  0.55191000  0.34321000  1.0
  N  N404  1  0.32391000  0.05191000  0.84321000  1.0
  N  N405  1  0.67609000  0.05191000  0.65679000  1.0
  N  N406  1  0.17609000  0.44809000  0.84321000  1.0
  N  N407  1  0.82391000  0.44810000  0.65679000  1.0
  N  N408  1  0.43079000  0.32659000  0.19462000  1.0
  N  N409  1  0.56921000  0.32658000  0.30538000  1.0
  N  N410  1  0.06921000  0.17341000  0.19462000  1.0
  N  N411  1  0.93079000  0.17341000  0.30538000  1.0
  N  N412  1  0.56921000  0.67341000  0.80538000  1.0
  N  N413  1  0.43079000  0.67341000  0.69461000  1.0
  N  N414  1  0.93079000  0.82659000  0.80538000  1.0
  N  N415  1  0.06921000  0.82658000  0.69462000  1.0
  N  N416  1  0.94505000  0.94631000  0.90006000  1.0
  N  N417  1  0.05495000  0.94631000  0.59994000  1.0
  N  N418  1  0.55495000  0.55369000  0.90006000  1.0
  N  N419  1  0.44505000  0.55368000  0.59994000  1.0
  N  N420  1  0.05495000  0.05368000  0.09994000  1.0
  N  N421  1  0.94505000  0.05368000  0.40006000  1.0
  N  N422  1  0.44504000  0.44631000  0.09994000  1.0
  N  N423  1  0.55495000  0.44631000  0.40006000  1.0
  N  N424  1  0.47124000  0.20809000  0.18818000  1.0
  N  N425  1  0.52876000  0.20809000  0.31182000  1.0
  N  N426  1  0.02876000  0.29191000  0.18818000  1.0
  N  N427  1  0.97124000  0.29191000  0.31182000  1.0
  N  N428  1  0.52876000  0.79191000  0.81182000  1.0
  N  N429  1  0.47124000  0.79191000  0.68818000  1.0
  N  N430  1  0.97124000  0.70809000  0.81182000  1.0
  N  N431  1  0.02876000  0.70809000  0.68818000  1.0
  N  N432  1  0.89916000  0.93016000  0.98119000  1.0
  N  N433  1  0.10084000  0.93016000  0.51881000  1.0
  N  N434  1  0.60084000  0.56984000  0.98119000  1.0
  N  N435  1  0.39916000  0.56984000  0.51881000  1.0
  N  N436  1  0.10084000  0.06984000  0.01881000  1.0
  N  N437  1  0.89916000  0.06983000  0.48119000  1.0
  N  N438  1  0.39916000  0.43016000  0.01881000  1.0
  N  N439  1  0.60084000  0.43016000  0.48119000  1.0
  N  N440  1  0.58341000  0.58821000  0.31499000  1.0
  N  N441  1  0.41659000  0.58821000  0.18501000  1.0
  N  N442  1  0.91659000  0.91179000  0.31499000  1.0
  N  N443  1  0.08340000  0.91179000  0.18501000  1.0
  N  N444  1  0.41659000  0.41179000  0.68501000  1.0
  N  N445  1  0.58341000  0.41179000  0.81499000  1.0
  N  N446  1  0.08341000  0.08821000  0.68501000  1.0
  N  N447  1  0.91659000  0.08821000  0.81499000  1.0
  Cl  Cl448  1  0.24951000  0.45754000  0.17518000  1.0
  Cl  Cl449  1  0.75049000  0.45753000  0.32481000  1.0
  Cl  Cl450  1  0.25049000  0.04246000  0.17519000  1.0
  Cl  Cl451  1  0.74951000  0.04246000  0.32481000  1.0
  Cl  Cl452  1  0.75049000  0.54247000  0.82482000  1.0
  Cl  Cl453  1  0.24951000  0.54245000  0.67519000  1.0
  Cl  Cl454  1  0.74951000  0.95754000  0.82482000  1.0
  Cl  Cl455  1  0.25049000  0.95754000  0.67518000  1.0
  Cl  Cl456  1  0.40050000  0.46519000  0.29581000  1.0
  Cl  Cl457  1  0.59950000  0.46519000  0.20419000  1.0
  Cl  Cl458  1  0.09950000  0.03481000  0.29581000  1.0
  Cl  Cl459  1  0.90049000  0.03481000  0.20419000  1.0
  Cl  Cl460  1  0.59950000  0.53481000  0.70419000  1.0
  Cl  Cl461  1  0.40049000  0.53481000  0.79581000  1.0
  Cl  Cl462  1  0.90049000  0.96518000  0.70419000  1.0
  Cl  Cl463  1  0.09950000  0.96518000  0.79581000  1.0
