# generated using pymatgen
data_CuH13C10SIO
_symmetry_space_group_name_H-M   'P 1'
_cell_length_a   11.57166426
_cell_length_b   11.72110000
_cell_length_c   12.01110000
_cell_angle_alpha   66.31500000
_cell_angle_beta   71.60656701
_cell_angle_gamma   106.72277073
_symmetry_Int_Tables_number   1
_chemical_formula_structural   CuH13C10SIO
_chemical_formula_sum   'Cu4 H52 C40 S4 I4 O4'
_cell_volume   1244.23428458
_cell_formula_units_Z   4
loop_
 _symmetry_equiv_pos_site_id
 _symmetry_equiv_pos_as_xyz
  1  'x, y, z'
loop_
 _atom_site_type_symbol
 _atom_site_label
 _atom_site_symmetry_multiplicity
 _atom_site_fract_x
 _atom_site_fract_y
 _atom_site_fract_z
 _atom_site_occupancy
  Cu  Cu0  1  0.07566000  0.51814000  0.58870000  1.0
  Cu  Cu1  1  0.92549000  0.33597000  0.55378000  1.0
  Cu  Cu2  1  0.88826000  0.55258000  0.52337000  1.0
  Cu  Cu3  1  0.11149000  0.58934000  0.33694000  1.0
  H  H4  1  0.22327000  0.19577000  0.94714000  1.0
  H  H5  1  0.78076000  0.83324000  0.02568000  1.0
  H  H6  1  0.85653000  0.02727000  0.19901000  1.0
  H  H7  1  0.13864000  0.94014000  0.83981000  1.0
  H  H8  1  0.22043000  0.10127000  0.17452000  1.0
  H  H9  1  0.78593000  0.60422000  0.11766000  1.0
  H  H10  1  0.72092000  0.12118000  0.10083000  1.0
  H  H11  1  0.27381000  0.17001000  0.61065000  1.0
  H  H12  1  0.06884000  0.11968000  0.36099000  1.0
  H  H13  1  0.93295000  0.56011000  0.95317000  1.0
  H  H14  1  0.51556000  0.95646000  0.11439000  1.0
  H  H15  1  0.48214000  0.36487000  0.56270000  1.0
  H  H16  1  0.92850000  0.23867000  0.31445000  1.0
  H  H17  1  0.06848000  0.74304000  0.69943000  1.0
  H  H18  1  0.44538000  0.70009000  0.23127000  1.0
  H  H19  1  0.55640000  0.32445000  0.74140000  1.0
  H  H20  1  0.93452000  0.33607000  0.08602000  1.0
  H  H21  1  0.06014000  0.96991000  0.60782000  1.0
  H  H22  1  0.57842000  0.60635000  0.33274000  1.0
  H  H23  1  0.42428000  0.09355000  0.96777000  1.0
  H  H24  1  0.96558000  0.26604000  0.88933000  1.0
  H  H25  1  0.03098000  0.14468000  0.70243000  1.0
  H  H26  1  0.84751000  0.70076000  0.27470000  1.0
  H  H27  1  0.15521000  0.88871000  0.14428000  1.0
  H  H28  1  0.13113000  0.28049000  0.80716000  1.0
  H  H29  1  0.86358000  0.06494000  0.84631000  1.0
  H  H30  1  0.91394000  0.84882000  0.28809000  1.0
  H  H31  1  0.08264000  0.80237000  0.07189000  1.0
  H  H32  1  0.35027000  0.53681000  0.75990000  1.0
  H  H33  1  0.64825000  0.88823000  0.81104000  1.0
  H  H34  1  0.69920000  0.81470000  0.53944000  1.0
  H  H35  1  0.29397000  0.76008000  0.89580000  1.0
  H  H36  1  0.34749000  0.51164000  0.62305000  1.0
  H  H37  1  0.65226000  0.03394000  0.82813000  1.0
  H  H38  1  0.86742000  0.83342000  0.50809000  1.0
  H  H39  1  0.12859000  0.62019000  0.04301000  1.0
  H  H40  1  0.51227000  0.75676000  0.52684000  1.0
  H  H41  1  0.48725000  0.96286000  0.74987000  1.0
  H  H42  1  0.71846000  0.75465000  0.75136000  1.0
  H  H43  1  0.28219000  0.52687000  0.96670000  1.0
  H  H44  1  0.37483000  0.75272000  0.48828000  1.0
  H  H45  1  0.62356000  0.14010000  0.62095000  1.0
  H  H46  1  0.76784000  0.62545000  0.74472000  1.0
  H  H47  1  0.23783000  0.48350000  0.14035000  1.0
  H  H48  1  0.39064000  0.96478000  0.47496000  1.0
  H  H49  1  0.61036000  0.13749000  0.42824000  1.0
  H  H50  1  0.56952000  0.42723000  0.95784000  1.0
  H  H51  1  0.44268000  0.47198000  0.13066000  1.0
  H  H52  1  0.37355000  0.97251000  0.62418000  1.0
  H  H53  1  0.62835000  0.00135000  0.40520000  1.0
  H  H54  1  0.40414000  0.40125000  0.97383000  1.0
  H  H55  1  0.60414000  0.62411000  0.99240000  1.0
  C  C56  1  0.15941000  0.20582000  0.02758000  1.0
  C  C57  1  0.84307000  0.81279000  0.95430000  1.0
  C  C58  1  0.76566000  0.95569000  0.20682000  1.0
  C  C59  1  0.23093000  0.02422000  0.81755000  1.0
  C  C60  1  0.15720000  0.15230000  0.15573000  1.0
  C  C61  1  0.84656000  0.68430000  0.00578000  1.0
  C  C62  1  0.68958000  0.00826000  0.15124000  1.0
  C  C63  1  0.30677000  0.15378000  0.68900000  1.0
  C  C64  1  0.07322000  0.16289000  0.25972000  1.0
  C  C65  1  0.92815000  0.65925000  0.91430000  1.0
  C  C66  1  0.57471000  0.91658000  0.15907000  1.0
  C  C67  1  0.42335000  0.26252000  0.66171000  1.0
  C  C68  1  0.99389000  0.22991000  0.23361000  1.0
  C  C69  1  0.00468000  0.76229000  0.77103000  1.0
  C  C70  1  0.53495000  0.77196000  0.22494000  1.0
  C  C71  1  0.46549000  0.23993000  0.76225000  1.0
  C  C72  1  0.99749000  0.28464000  0.10501000  1.0
  C  C73  1  0.00007000  0.88980000  0.71982000  1.0
  C  C74  1  0.61011000  0.71948000  0.28171000  1.0
  C  C75  1  0.39083000  0.10997000  0.88965000  1.0
  C  C76  1  0.07848000  0.27062000  0.00130000  1.0
  C  C77  1  0.92060000  0.91712000  0.81140000  1.0
  C  C78  1  0.72791000  0.81152000  0.27109000  1.0
  C  C79  1  0.27078000  0.00157000  0.91982000  1.0
  C  C80  1  0.07312000  0.31385000  0.86795000  1.0
  C  C81  1  0.92406000  0.05838000  0.75999000  1.0
  C  C82  1  0.81830000  0.76044000  0.31906000  1.0
  C  C83  1  0.18042000  0.86666000  0.06142000  1.0
  C  C84  1  0.32240000  0.56513000  0.67694000  1.0
  C  C85  1  0.67684000  0.00102000  0.75368000  1.0
  C  C86  1  0.75649000  0.75727000  0.56473000  1.0
  C  C87  1  0.23991000  0.67571000  0.00683000  1.0
  C  C88  1  0.40051000  0.72378000  0.57356000  1.0
  C  C89  1  0.59914000  0.02756000  0.67407000  1.0
  C  C90  1  0.70546000  0.67737000  0.71994000  1.0
  C  C91  1  0.29615000  0.57176000  0.02948000  1.0
  C  C92  1  0.42176000  0.93971000  0.55660000  1.0
  C  C93  1  0.57981000  0.02298000  0.48360000  1.0
  C  C94  1  0.50780000  0.48189000  0.93715000  1.0
  C  C95  1  0.50016000  0.55527000  0.01764000  1.0
  S  S96  1  0.13651000  0.50339000  0.75504000  1.0
  S  S97  1  0.86294000  0.10429000  0.63391000  1.0
  S  S98  1  0.73469000  0.63450000  0.50696000  1.0
  S  S99  1  0.26226000  0.75614000  0.10578000  1.0
  I  I100  1  0.12931000  0.78105000  0.41949000  1.0
  I  I101  1  0.86922000  0.45069000  0.35177000  1.0
  I  I102  1  0.79509000  0.34261000  0.78074000  1.0
  I  I103  1  0.20691000  0.42024000  0.45166000  1.0
  O  O104  1  0.36491000  0.79035000  0.64581000  1.0
  O  O105  1  0.63706000  0.98988000  0.57403000  1.0
  O  O106  1  0.56358000  0.57385000  0.79068000  1.0
  O  O107  1  0.43890000  0.64528000  0.98779000  1.0
