# generated using pymatgen
data_ZnH16C16(NO2)2
_symmetry_space_group_name_H-M   'P 1'
_cell_length_a   4.29019000
_cell_length_b   10.54880000
_cell_length_c   15.44110000
_cell_angle_alpha   96.28820000
_cell_angle_beta   90.00000000
_cell_angle_gamma   90.00000000
_symmetry_Int_Tables_number   1
_chemical_formula_structural   ZnH16C16(NO2)2
_chemical_formula_sum   'Zn2 H32 C32 N4 O8'
_cell_volume   694.60356874
_cell_formula_units_Z   2
loop_
 _symmetry_equiv_pos_site_id
 _symmetry_equiv_pos_as_xyz
  1  'x, y, z'
loop_
 _atom_site_type_symbol
 _atom_site_label
 _atom_site_symmetry_multiplicity
 _atom_site_fract_x
 _atom_site_fract_y
 _atom_site_fract_z
 _atom_site_occupancy
  Zn  Zn0  1  0.50000000  0.50000000  0.50000000  1.0
  Zn  Zn1  1  0.00000000  0.50000000  0.00000000  1.0
  H  H2  1  0.25849000  0.43596000  0.76461000  1.0
  H  H3  1  0.75849000  0.56404000  0.73540000  1.0
  H  H4  1  0.74151000  0.56404000  0.23540000  1.0
  H  H5  1  0.24151000  0.43596000  0.26461000  1.0
  H  H6  1  0.57726000  0.05559000  0.75260000  1.0
  H  H7  1  0.07726000  0.94441000  0.74740000  1.0
  H  H8  1  0.42274000  0.94441000  0.24740000  1.0
  H  H9  1  0.92274000  0.05559000  0.25260000  1.0
  H  H10  1  0.62879000  0.17457000  0.62244000  1.0
  H  H11  1  0.12878000  0.82543000  0.87755000  1.0
  H  H12  1  0.37122000  0.82543000  0.37756000  1.0
  H  H13  1  0.87121000  0.17457000  0.12244000  1.0
  H  H14  1  0.75602000  0.16419000  0.96831000  1.0
  H  H15  1  0.25602000  0.83581000  0.53168000  1.0
  H  H16  1  0.24398000  0.83581000  0.03169000  1.0
  H  H17  1  0.74398000  0.16419000  0.46831000  1.0
  H  H18  1  0.07696000  0.06918000  0.92946000  1.0
  H  H19  1  0.57696000  0.93082000  0.57054000  1.0
  H  H20  1  0.92304000  0.93082000  0.07054000  1.0
  H  H21  1  0.42304000  0.06918000  0.42946000  1.0
  H  H22  1  0.69582000  0.02250000  0.89506000  1.0
  H  H23  1  0.19583000  0.97750000  0.60494000  1.0
  H  H24  1  0.30418000  0.97750000  0.10494000  1.0
  H  H25  1  0.80418000  0.02250000  0.39506000  1.0
  H  H26  1  0.42868000  0.37872000  0.90555000  1.0
  H  H27  1  0.92868000  0.62128000  0.59445000  1.0
  H  H28  1  0.57132000  0.62128000  0.09445000  1.0
  H  H29  1  0.07132000  0.37872000  0.40555000  1.0
  H  H30  1  0.24011000  0.27374000  0.95821000  1.0
  H  H31  1  0.74011000  0.72626000  0.54179000  1.0
  H  H32  1  0.75989000  0.72626000  0.04179000  1.0
  H  H33  1  0.25989000  0.27374000  0.45821000  1.0
  C  C34  1  0.95140000  0.31159000  0.68537000  1.0
  C  C35  1  0.45140000  0.68841000  0.81463000  1.0
  C  C36  1  0.04860000  0.68841000  0.31463000  1.0
  C  C37  1  0.54860000  0.31158000  0.18537000  1.0
  C  C38  1  0.10605000  0.35325000  0.76281000  1.0
  C  C39  1  0.60605000  0.64675000  0.73719000  1.0
  C  C40  1  0.89396000  0.64675000  0.23719000  1.0
  C  C41  1  0.39395000  0.35325000  0.26281000  1.0
  C  C42  1  0.06538000  0.29067000  0.83711000  1.0
  C  C43  1  0.56538000  0.70933000  0.66289000  1.0
  C  C44  1  0.93462000  0.70933000  0.16289000  1.0
  C  C45  1  0.43462000  0.29067000  0.33711000  1.0
  C  C46  1  0.87822000  0.18036000  0.83370000  1.0
  C  C47  1  0.37822000  0.81964000  0.66630000  1.0
  C  C48  1  0.12178000  0.81964000  0.16630000  1.0
  C  C49  1  0.62178000  0.18036000  0.33370000  1.0
  C  C50  1  0.72531000  0.13989000  0.75523000  1.0
  C  C51  1  0.22531000  0.86011000  0.74477000  1.0
  C  C52  1  0.27469000  0.86011000  0.24477000  1.0
  C  C53  1  0.77469000  0.13989000  0.25523000  1.0
  C  C54  1  0.75595000  0.20478000  0.68211000  1.0
  C  C55  1  0.25595000  0.79522000  0.81789000  1.0
  C  C56  1  0.24405000  0.79522000  0.31789000  1.0
  C  C57  1  0.74405000  0.20478000  0.18211000  1.0
  C  C58  1  0.98723000  0.38303000  0.60756000  1.0
  C  C59  1  0.48723000  0.61697000  0.89244000  1.0
  C  C60  1  0.01277000  0.61698000  0.39244000  1.0
  C  C61  1  0.51277000  0.38302000  0.10756000  1.0
  C  C62  1  0.84831000  0.10545000  0.91069000  1.0
  C  C63  1  0.34831000  0.89455000  0.58931000  1.0
  C  C64  1  0.15169000  0.89455000  0.08931000  1.0
  C  C65  1  0.65169000  0.10545000  0.41069000  1.0
  N  N66  1  0.21295000  0.34074000  0.91605000  1.0
  N  N67  1  0.71295000  0.65926000  0.58395000  1.0
  N  N68  1  0.78705000  0.65926000  0.08395000  1.0
  N  N69  1  0.28705000  0.34074000  0.41605000  1.0
  O  O70  1  0.79444000  0.35804000  0.54472000  1.0
  O  O71  1  0.29444000  0.64196000  0.95528000  1.0
  O  O72  1  0.20556000  0.64196000  0.45528000  1.0
  O  O73  1  0.70556000  0.35804000  0.04471000  1.0
  O  O74  1  0.20374000  0.46623000  0.60822000  1.0
  O  O75  1  0.70374000  0.53377000  0.89178000  1.0
  O  O76  1  0.79626000  0.53377000  0.39178000  1.0
  O  O77  1  0.29625000  0.46623000  0.10822000  1.0
