# generated using pymatgen
data_CuH13C13N2ClO4
_symmetry_space_group_name_H-M   'P 1'
_cell_length_a   8.28322000
_cell_length_b   8.74542000
_cell_length_c   11.41610000
_cell_angle_alpha   103.55990000
_cell_angle_beta   92.79110000
_cell_angle_gamma   110.07280000
_symmetry_Int_Tables_number   1
_chemical_formula_structural   CuH13C13N2ClO4
_chemical_formula_sum   'Cu2 H26 C26 N4 Cl2 O8'
_cell_volume   747.50651805
_cell_formula_units_Z   2
loop_
 _symmetry_equiv_pos_site_id
 _symmetry_equiv_pos_as_xyz
  1  'x, y, z'
loop_
 _atom_site_type_symbol
 _atom_site_label
 _atom_site_symmetry_multiplicity
 _atom_site_fract_x
 _atom_site_fract_y
 _atom_site_fract_z
 _atom_site_occupancy
  Cu  Cu0  1  0.60869000  0.66634000  0.03167000  1.0
  Cu  Cu1  1  0.39131000  0.33368000  0.96835000  1.0
  H  H2  1  0.59138000  0.29079000  0.56524000  1.0
  H  H3  1  0.40862000  0.70919000  0.43476000  1.0
  H  H4  1  0.39077000  0.16606000  0.70400000  1.0
  H  H5  1  0.60922000  0.83392000  0.29599000  1.0
  H  H6  1  0.11239000  0.93784000  0.62419000  1.0
  H  H7  1  0.88760000  0.06213000  0.37579000  1.0
  H  H8  1  0.01639000  0.81360000  0.39830000  1.0
  H  H9  1  0.98362000  0.18639000  0.60168000  1.0
  H  H10  1  0.42618000  0.02956000  0.11024000  1.0
  H  H11  1  0.57384000  0.97045000  0.88975000  1.0
  H  H12  1  0.72715000  0.21730000  0.23095000  1.0
  H  H13  1  0.27286000  0.78272000  0.76906000  1.0
  H  H14  1  0.74882000  0.26676000  0.39168000  1.0
  H  H15  1  0.25120000  0.73325000  0.60832000  1.0
  H  H16  1  0.60621000  0.48813000  0.38860000  1.0
  H  H17  1  0.39378000  0.51185000  0.61142000  1.0
  H  H18  1  0.81754000  0.53536000  0.34939000  1.0
  H  H19  1  0.18245000  0.46464000  0.65063000  1.0
  H  H20  1  0.12546000  0.81505000  0.05472000  1.0
  H  H21  1  0.87457000  0.18497000  0.94527000  1.0
  H  H22  1  0.98611000  0.80896000  0.16655000  1.0
  H  H23  1  0.01390000  0.19107000  0.83342000  1.0
  H  H24  1  0.12246000  0.62200000  0.25096000  1.0
  H  H25  1  0.87753000  0.37801000  0.74903000  1.0
  H  H26  1  0.98455000  0.52825000  0.11130000  1.0
  H  H27  1  0.01544000  0.47176000  0.88869000  1.0
  C  C28  1  0.41495000  0.11720000  0.40412000  1.0
  C  C29  1  0.58506000  0.88279000  0.59588000  1.0
  C  C30  1  0.46685000  0.18852000  0.52896000  1.0
  C  C31  1  0.53315000  0.81146000  0.47104000  1.0
  C  C32  1  0.35509000  0.11839000  0.60576000  1.0
  C  C33  1  0.64491000  0.88159000  0.39423000  1.0
  C  C34  1  0.19525000  0.98486000  0.55923000  1.0
  C  C35  1  0.80475000  0.01512000  0.44076000  1.0
  C  C36  1  0.14182000  0.91443000  0.43439000  1.0
  C  C37  1  0.85818000  0.08556000  0.56560000  1.0
  C  C38  1  0.25522000  0.98242000  0.35759000  1.0
  C  C39  1  0.74480000  0.01757000  0.64240000  1.0
  C  C40  1  0.39611000  0.03670000  0.20229000  1.0
  C  C41  1  0.60390000  0.96331000  0.79771000  1.0
  C  C42  1  0.67314000  0.26837000  0.31063000  1.0
  C  C43  1  0.32687000  0.73163000  0.68937000  1.0
  C  C44  1  0.68247000  0.44804000  0.31951000  1.0
  C  C45  1  0.31752000  0.55196000  0.68051000  1.0
  C  C46  1  0.61856000  0.47113000  0.19996000  1.0
  C  C47  1  0.38140000  0.52885000  0.80005000  1.0
  C  C48  1  0.11015000  0.79715000  0.14610000  1.0
  C  C49  1  0.88986000  0.20286000  0.85388000  1.0
  C  C50  1  0.11034000  0.62515000  0.15505000  1.0
  C  C51  1  0.88964000  0.37486000  0.84494000  1.0
  C  C52  1  0.25440000  0.57438000  0.09896000  1.0
  C  C53  1  0.74561000  0.42564000  0.90106000  1.0
  N  N54  1  0.49823000  0.14689000  0.30405000  1.0
  N  N55  1  0.50180000  0.85310000  0.69595000  1.0
  N  N56  1  0.24887000  0.93795000  0.23140000  1.0
  N  N57  1  0.75114000  0.06206000  0.76859000  1.0
  Cl  Cl58  1  0.76776000  0.97405000  0.09496000  1.0
  Cl  Cl59  1  0.23224000  0.02596000  0.90506000  1.0
  O  O60  1  0.69058000  0.61550000  0.18155000  1.0
  O  O61  1  0.30954000  0.38445000  0.81840000  1.0
  O  O62  1  0.49850000  0.34332000  0.13065000  1.0
  O  O63  1  0.50133000  0.65675000  0.86945000  1.0
  O  O64  1  0.39928000  0.69327000  0.10656000  1.0
  O  O65  1  0.60078000  0.30672000  0.89358000  1.0
  O  O66  1  0.21616000  0.41762000  0.05047000  1.0
  O  O67  1  0.78377000  0.58240000  0.94941000  1.0
