# generated using pymatgen
data_ZnH7C13(NO2)2
_symmetry_space_group_name_H-M   'P 1'
_cell_length_a   11.80990000
_cell_length_b   11.94380000
_cell_length_c   13.13780000
_cell_angle_alpha   89.67300000
_cell_angle_beta   85.85580000
_cell_angle_gamma   85.45390000
_symmetry_Int_Tables_number   1
_chemical_formula_structural   ZnH7C13(NO2)2
_chemical_formula_sum   'Zn2 H14 C26 N4 O8'
_cell_volume   1842.49309995
_cell_formula_units_Z   2
loop_
 _symmetry_equiv_pos_site_id
 _symmetry_equiv_pos_as_xyz
  1  'x, y, z'
loop_
 _atom_site_type_symbol
 _atom_site_label
 _atom_site_symmetry_multiplicity
 _atom_site_fract_x
 _atom_site_fract_y
 _atom_site_fract_z
 _atom_site_occupancy
  Zn  Zn0  1  0.38197000  0.51075000  0.49811000  1.0
  Zn  Zn1  1  0.61749000  0.49293000  0.50244000  1.0
  H  H2  1  0.64065000  0.51829000  0.82093000  1.0
  H  H3  1  0.77084000  0.48200000  0.90503000  1.0
  H  H4  1  0.18089000  0.44797000  0.97719000  1.0
  H  H5  1  0.24240000  0.42746000  0.08826000  1.0
  H  H6  1  0.18755000  0.39891000  0.59177000  1.0
  H  H7  1  0.81185000  0.60600000  0.40956000  1.0
  H  H8  1  0.35772000  0.48056000  0.17947000  1.0
  H  H9  1  0.28248000  0.49099000  0.82092000  1.0
  H  H10  1  0.71863000  0.48912000  0.17919000  1.0
  H  H11  1  0.22199000  0.64992000  0.37588000  1.0
  H  H12  1  0.77773000  0.35242000  0.62284000  1.0
  H  H13  1  0.98842000  0.33164000  0.64613000  1.0
  H  H14  1  0.01129000  0.67147000  0.35346000  1.0
  H  H15  1  0.82823000  0.48637000  0.01928000  1.0
  C  C16  1  0.52611000  0.48545000  0.30213000  1.0
  C  C17  1  0.02456000  0.46263000  0.53489000  1.0
  C  C18  1  0.50409000  0.72176000  0.48537000  1.0
  C  C19  1  0.49738000  0.28126000  0.51456000  1.0
  C  C20  1  0.50331000  0.84290000  0.48779000  1.0
  C  C21  1  0.49954000  0.16008000  0.51101000  1.0
  C  C22  1  0.50257000  0.94510000  0.49493000  1.0
  C  C23  1  0.50113000  0.05785000  0.50330000  1.0
  C  C24  1  0.46353000  0.50576000  0.81242000  1.0
  C  C25  1  0.53614000  0.48502000  0.18798000  1.0
  C  C26  1  0.65449000  0.49660000  0.02938000  1.0
  C  C27  1  0.47252000  0.51318000  0.69848000  1.0
  C  C28  1  0.34715000  0.48235000  0.97045000  1.0
  C  C29  1  0.64380000  0.48953000  0.13511000  1.0
  C  C30  1  0.35701000  0.49309000  0.86506000  1.0
  C  C31  1  0.43893000  0.48262000  0.13500000  1.0
  C  C32  1  0.56087000  0.50726000  0.86534000  1.0
  C  C33  1  0.44621000  0.48676000  0.02744000  1.0
  C  C34  1  0.55473000  0.49709000  0.97256000  1.0
  C  C35  1  0.95280000  0.39317000  0.59318000  1.0
  C  C36  1  0.04675000  0.61053000  0.40699000  1.0
  C  C37  1  0.83773000  0.40389000  0.58127000  1.0
  C  C38  1  0.16191000  0.59946000  0.41858000  1.0
  C  C39  1  0.85531000  0.54640000  0.45993000  1.0
  C  C40  1  0.14409000  0.45801000  0.54094000  1.0
  C  C41  1  0.97491000  0.54163000  0.46581000  1.0
  N  N42  1  0.20885000  0.52399000  0.48514000  1.0
  N  N43  1  0.79065000  0.47998000  0.51531000  1.0
  N  N44  1  0.76017000  0.50800000  0.97859000  1.0
  N  N45  1  0.24134000  0.47142000  0.02197000  1.0
  O  O46  1  0.42576000  0.49514000  0.34597000  1.0
  O  O47  1  0.57220000  0.51473000  0.65409000  1.0
  O  O48  1  0.61803000  0.47736000  0.34810000  1.0
  O  O49  1  0.38032000  0.51595000  0.65304000  1.0
  O  O50  1  0.40721000  0.68154000  0.48783000  1.0
  O  O51  1  0.59304000  0.32243000  0.52009000  1.0
  O  O52  1  0.60139000  0.66725000  0.48235000  1.0
  O  O53  1  0.40028000  0.33488000  0.51052000  1.0
