# generated using pymatgen
data_FeH(CO)5
_symmetry_space_group_name_H-M   'P 1'
_cell_length_a   6.64430000
_cell_length_b   15.30090000
_cell_length_c   15.36863606
_cell_angle_alpha   117.62310070
_cell_angle_beta   98.30391824
_cell_angle_gamma   98.36440000
_symmetry_Int_Tables_number   1
_chemical_formula_structural   FeH(CO)5
_chemical_formula_sum   'Fe6 H6 C30 O30'
_cell_volume   1329.00967588
_cell_formula_units_Z   6
loop_
 _symmetry_equiv_pos_site_id
 _symmetry_equiv_pos_as_xyz
  1  'x, y, z'
loop_
 _atom_site_type_symbol
 _atom_site_label
 _atom_site_symmetry_multiplicity
 _atom_site_fract_x
 _atom_site_fract_y
 _atom_site_fract_z
 _atom_site_occupancy
  Fe  Fe0  1  0.20346000  0.32473000  0.72581000  1.0
  Fe  Fe1  1  0.87898000  0.39973000  0.67584000  1.0
  Fe  Fe2  1  0.47907000  0.27529000  0.60196000  1.0
  Fe  Fe3  1  0.79593000  0.67539000  0.27413000  1.0
  Fe  Fe4  1  0.12045000  0.60009000  0.32412000  1.0
  Fe  Fe5  1  0.52068000  0.72465000  0.39804000  1.0
  H  H6  1  0.37928000  0.02228000  0.56004000  1.0
  H  H7  1  0.35651000  0.53748000  0.97702000  1.0
  H  H8  1  0.81912000  0.43962000  0.46310000  1.0
  H  H9  1  0.62076000  0.97787000  0.43996000  1.0
  H  H10  1  0.64293000  0.46291000  0.02304000  1.0
  H  H11  1  0.18023000  0.56009000  0.53668000  1.0
  C  C12  1  0.80277000  0.16766000  0.57190000  1.0
  C  C13  1  0.63483000  0.40257000  0.83297000  1.0
  C  C14  1  0.23253000  0.42981000  0.59804000  1.0
  C  C15  1  0.19692000  0.83230000  0.42836000  1.0
  C  C16  1  0.36435000  0.59783000  0.16706000  1.0
  C  C17  1  0.76664000  0.56965000  0.40156000  1.0
  C  C18  1  0.91109000  0.08502000  0.53671000  1.0
  C  C19  1  0.82573000  0.45100000  0.91536000  1.0
  C  C20  1  0.37504000  0.46417000  0.54945000  1.0
  C  C21  1  0.08888000  0.91507000  0.46335000  1.0
  C  C22  1  0.17357000  0.54935000  0.08463000  1.0
  C  C23  1  0.62434000  0.53550000  0.45036000  1.0
  C  C24  1  0.13170000  0.09923000  0.57219000  1.0
  C  C25  1  0.03212000  0.47190000  0.90072000  1.0
  C  C26  1  0.56038000  0.42864000  0.52872000  1.0
  C  C27  1  0.86825000  0.90087000  0.42789000  1.0
  C  C28  1  0.96725000  0.52834000  0.09925000  1.0
  C  C29  1  0.43908000  0.57111000  0.47114000  1.0
  C  C30  1  0.21224000  0.01277000  0.53405000  1.0
  C  C31  1  0.19908000  0.52115000  0.98684000  1.0
  C  C32  1  0.67803000  0.46571000  0.47914000  1.0
  C  C33  1  0.78776000  0.98734000  0.46596000  1.0
  C  C34  1  0.80029000  0.47916000  0.01314000  1.0
  C  C35  1  0.32137000  0.53400000  0.52070000  1.0
  C  C36  1  0.16950000  0.26997000  0.91905000  1.0
  C  C37  1  0.90127000  0.64774000  0.73061000  1.0
  C  C38  1  0.25363000  0.08532000  0.35428000  1.0
  C  C39  1  0.83156000  0.73088000  0.08238000  1.0
  C  C40  1  0.10233000  0.35280000  0.26959000  1.0
  C  C41  1  0.74649000  0.91342000  0.64438000  1.0
  O  O42  1  0.90163000  0.25557000  0.64970000  1.0
  O  O43  1  0.64591000  0.39190000  0.74482000  1.0
  O  O44  1  0.25420000  0.35223000  0.60941000  1.0
  O  O45  1  0.09752000  0.74423000  0.35099000  1.0
  O  O46  1  0.35315000  0.60866000  0.25524000  1.0
  O  O47  1  0.74436000  0.64695000  0.38985000  1.0
  O  O48  1  0.61296000  0.15516000  0.53025000  1.0
  O  O49  1  0.45778000  0.37316000  0.84577000  1.0
  O  O50  1  0.08459000  0.47173000  0.62686000  1.0
  O  O51  1  0.38687000  0.84482000  0.46985000  1.0
  O  O52  1  0.54152000  0.62708000  0.15426000  1.0
  O  O53  1  0.91485000  0.52785000  0.37293000  1.0
  O  O54  1  0.26581000  0.18936000  0.63774000  1.0
  O  O55  1  0.07621000  0.44634000  0.81061000  1.0
  O  O56  1  0.63004000  0.36386000  0.55478000  1.0
  O  O57  1  0.73402000  0.81076000  0.36242000  1.0
  O  O58  1  0.92320000  0.55375000  0.18934000  1.0
  O  O59  1  0.36951000  0.63592000  0.44512000  1.0
  O  O60  1  0.26386000  0.29732000  0.00154000  1.0
  O  O61  1  0.97038000  0.70394000  0.70421000  1.0
  O  O62  1  0.26580000  0.00316000  0.29787000  1.0
  O  O63  1  0.73739000  0.70425000  0.00006000  1.0
  O  O64  1  0.03516000  0.29631000  0.29602000  1.0
  O  O65  1  0.73316000  0.99532000  0.70082000  1.0
  O  O66  1  0.07201000  0.24098000  0.83627000  1.0
  O  O67  1  0.83065000  0.59281000  0.75858000  1.0
  O  O68  1  0.23867000  0.16780000  0.40939000  1.0
  O  O69  1  0.92882000  0.75914000  0.16503000  1.0
  O  O70  1  0.17101000  0.40806000  0.24159000  1.0
  O  O71  1  0.76256000  0.83116000  0.58919000  1.0
