# generated using pymatgen
data_MnH8C4O7
_symmetry_space_group_name_H-M   'P 1'
_cell_length_a   7.86066000
_cell_length_b   7.86038000
_cell_length_c   13.11730000
_cell_angle_alpha   89.99960000
_cell_angle_beta   90.00000000
_cell_angle_gamma   89.99830000
_symmetry_Int_Tables_number   1
_chemical_formula_structural   MnH8C4O7
_chemical_formula_sum   'Mn4 H32 C16 O28'
_cell_volume   810.48877605
_cell_formula_units_Z   4
loop_
 _symmetry_equiv_pos_site_id
 _symmetry_equiv_pos_as_xyz
  1  'x, y, z'
loop_
 _atom_site_type_symbol
 _atom_site_label
 _atom_site_symmetry_multiplicity
 _atom_site_fract_x
 _atom_site_fract_y
 _atom_site_fract_z
 _atom_site_occupancy
  Mn  Mn0  1  0.14203000  0.54815000  0.84200000  1.0
  Mn  Mn1  1  0.85796000  0.45185000  0.34200000  1.0
  Mn  Mn2  1  0.54817000  0.85792000  0.09204000  1.0
  Mn  Mn3  1  0.45183000  0.14208000  0.59203000  1.0
  H  H4  1  0.09101000  0.61940000  0.63134000  1.0
  H  H5  1  0.90898000  0.38060000  0.13134000  1.0
  H  H6  1  0.61941000  0.90889000  0.88131000  1.0
  H  H7  1  0.38059000  0.09112000  0.38131000  1.0
  H  H8  1  0.06066000  0.19148000  0.85487000  1.0
  H  H9  1  0.93934000  0.80852000  0.35487000  1.0
  H  H10  1  0.19142000  0.93935000  0.10495000  1.0
  H  H11  1  0.80859000  0.06065000  0.60495000  1.0
  H  H12  1  0.93755000  0.30025000  0.92533000  1.0
  H  H13  1  0.06245000  0.69976000  0.42533000  1.0
  H  H14  1  0.30018000  0.06254000  0.17532000  1.0
  H  H15  1  0.69982000  0.93746000  0.67532000  1.0
  H  H16  1  0.28539000  0.83651000  0.74524000  1.0
  H  H17  1  0.71461000  0.16349000  0.24524000  1.0
  H  H18  1  0.83645000  0.71472000  0.99523000  1.0
  H  H19  1  0.16355000  0.28528000  0.49523000  1.0
  H  H20  1  0.34021000  0.84382000  0.86197000  1.0
  H  H21  1  0.65979000  0.15618000  0.36197000  1.0
  H  H22  1  0.84373000  0.65965000  0.11192000  1.0
  H  H23  1  0.15627000  0.34035000  0.61192000  1.0
  H  H24  1  0.84628000  0.72183000  0.62656000  1.0
  H  H25  1  0.15372000  0.27817000  0.12656000  1.0
  H  H26  1  0.72194000  0.15383000  0.87661000  1.0
  H  H27  1  0.27806000  0.84617000  0.37661000  1.0
  H  H28  1  0.75554000  0.37594000  0.71686000  1.0
  H  H29  1  0.24446000  0.62406000  0.21686000  1.0
  H  H30  1  0.37587000  0.24447000  0.96680000  1.0
  H  H31  1  0.62413000  0.75553000  0.46680000  1.0
  H  H32  1  0.59681000  0.52817000  0.68855000  1.0
  H  H33  1  0.40319000  0.47183000  0.18855000  1.0
  H  H34  1  0.52802000  0.40320000  0.93852000  1.0
  H  H35  1  0.47198000  0.59680000  0.43852000  1.0
  C  C36  1  0.81196000  0.71326000  0.78889000  1.0
  C  C37  1  0.18803000  0.28674000  0.28889000  1.0
  C  C38  1  0.71318000  0.18808000  0.03886000  1.0
  C  C39  1  0.28681000  0.81191000  0.53885000  1.0
  C  C40  1  0.85570000  0.62659000  0.68762000  1.0
  C  C41  1  0.14429000  0.37340000  0.18762000  1.0
  C  C42  1  0.62657000  0.14428000  0.93759000  1.0
  C  C43  1  0.37343000  0.85572000  0.43759000  1.0
  C  C44  1  0.72554000  0.48564000  0.66774000  1.0
  C  C45  1  0.27446000  0.51436000  0.16773000  1.0
  C  C46  1  0.48562000  0.27445000  0.91772000  1.0
  C  C47  1  0.51437000  0.72555000  0.41772000  1.0
  C  C48  1  0.72167000  0.42764000  0.55738000  1.0
  C  C49  1  0.27834000  0.57237000  0.05738000  1.0
  C  C50  1  0.42766000  0.27832000  0.80740000  1.0
  C  C51  1  0.57234000  0.72168000  0.30740000  1.0
  O  O52  1  0.69630000  0.82664000  0.78535000  1.0
  O  O53  1  0.30370000  0.17335000  0.28535000  1.0
  O  O54  1  0.82652000  0.30380000  0.03531000  1.0
  O  O55  1  0.17348000  0.69621000  0.53531000  1.0
  O  O56  1  0.88832000  0.66522000  0.86923000  1.0
  O  O57  1  0.11169000  0.33478000  0.36923000  1.0
  O  O58  1  0.66513000  0.11167000  0.11917000  1.0
  O  O59  1  0.33488000  0.88833000  0.61917000  1.0
  O  O60  1  0.60095000  0.33202000  0.52688000  1.0
  O  O61  1  0.39905000  0.66798000  0.02688000  1.0
  O  O62  1  0.33203000  0.39908000  0.77697000  1.0
  O  O63  1  0.66797000  0.60092000  0.27697000  1.0
  O  O64  1  0.83911000  0.48060000  0.49911000  1.0
  O  O65  1  0.16089000  0.51940000  0.99911000  1.0
  O  O66  1  0.48061000  0.16091000  0.74911000  1.0
  O  O67  1  0.51939000  0.83909000  0.24911000  1.0
  O  O68  1  0.02619000  0.56130000  0.68956000  1.0
  O  O69  1  0.97381000  0.43870000  0.18955000  1.0
  O  O70  1  0.56124000  0.97378000  0.93951000  1.0
  O  O71  1  0.43876000  0.02622000  0.43951000  1.0
  O  O72  1  0.99241000  0.29477000  0.85624000  1.0
  O  O73  1  0.00758000  0.70523000  0.35624000  1.0
  O  O74  1  0.29467000  0.00762000  0.10623000  1.0
  O  O75  1  0.70533000  0.99238000  0.60623000  1.0
  O  O76  1  0.25003000  0.80542000  0.81596000  1.0
  O  O77  1  0.74997000  0.19458000  0.31596000  1.0
  O  O78  1  0.80532000  0.74994000  0.06598000  1.0
  O  O79  1  0.19468000  0.25006000  0.56599000  1.0
