# generated using pymatgen
data_AgH10C10IN2
_symmetry_space_group_name_H-M   'P 1'
_cell_length_a   9.10289000
_cell_length_b   11.15850000
_cell_length_c   11.15850000
_cell_angle_alpha   78.32440000
_cell_angle_beta   80.85760000
_cell_angle_gamma   80.85760000
_symmetry_Int_Tables_number   1
_chemical_formula_structural   AgH10C10IN2
_chemical_formula_sum   'Ag4 H40 C40 I4 N8'
_cell_volume   1086.41319092
_cell_formula_units_Z   4
loop_
 _symmetry_equiv_pos_site_id
 _symmetry_equiv_pos_as_xyz
  1  'x, y, z'
loop_
 _atom_site_type_symbol
 _atom_site_label
 _atom_site_symmetry_multiplicity
 _atom_site_fract_x
 _atom_site_fract_y
 _atom_site_fract_z
 _atom_site_occupancy
  Ag  Ag0  1  0.41398000  0.02521000  0.89165000  1.0
  Ag  Ag1  1  0.08602000  0.10835000  0.97479000  1.0
  Ag  Ag2  1  0.58602000  0.97479000  0.10835000  1.0
  Ag  Ag3  1  0.91398000  0.89165000  0.02521000  1.0
  H  H4  1  0.60971000  0.53209000  0.05582000  1.0
  H  H5  1  0.89028000  0.94418000  0.46791000  1.0
  H  H6  1  0.39028000  0.46791000  0.94418000  1.0
  H  H7  1  0.10972000  0.05582000  0.53209000  1.0
  H  H8  1  0.38924000  0.62535000  0.40210000  1.0
  H  H9  1  0.11076000  0.59790000  0.37465000  1.0
  H  H10  1  0.61076000  0.37465000  0.59790000  1.0
  H  H11  1  0.88924000  0.40210000  0.62535000  1.0
  H  H12  1  0.50977000  0.69021000  0.18696000  1.0
  H  H13  1  0.99023000  0.81304000  0.30979000  1.0
  H  H14  1  0.49023000  0.30980000  0.81304000  1.0
  H  H15  1  0.00977000  0.18696000  0.69020000  1.0
  H  H16  1  0.30352000  0.14398000  0.60566000  1.0
  H  H17  1  0.19648000  0.39434000  0.85602000  1.0
  H  H18  1  0.69648000  0.85602000  0.39434000  1.0
  H  H19  1  0.80352000  0.60566000  0.14398000  1.0
  H  H20  1  0.59388000  0.30946000  0.14101000  1.0
  H  H21  1  0.90612000  0.85899000  0.69054000  1.0
  H  H22  1  0.40612000  0.69054000  0.85899000  1.0
  H  H23  1  0.09388000  0.14101000  0.30946000  1.0
  H  H24  1  0.75404000  0.16405000  0.44382000  1.0
  H  H25  1  0.74596000  0.55618000  0.83596000  1.0
  H  H26  1  0.24597000  0.83595000  0.55618000  1.0
  H  H27  1  0.25404000  0.44382000  0.16405000  1.0
  H  H28  1  0.34841000  0.19080000  0.37734000  1.0
  H  H29  1  0.15159000  0.62266000  0.80920000  1.0
  H  H30  1  0.65159000  0.80920000  0.62266000  1.0
  H  H31  1  0.84841000  0.37734000  0.19080000  1.0
  H  H32  1  0.53155000  0.14945000  0.30495000  1.0
  H  H33  1  0.96845000  0.69505000  0.85055000  1.0
  H  H34  1  0.46845000  0.85055000  0.69505000  1.0
  H  H35  1  0.03155000  0.30495000  0.14945000  1.0
  H  H36  1  0.36985000  0.40411000  0.48569000  1.0
  H  H37  1  0.13015000  0.51431000  0.59590000  1.0
  H  H38  1  0.63015000  0.59590000  0.51431000  1.0
  H  H39  1  0.86985000  0.48569000  0.40410000  1.0
  H  H40  1  0.74387000  0.08428000  0.69863000  1.0
  H  H41  1  0.75613000  0.30137000  0.91572000  1.0
  H  H42  1  0.25613000  0.91572000  0.30137000  1.0
  H  H43  1  0.24387000  0.69863000  0.08428000  1.0
  C  C44  1  0.48022000  0.34215000  0.31864000  1.0
  C  C45  1  0.01978000  0.68136000  0.65786000  1.0
  C  C46  1  0.51978000  0.65786000  0.68136000  1.0
  C  C47  1  0.98022000  0.31864000  0.34214000  1.0
  C  C48  1  0.55774000  0.50402000  0.15039000  1.0
  C  C49  1  0.94226000  0.84961000  0.49599000  1.0
  C  C50  1  0.44226000  0.49598000  0.84961000  1.0
  C  C51  1  0.05774000  0.15039000  0.50401000  1.0
  C  C52  1  0.43438000  0.55631000  0.34471000  1.0
  C  C53  1  0.06562000  0.65528000  0.44369000  1.0
  C  C54  1  0.56562000  0.44369000  0.65529000  1.0
  C  C55  1  0.93438000  0.34471000  0.55631000  1.0
  C  C56  1  0.50142000  0.59285000  0.22384000  1.0
  C  C57  1  0.99858000  0.77615000  0.40716000  1.0
  C  C58  1  0.49858000  0.40716000  0.77615000  1.0
  C  C59  1  0.00142000  0.22385000  0.59284000  1.0
  C  C60  1  0.42449000  0.13829000  0.59899000  1.0
  C  C61  1  0.07551000  0.40101000  0.86171000  1.0
  C  C62  1  0.57551000  0.86171000  0.40101000  1.0
  C  C63  1  0.92449000  0.59899000  0.13829000  1.0
  C  C64  1  0.54843000  0.37910000  0.19784000  1.0
  C  C65  1  0.95157000  0.80216000  0.62090000  1.0
  C  C66  1  0.45157000  0.62090000  0.80216000  1.0
  C  C67  1  0.04843000  0.19784000  0.37910000  1.0
  C  C68  1  0.66097000  0.14707000  0.51596000  1.0
  C  C69  1  0.83903000  0.48404000  0.85294000  1.0
  C  C70  1  0.33903000  0.85293000  0.48404000  1.0
  C  C71  1  0.16097000  0.51596000  0.14707000  1.0
  C  C72  1  0.46578000  0.20746000  0.36833000  1.0
  C  C73  1  0.03422000  0.63167000  0.79254000  1.0
  C  C74  1  0.53422000  0.79254000  0.63167000  1.0
  C  C75  1  0.96578000  0.36833000  0.20746000  1.0
  C  C76  1  0.42288000  0.43193000  0.39134000  1.0
  C  C77  1  0.07712000  0.60866000  0.56807000  1.0
  C  C78  1  0.57712000  0.56807000  0.60866000  1.0
  C  C79  1  0.92288000  0.39134000  0.43193000  1.0
  C  C80  1  0.65360000  0.10855000  0.64183000  1.0
  C  C81  1  0.84640000  0.35817000  0.89145000  1.0
  C  C82  1  0.34641000  0.89145000  0.35817000  1.0
  C  C83  1  0.15360000  0.64183000  0.10855000  1.0
  I  I84  1  0.16163000  0.92836000  0.82595000  1.0
  I  I85  1  0.33836000  0.17405000  0.07164000  1.0
  I  I86  1  0.83836000  0.07164000  0.17405000  1.0
  I  I87  1  0.66163000  0.82595000  0.92836000  1.0
  N  N88  1  0.51469000  0.16477000  0.49024000  1.0
  N  N89  1  0.98530000  0.50976000  0.83523000  1.0
  N  N90  1  0.48531000  0.83523000  0.50976000  1.0
  N  N91  1  0.01469000  0.49024000  0.16477000  1.0
  N  N92  1  0.50561000  0.10357000  0.69241000  1.0
  N  N93  1  0.99439000  0.30758000  0.89643000  1.0
  N  N94  1  0.49439000  0.89642000  0.30759000  1.0
  N  N95  1  0.00561000  0.69241000  0.10358000  1.0
