# generated using pymatgen
data_CoH22C28(NO)4
_symmetry_space_group_name_H-M   'P 1'
_cell_length_a   8.76762000
_cell_length_b   9.96247000
_cell_length_c   14.53810000
_cell_angle_alpha   107.11750000
_cell_angle_beta   93.14320000
_cell_angle_gamma   90.00060000
_symmetry_Int_Tables_number   1
_chemical_formula_structural   CoH22C28(NO)4
_chemical_formula_sum   'Co2 H44 C56 N8 O8'
_cell_volume   1211.61148533
_cell_formula_units_Z   2
loop_
 _symmetry_equiv_pos_site_id
 _symmetry_equiv_pos_as_xyz
  1  'x, y, z'
loop_
 _atom_site_type_symbol
 _atom_site_label
 _atom_site_symmetry_multiplicity
 _atom_site_fract_x
 _atom_site_fract_y
 _atom_site_fract_z
 _atom_site_occupancy
  Co  Co0  1  0.67900000  0.26872000  0.24850000  1.0
  Co  Co1  1  0.32100000  0.73128000  0.75150000  1.0
  H  H2  1  0.73702000  0.42724000  0.48604000  1.0
  H  H3  1  0.26297000  0.57276000  0.51396000  1.0
  H  H4  1  0.43937000  0.09965000  0.32418000  1.0
  H  H5  1  0.56064000  0.90035000  0.67582000  1.0
  H  H6  1  0.37839000  0.16339000  0.51830000  1.0
  H  H7  1  0.62161000  0.83661000  0.48170000  1.0
  H  H8  1  0.46227000  0.42352000  0.66073000  1.0
  H  H9  1  0.53773000  0.57648000  0.33927000  1.0
  H  H10  1  0.65269000  0.47035000  0.64940000  1.0
  H  H11  1  0.34730000  0.52966000  0.35060000  1.0
  H  H12  1  0.74303000  0.13882000  0.57412000  1.0
  H  H13  1  0.25697000  0.86119000  0.42588000  1.0
  H  H14  1  0.84402000  0.99080000  0.67173000  1.0
  H  H15  1  0.15598000  0.00920000  0.32827000  1.0
  H  H16  1  0.62932000  0.25318000  0.91949000  1.0
  H  H17  1  0.37069000  0.74683000  0.08051000  1.0
  H  H18  1  0.52364000  0.40013000  0.81914000  1.0
  H  H19  1  0.47636000  0.59987000  0.18086000  1.0
  H  H20  1  0.77813000  0.07055000  0.93933000  1.0
  H  H21  1  0.22187000  0.92945000  0.06067000  1.0
  H  H22  1  0.73863000  0.91865000  0.84077000  1.0
  H  H23  1  0.26137000  0.08135000  0.15923000  1.0
  H  H24  1  0.96208000  0.78708000  0.75008000  1.0
  H  H25  1  0.03792000  0.21292000  0.24992000  1.0
  H  H26  1  0.05994000  0.17999000  0.95888000  1.0
  H  H27  1  0.94006000  0.82001000  0.04112000  1.0
  H  H28  1  0.33164000  0.04380000  0.90148000  1.0
  H  H29  1  0.66836000  0.95619000  0.09852000  1.0
  H  H30  1  0.43130000  0.37181000  0.95146000  1.0
  H  H31  1  0.56870000  0.62819000  0.04854000  1.0
  H  H32  1  0.20661000  0.48047000  0.89817000  1.0
  H  H33  1  0.79339000  0.51953000  0.10183000  1.0
  H  H34  1  0.97470000  0.44286000  0.14524000  1.0
  H  H35  1  0.02532000  0.55714000  0.85477000  1.0
  H  H36  1  0.20594000  0.33984000  0.19829000  1.0
  H  H37  1  0.79408000  0.66016000  0.80172000  1.0
  H  H38  1  0.77420000  0.73292000  0.26894000  1.0
  H  H39  1  0.22580000  0.26708000  0.73105000  1.0
  H  H40  1  0.85074000  0.97594000  0.35425000  1.0
  H  H41  1  0.14925000  0.02405000  0.64575000  1.0
  H  H42  1  0.07007000  0.83617000  0.58363000  1.0
  H  H43  1  0.92991000  0.16383000  0.41637000  1.0
  H  H44  1  0.99487000  0.59755000  0.49770000  1.0
  H  H45  1  0.00512000  0.40246000  0.50230000  1.0
  C  C46  1  0.64757000  0.34731000  0.46644000  1.0
  C  C47  1  0.35244000  0.65270000  0.53356000  1.0
  C  C48  1  0.49229000  0.17719000  0.38634000  1.0
  C  C49  1  0.50771000  0.82282000  0.61366000  1.0
  C  C50  1  0.46033000  0.20759000  0.48165000  1.0
  C  C51  1  0.53967000  0.79241000  0.51835000  1.0
  C  C52  1  0.57291000  0.38035000  0.63550000  1.0
  C  C53  1  0.42708000  0.61966000  0.36450000  1.0
  C  C54  1  0.62841000  0.28099000  0.69061000  1.0
  C  C55  1  0.37159000  0.71902000  0.30939000  1.0
  C  C56  1  0.71762000  0.16464000  0.64975000  1.0
  C  C57  1  0.28238000  0.83536000  0.35025000  1.0
  C  C58  1  0.77475000  0.08119000  0.70520000  1.0
  C  C59  1  0.22525000  0.91881000  0.29480000  1.0
  C  C60  1  0.74384000  0.11247000  0.80260000  1.0
  C  C61  1  0.25616000  0.88753000  0.19739000  1.0
  C  C62  1  0.65332000  0.22809000  0.84334000  1.0
  C  C63  1  0.34668000  0.77191000  0.15666000  1.0
  C  C64  1  0.59493000  0.31050000  0.78741000  1.0
  C  C65  1  0.40507000  0.68951000  0.21259000  1.0
  C  C66  1  0.80009000  0.02054000  0.86330000  1.0
  C  C67  1  0.19991000  0.97946000  0.13669000  1.0
  C  C68  1  0.02606000  0.87492000  0.79875000  1.0
  C  C69  1  0.97395000  0.12508000  0.20125000  1.0
  C  C70  1  0.08134000  0.07925000  0.90751000  1.0
  C  C71  1  0.91866000  0.92075000  0.09249000  1.0
  C  C72  1  0.21438000  0.01108000  0.87816000  1.0
  C  C73  1  0.78561000  0.98892000  0.12185000  1.0
  C  C74  1  0.47464000  0.28512000  0.11003000  1.0
  C  C75  1  0.52537000  0.71487000  0.88997000  1.0
  C  C76  1  0.33232000  0.34393000  0.07658000  1.0
  C  C77  1  0.66769000  0.65606000  0.92342000  1.0
  C  C78  1  0.32958000  0.38564000  0.99253000  1.0
  C  C79  1  0.67043000  0.61436000  0.00747000  1.0
  C  C80  1  0.20122000  0.44702000  0.96286000  1.0
  C  C81  1  0.79879000  0.55298000  0.03714000  1.0
  C  C82  1  0.06896000  0.46818000  0.01600000  1.0
  C  C83  1  0.93105000  0.53181000  0.98400000  1.0
  C  C84  1  0.07325000  0.42723000  0.10112000  1.0
  C  C85  1  0.92677000  0.57277000  0.89888000  1.0
  C  C86  1  0.20257000  0.36720000  0.13100000  1.0
  C  C87  1  0.79745000  0.63280000  0.86900000  1.0
  C  C88  1  0.84356000  0.49678000  0.32515000  1.0
  C  C89  1  0.15644000  0.50322000  0.67485000  1.0
  C  C90  1  0.88417000  0.64656000  0.37511000  1.0
  C  C91  1  0.11583000  0.35344000  0.62489000  1.0
  C  C92  1  0.84065000  0.75625000  0.33752000  1.0
  C  C93  1  0.15934000  0.24375000  0.66248000  1.0
  C  C94  1  0.88425000  0.89410000  0.38675000  1.0
  C  C95  1  0.11573000  0.10590000  0.61325000  1.0
  C  C96  1  0.97179000  0.92778000  0.47531000  1.0
  C  C97  1  0.02819000  0.07222000  0.52469000  1.0
  C  C98  1  0.00646000  0.81724000  0.51444000  1.0
  C  C99  1  0.99352000  0.18276000  0.48556000  1.0
  C  C100  1  0.96489000  0.67966000  0.46491000  1.0
  C  C101  1  0.03510000  0.32034000  0.53509000  1.0
  N  N102  1  0.60950000  0.26496000  0.37760000  1.0
  N  N103  1  0.39050000  0.73504000  0.62240000  1.0
  N  N104  1  0.55930000  0.31603000  0.53130000  1.0
  N  N105  1  0.44070000  0.68398000  0.46870000  1.0
  N  N106  1  0.96356000  0.99129000  0.85712000  1.0
  N  N107  1  0.03643000  0.00871000  0.14288000  1.0
  N  N108  1  0.17842000  0.88343000  0.81014000  1.0
  N  N109  1  0.82158000  0.11657000  0.18986000  1.0
  O  O110  1  0.59391000  0.27409000  0.06491000  1.0
  O  O111  1  0.40610000  0.72590000  0.93509000  1.0
  O  O112  1  0.46850000  0.25213000  0.19040000  1.0
  O  O113  1  0.53151000  0.74786000  0.80960000  1.0
  O  O114  1  0.73109000  0.46945000  0.26031000  1.0
  O  O115  1  0.26891000  0.53055000  0.73969000  1.0
  O  O116  1  0.91250000  0.39974000  0.34896000  1.0
  O  O117  1  0.08750000  0.60026000  0.65104000  1.0
