# generated using pymatgen
data_NaH5C4N8O
_symmetry_space_group_name_H-M   'P 1'
_cell_length_a   3.65578000
_cell_length_b   6.17537716
_cell_length_c   18.35450000
_cell_angle_alpha   89.97639794
_cell_angle_beta   89.59520000
_cell_angle_gamma   106.93157431
_symmetry_Int_Tables_number   1
_chemical_formula_structural   NaH5C4N8O
_chemical_formula_sum   'Na2 H10 C8 N16 O2'
_cell_volume   396.39517438
_cell_formula_units_Z   2
loop_
 _symmetry_equiv_pos_site_id
 _symmetry_equiv_pos_as_xyz
  1  'x, y, z'
loop_
 _atom_site_type_symbol
 _atom_site_label
 _atom_site_symmetry_multiplicity
 _atom_site_fract_x
 _atom_site_fract_y
 _atom_site_fract_z
 _atom_site_occupancy
  Na  Na0  1  0.79126000  0.30863000  0.30701000  1.0
  Na  Na1  1  0.48945000  0.69028000  0.80665000  1.0
  H  H2  1  0.16665000  0.95840000  0.25542000  1.0
  H  H3  1  0.20728000  0.04166000  0.75452000  1.0
  H  H4  1  0.29943000  0.87477000  0.60294000  1.0
  H  H5  1  0.43872000  0.12786000  0.10380000  1.0
  H  H6  1  0.84832000  0.14320000  0.48203000  1.0
  H  H7  1  0.69904000  0.85507000  0.98152000  1.0
  H  H8  1  0.02644000  0.95635000  0.33714000  1.0
  H  H9  1  0.07019000  0.04260000  0.83632000  1.0
  H  H10  1  0.00721000  0.49149000  0.55145000  1.0
  H  H11  1  0.51514000  0.50812000  0.05154000  1.0
  C  C12  1  0.54683000  0.79420000  0.46637000  1.0
  C  C13  1  0.75263000  0.20625000  0.96615000  1.0
  C  C14  1  0.64472000  0.99930000  0.50878000  1.0
  C  C15  1  0.64568000  0.00052000  0.00872000  1.0
  C  C16  1  0.50176000  0.01784000  0.57582000  1.0
  C  C17  1  0.49113000  0.98317000  0.07633000  1.0
  C  C18  1  0.59369000  0.22346000  0.61769000  1.0
  C  C19  1  0.37450000  0.77696000  0.11820000  1.0
  N  N20  1  0.69916000  0.77817000  0.40002000  1.0
  N  N21  1  0.91968000  0.22137000  0.89969000  1.0
  N  N22  1  0.82651000  0.57572000  0.65308000  1.0
  N  N23  1  0.24868000  0.42324000  0.15332000  1.0
  N  N24  1  0.82593000  0.43004000  0.59893000  1.0
  N  N25  1  0.39617000  0.56928000  0.09923000  1.0
  N  N26  1  0.59869000  0.46157000  0.70401000  1.0
  N  N27  1  0.13758000  0.53831000  0.20437000  1.0
  N  N28  1  0.29552000  0.59287000  0.48472000  1.0
  N  N29  1  0.70223000  0.40835000  0.98418000  1.0
  N  N30  1  0.53819000  0.56518000  0.37822000  1.0
  N  N31  1  0.97086000  0.43457000  0.87748000  1.0
  N  N32  1  0.44946000  0.24341000  0.68417000  1.0
  N  N33  1  0.21063000  0.75748000  0.18471000  1.0
  N  N34  1  0.29520000  0.45349000  0.42901000  1.0
  N  N35  1  0.83985000  0.54724000  0.92812000  1.0
  O  O36  1  0.16801000  0.05969000  0.29762000  1.0
  O  O37  1  0.11057000  0.93989000  0.79688000  1.0
