# generated using pymatgen
data_ZnH3C9NO4
_symmetry_space_group_name_H-M   'P 1'
_cell_length_a   8.29321000
_cell_length_b   9.32034000
_cell_length_c   16.08460000
_cell_angle_alpha   90.03070000
_cell_angle_beta   90.00720000
_cell_angle_gamma   89.95870000
_symmetry_Int_Tables_number   1
_chemical_formula_structural   ZnH3C9NO4
_chemical_formula_sum   'Zn2 H6 C18 N2 O8'
_cell_volume   1243.26728147
_cell_formula_units_Z   2
loop_
 _symmetry_equiv_pos_site_id
 _symmetry_equiv_pos_as_xyz
  1  'x, y, z'
loop_
 _atom_site_type_symbol
 _atom_site_label
 _atom_site_symmetry_multiplicity
 _atom_site_fract_x
 _atom_site_fract_y
 _atom_site_fract_z
 _atom_site_occupancy
  Zn  Zn0  1  0.65871000  0.49993000  0.49992000  1.0
  Zn  Zn1  1  0.34129000  0.50006000  0.50008000  1.0
  H  H2  1  0.35015000  0.70836000  0.05196000  1.0
  H  H3  1  0.64985000  0.29165000  0.94805000  1.0
  H  H4  1  0.62652000  0.71993000  0.94800000  1.0
  H  H5  1  0.37348000  0.28007000  0.05200000  1.0
  H  H6  1  0.22051000  0.48816000  0.95012000  1.0
  H  H7  1  0.77949000  0.51184000  0.04988000  1.0
  C  C8  1  0.49998000  0.93486000  0.50001000  1.0
  C  C9  1  0.58340000  0.38416000  0.97204000  1.0
  C  C10  1  0.49958000  0.49990000  0.24925000  1.0
  C  C11  1  0.50042000  0.50010000  0.75075000  1.0
  C  C12  1  0.65542000  0.50659000  0.02703000  1.0
  C  C13  1  0.34458000  0.49341000  0.97297000  1.0
  C  C14  1  0.50200000  0.50021000  0.08554000  1.0
  C  C15  1  0.49800000  0.49979000  0.91446000  1.0
  C  C16  1  0.50086000  0.50005000  0.17346000  1.0
  C  C17  1  0.49914000  0.49995000  0.82654000  1.0
  C  C18  1  0.50002000  0.06514000  0.49999000  1.0
  C  C19  1  0.50001000  0.77949000  0.50002000  1.0
  C  C20  1  0.49999000  0.22051000  0.49999000  1.0
  C  C21  1  0.49950000  0.49990000  0.33863000  1.0
  C  C22  1  0.50050000  0.50010000  0.66137000  1.0
  C  C23  1  0.57043000  0.62229000  0.97204000  1.0
  C  C24  1  0.42957000  0.37772000  0.02796000  1.0
  C  C25  1  0.41660000  0.61584000  0.02796000  1.0
  N  N26  1  0.06680000  0.50006000  0.50006000  1.0
  N  N27  1  0.93320000  0.49995000  0.49994000  1.0
  O  O28  1  0.63771000  0.71852000  0.49994000  1.0
  O  O29  1  0.36229000  0.28148000  0.50006000  1.0
  O  O30  1  0.36236000  0.71862000  0.50009000  1.0
  O  O31  1  0.63763000  0.28138000  0.49991000  1.0
  O  O32  1  0.63717000  0.49989000  0.37451000  1.0
  O  O33  1  0.36283000  0.50011000  0.62549000  1.0
  O  O34  1  0.36191000  0.49992000  0.37460000  1.0
  O  O35  1  0.63809000  0.50007000  0.62540000  1.0
