# generated using pymatgen
data_FeH5C7NO5
_symmetry_space_group_name_H-M   'P 1'
_cell_length_a   8.49066000
_cell_length_b   8.50742000
_cell_length_c   10.16380000
_cell_angle_alpha   89.65270000
_cell_angle_beta   89.89260000
_cell_angle_gamma   84.91500000
_symmetry_Int_Tables_number   1
_chemical_formula_structural   FeH5C7NO5
_chemical_formula_sum   'Fe4 H20 C28 N4 O20'
_cell_volume   731.26441692
_cell_formula_units_Z   4
loop_
 _symmetry_equiv_pos_site_id
 _symmetry_equiv_pos_as_xyz
  1  'x, y, z'
loop_
 _atom_site_type_symbol
 _atom_site_label
 _atom_site_symmetry_multiplicity
 _atom_site_fract_x
 _atom_site_fract_y
 _atom_site_fract_z
 _atom_site_occupancy
  Fe  Fe0  1  0.64990000  0.20215000  0.07365000  1.0
  Fe  Fe1  1  0.36695000  0.29876000  0.57007000  1.0
  Fe  Fe2  1  0.36608000  0.79619000  0.93280000  1.0
  Fe  Fe3  1  0.63336000  0.69132000  0.42599000  1.0
  H  H4  1  0.98240000  0.09357000  0.97423000  1.0
  H  H5  1  0.02120000  0.38681000  0.45976000  1.0
  H  H6  1  0.01987000  0.88936000  0.04227000  1.0
  H  H7  1  0.97895000  0.60116000  0.53171000  1.0
  H  H8  1  0.00686000  0.58224000  0.22447000  1.0
  H  H9  1  0.99541000  0.91767000  0.73946000  1.0
  H  H10  1  0.98738000  0.42440000  0.76469000  1.0
  H  H11  1  0.00378000  0.08569000  0.27149000  1.0
  H  H12  1  0.26529000  0.41895000  0.16829000  1.0
  H  H13  1  0.74044000  0.08866000  0.68857000  1.0
  H  H14  1  0.73500000  0.59646000  0.81434000  1.0
  H  H15  1  0.26028000  0.91917000  0.32329000  1.0
  H  H16  1  0.55307000  0.38244000  0.88119000  1.0
  H  H17  1  0.34808000  0.21202000  0.30852000  1.0
  H  H18  1  0.35683000  0.71521000  0.19592000  1.0
  H  H19  1  0.63829000  0.82513000  0.66121000  1.0
  H  H20  1  0.53200000  0.21109000  0.83925000  1.0
  H  H21  1  0.52439000  0.22856000  0.33757000  1.0
  H  H22  1  0.53039000  0.72708000  0.15567000  1.0
  H  H23  1  0.47422000  0.76218000  0.65881000  1.0
  C  C24  1  0.28830000  0.13636000  0.03673000  1.0
  C  C25  1  0.72114000  0.36083000  0.53927000  1.0
  C  C26  1  0.71834000  0.87368000  0.95616000  1.0
  C  C27  1  0.27862000  0.63219000  0.45542000  1.0
  C  C28  1  0.14155000  0.24139000  0.07032000  1.0
  C  C29  1  0.86297000  0.25166000  0.57125000  1.0
  C  C30  1  0.85882000  0.75893000  0.93071000  1.0
  C  C31  1  0.13694000  0.74371000  0.42757000  1.0
  C  C32  1  0.99321000  0.19691000  0.03405000  1.0
  C  C33  1  0.01115000  0.28747000  0.52597000  1.0
  C  C34  1  0.00809000  0.79154000  0.97595000  1.0
  C  C35  1  0.98899000  0.70391000  0.46941000  1.0
  C  C36  1  0.00930000  0.46987000  0.17354000  1.0
  C  C37  1  0.99438000  0.02527000  0.68100000  1.0
  C  C38  1  0.98818000  0.53181000  0.82217000  1.0
  C  C39  1  0.00512000  0.97433000  0.32466000  1.0
  C  C40  1  0.70809000  0.49575000  0.16677000  1.0
  C  C41  1  0.29613000  0.99305000  0.67180000  1.0
  C  C42  1  0.28871000  0.49206000  0.83081000  1.0
  C  C43  1  0.70324000  0.99838000  0.32666000  1.0
  C  C44  1  0.86569000  0.41364000  0.14065000  1.0
  C  C45  1  0.13819000  0.07484000  0.63808000  1.0
  C  C46  1  0.13296000  0.57909000  0.86373000  1.0
  C  C47  1  0.86114000  0.91985000  0.36168000  1.0
  C  C48  1  0.15003000  0.38147000  0.14162000  1.0
  C  C49  1  0.85493000  0.11716000  0.65116000  1.0
  C  C50  1  0.84919000  0.62455000  0.85212000  1.0
  C  C51  1  0.14536000  0.88381000  0.35431000  1.0
  N  N52  1  0.85680000  0.27464000  0.07493000  1.0
  N  N53  1  0.14597000  0.20637000  0.56323000  1.0
  N  N54  1  0.14274000  0.70977000  0.93839000  1.0
  N  N55  1  0.85359000  0.78479000  0.43281000  1.0
  O  O56  1  0.59089000  0.41837000  0.13472000  1.0
  O  O57  1  0.41553000  0.07163000  0.65191000  1.0
  O  O58  1  0.41284000  0.55993000  0.86366000  1.0
  O  O59  1  0.58517000  0.92100000  0.35097000  1.0
  O  O60  1  0.69459000  0.63622000  0.21148000  1.0
  O  O61  1  0.30356000  0.85109000  0.71411000  1.0
  O  O62  1  0.29154000  0.35783000  0.77817000  1.0
  O  O63  1  0.69378000  0.13975000  0.27977000  1.0
  O  O64  1  0.41411000  0.17018000  0.09296000  1.0
  O  O65  1  0.59160000  0.33451000  0.59308000  1.0
  O  O66  1  0.58943000  0.85142000  0.89840000  1.0
  O  O67  1  0.40452000  0.65427000  0.39214000  1.0
  O  O68  1  0.27046000  0.02247000  0.95865000  1.0
  O  O69  1  0.74202000  0.47692000  0.46209000  1.0
  O  O70  1  0.74403000  0.99175000  0.02787000  1.0
  O  O71  1  0.26142000  0.51997000  0.53611000  1.0
  O  O72  1  0.60722000  0.27332000  0.88436000  1.0
  O  O73  1  0.41499000  0.26165000  0.37071000  1.0
  O  O74  1  0.41917000  0.76353000  0.12845000  1.0
  O  O75  1  0.58490000  0.73883000  0.62428000  1.0
