# generated using pymatgen
data_Cd5H10C4S2(N2O)10
_symmetry_space_group_name_H-M   'P 1'
_cell_length_a   8.86875000
_cell_length_b   9.64853000
_cell_length_c   13.34360000
_cell_angle_alpha   90.00000000
_cell_angle_beta   102.94500000
_cell_angle_gamma   90.00000000
_symmetry_Int_Tables_number   1
_chemical_formula_structural   Cd5H10C4S2(N2O)10
_chemical_formula_sum   'Cd10 H20 C8 S4 N40 O20'
_cell_volume   1112.79854307
_cell_formula_units_Z   2
loop_
 _symmetry_equiv_pos_site_id
 _symmetry_equiv_pos_as_xyz
  1  'x, y, z'
loop_
 _atom_site_type_symbol
 _atom_site_label
 _atom_site_symmetry_multiplicity
 _atom_site_fract_x
 _atom_site_fract_y
 _atom_site_fract_z
 _atom_site_occupancy
  Cd  Cd0  1  0.39024000  0.60946000  0.09449000  1.0
  Cd  Cd1  1  0.60976000  0.10946000  0.40551000  1.0
  Cd  Cd2  1  0.60976000  0.39054000  0.90551000  1.0
  Cd  Cd3  1  0.39024000  0.89054000  0.59449000  1.0
  Cd  Cd4  1  0.00000000  0.50000000  0.00000000  1.0
  Cd  Cd5  1  0.00000000  0.00000000  0.50000000  1.0
  Cd  Cd6  1  0.75765000  0.74039000  0.80448000  1.0
  Cd  Cd7  1  0.24235000  0.24038000  0.69552000  1.0
  Cd  Cd8  1  0.24235000  0.25962000  0.19552000  1.0
  Cd  Cd9  1  0.75765000  0.75961000  0.30448000  1.0
  H  H10  1  0.83986000  0.46504000  0.80154000  1.0
  H  H11  1  0.16014000  0.96504000  0.69846000  1.0
  H  H12  1  0.16014000  0.53496000  0.19846000  1.0
  H  H13  1  0.83986000  0.03496000  0.30154000  1.0
  H  H14  1  0.38140000  0.01486000  0.88170000  1.0
  H  H15  1  0.61860000  0.51486000  0.61830000  1.0
  H  H16  1  0.61860000  0.98514000  0.11830000  1.0
  H  H17  1  0.38140000  0.48514000  0.38170000  1.0
  H  H18  1  0.50145000  0.87542000  0.93323000  1.0
  H  H19  1  0.49854000  0.37542000  0.56677000  1.0
  H  H20  1  0.49854000  0.12458000  0.06677000  1.0
  H  H21  1  0.50146000  0.62458000  0.43323000  1.0
  H  H22  1  0.02878000  0.52004000  0.61737000  1.0
  H  H23  1  0.97123000  0.02004000  0.88263000  1.0
  H  H24  1  0.97123000  0.47996000  0.38263000  1.0
  H  H25  1  0.02877000  0.97996000  0.11737000  1.0
  H  H26  1  0.05203000  0.69050000  0.59613000  1.0
  H  H27  1  0.94798000  0.19050000  0.90387000  1.0
  H  H28  1  0.94798000  0.30950000  0.40387000  1.0
  H  H29  1  0.05202000  0.80950000  0.09613000  1.0
  C  C30  1  0.26632000  0.83674000  0.89558000  1.0
  C  C31  1  0.73367000  0.33674000  0.60442000  1.0
  C  C32  1  0.73367000  0.16326000  0.10442000  1.0
  C  C33  1  0.26632000  0.66327000  0.39558000  1.0
  C  C34  1  0.24516000  0.58994000  0.67283000  1.0
  C  C35  1  0.75483000  0.08995000  0.82717000  1.0
  C  C36  1  0.75483000  0.41005000  0.32717000  1.0
  C  C37  1  0.24517000  0.91005000  0.17283000  1.0
  S  S38  1  0.72886000  0.71993000  0.04966000  1.0
  S  S39  1  0.27114000  0.21992000  0.45034000  1.0
  S  S40  1  0.27114000  0.28008000  0.95034000  1.0
  S  S41  1  0.72886000  0.78008000  0.54966000  1.0
  N  N42  1  0.25727000  0.71690000  0.94729000  1.0
  N  N43  1  0.74273000  0.21690000  0.55271000  1.0
  N  N44  1  0.74273000  0.28310000  0.05271000  1.0
  N  N45  1  0.25727000  0.78310000  0.44729000  1.0
  N  N46  1  0.10883000  0.67634000  0.91796000  1.0
  N  N47  1  0.89117000  0.17633000  0.58204000  1.0
  N  N48  1  0.89117000  0.32366000  0.08205000  1.0
  N  N49  1  0.10883000  0.82367000  0.41796000  1.0
  N  N50  1  0.03140000  0.76577000  0.85250000  1.0
  N  N51  1  0.96860000  0.26577000  0.64750000  1.0
  N  N52  1  0.96860000  0.23423000  0.14750000  1.0
  N  N53  1  0.03140000  0.73423000  0.35250000  1.0
  N  N54  1  0.12547000  0.86823000  0.83503000  1.0
  N  N55  1  0.87452000  0.36823000  0.66496000  1.0
  N  N56  1  0.87453000  0.13177000  0.16497000  1.0
  N  N57  1  0.12547000  0.63177000  0.33503000  1.0
  N  N58  1  0.39425000  0.91271000  0.90105000  1.0
  N  N59  1  0.60575000  0.41271000  0.59894000  1.0
  N  N60  1  0.60575000  0.08729000  0.09894000  1.0
  N  N61  1  0.39425000  0.58729000  0.40105000  1.0
  N  N62  1  0.35220000  0.69306000  0.69041000  1.0
  N  N63  1  0.64781000  0.19306000  0.80959000  1.0
  N  N64  1  0.64781000  0.30694000  0.30959000  1.0
  N  N65  1  0.35219000  0.80694000  0.19041000  1.0
  N  N66  1  0.47395000  0.64251000  0.76037000  1.0
  N  N67  1  0.52605000  0.14251000  0.73963000  1.0
  N  N68  1  0.52605000  0.35749000  0.23963000  1.0
  N  N69  1  0.47395000  0.85749000  0.26037000  1.0
  N  N70  1  0.44378000  0.51557000  0.78231000  1.0
  N  N71  1  0.55623000  0.01557000  0.71769000  1.0
  N  N72  1  0.55623000  0.48443000  0.21769000  1.0
  N  N73  1  0.44377000  0.98443000  0.28231000  1.0
  N  N74  1  0.30203000  0.47744000  0.72954000  1.0
  N  N75  1  0.69797000  0.97744000  0.77046000  1.0
  N  N76  1  0.69797000  0.52256000  0.27046000  1.0
  N  N77  1  0.30203000  0.02256000  0.22954000  1.0
  N  N78  1  0.10462000  0.59577000  0.60754000  1.0
  N  N79  1  0.89538000  0.09577000  0.89245000  1.0
  N  N80  1  0.89538000  0.40423000  0.39245000  1.0
  N  N81  1  0.10462000  0.90423000  0.10754000  1.0
  O  O82  1  0.61954000  0.60169000  0.02025000  1.0
  O  O83  1  0.38046000  0.10169000  0.47975000  1.0
  O  O84  1  0.38046000  0.39831000  0.97975000  1.0
  O  O85  1  0.61954000  0.89831000  0.52025000  1.0
  O  O86  1  0.71821000  0.81591000  0.96087000  1.0
  O  O87  1  0.28179000  0.31591000  0.53913000  1.0
  O  O88  1  0.28179000  0.18409000  0.03913000  1.0
  O  O89  1  0.71821000  0.68409000  0.46087000  1.0
  O  O90  1  0.88981000  0.66960000  0.08721000  1.0
  O  O91  1  0.11019000  0.16960000  0.41279000  1.0
  O  O92  1  0.11019000  0.33040000  0.91279000  1.0
  O  O93  1  0.88981000  0.83040000  0.58721000  1.0
  O  O94  1  0.68058000  0.80073000  0.13292000  1.0
  O  O95  1  0.31941000  0.30073000  0.36709000  1.0
  O  O96  1  0.31942000  0.19927000  0.86708000  1.0
  O  O97  1  0.68058000  0.69927000  0.63291000  1.0
  O  O98  1  0.80406000  0.51393000  0.85684000  1.0
  O  O99  1  0.19594000  0.01393000  0.64316000  1.0
  O  O100  1  0.19594000  0.48608000  0.14316000  1.0
  O  O101  1  0.80406000  0.98607000  0.35684000  1.0
