# generated using pymatgen
data_HoH14C15O7
_symmetry_space_group_name_H-M   'P 1'
_cell_length_a   7.51044000
_cell_length_b   15.34100000
_cell_length_c   15.40060000
_cell_angle_alpha   62.49430000
_cell_angle_beta   86.98900000
_cell_angle_gamma   87.02670000
_symmetry_Int_Tables_number   1
_chemical_formula_structural   HoH14C15O7
_chemical_formula_sum   'Ho4 H56 C60 O28'
_cell_volume   1570.91262861
_cell_formula_units_Z   4
loop_
 _symmetry_equiv_pos_site_id
 _symmetry_equiv_pos_as_xyz
  1  'x, y, z'
loop_
 _atom_site_type_symbol
 _atom_site_label
 _atom_site_symmetry_multiplicity
 _atom_site_fract_x
 _atom_site_fract_y
 _atom_site_fract_z
 _atom_site_occupancy
  Ho  Ho0  1  0.03368000  0.28176000  0.35780000  1.0
  Ho  Ho1  1  0.46617000  0.64226000  0.71794000  1.0
  Ho  Ho2  1  0.96632000  0.71825000  0.64220000  1.0
  Ho  Ho3  1  0.53383000  0.35775000  0.28206000  1.0
  H  H4  1  0.17030000  0.13360000  0.54804000  1.0
  H  H5  1  0.32905000  0.45130000  0.86577000  1.0
  H  H6  1  0.82970000  0.86639000  0.45196000  1.0
  H  H7  1  0.67096000  0.54870000  0.13423000  1.0
  H  H8  1  0.34391000  0.16738000  0.47489000  1.0
  H  H9  1  0.15585000  0.52492000  0.83209000  1.0
  H  H10  1  0.65609000  0.83262000  0.52511000  1.0
  H  H11  1  0.84415000  0.47508000  0.16791000  1.0
  H  H12  1  0.42842000  0.17869000  0.16728000  1.0
  H  H13  1  0.07144000  0.83295000  0.82163000  1.0
  H  H14  1  0.57157000  0.82131000  0.83272000  1.0
  H  H15  1  0.92856000  0.16705000  0.17837000  1.0
  H  H16  1  0.50631000  0.10642000  0.28508000  1.0
  H  H17  1  0.99426000  0.71452000  0.89373000  1.0
  H  H18  1  0.49369000  0.89358000  0.71492000  1.0
  H  H19  1  0.00574000  0.28548000  0.10626000  1.0
  H  H20  1  0.25346000  0.11333000  0.08875000  1.0
  H  H21  1  0.24716000  0.91202000  0.88624000  1.0
  H  H22  1  0.74654000  0.88668000  0.91125000  1.0
  H  H23  1  0.75284000  0.08797000  0.11376000  1.0
  H  H24  1  0.10182000  0.97265000  0.08801000  1.0
  H  H25  1  0.39812000  0.91338000  0.02622000  1.0
  H  H26  1  0.89818000  0.02735000  0.91199000  1.0
  H  H27  1  0.60187000  0.08662000  0.97379000  1.0
  H  H28  1  0.07666000  0.81544000  0.24260000  1.0
  H  H29  1  0.42249000  0.75851000  0.18327000  1.0
  H  H30  1  0.92334000  0.18456000  0.75740000  1.0
  H  H31  1  0.57751000  0.24148000  0.81673000  1.0
  H  H32  1  0.19046000  0.80064000  0.39506000  1.0
  H  H33  1  0.30867000  0.60537000  0.19837000  1.0
  H  H34  1  0.80954000  0.19936000  0.60494000  1.0
  H  H35  1  0.69133000  0.39463000  0.80163000  1.0
  H  H36  1  0.29291000  0.00239000  0.43633000  1.0
  H  H37  1  0.20799000  0.56258000  0.99820000  1.0
  H  H38  1  0.70710000  0.99761000  0.56367000  1.0
  H  H39  1  0.79201000  0.43742000  0.00180000  1.0
  H  H40  1  0.50249000  0.95561000  0.41552000  1.0
  H  H41  1  0.99806000  0.58364000  0.04441000  1.0
  H  H42  1  0.49751000  0.04439000  0.58448000  1.0
  H  H43  1  0.00194000  0.41636000  0.95559000  1.0
  H  H44  1  0.36742000  0.44032000  0.50779000  1.0
  H  H45  1  0.13233000  0.49250000  0.55951000  1.0
  H  H46  1  0.63259000  0.55968000  0.49221000  1.0
  H  H47  1  0.86768000  0.50751000  0.44048000  1.0
  H  H48  1  0.48625000  0.33302000  0.52418000  1.0
  H  H49  1  0.01293000  0.47610000  0.66631000  1.0
  H  H50  1  0.51376000  0.66699000  0.47582000  1.0
  H  H51  1  0.98708000  0.52390000  0.33369000  1.0
  H  H52  1  0.42315000  0.17244000  0.66112000  1.0
  H  H53  1  0.07650000  0.33913000  0.82658000  1.0
  H  H54  1  0.57685000  0.82756000  0.33888000  1.0
  H  H55  1  0.92350000  0.66087000  0.17342000  1.0
  H  H56  1  0.33830000  0.07863000  0.83638000  1.0
  H  H57  1  0.16295000  0.16351000  0.92072000  1.0
  H  H58  1  0.66170000  0.92137000  0.16362000  1.0
  H  H59  1  0.83705000  0.83649000  0.07927000  1.0
  C  C60  1  0.25719000  0.17938000  0.28074000  1.0
  C  C61  1  0.24303000  0.71944000  0.82040000  1.0
  C  C62  1  0.74281000  0.82063000  0.71926000  1.0
  C  C63  1  0.75697000  0.28055000  0.17960000  1.0
  C  C64  1  0.38535000  0.12525000  0.24160000  1.0
  C  C65  1  0.11502000  0.75842000  0.87472000  1.0
  C  C66  1  0.61465000  0.87475000  0.75840000  1.0
  C  C67  1  0.88499000  0.24158000  0.12528000  1.0
  C  C68  1  0.30579000  0.03707000  0.24259000  1.0
  C  C69  1  0.19470000  0.75761000  0.96250000  1.0
  C  C70  1  0.69421000  0.96294000  0.75741000  1.0
  C  C71  1  0.80530000  0.24239000  0.03751000  1.0
  C  C72  1  0.23924000  0.04436000  0.15613000  1.0
  C  C73  1  0.26115000  0.84452000  0.95506000  1.0
  C  C74  1  0.76076000  0.95564000  0.84387000  1.0
  C  C75  1  0.73885000  0.15548000  0.04494000  1.0
  C  C76  1  0.15485000  0.96582000  0.15551000  1.0
  C  C77  1  0.34514000  0.84551000  0.03323000  1.0
  C  C78  1  0.84515000  0.03418000  0.84449000  1.0
  C  C79  1  0.65486000  0.15449000  0.96678000  1.0
  C  C80  1  0.14001000  0.87795000  0.24193000  1.0
  C  C81  1  0.35960000  0.75898000  0.12098000  1.0
  C  C82  1  0.85999000  0.12205000  0.75808000  1.0
  C  C83  1  0.64039000  0.24101000  0.87902000  1.0
  C  C84  1  0.20651000  0.86967000  0.32834000  1.0
  C  C85  1  0.29311000  0.67216000  0.12942000  1.0
  C  C86  1  0.79348000  0.13034000  0.67167000  1.0
  C  C87  1  0.70689000  0.32784000  0.87058000  1.0
  C  C88  1  0.28810000  0.94879000  0.33027000  1.0
  C  C89  1  0.21206000  0.66982000  0.05068000  1.0
  C  C90  1  0.71190000  0.05121000  0.66973000  1.0
  C  C91  1  0.78794000  0.33018000  0.94932000  1.0
  C  C92  1  0.35825000  0.94301000  0.42353000  1.0
  C  C93  1  0.14224000  0.57588000  0.05700000  1.0
  C  C94  1  0.64175000  0.05699000  0.57647000  1.0
  C  C95  1  0.85776000  0.42412000  0.94300000  1.0
  C  C96  1  0.31815000  0.84830000  0.51475000  1.0
  C  C97  1  0.18208000  0.48495000  0.15192000  1.0
  C  C98  1  0.68184000  0.15170000  0.48525000  1.0
  C  C99  1  0.81791000  0.51505000  0.84808000  1.0
  C  C100  1  0.22734000  0.34685000  0.46953000  1.0
  C  C101  1  0.27220000  0.53047000  0.65298000  1.0
  C  C102  1  0.77267000  0.65315000  0.53046000  1.0
  C  C103  1  0.72781000  0.46953000  0.34702000  1.0
  C  C104  1  0.35382000  0.36067000  0.53592000  1.0
  C  C105  1  0.14541000  0.46420000  0.63889000  1.0
  C  C106  1  0.64618000  0.63933000  0.46408000  1.0
  C  C107  1  0.85460000  0.53581000  0.36111000  1.0
  C  C108  1  0.29846000  0.30925000  0.64300000  1.0
  C  C109  1  0.20052000  0.35675000  0.69023000  1.0
  C  C110  1  0.70154000  0.69075000  0.35699000  1.0
  C  C111  1  0.79949000  0.64325000  0.30976000  1.0
  C  C112  1  0.34516000  0.20913000  0.69723000  1.0
  C  C113  1  0.15445000  0.30271000  0.79017000  1.0
  C  C114  1  0.65484000  0.79087000  0.30276000  1.0
  C  C115  1  0.84555000  0.69730000  0.20983000  1.0
  C  C116  1  0.29824000  0.15611000  0.79634000  1.0
  C  C117  1  0.20221000  0.20343000  0.84336000  1.0
  C  C118  1  0.70176000  0.84389000  0.20366000  1.0
  C  C119  1  0.79779000  0.79657000  0.15663000  1.0
  O  O120  1  0.30971000  0.25708000  0.28387000  1.0
  O  O121  1  0.19057000  0.71673000  0.74277000  1.0
  O  O122  1  0.69029000  0.74292000  0.71613000  1.0
  O  O123  1  0.80944000  0.28327000  0.25723000  1.0
  O  O124  1  0.10086000  0.15172000  0.30976000  1.0
  O  O125  1  0.39921000  0.69012000  0.84793000  1.0
  O  O126  1  0.89913000  0.84829000  0.69024000  1.0
  O  O127  1  0.60079000  0.30987000  0.15207000  1.0
  O  O128  1  0.15572000  0.82934000  0.53657000  1.0
  O  O129  1  0.34440000  0.46329000  0.17107000  1.0
  O  O130  1  0.84428000  0.17066000  0.46343000  1.0
  O  O131  1  0.65560000  0.53672000  0.82893000  1.0
  O  O132  1  0.44835000  0.79345000  0.56471000  1.0
  O  O133  1  0.05173000  0.43517000  0.20690000  1.0
  O  O134  1  0.55165000  0.20655000  0.43529000  1.0
  O  O135  1  0.94827000  0.56483000  0.79310000  1.0
  O  O136  1  0.07061000  0.31836000  0.49744000  1.0
  O  O137  1  0.42875000  0.50224000  0.68146000  1.0
  O  O138  1  0.92939000  0.68165000  0.50256000  1.0
  O  O139  1  0.57125000  0.49776000  0.31854000  1.0
  O  O140  1  0.28474000  0.36273000  0.38283000  1.0
  O  O141  1  0.21518000  0.61747000  0.63739000  1.0
  O  O142  1  0.71527000  0.63727000  0.61717000  1.0
  O  O143  1  0.78483000  0.38253000  0.36261000  1.0
  O  O144  1  0.21508000  0.14972000  0.48210000  1.0
  O  O145  1  0.28469000  0.51755000  0.84964000  1.0
  O  O146  1  0.78492000  0.85027000  0.51790000  1.0
  O  O147  1  0.71531000  0.48245000  0.15036000  1.0
