# generated using pymatgen
data_CdH7C6N3O5
_symmetry_space_group_name_H-M   'P 1'
_cell_length_a   5.00350000
_cell_length_b   9.70163000
_cell_length_c   18.15270000
_cell_angle_alpha   89.99960000
_cell_angle_beta   89.99990000
_cell_angle_gamma   89.99990000
_symmetry_Int_Tables_number   1
_chemical_formula_structural   CdH7C6N3O5
_chemical_formula_sum   'Cd4 H28 C24 N12 O20'
_cell_volume   881.17028221
_cell_formula_units_Z   4
loop_
 _symmetry_equiv_pos_site_id
 _symmetry_equiv_pos_as_xyz
  1  'x, y, z'
loop_
 _atom_site_type_symbol
 _atom_site_label
 _atom_site_symmetry_multiplicity
 _atom_site_fract_x
 _atom_site_fract_y
 _atom_site_fract_z
 _atom_site_occupancy
  Cd  Cd0  1  0.31405000  0.30490000  0.79250000  1.0
  Cd  Cd1  1  0.18594000  0.69510000  0.29250000  1.0
  Cd  Cd2  1  0.68597000  0.80490000  0.70750000  1.0
  Cd  Cd3  1  0.81403000  0.19510000  0.20750000  1.0
  H  H4  1  0.71977000  0.17216000  0.95550000  1.0
  H  H5  1  0.78021000  0.82784000  0.45549000  1.0
  H  H6  1  0.28024000  0.67217000  0.54450000  1.0
  H  H7  1  0.21976000  0.32782000  0.04451000  1.0
  H  H8  1  0.76693000  0.98182000  0.05080000  1.0
  H  H9  1  0.73307000  0.01817000  0.55080000  1.0
  H  H10  1  0.23306000  0.48183000  0.44920000  1.0
  H  H11  1  0.26695000  0.51817000  0.94920000  1.0
  H  H12  1  0.68398000  0.81640000  0.01478000  1.0
  H  H13  1  0.81601000  0.18360000  0.51478000  1.0
  H  H14  1  0.31601000  0.31640000  0.48522000  1.0
  H  H15  1  0.18400000  0.68359000  0.98522000  1.0
  H  H16  1  0.21936000  0.84173000  0.06873000  1.0
  H  H17  1  0.28064000  0.15827000  0.56873000  1.0
  H  H18  1  0.78061000  0.34173000  0.43127000  1.0
  H  H19  1  0.71939000  0.65828000  0.93127000  1.0
  H  H20  1  0.47728000  0.83123000  0.13348000  1.0
  H  H21  1  0.02273000  0.16877000  0.63348000  1.0
  H  H22  1  0.52268000  0.33124000  0.36652000  1.0
  H  H23  1  0.97732000  0.66877000  0.86652000  1.0
  H  H24  1  0.52303000  0.13081000  0.68427000  1.0
  H  H25  1  0.97697000  0.86921000  0.18427000  1.0
  H  H26  1  0.47698000  0.63081000  0.81573000  1.0
  H  H27  1  0.02302000  0.36920000  0.31573000  1.0
  H  H28  1  0.76248000  0.17573000  0.73339000  1.0
  H  H29  1  0.73752000  0.82429000  0.23339000  1.0
  H  H30  1  0.23754000  0.67572000  0.76660000  1.0
  H  H31  1  0.26246000  0.32428000  0.26660000  1.0
  C  C32  1  0.55981000  0.10629000  0.93575000  1.0
  C  C33  1  0.94018000  0.89371000  0.43575000  1.0
  C  C34  1  0.44021000  0.60630000  0.56425000  1.0
  C  C35  1  0.05981000  0.39370000  0.06425000  1.0
  C  C36  1  0.24058000  0.01674000  0.87420000  1.0
  C  C37  1  0.25941000  0.98326000  0.37420000  1.0
  C  C38  1  0.75942000  0.51674000  0.62580000  1.0
  C  C39  1  0.74058000  0.48326000  0.12580000  1.0
  C  C40  1  0.60297000  0.91691000  0.03094000  1.0
  C  C41  1  0.89704000  0.08309000  0.53095000  1.0
  C  C42  1  0.39703000  0.41691000  0.46905000  1.0
  C  C43  1  0.10299000  0.58307000  0.96907000  1.0
  C  C44  1  0.04057000  0.00289000  0.81311000  1.0
  C  C45  1  0.45942000  0.99712000  0.31312000  1.0
  C  C46  1  0.95945000  0.50288000  0.68689000  1.0
  C  C47  1  0.54053000  0.49711000  0.18689000  1.0
  C  C48  1  0.29764000  0.03107000  0.12598000  1.0
  C  C49  1  0.20240000  0.96893000  0.62597000  1.0
  C  C50  1  0.70236000  0.53106000  0.37402000  1.0
  C  C51  1  0.79762000  0.46892000  0.87402000  1.0
  C  C52  1  0.39287000  0.89783000  0.09035000  1.0
  C  C53  1  0.10715000  0.10216000  0.59036000  1.0
  C  C54  1  0.60712000  0.39783000  0.40964000  1.0
  C  C55  1  0.89290000  0.60217000  0.90965000  1.0
  N  N56  1  0.40340000  0.13006000  0.87796000  1.0
  N  N57  1  0.09658000  0.86993000  0.37796000  1.0
  N  N58  1  0.59663000  0.63007000  0.62204000  1.0
  N  N59  1  0.90339000  0.36994000  0.12204000  1.0
  N  N60  1  0.49150000  0.98399000  0.96577000  1.0
  N  N61  1  0.00849000  0.01600000  0.46577000  1.0
  N  N62  1  0.50851000  0.48399000  0.53423000  1.0
  N  N63  1  0.99150000  0.51600000  0.03423000  1.0
  N  N64  1  0.28852000  0.92546000  0.92757000  1.0
  N  N65  1  0.21149000  0.07455000  0.42758000  1.0
  N  N66  1  0.71151000  0.42545000  0.57243000  1.0
  N  N67  1  0.78852000  0.57453000  0.07242000  1.0
  O  O68  1  0.44437000  0.13658000  0.12722000  1.0
  O  O69  1  0.05565000  0.86341000  0.62722000  1.0
  O  O70  1  0.55563000  0.63658000  0.37278000  1.0
  O  O71  1  0.94437000  0.36341000  0.87278000  1.0
  O  O72  1  0.89963000  0.89506000  0.80966000  1.0
  O  O73  1  0.60036000  0.10494000  0.30967000  1.0
  O  O74  1  0.10037000  0.39507000  0.69034000  1.0
  O  O75  1  0.39962000  0.60494000  0.19033000  1.0
  O  O76  1  0.60123000  0.21404000  0.70842000  1.0
  O  O77  1  0.89876000  0.78597000  0.20842000  1.0
  O  O78  1  0.39878000  0.71404000  0.79158000  1.0
  O  O79  1  0.10122000  0.28596000  0.29158000  1.0
  O  O80  1  0.03328000  0.10432000  0.76849000  1.0
  O  O81  1  0.46671000  0.89568000  0.26850000  1.0
  O  O82  1  0.96672000  0.60431000  0.73150000  1.0
  O  O83  1  0.53326000  0.39569000  0.23150000  1.0
  O  O84  1  0.05920000  0.02562000  0.15295000  1.0
  O  O85  1  0.44083000  0.97440000  0.65295000  1.0
  O  O86  1  0.94077000  0.52561000  0.34705000  1.0
  O  O87  1  0.55916000  0.47440000  0.84705000  1.0
