# generated using pymatgen
data_CdH10C12N4O7
_symmetry_space_group_name_H-M   'P 1'
_cell_length_a   6.97682000
_cell_length_b   9.55963000
_cell_length_c   20.82730000
_cell_angle_alpha   90.00000000
_cell_angle_beta   93.28280000
_cell_angle_gamma   90.00000000
_symmetry_Int_Tables_number   1
_chemical_formula_structural   CdH10C12N4O7
_chemical_formula_sum   'Cd4 H40 C48 N16 O28'
_cell_volume   1386.81437509
_cell_formula_units_Z   4
loop_
 _symmetry_equiv_pos_site_id
 _symmetry_equiv_pos_as_xyz
  1  'x, y, z'
loop_
 _atom_site_type_symbol
 _atom_site_label
 _atom_site_symmetry_multiplicity
 _atom_site_fract_x
 _atom_site_fract_y
 _atom_site_fract_z
 _atom_site_occupancy
  Cd  Cd0  1  0.70033000  0.41460000  0.28364000  1.0
  Cd  Cd1  1  0.29967000  0.91460000  0.21636000  1.0
  Cd  Cd2  1  0.29967000  0.58540000  0.71636000  1.0
  Cd  Cd3  1  0.70033000  0.08540000  0.78364000  1.0
  H  H4  1  0.76356000  0.75891000  0.28462000  1.0
  H  H5  1  0.23643000  0.25892000  0.21538000  1.0
  H  H6  1  0.23644000  0.24109000  0.71538000  1.0
  H  H7  1  0.76356000  0.74108000  0.78462000  1.0
  H  H8  1  0.85922000  0.94727000  0.36284000  1.0
  H  H9  1  0.14078000  0.44727000  0.13715000  1.0
  H  H10  1  0.14078000  0.05273000  0.63715000  1.0
  H  H11  1  0.85922000  0.55272000  0.86285000  1.0
  H  H12  1  0.88483000  0.88887000  0.48106000  1.0
  H  H13  1  0.11516000  0.38886000  0.01894000  1.0
  H  H14  1  0.11517000  0.11114000  0.51894000  1.0
  H  H15  1  0.88483000  0.61113000  0.98106000  1.0
  H  H16  1  0.85465000  0.71271000  0.56741000  1.0
  H  H17  1  0.14535000  0.21271000  0.93259000  1.0
  H  H18  1  0.14535000  0.28729000  0.43259000  1.0
  H  H19  1  0.85465000  0.78729000  0.06741000  1.0
  H  H20  1  0.78347000  0.46987000  0.60000000  1.0
  H  H21  1  0.21653000  0.96986000  0.90000000  1.0
  H  H22  1  0.21653000  0.53014000  0.40000000  1.0
  H  H23  1  0.78347000  0.03013000  0.09999000  1.0
  H  H24  1  0.69151000  0.22562000  0.57037000  1.0
  H  H25  1  0.30849000  0.72562000  0.92963000  1.0
  H  H26  1  0.30848000  0.77438000  0.42963000  1.0
  H  H27  1  0.69152000  0.27438000  0.07037000  1.0
  H  H28  1  0.61554000  0.05030000  0.48344000  1.0
  H  H29  1  0.38447000  0.55029000  0.01656000  1.0
  H  H30  1  0.38446000  0.94970000  0.51656000  1.0
  H  H31  1  0.61554000  0.44970000  0.98344000  1.0
  H  H32  1  0.59321000  0.12926000  0.36872000  1.0
  H  H33  1  0.40679000  0.62926000  0.13128000  1.0
  H  H34  1  0.40680000  0.87074000  0.63128000  1.0
  H  H35  1  0.59320000  0.37074000  0.86872000  1.0
  H  H36  1  0.12526000  0.39314000  0.30321000  1.0
  H  H37  1  0.87474000  0.89314000  0.19679000  1.0
  H  H38  1  0.87474000  0.60686000  0.69679000  1.0
  H  H39  1  0.12526000  0.10685000  0.80321000  1.0
  H  H40  1  0.04423000  0.23864000  0.30867000  1.0
  H  H41  1  0.95578000  0.73864000  0.19133000  1.0
  H  H42  1  0.95578000  0.76136000  0.69133000  1.0
  H  H43  1  0.04422000  0.26136000  0.80867000  1.0
  C  C44  1  0.77435000  0.73735000  0.33592000  1.0
  C  C45  1  0.22564000  0.23735000  0.16408000  1.0
  C  C46  1  0.22564000  0.26265000  0.66408000  1.0
  C  C47  1  0.77435000  0.76265000  0.83592000  1.0
  C  C48  1  0.82728000  0.84301000  0.38026000  1.0
  C  C49  1  0.17271000  0.34302000  0.11974000  1.0
  C  C50  1  0.17271000  0.15699000  0.61973000  1.0
  C  C51  1  0.82729000  0.65699000  0.88026000  1.0
  C  C52  1  0.84117000  0.81082000  0.44494000  1.0
  C  C53  1  0.15883000  0.31082000  0.05506000  1.0
  C  C54  1  0.15883000  0.18919000  0.55506000  1.0
  C  C55  1  0.84117000  0.68918000  0.94494000  1.0
  C  C56  1  0.79840000  0.67385000  0.46524000  1.0
  C  C57  1  0.20160000  0.17385000  0.03476000  1.0
  C  C58  1  0.20160000  0.32615000  0.53476000  1.0
  C  C59  1  0.79840000  0.82615000  0.96524000  1.0
  C  C60  1  0.81077000  0.63431000  0.53155000  1.0
  C  C61  1  0.18924000  0.13430000  0.96845000  1.0
  C  C62  1  0.18923000  0.36569000  0.46845000  1.0
  C  C63  1  0.81076000  0.86569000  0.03155000  1.0
  C  C64  1  0.77083000  0.50074000  0.54954000  1.0
  C  C65  1  0.22917000  0.00074000  0.95046000  1.0
  C  C66  1  0.22916000  0.49926000  0.45045000  1.0
  C  C67  1  0.77083000  0.99925000  0.04954000  1.0
  C  C68  1  0.71746000  0.39659000  0.50265000  1.0
  C  C69  1  0.28254000  0.89659000  0.99735000  1.0
  C  C70  1  0.28254000  0.60341000  0.49735000  1.0
  C  C71  1  0.71747000  0.10341000  0.00265000  1.0
  C  C72  1  0.68256000  0.25640000  0.51981000  1.0
  C  C73  1  0.31744000  0.75640000  0.98020000  1.0
  C  C74  1  0.31743000  0.74360000  0.48019000  1.0
  C  C75  1  0.68257000  0.24359000  0.01981000  1.0
  C  C76  1  0.63939000  0.15955000  0.47198000  1.0
  C  C77  1  0.36061000  0.65956000  0.02802000  1.0
  C  C78  1  0.36061000  0.84045000  0.52802000  1.0
  C  C79  1  0.63939000  0.34045000  0.97198000  1.0
  C  C80  1  0.62772000  0.20320000  0.40752000  1.0
  C  C81  1  0.37228000  0.70320000  0.09249000  1.0
  C  C82  1  0.37228000  0.79680000  0.59248000  1.0
  C  C83  1  0.62772000  0.29679000  0.90752000  1.0
  C  C84  1  0.70457000  0.43154000  0.43610000  1.0
  C  C85  1  0.29543000  0.93154000  0.06390000  1.0
  C  C86  1  0.29543000  0.56846000  0.56390000  1.0
  C  C87  1  0.70458000  0.06846000  0.93610000  1.0
  C  C88  1  0.74570000  0.57343000  0.41703000  1.0
  C  C89  1  0.25430000  0.07343000  0.08297000  1.0
  C  C90  1  0.25430000  0.42657000  0.58297000  1.0
  C  C91  1  0.74571000  0.92657000  0.91703000  1.0
  N  N92  1  0.73658000  0.60694000  0.35355000  1.0
  N  N93  1  0.26342000  0.10694000  0.14645000  1.0
  N  N94  1  0.26342000  0.39306000  0.64644000  1.0
  N  N95  1  0.73658000  0.89306000  0.85356000  1.0
  N  N96  1  0.65882000  0.33485000  0.39012000  1.0
  N  N97  1  0.34117000  0.83486000  0.10988000  1.0
  N  N98  1  0.34117000  0.66515000  0.60988000  1.0
  N  N99  1  0.65883000  0.16515000  0.89012000  1.0
  N  N100  1  0.30966000  0.60675000  0.27485000  1.0
  N  N101  1  0.69034000  0.10675000  0.22515000  1.0
  N  N102  1  0.69034000  0.39325000  0.72515000  1.0
  N  N103  1  0.30966000  0.89325000  0.77485000  1.0
  N  N104  1  0.76629000  0.51568000  0.15513000  1.0
  N  N105  1  0.23371000  0.01567000  0.34487000  1.0
  N  N106  1  0.23371000  0.48433000  0.84487000  1.0
  N  N107  1  0.76630000  0.98433000  0.65513000  1.0
  O  O108  1  0.34784000  0.47593000  0.28318000  1.0
  O  O109  1  0.65216000  0.97593000  0.21682000  1.0
  O  O110  1  0.65216000  0.52406000  0.71683000  1.0
  O  O111  1  0.34784000  0.02406000  0.78317000  1.0
  O  O112  1  0.16922000  0.65983000  0.29991000  1.0
  O  O113  1  0.83078000  0.15983000  0.20009000  1.0
  O  O114  1  0.83078000  0.34017000  0.70009000  1.0
  O  O115  1  0.16922000  0.84017000  0.79991000  1.0
  O  O116  1  0.41932000  0.67856000  0.24057000  1.0
  O  O117  1  0.58068000  0.17856000  0.25943000  1.0
  O  O118  1  0.58068000  0.32144000  0.75943000  1.0
  O  O119  1  0.41932000  0.82144000  0.74057000  1.0
  O  O120  1  0.63398000  0.43037000  0.16902000  1.0
  O  O121  1  0.36602000  0.93037000  0.33098000  1.0
  O  O122  1  0.36602000  0.56963000  0.83098000  1.0
  O  O123  1  0.63398000  0.06963000  0.66902000  1.0
  O  O124  1  0.87425000  0.56468000  0.20231000  1.0
  O  O125  1  0.12576000  0.06468000  0.29769000  1.0
  O  O126  1  0.12575000  0.43533000  0.79769000  1.0
  O  O127  1  0.87425000  0.93532000  0.70231000  1.0
  O  O128  1  0.79111000  0.54978000  0.09859000  1.0
  O  O129  1  0.20889000  0.04978000  0.40141000  1.0
  O  O130  1  0.20889000  0.45022000  0.90141000  1.0
  O  O131  1  0.79111000  0.95023000  0.59859000  1.0
  O  O132  1  0.01203000  0.33852000  0.31490000  1.0
  O  O133  1  0.98797000  0.83852000  0.18510000  1.0
  O  O134  1  0.98797000  0.66148000  0.68509000  1.0
  O  O135  1  0.01203000  0.16148000  0.81490000  1.0
