# generated using pymatgen
data_HoH6C9O7
_symmetry_space_group_name_H-M   'P 1'
_cell_length_a   7.03086000
_cell_length_b   7.56566000
_cell_length_c   10.19120000
_cell_angle_alpha   75.69350000
_cell_angle_beta   71.70620000
_cell_angle_gamma   88.28400000
_symmetry_Int_Tables_number   1
_chemical_formula_structural   HoH6C9O7
_chemical_formula_sum   'Ho2 H12 C18 O14'
_cell_volume   498.07271589
_cell_formula_units_Z   2
loop_
 _symmetry_equiv_pos_site_id
 _symmetry_equiv_pos_as_xyz
  1  'x, y, z'
loop_
 _atom_site_type_symbol
 _atom_site_label
 _atom_site_symmetry_multiplicity
 _atom_site_fract_x
 _atom_site_fract_y
 _atom_site_fract_z
 _atom_site_occupancy
  Ho  Ho0  1  0.81191000  0.21553000  0.01651000  1.0
  Ho  Ho1  1  0.18809000  0.78447000  0.98349000  1.0
  H  H2  1  0.72188000  0.84014000  0.16837000  1.0
  H  H3  1  0.27812000  0.15985000  0.83164000  1.0
  H  H4  1  0.50275000  0.91301000  0.16835000  1.0
  H  H5  1  0.49725000  0.08698000  0.83165000  1.0
  H  H6  1  0.44177000  0.30521000  0.34993000  1.0
  H  H7  1  0.55823000  0.69479000  0.65007000  1.0
  H  H8  1  0.80779000  0.70394000  0.41289000  1.0
  H  H9  1  0.19221000  0.29606000  0.58711000  1.0
  H  H10  1  0.33170000  0.87734000  0.40017000  1.0
  H  H11  1  0.66830000  0.12265000  0.59983000  1.0
  H  H12  1  0.78160000  0.10218000  0.34875000  1.0
  H  H13  1  0.21840000  0.89782000  0.65125000  1.0
  C  C14  1  0.46749000  0.38910000  0.41634000  1.0
  C  C15  1  0.53251000  0.61090000  0.58366000  1.0
  C  C16  1  0.78798000  0.51607000  0.22250000  1.0
  C  C17  1  0.21202000  0.48393000  0.77750000  1.0
  C  C18  1  0.41865000  0.43250000  0.05965000  1.0
  C  C19  1  0.58137000  0.56750000  0.94035000  1.0
  C  C20  1  0.64037000  0.50565000  0.36674000  1.0
  C  C21  1  0.35962000  0.49435000  0.63326000  1.0
  C  C22  1  0.67202000  0.61578000  0.45111000  1.0
  C  C23  1  0.32798000  0.38422000  0.54889000  1.0
  C  C24  1  0.06452000  0.99010000  0.35725000  1.0
  C  C25  1  0.93548000  0.00990000  0.64275000  1.0
  C  C26  1  0.12700000  0.96705000  0.20913000  1.0
  C  C27  1  0.87300000  0.03295000  0.79088000  1.0
  C  C28  1  0.18661000  0.93127000  0.44368000  1.0
  C  C29  1  0.81339000  0.06873000  0.55632000  1.0
  C  C30  1  0.87723000  0.05815000  0.41501000  1.0
  C  C31  1  0.12277000  0.94186000  0.58499000  1.0
  O  O32  1  0.63944000  0.94956000  0.16486000  1.0
  O  O33  1  0.36056000  0.05043000  0.83514000  1.0
  O  O34  1  0.47087000  0.27109000  0.09898000  1.0
  O  O35  1  0.52914000  0.72892000  0.90101000  1.0
  O  O36  1  0.80853000  0.37643000  0.17363000  1.0
  O  O37  1  0.19147000  0.62357000  0.82637000  1.0
  O  O38  1  0.88306000  0.67050000  0.15393000  1.0
  O  O39  1  0.11694000  0.32950000  0.84607000  1.0
  O  O40  1  0.24917000  0.49449000  0.10727000  1.0
  O  O41  1  0.75083000  0.50551000  0.89272000  1.0
  O  O42  1  0.03225000  0.03782000  0.12195000  1.0
  O  O43  1  0.96775000  0.96217000  0.87806000  1.0
  O  O44  1  0.26915000  0.86108000  0.17170000  1.0
  O  O45  1  0.73085000  0.13891000  0.82830000  1.0
