# generated using pymatgen
data_CdPH8C6ClO3
_symmetry_space_group_name_H-M   'P 1'
_cell_length_a   5.84152000
_cell_length_b   12.78820000
_cell_length_c   13.47792462
_cell_angle_alpha   109.90784023
_cell_angle_beta   102.50287570
_cell_angle_gamma   103.18580000
_symmetry_Int_Tables_number   1
_chemical_formula_structural   CdPH8C6ClO3
_chemical_formula_sum   'Cd4 P4 H32 C24 Cl4 O12'
_cell_volume   872.82906574
_cell_formula_units_Z   4
loop_
 _symmetry_equiv_pos_site_id
 _symmetry_equiv_pos_as_xyz
  1  'x, y, z'
loop_
 _atom_site_type_symbol
 _atom_site_label
 _atom_site_symmetry_multiplicity
 _atom_site_fract_x
 _atom_site_fract_y
 _atom_site_fract_z
 _atom_site_occupancy
  Cd  Cd0  1  0.52150000  0.74993000  0.75001000  1.0
  Cd  Cd1  1  0.47850000  0.25007000  0.24999000  1.0
  Cd  Cd2  1  0.00000000  0.00000000  0.00000000  1.0
  Cd  Cd3  1  0.50000000  0.50000000  0.50000000  1.0
  P  P4  1  0.07941000  0.89523000  0.73340000  1.0
  P  P5  1  0.95049000  0.60455000  0.76653000  1.0
  P  P6  1  0.92059000  0.10477000  0.26660000  1.0
  P  P7  1  0.04951000  0.39545000  0.23347000  1.0
  H  H8  1  0.96187000  0.78972000  0.63587000  1.0
  H  H9  1  0.03565000  0.71004000  0.86413000  1.0
  H  H10  1  0.03812000  0.21028000  0.36413000  1.0
  H  H11  1  0.96435000  0.28996000  0.13587000  1.0
  H  H12  1  0.55496000  0.00959000  0.88475000  1.0
  H  H13  1  0.16015000  0.49039000  0.61508000  1.0
  H  H14  1  0.44503000  0.99041000  0.11525000  1.0
  H  H15  1  0.83985000  0.50961000  0.38492000  1.0
  H  H16  1  0.62092000  0.11735000  0.99935000  1.0
  H  H17  1  0.00408000  0.38265000  0.50045000  1.0
  H  H18  1  0.37908000  0.88265000  0.00065000  1.0
  H  H19  1  0.99592000  0.61735000  0.49956000  1.0
  H  H20  1  0.85807000  0.08423000  0.75400000  1.0
  H  H21  1  0.52034000  0.41542000  0.74574000  1.0
  H  H22  1  0.14192000  0.91577000  0.24599000  1.0
  H  H23  1  0.47967000  0.58458000  0.25426000  1.0
  H  H24  1  0.90881000  0.23630000  0.67615000  1.0
  H  H25  1  0.49674000  0.26345000  0.82365000  1.0
  H  H26  1  0.09121000  0.76370000  0.32385000  1.0
  H  H27  1  0.50326000  0.73655000  0.17635000  1.0
  H  H28  1  0.19723000  0.24833000  0.56679000  1.0
  H  H29  1  0.88224000  0.25142000  0.93313000  1.0
  H  H30  1  0.80279000  0.75167000  0.43321000  1.0
  H  H31  1  0.11776000  0.74858000  0.06687000  1.0
  H  H32  1  0.43725000  0.11011000  0.53415000  1.0
  H  H33  1  0.29304000  0.38957000  0.96580000  1.0
  H  H34  1  0.56276000  0.88988000  0.46585000  1.0
  H  H35  1  0.70696000  0.61043000  0.03421000  1.0
  H  H36  1  0.38795000  0.95758000  0.61119000  1.0
  H  H37  1  0.31937000  0.54225000  0.88888000  1.0
  H  H38  1  0.61205000  0.04241000  0.38881000  1.0
  H  H39  1  0.68064000  0.45776000  0.11113000  1.0
  C  C40  1  0.11932000  0.01172000  0.68713000  1.0
  C  C41  1  0.92079000  0.48806000  0.81274000  1.0
  C  C42  1  0.88067000  0.98827000  0.31286000  1.0
  C  C43  1  0.07919000  0.51195000  0.18726000  1.0
  C  C44  1  0.98371000  0.08986000  0.70543000  1.0
  C  C45  1  0.68889000  0.40986000  0.79436000  1.0
  C  C46  1  0.01628000  0.91014000  0.29456000  1.0
  C  C47  1  0.31113000  0.59015000  0.20565000  1.0
  C  C48  1  0.01243000  0.17479000  0.66176000  1.0
  C  C49  1  0.67630000  0.32491000  0.83806000  1.0
  C  C50  1  0.98758000  0.82520000  0.33824000  1.0
  C  C51  1  0.32369000  0.67510000  0.16194000  1.0
  C  C52  1  0.17411000  0.18114000  0.59979000  1.0
  C  C53  1  0.89344000  0.31858000  0.90008000  1.0
  C  C54  1  0.82591000  0.81886000  0.40021000  1.0
  C  C55  1  0.10656000  0.68142000  0.09992000  1.0
  C  C56  1  0.31020000  0.10360000  0.58192000  1.0
  C  C57  1  0.12486000  0.39610000  0.91798000  1.0
  C  C58  1  0.68980000  0.89640000  0.41807000  1.0
  C  C59  1  0.87513000  0.60390000  0.08202000  1.0
  C  C60  1  0.28364000  0.01896000  0.62542000  1.0
  C  C61  1  0.13944000  0.48080000  0.87451000  1.0
  C  C62  1  0.71636000  0.98104000  0.37457000  1.0
  C  C63  1  0.86056000  0.51920000  0.12549000  1.0
  Cl  Cl64  1  0.66182000  0.79958000  0.96229000  1.0
  Cl  Cl65  1  0.40044000  0.70047000  0.53776000  1.0
  Cl  Cl66  1  0.33818000  0.20042000  0.03771000  1.0
  Cl  Cl67  1  0.59955000  0.29953000  0.46224000  1.0
  O  O68  1  0.90227000  0.90163000  0.80328000  1.0
  O  O69  1  0.69693000  0.59806000  0.69678000  1.0
  O  O70  1  0.09772000  0.09837000  0.19672000  1.0
  O  O71  1  0.30307000  0.40194000  0.30323000  1.0
  O  O72  1  0.33478000  0.89291000  0.78989000  1.0
  O  O73  1  0.15150000  0.60714000  0.70991000  1.0
  O  O74  1  0.66520000  0.10709000  0.21011000  1.0
  O  O75  1  0.84850000  0.39286000  0.29009000  1.0
  O  O76  1  0.69836000  0.07506000  0.94786000  1.0
  O  O77  1  0.17513000  0.42491000  0.55198000  1.0
  O  O78  1  0.30163000  0.92494000  0.05214000  1.0
  O  O79  1  0.82486000  0.57509000  0.44802000  1.0
