# generated using pymatgen
data_ZnH14C18(N2O3)2
_symmetry_space_group_name_H-M   'P 1'
_cell_length_a   8.05271000
_cell_length_b   8.64169000
_cell_length_c   12.96580000
_cell_angle_alpha   91.88560000
_cell_angle_beta   93.28510000
_cell_angle_gamma   96.34620000
_symmetry_Int_Tables_number   1
_chemical_formula_structural   ZnH14C18(N2O3)2
_chemical_formula_sum   'Zn2 H28 C36 N8 O12'
_cell_volume   894.57446466
_cell_formula_units_Z   2
loop_
 _symmetry_equiv_pos_site_id
 _symmetry_equiv_pos_as_xyz
  1  'x, y, z'
loop_
 _atom_site_type_symbol
 _atom_site_label
 _atom_site_symmetry_multiplicity
 _atom_site_fract_x
 _atom_site_fract_y
 _atom_site_fract_z
 _atom_site_occupancy
  Zn  Zn0  1  0.86351000  0.60827000  0.24200000  1.0
  Zn  Zn1  1  0.13649000  0.39173000  0.75800000  1.0
  H  H2  1  0.41639000  0.30335000  0.27623000  1.0
  H  H3  1  0.58362000  0.69665000  0.72377000  1.0
  H  H4  1  0.62913000  0.23185000  0.40756000  1.0
  H  H5  1  0.37087000  0.76815000  0.59244000  1.0
  H  H6  1  0.09795000  0.43402000  0.51491000  1.0
  H  H7  1  0.90206000  0.56598000  0.48509000  1.0
  H  H8  1  0.61977000  0.21360000  0.82667000  1.0
  H  H9  1  0.38023000  0.78640000  0.17333000  1.0
  H  H10  1  0.63095000  0.41908000  0.83372000  1.0
  H  H11  1  0.36905000  0.58092000  0.16628000  1.0
  H  H12  1  0.74667000  0.94862000  0.31095000  1.0
  H  H13  1  0.25333000  0.05138000  0.68904000  1.0
  H  H14  1  0.91967000  0.93381000  0.39918000  1.0
  H  H15  1  0.08032000  0.06618000  0.60082000  1.0
  H  H16  1  0.06347000  0.59920000  0.03984000  1.0
  H  H17  1  0.93653000  0.40080000  0.96016000  1.0
  H  H18  1  0.36209000  0.97112000  0.89790000  1.0
  H  H19  1  0.63792000  0.02888000  0.10210000  1.0
  H  H20  1  0.30046000  0.16436000  0.03192000  1.0
  H  H21  1  0.69955000  0.83564000  0.96808000  1.0
  H  H22  1  0.69042000  0.24758000  0.63285000  1.0
  H  H23  1  0.30958000  0.75243000  0.36715000  1.0
  H  H24  1  0.09710000  0.18429000  0.20783000  1.0
  H  H25  1  0.90290000  0.81571000  0.79217000  1.0
  H  H26  1  0.36786000  0.39174000  0.89845000  1.0
  H  H27  1  0.63214000  0.60825000  0.10155000  1.0
  H  H28  1  0.82880000  0.20688000  0.30279000  1.0
  H  H29  1  0.17120000  0.79312000  0.69720000  1.0
  C  C30  1  0.12957000  0.42986000  0.30614000  1.0
  C  C31  1  0.87043000  0.57014000  0.69386000  1.0
  C  C32  1  0.24595000  0.37392000  0.38753000  1.0
  C  C33  1  0.75405000  0.62608000  0.61247000  1.0
  C  C34  1  0.39291000  0.31309000  0.35798000  1.0
  C  C35  1  0.60709000  0.68691000  0.64202000  1.0
  C  C36  1  0.51280000  0.27214000  0.43072000  1.0
  C  C37  1  0.48720000  0.72786000  0.56928000  1.0
  C  C38  1  0.47875000  0.29126000  0.53435000  1.0
  C  C39  1  0.52125000  0.70874000  0.46565000  1.0
  C  C40  1  0.32854000  0.34500000  0.56469000  1.0
  C  C41  1  0.67146000  0.65500000  0.43531000  1.0
  C  C42  1  0.21105000  0.38845000  0.49149000  1.0
  C  C43  1  0.78895000  0.61155000  0.50851000  1.0
  C  C44  1  0.47839000  0.31028000  0.70678000  1.0
  C  C45  1  0.52161000  0.68972000  0.29322000  1.0
  C  C46  1  0.54432000  0.31134000  0.81752000  1.0
  C  C47  1  0.45568000  0.68866000  0.18249000  1.0
  C  C48  1  0.24280000  0.66815000  0.87248000  1.0
  C  C49  1  0.75720000  0.33185000  0.12752000  1.0
  C  C50  1  0.87820000  0.99565000  0.33095000  1.0
  C  C51  1  0.12180000  0.00435000  0.66904000  1.0
  C  C52  1  0.97834000  0.95618000  0.24110000  1.0
  C  C53  1  0.02166000  0.04382000  0.75889000  1.0
  C  C54  1  0.14256000  0.98855000  0.11032000  1.0
  C  C55  1  0.85744000  0.01145000  0.88968000  1.0
  C  C56  1  0.07703000  0.82990000  0.11322000  1.0
  C  C57  1  0.92297000  0.17010000  0.88678000  1.0
  C  C58  1  0.11353000  0.72115000  0.03848000  1.0
  C  C59  1  0.88647000  0.27885000  0.96151000  1.0
  C  C60  1  0.21528000  0.77569000  0.96041000  1.0
  C  C61  1  0.78472000  0.22431000  0.03958000  1.0
  C  C62  1  0.28216000  0.93414000  0.95947000  1.0
  C  C63  1  0.71784000  0.06586000  0.04053000  1.0
  C  C64  1  0.24839000  0.04296000  0.03443000  1.0
  C  C65  1  0.75161000  0.95704000  0.96558000  1.0
  N  N66  1  0.33167000  0.35274000  0.67263000  1.0
  N  N67  1  0.66833000  0.64726000  0.32737000  1.0
  N  N68  1  0.56890000  0.26964000  0.62622000  1.0
  N  N69  1  0.43110000  0.73036000  0.37378000  1.0
  N  N70  1  0.97638000  0.81341000  0.19706000  1.0
  N  N71  1  0.02361000  0.18659000  0.80294000  1.0
  N  N72  1  0.07795000  0.06345000  0.19213000  1.0
  N  N73  1  0.92204000  0.93655000  0.80787000  1.0
  O  O74  1  0.41804000  0.29324000  0.88856000  1.0
  O  O75  1  0.58196000  0.70676000  0.11144000  1.0
  O  O76  1  0.12785000  0.37876000  0.21393000  1.0
  O  O77  1  0.87215000  0.62124000  0.78607000  1.0
  O  O78  1  0.03809000  0.53479000  0.33701000  1.0
  O  O79  1  0.96191000  0.46521000  0.66300000  1.0
  O  O80  1  0.28973000  0.72062000  0.78832000  1.0
  O  O81  1  0.71027000  0.27937000  0.21167000  1.0
  O  O82  1  0.21041000  0.51911000  0.88691000  1.0
  O  O83  1  0.78959000  0.48089000  0.11309000  1.0
  O  O84  1  0.89352000  0.15617000  0.35768000  1.0
  O  O85  1  0.10648000  0.84383000  0.64232000  1.0
