# generated using pymatgen
data_CdH16C16Br4(NO)6
_symmetry_space_group_name_H-M   'P 1'
_cell_length_a   8.03734000
_cell_length_b   8.76972000
_cell_length_c   9.47733000
_cell_angle_alpha   68.39000000
_cell_angle_beta   78.30770000
_cell_angle_gamma   88.32070000
_symmetry_Int_Tables_number   1
_chemical_formula_structural   CdH16C16Br4(NO)6
_chemical_formula_sum   'Cd1 H16 C16 Br4 N6 O6'
_cell_volume   607.41738619
_cell_formula_units_Z   1
loop_
 _symmetry_equiv_pos_site_id
 _symmetry_equiv_pos_as_xyz
  1  'x, y, z'
loop_
 _atom_site_type_symbol
 _atom_site_label
 _atom_site_symmetry_multiplicity
 _atom_site_fract_x
 _atom_site_fract_y
 _atom_site_fract_z
 _atom_site_occupancy
  Cd  Cd0  1  0.50000000  0.50001000  0.49999000  1.0
  H  H1  1  0.69149000  0.81639000  0.59446000  1.0
  H  H2  1  0.30850000  0.18360000  0.40555000  1.0
  H  H3  1  0.19780000  0.59382000  0.75715000  1.0
  H  H4  1  0.80220000  0.40620000  0.24282000  1.0
  H  H5  1  0.46259000  0.08469000  0.74411000  1.0
  H  H6  1  0.53742000  0.91530000  0.25591000  1.0
  H  H7  1  0.66276000  0.99502000  0.76053000  1.0
  H  H8  1  0.33724000  0.00495000  0.23949000  1.0
  H  H9  1  0.53856000  0.81745000  0.03920000  1.0
  H  H10  1  0.46143000  0.18252000  0.96082000  1.0
  H  H11  1  0.33780000  0.89998000  0.01643000  1.0
  H  H12  1  0.66218000  0.10000000  0.98358000  1.0
  H  H13  1  0.18112000  0.60501000  0.34178000  1.0
  H  H14  1  0.81886000  0.39499000  0.65822000  1.0
  H  H15  1  0.16018000  0.55317000  0.51980000  1.0
  H  H16  1  0.83982000  0.44683000  0.48020000  1.0
  C  C17  1  0.56099000  0.78002000  0.65575000  1.0
  C  C18  1  0.43901000  0.21997000  0.34425000  1.0
  C  C19  1  0.30999000  0.66903000  0.74067000  1.0
  C  C20  1  0.69001000  0.33098000  0.25931000  1.0
  C  C21  1  0.52484000  0.97283000  0.80372000  1.0
  C  C22  1  0.47516000  0.02714000  0.19630000  1.0
  C  C23  1  0.47576000  0.92875000  0.97875000  1.0
  C  C24  1  0.52423000  0.07122000  0.02127000  1.0
  C  C25  1  0.85478000  0.69357000  0.25077000  1.0
  C  C26  1  0.14524000  0.30644000  0.74924000  1.0
  C  C27  1  0.93313000  0.85075000  0.11985000  1.0
  C  C28  1  0.06687000  0.14926000  0.88015000  1.0
  C  C29  1  0.99078000  0.98001000  0.15333000  1.0
  C  C30  1  0.00925000  0.02000000  0.84667000  1.0
  C  C31  1  0.05687000  0.12850000  0.03524000  1.0
  C  C32  1  0.94313000  0.87151000  0.96477000  1.0
  Br  Br33  1  0.97696000  0.94722000  0.36465000  1.0
  Br  Br34  1  0.02307000  0.05281000  0.63533000  1.0
  Br  Br35  1  0.13077000  0.30567000  0.08036000  1.0
  Br  Br36  1  0.86922000  0.69436000  0.91963000  1.0
  N  N37  1  0.46019000  0.66924000  0.64229000  1.0
  N  N38  1  0.53981000  0.33076000  0.35770000  1.0
  N  N39  1  0.47379000  0.84190000  0.75780000  1.0
  N  N40  1  0.52620000  0.15809000  0.24221000  1.0
  N  N41  1  0.31325000  0.77225000  0.81297000  1.0
  N  N42  1  0.68675000  0.22774000  0.18702000  1.0
  O  O43  1  0.69499000  0.69307000  0.29593000  1.0
  O  O44  1  0.30502000  0.30695000  0.70406000  1.0
  O  O45  1  0.24262000  0.60959000  0.41999000  1.0
  O  O46  1  0.75737000  0.39041000  0.58001000  1.0
  O  O47  1  0.95261000  0.57964000  0.30195000  1.0
  O  O48  1  0.04739000  0.42036000  0.69804000  1.0
