# generated using pymatgen
data_MnH9C12N8Cl
_symmetry_space_group_name_H-M   'P 1'
_cell_length_a   7.93709000
_cell_length_b   9.62604000
_cell_length_c   9.73615000
_cell_angle_alpha   72.98460000
_cell_angle_beta   78.65900000
_cell_angle_gamma   81.07150000
_symmetry_Int_Tables_number   1
_chemical_formula_structural   MnH9C12N8Cl
_chemical_formula_sum   'Mn2 H18 C24 N16 Cl2'
_cell_volume   693.62409067
_cell_formula_units_Z   2
loop_
 _symmetry_equiv_pos_site_id
 _symmetry_equiv_pos_as_xyz
  1  'x, y, z'
loop_
 _atom_site_type_symbol
 _atom_site_label
 _atom_site_symmetry_multiplicity
 _atom_site_fract_x
 _atom_site_fract_y
 _atom_site_fract_z
 _atom_site_occupancy
  Mn  Mn0  1  0.15380000  0.57266000  0.54818000  1.0
  Mn  Mn1  1  0.84620000  0.42734000  0.45182000  1.0
  H  H2  1  0.85396000  0.44240000  0.81093000  1.0
  H  H3  1  0.14604000  0.55760000  0.18907000  1.0
  H  H4  1  0.70155000  0.49848000  0.04346000  1.0
  H  H5  1  0.29845000  0.50152000  0.95654000  1.0
  H  H6  1  0.75246000  0.72695000  0.09361000  1.0
  H  H7  1  0.24754000  0.27305000  0.90639000  1.0
  H  H8  1  0.94784000  0.89704000  0.90548000  1.0
  H  H9  1  0.05216000  0.10296000  0.09452000  1.0
  H  H10  1  0.13096000  0.95260000  0.67722000  1.0
  H  H11  1  0.86904000  0.04740000  0.32278000  1.0
  H  H12  1  0.24015000  0.10379000  0.51996000  1.0
  H  H13  1  0.75987000  0.89620000  0.48006000  1.0
  H  H14  1  0.42655000  0.26094000  0.32620000  1.0
  H  H15  1  0.57346000  0.73905000  0.67380000  1.0
  H  H16  1  0.56169000  0.92316000  0.10301000  1.0
  H  H17  1  0.43830000  0.07685000  0.89699000  1.0
  H  H18  1  0.36419000  0.76555000  0.29622000  1.0
  H  H19  1  0.63580000  0.23445000  0.70378000  1.0
  C  C20  1  0.87113000  0.54170000  0.83626000  1.0
  C  C21  1  0.12887000  0.45830000  0.16373000  1.0
  C  C22  1  0.78544000  0.57398000  0.96465000  1.0
  C  C23  1  0.21455000  0.42602000  0.03535000  1.0
  C  C24  1  0.81323000  0.70199000  0.99202000  1.0
  C  C25  1  0.18677000  0.29801000  0.00797000  1.0
  C  C26  1  0.92245000  0.79544000  0.88906000  1.0
  C  C27  1  0.07756000  0.20456000  0.11094000  1.0
  C  C28  1  0.00180000  0.75604000  0.76203000  1.0
  C  C29  1  0.99820000  0.24396000  0.23797000  1.0
  C  C30  1  0.11402000  0.85263000  0.65123000  1.0
  C  C31  1  0.88598000  0.14736000  0.34877000  1.0
  C  C32  1  0.29118000  0.92013000  0.42384000  1.0
  C  C33  1  0.70882000  0.07987000  0.57617000  1.0
  C  C34  1  0.30941000  0.06149000  0.43010000  1.0
  C  C35  1  0.69059000  0.93851000  0.56991000  1.0
  C  C36  1  0.41595000  0.15137000  0.32088000  1.0
  C  C37  1  0.58405000  0.84863000  0.67913000  1.0
  C  C38  1  0.50681000  0.10033000  0.20376000  1.0
  C  C39  1  0.49319000  0.89967000  0.79624000  1.0
  C  C40  1  0.49031000  0.96130000  0.19473000  1.0
  C  C41  1  0.50969000  0.03870000  0.80527000  1.0
  C  C42  1  0.38122000  0.87308000  0.30352000  1.0
  C  C43  1  0.61877000  0.12692000  0.69648000  1.0
  N  N44  1  0.97786000  0.62972000  0.73718000  1.0
  N  N45  1  0.02214000  0.37028000  0.26282000  1.0
  N  N46  1  0.18675000  0.82162000  0.53090000  1.0
  N  N47  1  0.81325000  0.17838000  0.46910000  1.0
  N  N48  1  0.04237000  0.36513000  0.59640000  1.0
  N  N49  1  0.95764000  0.63487000  0.40360000  1.0
  N  N50  1  0.06305000  0.25214000  0.68932000  1.0
  N  N51  1  0.93695000  0.74787000  0.31067000  1.0
  N  N52  1  0.08295000  0.14205000  0.77869000  1.0
  N  N53  1  0.91705000  0.85796000  0.22130000  1.0
  N  N54  1  0.34923000  0.50274000  0.68840000  1.0
  N  N55  1  0.65077000  0.49727000  0.31160000  1.0
  N  N56  1  0.50160000  0.49018000  0.65615000  1.0
  N  N57  1  0.49841000  0.50982000  0.34385000  1.0
  N  N58  1  0.65450000  0.47671000  0.62946000  1.0
  N  N59  1  0.34551000  0.52329000  0.37054000  1.0
  Cl  Cl60  1  0.63923000  0.21125000  0.06607000  1.0
  Cl  Cl61  1  0.36077000  0.78876000  0.93393000  1.0
