# generated using pymatgen
data_AgH3C6NO2
_symmetry_space_group_name_H-M   'P 1'
_cell_length_a   6.63355000
_cell_length_b   9.06029000
_cell_length_c   9.06026000
_cell_angle_alpha   83.93780000
_cell_angle_beta   89.90540000
_cell_angle_gamma   89.90580000
_symmetry_Int_Tables_number   1
_chemical_formula_structural   AgH3C6NO2
_chemical_formula_sum   'Ag4 H12 C24 N4 O8'
_cell_volume   541.49223972
_cell_formula_units_Z   4
loop_
 _symmetry_equiv_pos_site_id
 _symmetry_equiv_pos_as_xyz
  1  'x, y, z'
loop_
 _atom_site_type_symbol
 _atom_site_label
 _atom_site_symmetry_multiplicity
 _atom_site_fract_x
 _atom_site_fract_y
 _atom_site_fract_z
 _atom_site_occupancy
  Ag  Ag0  1  0.25001000  0.95287000  0.04713000  1.0
  Ag  Ag1  1  0.74999000  0.04713000  0.95287000  1.0
  Ag  Ag2  1  0.75000000  0.36323000  0.63677000  1.0
  Ag  Ag3  1  0.25000000  0.63677000  0.36323000  1.0
  H  H4  1  0.25027000  0.48813000  0.03687000  1.0
  H  H5  1  0.24973000  0.96313000  0.51186000  1.0
  H  H6  1  0.74972000  0.51186000  0.96313000  1.0
  H  H7  1  0.75028000  0.03688000  0.48814000  1.0
  H  H8  1  0.41034000  0.72944000  0.93222000  1.0
  H  H9  1  0.08966000  0.06779000  0.27055000  1.0
  H  H10  1  0.58965000  0.27056000  0.06779000  1.0
  H  H11  1  0.91035000  0.93222000  0.72944000  1.0
  H  H12  1  0.43389000  0.78225000  0.65742000  1.0
  H  H13  1  0.06612000  0.34258000  0.21774000  1.0
  H  H14  1  0.56612000  0.21774000  0.34259000  1.0
  H  H15  1  0.93389000  0.65742000  0.78226000  1.0
  C  C16  1  0.26312000  0.43979000  0.67005000  1.0
  C  C17  1  0.23687000  0.32995000  0.56021000  1.0
  C  C18  1  0.73688000  0.56021000  0.32996000  1.0
  C  C19  1  0.76313000  0.67005000  0.43979000  1.0
  C  C20  1  0.21908000  0.40865000  0.82255000  1.0
  C  C21  1  0.28092000  0.17744000  0.59135000  1.0
  C  C22  1  0.78093000  0.59135000  0.17744000  1.0
  C  C23  1  0.71908000  0.82256000  0.40865000  1.0
  C  C24  1  0.27512000  0.51341000  0.91798000  1.0
  C  C25  1  0.22488000  0.08202000  0.48659000  1.0
  C  C26  1  0.72488000  0.48659000  0.08202000  1.0
  C  C27  1  0.77512000  0.91798000  0.51341000  1.0
  C  C28  1  0.36030000  0.64721000  0.86091000  1.0
  C  C29  1  0.13970000  0.13910000  0.35279000  1.0
  C  C30  1  0.63970000  0.35279000  0.13910000  1.0
  C  C31  1  0.86030000  0.86090000  0.64721000  1.0
  C  C32  1  0.37903000  0.67536000  0.70730000  1.0
  C  C33  1  0.12097000  0.29270000  0.32464000  1.0
  C  C34  1  0.62097000  0.32464000  0.29270000  1.0
  C  C35  1  0.87904000  0.70730000  0.67536000  1.0
  C  C36  1  0.10926000  0.27233000  0.88973000  1.0
  C  C37  1  0.39073000  0.11027000  0.72767000  1.0
  C  C38  1  0.89074000  0.72767000  0.11027000  1.0
  C  C39  1  0.60926000  0.88973000  0.27233000  1.0
  N  N40  1  0.33376000  0.57429000  0.61470000  1.0
  N  N41  1  0.16624000  0.38530000  0.42571000  1.0
  N  N42  1  0.66625000  0.42571000  0.38531000  1.0
  N  N43  1  0.83376000  0.61470000  0.57429000  1.0
  O  O44  1  0.95306000  0.23163000  0.82164000  1.0
  O  O45  1  0.54694000  0.17835000  0.76837000  1.0
  O  O46  1  0.04694000  0.76837000  0.17835000  1.0
  O  O47  1  0.45306000  0.82164000  0.23164000  1.0
  O  O48  1  0.17543000  0.21068000  0.01134000  1.0
  O  O49  1  0.32456000  0.98866000  0.78931000  1.0
  O  O50  1  0.82456000  0.78931000  0.98866000  1.0
  O  O51  1  0.67543000  0.01134000  0.21069000  1.0
