# generated using pymatgen
data_CdH4C7N4Cl
_symmetry_space_group_name_H-M   'P 1'
_cell_length_a   6.99627000
_cell_length_b   7.54960000
_cell_length_c   8.46778000
_cell_angle_alpha   95.87420000
_cell_angle_beta   104.77500000
_cell_angle_gamma   113.60900000
_symmetry_Int_Tables_number   1
_chemical_formula_structural   CdH4C7N4Cl
_chemical_formula_sum   'Cd2 H8 C14 N8 Cl2'
_cell_volume   385.57543157
_cell_formula_units_Z   2
loop_
 _symmetry_equiv_pos_site_id
 _symmetry_equiv_pos_as_xyz
  1  'x, y, z'
loop_
 _atom_site_type_symbol
 _atom_site_label
 _atom_site_symmetry_multiplicity
 _atom_site_fract_x
 _atom_site_fract_y
 _atom_site_fract_z
 _atom_site_occupancy
  Cd  Cd0  1  0.00475000  0.21250000  0.37907000  1.0
  Cd  Cd1  1  0.99525000  0.78750000  0.62093000  1.0
  H  H2  1  0.20404000  0.07687000  0.99364000  1.0
  H  H3  1  0.79596000  0.92313000  0.00636000  1.0
  H  H4  1  0.11562000  0.50313000  0.83211000  1.0
  H  H5  1  0.88438000  0.49687000  0.16789000  1.0
  H  H6  1  0.35591000  0.51324000  0.11055000  1.0
  H  H7  1  0.64409000  0.48676000  0.88945000  1.0
  H  H8  1  0.52951000  0.82406000  0.33862000  1.0
  H  H9  1  0.47049000  0.17594000  0.66137000  1.0
  C  C10  1  0.52249000  0.42484000  0.46100000  1.0
  C  C11  1  0.47751000  0.57517000  0.53900000  1.0
  C  C12  1  0.47810000  0.16110000  0.31131000  1.0
  C  C13  1  0.52190000  0.83890000  0.68869000  1.0
  C  C14  1  0.37856000  0.97405000  0.18525000  1.0
  C  C15  1  0.62144000  0.02595000  0.81475000  1.0
  C  C16  1  0.23928000  0.95442000  0.02600000  1.0
  C  C17  1  0.76072000  0.04558000  0.97400000  1.0
  C  C18  1  0.19152000  0.63474000  0.93488000  1.0
  C  C19  1  0.80848000  0.36526000  0.06511000  1.0
  C  C20  1  0.32670000  0.64153000  0.08972000  1.0
  C  C21  1  0.67329000  0.35847000  0.91028000  1.0
  C  C22  1  0.42194000  0.81349000  0.21654000  1.0
  C  C23  1  0.57807000  0.18651000  0.78347000  1.0
  N  N24  1  0.36303000  0.25835000  0.34844000  1.0
  N  N25  1  0.63698000  0.74165000  0.65157000  1.0
  N  N26  1  0.72452000  0.43461000  0.49414000  1.0
  N  N27  1  0.27548000  0.56539000  0.50586000  1.0
  N  N28  1  0.69615000  0.26391000  0.39753000  1.0
  N  N29  1  0.30385000  0.73609000  0.60246000  1.0
  N  N30  1  0.14906000  0.78929000  0.90381000  1.0
  N  N31  1  0.85094000  0.21071000  0.09619000  1.0
  Cl  Cl32  1  0.09301000  0.17228000  0.69152000  1.0
  Cl  Cl33  1  0.90698000  0.82772000  0.30848000  1.0
