# generated using pymatgen
data_ErH7(C3O4)2
_symmetry_space_group_name_H-M   'P 1'
_cell_length_a   6.05162000
_cell_length_b   10.01903815
_cell_length_c   15.29730000
_cell_angle_alpha   77.70996349
_cell_angle_beta   89.97700000
_cell_angle_gamma   72.43638870
_symmetry_Int_Tables_number   1
_chemical_formula_structural   ErH7(C3O4)2
_chemical_formula_sum   'Er4 H28 C24 O32'
_cell_volume   861.96355767
_cell_formula_units_Z   4
loop_
 _symmetry_equiv_pos_site_id
 _symmetry_equiv_pos_as_xyz
  1  'x, y, z'
loop_
 _atom_site_type_symbol
 _atom_site_label
 _atom_site_symmetry_multiplicity
 _atom_site_fract_x
 _atom_site_fract_y
 _atom_site_fract_z
 _atom_site_occupancy
  Er  Er0  1  0.46789000  0.18420000  0.29367000  1.0
  Er  Er1  1  0.65234000  0.81552000  0.20633000  1.0
  Er  Er2  1  0.53212000  0.81579000  0.70633000  1.0
  Er  Er3  1  0.34767000  0.18448000  0.79367000  1.0
  H  H4  1  0.24004000  0.04973000  0.45146000  1.0
  H  H5  1  0.29005000  0.95001000  0.04859000  1.0
  H  H6  1  0.75997000  0.95026000  0.54854000  1.0
  H  H7  1  0.70996000  0.04999000  0.95141000  1.0
  H  H8  1  0.06455000  0.12438000  0.36007000  1.0
  H  H9  1  0.18932000  0.87512000  0.13997000  1.0
  H  H10  1  0.93545000  0.87561000  0.63994000  1.0
  H  H11  1  0.81068000  0.12488000  0.86003000  1.0
  H  H12  1  0.51162000  0.45297000  0.18514000  1.0
  H  H13  1  0.96434000  0.54676000  0.31487000  1.0
  H  H14  1  0.48839000  0.54703000  0.81486000  1.0
  H  H15  1  0.03563000  0.45325000  0.68513000  1.0
  H  H16  1  0.98976000  0.42287000  0.06701000  1.0
  H  H17  1  0.41198000  0.57689000  0.43303000  1.0
  H  H18  1  0.01024000  0.57713000  0.93300000  1.0
  H  H19  1  0.58801000  0.42311000  0.56697000  1.0
  H  H20  1  0.91666000  0.19884000  0.03459000  1.0
  H  H21  1  0.11504000  0.80087000  0.46541000  1.0
  H  H22  1  0.08336000  0.80115000  0.96542000  1.0
  H  H23  1  0.88496000  0.19913000  0.53459000  1.0
  H  H24  1  0.62001000  0.28797000  0.00699000  1.0
  H  H25  1  0.90734000  0.71179000  0.49306000  1.0
  H  H26  1  0.38002000  0.71202000  0.99301000  1.0
  H  H27  1  0.09267000  0.28821000  0.50694000  1.0
  H  H28  1  0.70658000  0.49825000  0.01473000  1.0
  H  H29  1  0.20411000  0.50150000  0.48529000  1.0
  H  H30  1  0.29343000  0.50175000  0.98527000  1.0
  H  H31  1  0.79588000  0.49850000  0.51470000  1.0
  C  C32  1  0.74692000  0.22586000  0.06365000  1.0
  C  C33  1  0.97225000  0.77390000  0.43639000  1.0
  C  C34  1  0.25309000  0.77414000  0.93635000  1.0
  C  C35  1  0.02775000  0.22610000  0.56362000  1.0
  C  C36  1  0.74584000  0.32164000  0.12999000  1.0
  C  C37  1  0.06709000  0.67810000  0.37007000  1.0
  C  C38  1  0.25416000  0.67836000  0.87002000  1.0
  C  C39  1  0.93291000  0.32190000  0.62994000  1.0
  C  C40  1  0.92815000  0.23731000  0.20961000  1.0
  C  C41  1  0.16552000  0.76238000  0.29045000  1.0
  C  C42  1  0.07185000  0.76268000  0.79039000  1.0
  C  C43  1  0.83448000  0.23762000  0.70956000  1.0
  C  C44  1  0.80561000  0.45503000  0.08046000  1.0
  C  C45  1  0.26000000  0.54470000  0.41956000  1.0
  C  C46  1  0.19440000  0.54496000  0.91954000  1.0
  C  C47  1  0.73998000  0.45531000  0.58043000  1.0
  C  C48  1  0.75902000  0.57603000  0.12944000  1.0
  C  C49  1  0.33463000  0.42367000  0.37061000  1.0
  C  C50  1  0.24097000  0.42398000  0.87056000  1.0
  C  C51  1  0.66535000  0.57634000  0.62938000  1.0
  C  C52  1  0.68809000  0.08910000  0.10021000  1.0
  C  C53  1  0.77700000  0.91071000  0.39980000  1.0
  C  C54  1  0.31191000  0.91090000  0.89979000  1.0
  C  C55  1  0.22301000  0.08929000  0.60021000  1.0
  O  O56  1  0.85021000  0.67524000  0.10579000  1.0
  O  O57  1  0.52491000  0.32449000  0.39431000  1.0
  O  O58  1  0.14979000  0.32476000  0.89421000  1.0
  O  O59  1  0.47508000  0.67552000  0.60567000  1.0
  O  O60  1  0.85000000  0.18149000  0.28126000  1.0
  O  O61  1  0.03177000  0.81832000  0.21879000  1.0
  O  O62  1  0.14999000  0.81851000  0.71874000  1.0
  O  O63  1  0.96824000  0.18168000  0.78121000  1.0
  O  O64  1  0.74035000  0.98706000  0.05969000  1.0
  O  O65  1  0.72726000  0.01277000  0.44030000  1.0
  O  O66  1  0.25965000  0.01294000  0.94031000  1.0
  O  O67  1  0.27274000  0.98723000  0.55970000  1.0
  O  O68  1  0.22466000  0.10364000  0.38747000  1.0
  O  O69  1  0.32883000  0.89564000  0.11247000  1.0
  O  O70  1  0.77535000  0.89635000  0.61253000  1.0
  O  O71  1  0.67116000  0.10437000  0.88753000  1.0
  O  O72  1  0.51887000  0.36174000  0.16502000  1.0
  O  O73  1  0.88036000  0.63798000  0.33500000  1.0
  O  O74  1  0.48113000  0.63826000  0.83498000  1.0
  O  O75  1  0.11963000  0.36203000  0.66500000  1.0
  O  O76  1  0.13848000  0.22705000  0.19972000  1.0
  O  O77  1  0.36559000  0.77258000  0.30034000  1.0
  O  O78  1  0.86152000  0.77294000  0.80028000  1.0
  O  O79  1  0.63440000  0.22743000  0.69967000  1.0
  O  O80  1  0.58702000  0.07393000  0.17359000  1.0
  O  O81  1  0.66110000  0.92587000  0.32637000  1.0
  O  O82  1  0.41300000  0.92606000  0.82641000  1.0
  O  O83  1  0.33891000  0.07413000  0.67363000  1.0
  O  O84  1  0.61977000  0.58022000  0.19352000  1.0
  O  O85  1  0.19988000  0.41941000  0.30650000  1.0
  O  O86  1  0.38022000  0.41978000  0.80648000  1.0
  O  O87  1  0.80009000  0.58059000  0.69350000  1.0
