# generated using pymatgen
data_NiH28C30(N4O3)2
_symmetry_space_group_name_H-M   'P 1'
_cell_length_a   7.59413000
_cell_length_b   8.86127000
_cell_length_c   11.02840000
_cell_angle_alpha   88.40740000
_cell_angle_beta   81.03710000
_cell_angle_gamma   83.23860000
_symmetry_Int_Tables_number   1
_chemical_formula_structural   NiH28C30(N4O3)2
_chemical_formula_sum   'Ni1 H28 C30 N8 O6'
_cell_volume   727.94685970
_cell_formula_units_Z   1
loop_
 _symmetry_equiv_pos_site_id
 _symmetry_equiv_pos_as_xyz
  1  'x, y, z'
loop_
 _atom_site_type_symbol
 _atom_site_label
 _atom_site_symmetry_multiplicity
 _atom_site_fract_x
 _atom_site_fract_y
 _atom_site_fract_z
 _atom_site_occupancy
  Ni  Ni0  1  0.50001000  0.00001000  0.49999000  1.0
  H  H1  1  0.17237000  0.26529000  0.23823000  1.0
  H  H2  1  0.82762000  0.73472000  0.76177000  1.0
  H  H3  1  0.83999000  0.82720000  0.52591000  1.0
  H  H4  1  0.16002000  0.17281000  0.47411000  1.0
  H  H5  1  0.95035000  0.74887000  0.40461000  1.0
  H  H6  1  0.04964000  0.25113000  0.59541000  1.0
  H  H7  1  0.54799000  0.72422000  0.32424000  1.0
  H  H8  1  0.45201000  0.27578000  0.67574000  1.0
  H  H9  1  0.20738000  0.82003000  0.66046000  1.0
  H  H10  1  0.79264000  0.17998000  0.33954000  1.0
  H  H11  1  0.14299000  0.54070000  0.57167000  1.0
  H  H12  1  0.85703000  0.45931000  0.42833000  1.0
  H  H13  1  0.34468000  0.36724000  0.39501000  1.0
  H  H14  1  0.65529000  0.63276000  0.60499000  1.0
  H  H15  1  0.47480000  0.46694000  0.27707000  1.0
  H  H16  1  0.52519000  0.53304000  0.72294000  1.0
  H  H17  1  0.88877000  0.25015000  0.08594000  1.0
  H  H18  1  0.11122000  0.74984000  0.91407000  1.0
  H  H19  1  0.63381000  0.41740000  0.01888000  1.0
  H  H20  1  0.36618000  0.58259000  0.98112000  1.0
  H  H21  1  0.58890000  0.69408000  0.06318000  1.0
  H  H22  1  0.41110000  0.30592000  0.93680000  1.0
  H  H23  1  0.79649000  0.81049000  0.17804000  1.0
  H  H24  1  0.20351000  0.18951000  0.82194000  1.0
  H  H25  1  0.19515000  0.96286000  0.10857000  1.0
  H  H26  1  0.80485000  0.03714000  0.89143000  1.0
  H  H27  1  0.72675000  0.07537000  0.11892000  1.0
  H  H28  1  0.27326000  0.92462000  0.88108000  1.0
  C  C29  1  0.44469000  0.71614000  0.40279000  1.0
  C  C30  1  0.55531000  0.28387000  0.59720000  1.0
  C  C31  1  0.26716000  0.75883000  0.57793000  1.0
  C  C32  1  0.73286000  0.24118000  0.42208000  1.0
  C  C33  1  0.23394000  0.62217000  0.53589000  1.0
  C  C34  1  0.76608000  0.37784000  0.46410000  1.0
  C  C35  1  0.34835000  0.47382000  0.34196000  1.0
  C  C36  1  0.65165000  0.52617000  0.65805000  1.0
  C  C37  1  0.18943000  0.49805000  0.27526000  1.0
  C  C38  1  0.81056000  0.50196000  0.72474000  1.0
  C  C39  1  0.98155000  0.43751000  0.17130000  1.0
  C  C40  1  0.01844000  0.56249000  0.82871000  1.0
  C  C41  1  0.86675000  0.37065000  0.10746000  1.0
  C  C42  1  0.13323000  0.62935000  0.89255000  1.0
  C  C43  1  0.72527000  0.46583000  0.06987000  1.0
  C  C44  1  0.27471000  0.53416000  0.93012000  1.0
  C  C45  1  0.70076000  0.62293000  0.09435000  1.0
  C  C46  1  0.29923000  0.37706000  0.90565000  1.0
  C  C47  1  0.81689000  0.68970000  0.15725000  1.0
  C  C48  1  0.18310000  0.31029000  0.84274000  1.0
  C  C49  1  0.95945000  0.59574000  0.19573000  1.0
  C  C50  1  0.04054000  0.40426000  0.80427000  1.0
  C  C51  1  0.40674000  0.04540000  0.26329000  1.0
  C  C52  1  0.59326000  0.95460000  0.73671000  1.0
  C  C53  1  0.32782000  0.98021000  0.06007000  1.0
  C  C54  1  0.67218000  0.01978000  0.93992000  1.0
  C  C55  1  0.45596000  0.02332000  0.12704000  1.0
  C  C56  1  0.54404000  0.97668000  0.87295000  1.0
  C  C57  1  0.62807000  0.04257000  0.06597000  1.0
  C  C58  1  0.37194000  0.95743000  0.93402000  1.0
  N  N59  1  0.39883000  0.81605000  0.49393000  1.0
  N  N60  1  0.60120000  0.18396000  0.50606000  1.0
  N  N61  1  0.34740000  0.59749000  0.42575000  1.0
  N  N62  1  0.65260000  0.40252000  0.57424000  1.0
  N  N63  1  0.12961000  0.37895000  0.22322000  1.0
  N  N64  1  0.87038000  0.62105000  0.77679000  1.0
  N  N65  1  0.09294000  0.63028000  0.26030000  1.0
  N  N66  1  0.90706000  0.36973000  0.73970000  1.0
  O  O67  1  0.53746000  0.00794000  0.32452000  1.0
  O  O68  1  0.46255000  0.99206000  0.67548000  1.0
  O  O69  1  0.24808000  0.09479000  0.30736000  1.0
  O  O70  1  0.75193000  0.90521000  0.69263000  1.0
  O  O71  1  0.83556000  0.75584000  0.46038000  1.0
  O  O72  1  0.16447000  0.24411000  0.53967000  1.0
