# generated using pymatgen
data_CdH8C10(N4Cl)2
_symmetry_space_group_name_H-M   'P 1'
_cell_length_a   6.92550000
_cell_length_b   11.92070000
_cell_length_c   16.80480000
_cell_angle_alpha   89.99980000
_cell_angle_beta   93.17970000
_cell_angle_gamma   89.99930000
_symmetry_Int_Tables_number   1
_chemical_formula_structural   CdH8C10(N4Cl)2
_chemical_formula_sum   'Cd4 H32 C40 N32 Cl8'
_cell_volume   1385.21478924
_cell_formula_units_Z   4
loop_
 _symmetry_equiv_pos_site_id
 _symmetry_equiv_pos_as_xyz
  1  'x, y, z'
loop_
 _atom_site_type_symbol
 _atom_site_label
 _atom_site_symmetry_multiplicity
 _atom_site_fract_x
 _atom_site_fract_y
 _atom_site_fract_z
 _atom_site_occupancy
  Cd  Cd0  1  0.25437000  0.56468000  0.01512000  1.0
  Cd  Cd1  1  0.74562000  0.06467000  0.48488000  1.0
  Cd  Cd2  1  0.74562000  0.43533000  0.98489000  1.0
  Cd  Cd3  1  0.25438000  0.93533000  0.51511000  1.0
  H  H4  1  0.22669000  0.01390000  0.13862000  1.0
  H  H5  1  0.77331000  0.51389000  0.36138000  1.0
  H  H6  1  0.77331000  0.98611000  0.86138000  1.0
  H  H7  1  0.22668000  0.48610000  0.63862000  1.0
  H  H8  1  0.21697000  0.09614000  0.05261000  1.0
  H  H9  1  0.78303000  0.59613000  0.44739000  1.0
  H  H10  1  0.78304000  0.90387000  0.94739000  1.0
  H  H11  1  0.21696000  0.40386000  0.55261000  1.0
  H  H12  1  0.09355000  0.52758000  0.20213000  1.0
  H  H13  1  0.90642000  0.02758000  0.29787000  1.0
  H  H14  1  0.90643000  0.47243000  0.79787000  1.0
  H  H15  1  0.09358000  0.97242000  0.70214000  1.0
  H  H16  1  0.05439000  0.64494000  0.32731000  1.0
  H  H17  1  0.94560000  0.14493000  0.17269000  1.0
  H  H18  1  0.94560000  0.35508000  0.67269000  1.0
  H  H19  1  0.05441000  0.85506000  0.82732000  1.0
  H  H20  1  0.11611000  0.85203000  0.31780000  1.0
  H  H21  1  0.88388000  0.35202000  0.18220000  1.0
  H  H22  1  0.88388000  0.14799000  0.68221000  1.0
  H  H23  1  0.11612000  0.64796000  0.81780000  1.0
  H  H24  1  0.42386000  0.10413000  0.73087000  1.0
  H  H25  1  0.57616000  0.60413000  0.76912000  1.0
  H  H26  1  0.57616000  0.89587000  0.26913000  1.0
  H  H27  1  0.42385000  0.39587000  0.23087000  1.0
  H  H28  1  0.35018000  0.29699000  0.78683000  1.0
  H  H29  1  0.64983000  0.79699000  0.71316000  1.0
  H  H30  1  0.64982000  0.70300000  0.21316000  1.0
  H  H31  1  0.35019000  0.20300000  0.28684000  1.0
  H  H32  1  0.24662000  0.30509000  0.92891000  1.0
  H  H33  1  0.75337000  0.80509000  0.57108000  1.0
  H  H34  1  0.75338000  0.69491000  0.07108000  1.0
  H  H35  1  0.24665000  0.19490000  0.42892000  1.0
  C  C36  1  0.29736000  0.93493000  0.95960000  1.0
  C  C37  1  0.70264000  0.43492000  0.54039000  1.0
  C  C38  1  0.70263000  0.06507000  0.04040000  1.0
  C  C39  1  0.29737000  0.56507000  0.45960000  1.0
  C  C40  1  0.24059000  0.82450000  0.05942000  1.0
  C  C41  1  0.75941000  0.32450000  0.44058000  1.0
  C  C42  1  0.75941000  0.17550000  0.94059000  1.0
  C  C43  1  0.24060000  0.67550000  0.55941000  1.0
  C  C44  1  0.18759000  0.77772000  0.13500000  1.0
  C  C45  1  0.81242000  0.27771000  0.36500000  1.0
  C  C46  1  0.81242000  0.22230000  0.86500000  1.0
  C  C47  1  0.18758000  0.72228000  0.63500000  1.0
  C  C48  1  0.11412000  0.61832000  0.20348000  1.0
  C  C49  1  0.88586000  0.11831000  0.29652000  1.0
  C  C50  1  0.88587000  0.38170000  0.79653000  1.0
  C  C51  1  0.11415000  0.88168000  0.70349000  1.0
  C  C52  1  0.09161000  0.68277000  0.27141000  1.0
  C  C53  1  0.90839000  0.18277000  0.22858000  1.0
  C  C54  1  0.90838000  0.31724000  0.72859000  1.0
  C  C55  1  0.09162000  0.81722000  0.77142000  1.0
  C  C56  1  0.12535000  0.79770000  0.26588000  1.0
  C  C57  1  0.87464000  0.29770000  0.23412000  1.0
  C  C58  1  0.87464000  0.20231000  0.73413000  1.0
  C  C59  1  0.12536000  0.70229000  0.76587000  1.0
  C  C60  1  0.31086000  0.03523000  0.91010000  1.0
  C  C61  1  0.68914000  0.53522000  0.58989000  1.0
  C  C62  1  0.68914000  0.96478000  0.08989000  1.0
  C  C63  1  0.31087000  0.46478000  0.41010000  1.0
  C  C64  1  0.37864000  0.11516000  0.79174000  1.0
  C  C65  1  0.62139000  0.61516000  0.70826000  1.0
  C  C66  1  0.62137000  0.88484000  0.20826000  1.0
  C  C67  1  0.37862000  0.38484000  0.29174000  1.0
  C  C68  1  0.33637000  0.22097000  0.82191000  1.0
  C  C69  1  0.66363000  0.72097000  0.67808000  1.0
  C  C70  1  0.66363000  0.77903000  0.17809000  1.0
  C  C71  1  0.33638000  0.27903000  0.32192000  1.0
  C  C72  1  0.27986000  0.22595000  0.90012000  1.0
  C  C73  1  0.72013000  0.72594000  0.59987000  1.0
  C  C74  1  0.72013000  0.77405000  0.09988000  1.0
  C  C75  1  0.27988000  0.27405000  0.40013000  1.0
  N  N76  1  0.30181000  0.76245000  0.99926000  1.0
  N  N77  1  0.69819000  0.26245000  0.50074000  1.0
  N  N78  1  0.69818000  0.23755000  0.00075000  1.0
  N  N79  1  0.30181000  0.73755000  0.49925000  1.0
  N  N80  1  0.33643000  0.82962000  0.93744000  1.0
  N  N81  1  0.66357000  0.32961000  0.56256000  1.0
  N  N82  1  0.66355000  0.17039000  0.06256000  1.0
  N  N83  1  0.33643000  0.67039000  0.43744000  1.0
  N  N84  1  0.23872000  0.93438000  0.03690000  1.0
  N  N85  1  0.76128000  0.43437000  0.46310000  1.0
  N  N86  1  0.76128000  0.06562000  0.96310000  1.0
  N  N87  1  0.23872000  0.56562000  0.53690000  1.0
  N  N88  1  0.17375000  0.02397000  0.08090000  1.0
  N  N89  1  0.82625000  0.52396000  0.41910000  1.0
  N  N90  1  0.82625000  0.97604000  0.91910000  1.0
  N  N91  1  0.17374000  0.47603000  0.58090000  1.0
  N  N92  1  0.16338000  0.66550000  0.13524000  1.0
  N  N93  1  0.83662000  0.16549000  0.36476000  1.0
  N  N94  1  0.83662000  0.33452000  0.86476000  1.0
  N  N95  1  0.16338000  0.83451000  0.63525000  1.0
  N  N96  1  0.17146000  0.84653000  0.19740000  1.0
  N  N97  1  0.82854000  0.34653000  0.30260000  1.0
  N  N98  1  0.82854000  0.15348000  0.80261000  1.0
  N  N99  1  0.17146000  0.65347000  0.69739000  1.0
  N  N100  1  0.36904000  0.02152000  0.83571000  1.0
  N  N101  1  0.63096000  0.52151000  0.66429000  1.0
  N  N102  1  0.63096000  0.97848000  0.16429000  1.0
  N  N103  1  0.36904000  0.47848000  0.33571000  1.0
  N  N104  1  0.26437000  0.13304000  0.94427000  1.0
  N  N105  1  0.73562000  0.63303000  0.55572000  1.0
  N  N106  1  0.73562000  0.86696000  0.05573000  1.0
  N  N107  1  0.26438000  0.36696000  0.44427000  1.0
  Cl  Cl108  1  0.08666000  0.38352000  0.06148000  1.0
  Cl  Cl109  1  0.91334000  0.88352000  0.43852000  1.0
  Cl  Cl110  1  0.91333000  0.61648000  0.93853000  1.0
  Cl  Cl111  1  0.08665000  0.11647000  0.56148000  1.0
  Cl  Cl112  1  0.57135000  0.50212000  0.10711000  1.0
  Cl  Cl113  1  0.42864000  0.00211000  0.39289000  1.0
  Cl  Cl114  1  0.42863000  0.49789000  0.89290000  1.0
  Cl  Cl115  1  0.57137000  0.99788000  0.60710000  1.0
