# generated using pymatgen
data_CaCuH18C11S(NO6)2
_symmetry_space_group_name_H-M   'P 1'
_cell_length_a   8.85365000
_cell_length_b   9.14259000
_cell_length_c   12.53930000
_cell_angle_alpha   95.49270000
_cell_angle_beta   97.29970000
_cell_angle_gamma   105.95200000
_symmetry_Int_Tables_number   1
_chemical_formula_structural   CaCuH18C11S(NO6)2
_chemical_formula_sum   'Ca2 Cu2 H36 C22 S2 N4 O24'
_cell_volume   958.87766719
_cell_formula_units_Z   2
loop_
 _symmetry_equiv_pos_site_id
 _symmetry_equiv_pos_as_xyz
  1  'x, y, z'
loop_
 _atom_site_type_symbol
 _atom_site_label
 _atom_site_symmetry_multiplicity
 _atom_site_fract_x
 _atom_site_fract_y
 _atom_site_fract_z
 _atom_site_occupancy
  Ca  Ca0  1  0.53199000  0.81869000  0.88941000  1.0
  Ca  Ca1  1  0.46801000  0.18131000  0.11059000  1.0
  Cu  Cu2  1  0.64477000  0.09938000  0.64044000  1.0
  Cu  Cu3  1  0.35523000  0.90062000  0.35957000  1.0
  H  H4  1  0.81620000  0.69555000  0.56070000  1.0
  H  H5  1  0.18380000  0.30445000  0.43931000  1.0
  H  H6  1  0.91618000  0.62311000  0.39247000  1.0
  H  H7  1  0.08381000  0.37688000  0.60753000  1.0
  H  H8  1  0.85143000  0.02866000  0.26805000  1.0
  H  H9  1  0.14857000  0.97134000  0.73195000  1.0
  H  H10  1  0.75910000  0.20311000  0.36189000  1.0
  H  H11  1  0.24090000  0.79689000  0.63811000  1.0
  H  H12  1  0.55341000  0.33552000  0.44608000  1.0
  H  H13  1  0.44658000  0.66447000  0.55392000  1.0
  H  H14  1  0.75238000  0.43323000  0.50398000  1.0
  H  H15  1  0.24761000  0.56677000  0.49601000  1.0
  H  H16  1  0.41042000  0.30247000  0.78776000  1.0
  H  H17  1  0.58957000  0.69753000  0.21224000  1.0
  H  H18  1  0.61301000  0.37782000  0.84408000  1.0
  H  H19  1  0.38699000  0.62219000  0.15592000  1.0
  H  H20  1  0.67749000  0.66497000  0.72421000  1.0
  H  H21  1  0.32251000  0.33504000  0.27578000  1.0
  H  H22  1  0.74544000  0.83805000  0.71633000  1.0
  H  H23  1  0.25455000  0.16195000  0.28366000  1.0
  H  H24  1  0.87493000  0.03372000  0.92781000  1.0
  H  H25  1  0.12508000  0.96628000  0.07219000  1.0
  H  H26  1  0.84662000  0.94426000  0.02983000  1.0
  H  H27  1  0.15339000  0.05574000  0.97017000  1.0
  H  H28  1  0.43663000  0.55125000  0.71400000  1.0
  H  H29  1  0.56336000  0.44875000  0.28600000  1.0
  H  H30  1  0.29896000  0.52051000  0.78602000  1.0
  H  H31  1  0.70104000  0.47950000  0.21398000  1.0
  H  H32  1  0.22577000  0.86011000  0.94254000  1.0
  H  H33  1  0.77423000  0.13989000  0.05746000  1.0
  H  H34  1  0.17059000  0.68910000  0.87989000  1.0
  H  H35  1  0.82940000  0.31089000  0.12012000  1.0
  H  H36  1  0.71841000  0.62827000  0.02340000  1.0
  H  H37  1  0.28159000  0.37173000  0.97660000  1.0
  H  H38  1  0.74882000  0.66434000  0.90612000  1.0
  H  H39  1  0.25118000  0.33566000  0.09388000  1.0
  C  C40  1  0.77634000  0.90282000  0.51187000  1.0
  C  C41  1  0.22367000  0.09717000  0.48813000  1.0
  C  C42  1  0.82525000  0.76776000  0.49611000  1.0
  C  C43  1  0.17475000  0.23223000  0.50389000  1.0
  C  C44  1  0.87994000  0.72779000  0.40271000  1.0
  C  C45  1  0.12006000  0.27221000  0.59729000  1.0
  C  C46  1  0.88924000  0.82214000  0.31970000  1.0
  C  C47  1  0.11076000  0.17785000  0.68030000  1.0
  C  C48  1  0.84420000  0.95553000  0.33227000  1.0
  C  C49  1  0.15580000  0.04447000  0.66772000  1.0
  C  C50  1  0.78718000  0.99886000  0.42702000  1.0
  C  C51  1  0.21282000  0.00113000  0.57298000  1.0
  C  C52  1  0.74319000  0.13956000  0.43196000  1.0
  C  C53  1  0.25682000  0.86043000  0.56804000  1.0
  C  C54  1  0.64803000  0.33956000  0.51323000  1.0
  C  C55  1  0.35196000  0.66043000  0.48677000  1.0
  C  C56  1  0.59193000  0.37928000  0.61915000  1.0
  C  C57  1  0.40807000  0.62072000  0.38085000  1.0
  C  C58  1  0.52746000  0.28256000  0.78747000  1.0
  C  C59  1  0.47253000  0.71744000  0.21253000  1.0
  C  C60  1  0.52167000  0.13372000  0.83312000  1.0
  C  C61  1  0.47833000  0.86629000  0.16688000  1.0
  S  S62  1  0.95129000  0.76015000  0.19908000  1.0
  S  S63  1  0.04871000  0.23985000  0.80092000  1.0
  N  N64  1  0.68647000  0.19432000  0.51179000  1.0
  N  N65  1  0.31353000  0.80568000  0.48822000  1.0
  N  N66  1  0.57017000  0.26983000  0.68081000  1.0
  N  N67  1  0.42982000  0.73017000  0.31919000  1.0
  O  O68  1  0.82168000  0.61990000  0.14689000  1.0
  O  O69  1  0.17832000  0.38010000  0.85311000  1.0
  O  O70  1  0.10137000  0.72646000  0.22880000  1.0
  O  O71  1  0.89863000  0.27353000  0.77120000  1.0
  O  O72  1  0.96293000  0.88601000  0.13130000  1.0
  O  O73  1  0.03707000  0.11400000  0.86871000  1.0
  O  O74  1  0.72389000  0.93108000  0.60277000  1.0
  O  O75  1  0.27613000  0.06893000  0.39724000  1.0
  O  O76  1  0.56854000  0.51039000  0.63904000  1.0
  O  O77  1  0.43146000  0.48961000  0.36096000  1.0
  O  O78  1  0.55840000  0.02673000  0.77516000  1.0
  O  O79  1  0.44160000  0.97328000  0.22484000  1.0
  O  O80  1  0.48172000  0.11449000  0.92435000  1.0
  O  O81  1  0.51828000  0.88552000  0.07565000  1.0
  O  O82  1  0.72507000  0.76599000  0.77086000  1.0
  O  O83  1  0.27492000  0.23402000  0.22914000  1.0
  O  O84  1  0.79526000  0.99482000  0.97536000  1.0
  O  O85  1  0.20474000  0.00518000  0.02464000  1.0
  O  O86  1  0.37386000  0.60280000  0.75727000  1.0
  O  O87  1  0.62614000  0.39720000  0.24272000  1.0
  O  O88  1  0.25038000  0.78803000  0.88645000  1.0
  O  O89  1  0.74962000  0.21196000  0.11356000  1.0
  O  O90  1  0.66454000  0.63295000  0.94989000  1.0
  O  O91  1  0.33547000  0.36705000  0.05011000  1.0
