# generated using pymatgen
data_CoH14C22Br4(NO)4
_symmetry_space_group_name_H-M   'P 1'
_cell_length_a   7.32464000
_cell_length_b   9.39432000
_cell_length_c   19.53260000
_cell_angle_alpha   91.50660000
_cell_angle_beta   90.01340000
_cell_angle_gamma   112.92300000
_symmetry_Int_Tables_number   1
_chemical_formula_structural   CoH14C22Br4(NO)4
_chemical_formula_sum   'Co2 H28 C44 Br8 N8 O8'
_cell_volume   1237.39053184
_cell_formula_units_Z   2
loop_
 _symmetry_equiv_pos_site_id
 _symmetry_equiv_pos_as_xyz
  1  'x, y, z'
loop_
 _atom_site_type_symbol
 _atom_site_label
 _atom_site_symmetry_multiplicity
 _atom_site_fract_x
 _atom_site_fract_y
 _atom_site_fract_z
 _atom_site_occupancy
  Co  Co0  1  0.35539000  0.00013000  0.75001000  1.0
  Co  Co1  1  0.64461000  0.99987000  0.24999000  1.0
  H  H2  1  0.08243000  0.66110000  0.72703000  1.0
  H  H3  1  0.42136000  0.33913000  0.77291000  1.0
  H  H4  1  0.91758000  0.33891000  0.27296000  1.0
  H  H5  1  0.57864000  0.66088000  0.22709000  1.0
  H  H6  1  0.70251000  0.86478000  0.69820000  1.0
  H  H7  1  0.83815000  0.13554000  0.80171000  1.0
  H  H8  1  0.29749000  0.13522000  0.30180000  1.0
  H  H9  1  0.16184000  0.86446000  0.19829000  1.0
  H  H10  1  0.21003000  0.43970000  0.67106000  1.0
  H  H11  1  0.77021000  0.56051000  0.82890000  1.0
  H  H12  1  0.78997000  0.56031000  0.32894000  1.0
  H  H13  1  0.22980000  0.43949000  0.17110000  1.0
  H  H14  1  0.40796000  0.28424000  0.58158000  1.0
  H  H15  1  0.12286000  0.71578000  0.91842000  1.0
  H  H16  1  0.59203000  0.71576000  0.41843000  1.0
  H  H17  1  0.87715000  0.28422000  0.08158000  1.0
  H  H18  1  0.70075000  0.76865000  0.54039000  1.0
  H  H19  1  0.93253000  0.23141000  0.95956000  1.0
  H  H20  1  0.29924000  0.23135000  0.45961000  1.0
  H  H21  1  0.06748000  0.76859000  0.04044000  1.0
  H  H22  1  0.60493000  0.45893000  0.66942000  1.0
  H  H23  1  0.14603000  0.54126000  0.83062000  1.0
  H  H24  1  0.39507000  0.54107000  0.33058000  1.0
  H  H25  1  0.85397000  0.45874000  0.16938000  1.0
  H  H26  1  0.77275000  0.64965000  0.64930000  1.0
  H  H27  1  0.12308000  0.35047000  0.85073000  1.0
  H  H28  1  0.22725000  0.35035000  0.35071000  1.0
  H  H29  1  0.87691000  0.64953000  0.14926000  1.0
  C  C30  1  0.11562000  0.97679000  0.64159000  1.0
  C  C31  1  0.13938000  0.02346000  0.85848000  1.0
  C  C32  1  0.88438000  0.02322000  0.35841000  1.0
  C  C33  1  0.86062000  0.97653000  0.14152000  1.0
  C  C34  1  0.22985000  0.66916000  0.71418000  1.0
  C  C35  1  0.56077000  0.33108000  0.78574000  1.0
  C  C36  1  0.77015000  0.33085000  0.28582000  1.0
  C  C37  1  0.43923000  0.66893000  0.21426000  1.0
  C  C38  1  0.54996000  0.78226000  0.69981000  1.0
  C  C39  1  0.76794000  0.21801000  0.80010000  1.0
  C  C40  1  0.45005000  0.21774000  0.30020000  1.0
  C  C41  1  0.23205000  0.78199000  0.19990000  1.0
  C  C42  1  0.94095000  0.07427000  0.55304000  1.0
  C  C43  1  0.86702000  0.92574000  0.94688000  1.0
  C  C44  1  0.05906000  0.92574000  0.44696000  1.0
  C  C45  1  0.13297000  0.07426000  0.05312000  1.0
  C  C46  1  0.29106000  0.55970000  0.68653000  1.0
  C  C47  1  0.73138000  0.44055000  0.81340000  1.0
  C  C48  1  0.70894000  0.44030000  0.31348000  1.0
  C  C49  1  0.26862000  0.55945000  0.18660000  1.0
  C  C50  1  0.56095000  0.53022000  0.56881000  1.0
  C  C51  1  0.03055000  0.46985000  0.93118000  1.0
  C  C52  1  0.43905000  0.46978000  0.43119000  1.0
  C  C53  1  0.96945000  0.53016000  0.06882000  1.0
  C  C54  1  0.44770000  0.37891000  0.54586000  1.0
  C  C55  1  0.06835000  0.62112000  0.95415000  1.0
  C  C56  1  0.55229000  0.62109000  0.45414000  1.0
  C  C57  1  0.93165000  0.37888000  0.04585000  1.0
  C  C58  1  0.61269000  0.65066000  0.52257000  1.0
  C  C59  1  0.96230000  0.34938000  0.97741000  1.0
  C  C60  1  0.38731000  0.34934000  0.47744000  1.0
  C  C61  1  0.03770000  0.65062000  0.02259000  1.0
  C  C62  1  0.61984000  0.56474000  0.64325000  1.0
  C  C63  1  0.05506000  0.43543000  0.85673000  1.0
  C  C64  1  0.38016000  0.43526000  0.35675000  1.0
  C  C65  1  0.94493000  0.56457000  0.14327000  1.0
  C  C66  1  0.11896000  0.91830000  0.51454000  1.0
  C  C67  1  0.20060000  0.08181000  0.98558000  1.0
  C  C68  1  0.88106000  0.08170000  0.48545000  1.0
  C  C69  1  0.79940000  0.91818000  0.01442000  1.0
  C  C70  1  0.06017000  0.99302000  0.56819000  1.0
  C  C71  1  0.06744000  0.00711000  0.93184000  1.0
  C  C72  1  0.93984000  0.00698000  0.43180000  1.0
  C  C73  1  0.93255000  0.99288000  0.06816000  1.0
  Br  Br74  1  0.27484000  0.80424000  0.53443000  1.0
  Br  Br75  1  0.47051000  0.19604000  0.96584000  1.0
  Br  Br76  1  0.72518000  0.19576000  0.46557000  1.0
  Br  Br77  1  0.52948000  0.80395000  0.03416000  1.0
  Br  Br78  1  0.85773000  0.17108000  0.62635000  1.0
  Br  Br79  1  0.68746000  0.82886000  0.87345000  1.0
  Br  Br80  1  0.14228000  0.82892000  0.37364000  1.0
  Br  Br81  1  0.31253000  0.17116000  0.12655000  1.0
  N  N82  1  0.39251000  0.80786000  0.72224000  1.0
  N  N83  1  0.58490000  0.19238000  0.77768000  1.0
  N  N84  1  0.60749000  0.19215000  0.27776000  1.0
  N  N85  1  0.41510000  0.80762000  0.22232000  1.0
  N  N86  1  0.49355000  0.63274000  0.67805000  1.0
  N  N87  1  0.86090000  0.36752000  0.82187000  1.0
  N  N88  1  0.50646000  0.36726000  0.32196000  1.0
  N  N89  1  0.13909000  0.63248000  0.17813000  1.0
  O  O90  1  0.99833000  0.86920000  0.67560000  1.0
  O  O91  1  0.12975000  0.13114000  0.82448000  1.0
  O  O92  1  0.00167000  0.13081000  0.32440000  1.0
  O  O93  1  0.87026000  0.86887000  0.17552000  1.0
  O  O94  1  0.28450000  0.07471000  0.66373000  1.0
  O  O95  1  0.21034000  0.92551000  0.83634000  1.0
  O  O96  1  0.71550000  0.92529000  0.33627000  1.0
  O  O97  1  0.78965000  0.07448000  0.16366000  1.0
