# generated using pymatgen
data_CdH12C9S(NO)6
_symmetry_space_group_name_H-M   'P 1'
_cell_length_a   7.64736000
_cell_length_b   8.40918000
_cell_length_c   12.87070000
_cell_angle_alpha   72.36700000
_cell_angle_beta   86.12480000
_cell_angle_gamma   68.65610000
_symmetry_Int_Tables_number   1
_chemical_formula_structural   CdH12C9S(NO)6
_chemical_formula_sum   'Cd2 H24 C18 S2 N12 O12'
_cell_volume   733.85034853
_cell_formula_units_Z   2
loop_
 _symmetry_equiv_pos_site_id
 _symmetry_equiv_pos_as_xyz
  1  'x, y, z'
loop_
 _atom_site_type_symbol
 _atom_site_label
 _atom_site_symmetry_multiplicity
 _atom_site_fract_x
 _atom_site_fract_y
 _atom_site_fract_z
 _atom_site_occupancy
  Cd  Cd0  1  0.18707000  0.95325000  0.67811000  1.0
  Cd  Cd1  1  0.81292000  0.04675000  0.32189000  1.0
  H  H2  1  0.04205000  0.24166000  0.00828000  1.0
  H  H3  1  0.95796000  0.75834000  0.99171000  1.0
  H  H4  1  0.14381000  0.56439000  0.63985000  1.0
  H  H5  1  0.85618000  0.43562000  0.36014000  1.0
  H  H6  1  0.59064000  0.81949000  0.66270000  1.0
  H  H7  1  0.40935000  0.18051000  0.33730000  1.0
  H  H8  1  0.48093000  0.71498000  0.62818000  1.0
  H  H9  1  0.51907000  0.28502000  0.37182000  1.0
  H  H10  1  0.22132000  0.18068000  0.49362000  1.0
  H  H11  1  0.77868000  0.81934000  0.50638000  1.0
  H  H12  1  0.34235000  0.21416000  0.57588000  1.0
  H  H13  1  0.65765000  0.78586000  0.42412000  1.0
  H  H14  1  0.29526000  0.97506000  0.18249000  1.0
  H  H15  1  0.70475000  0.02494000  0.81750000  1.0
  H  H16  1  0.54870000  0.67865000  0.21896000  1.0
  H  H17  1  0.45130000  0.32134000  0.78104000  1.0
  H  H18  1  0.65566000  0.53375000  0.07079000  1.0
  H  H19  1  0.34434000  0.46622000  0.92921000  1.0
  H  H20  1  0.50771000  0.68226000  0.88337000  1.0
  H  H21  1  0.49228000  0.31772000  0.11663000  1.0
  H  H22  1  0.97058000  0.32014000  0.69762000  1.0
  H  H23  1  0.02943000  0.67986000  0.30237000  1.0
  H  H24  1  0.80740000  0.35128000  0.80153000  1.0
  H  H25  1  0.19261000  0.64872000  0.19847000  1.0
  C  C26  1  0.08665000  0.58206000  0.71687000  1.0
  C  C27  1  0.91335000  0.41794000  0.28313000  1.0
  C  C28  1  0.25661000  0.99212000  0.01290000  1.0
  C  C29  1  0.74340000  0.00787000  0.98710000  1.0
  C  C30  1  0.34069000  0.91258000  0.11792000  1.0
  C  C31  1  0.65932000  0.08741000  0.88208000  1.0
  C  C32  1  0.48363000  0.74546000  0.13686000  1.0
  C  C33  1  0.51637000  0.25454000  0.86314000  1.0
  C  C34  1  0.54253000  0.66373000  0.05328000  1.0
  C  C35  1  0.45747000  0.33626000  0.94672000  1.0
  C  C36  1  0.45963000  0.74419000  0.94821000  1.0
  C  C37  1  0.54036000  0.25581000  0.05179000  1.0
  C  C38  1  0.31367000  0.91075000  0.92859000  1.0
  C  C39  1  0.68632000  0.08924000  0.07141000  1.0
  C  C40  1  0.08916000  0.16850000  0.85930000  1.0
  C  C41  1  0.91085000  0.83149000  0.14070000  1.0
  C  C42  1  0.95385000  0.33154000  0.78052000  1.0
  C  C43  1  0.04616000  0.66845000  0.21948000  1.0
  S  S44  1  0.72845000  0.10867000  0.58328000  1.0
  S  S45  1  0.27155000  0.89135000  0.41672000  1.0
  N  N46  1  0.20602000  0.02504000  0.83376000  1.0
  N  N47  1  0.79398000  0.97495000  0.16623000  1.0
  N  N48  1  0.11350000  0.15326000  0.96611000  1.0
  N  N49  1  0.88651000  0.84673000  0.03389000  1.0
  N  N50  1  0.98893000  0.49038000  0.78275000  1.0
  N  N51  1  0.01108000  0.50962000  0.21725000  1.0
  N  N52  1  0.09669000  0.70113000  0.76206000  1.0
  N  N53  1  0.90330000  0.29887000  0.23793000  1.0
  N  N54  1  0.00316000  0.68056000  0.85574000  1.0
  N  N55  1  0.99684000  0.31944000  0.14426000  1.0
  N  N56  1  0.93750000  0.55392000  0.86920000  1.0
  N  N57  1  0.06250000  0.44608000  0.13080000  1.0
  O  O58  1  0.86944000  0.11426000  0.65510000  1.0
  O  O59  1  0.13056000  0.88575000  0.34490000  1.0
  O  O60  1  0.53959000  0.22367000  0.60445000  1.0
  O  O61  1  0.46041000  0.77635000  0.39555000  1.0
  O  O62  1  0.73968000  0.91824000  0.60747000  1.0
  O  O63  1  0.26031000  0.08178000  0.39254000  1.0
  O  O64  1  0.77164000  0.17527000  0.46627000  1.0
  O  O65  1  0.22835000  0.82474000  0.53373000  1.0
  O  O66  1  0.50694000  0.74866000  0.69046000  1.0
  O  O67  1  0.49305000  0.25134000  0.30954000  1.0
  O  O68  1  0.21467000  0.21237000  0.56286000  1.0
  O  O69  1  0.78532000  0.78764000  0.43715000  1.0
