# generated using pymatgen
data_Zn2H31C37(N3O)3
_symmetry_space_group_name_H-M   'P 1'
_cell_length_a   14.84503169
_cell_length_b   14.97600000
_cell_length_c   15.05710000
_cell_angle_alpha   67.14200000
_cell_angle_beta   69.00227945
_cell_angle_gamma   104.32693673
_symmetry_Int_Tables_number   1
_chemical_formula_structural   Zn2H31C37(N3O)3
_chemical_formula_sum   'Zn4 H62 C74 N18 O6'
_cell_volume   2572.52449192
_cell_formula_units_Z   2
loop_
 _symmetry_equiv_pos_site_id
 _symmetry_equiv_pos_as_xyz
  1  'x, y, z'
loop_
 _atom_site_type_symbol
 _atom_site_label
 _atom_site_symmetry_multiplicity
 _atom_site_fract_x
 _atom_site_fract_y
 _atom_site_fract_z
 _atom_site_occupancy
  Zn  Zn0  1  0.62692000  0.50957000  0.35501000  1.0
  Zn  Zn1  1  0.35835000  0.50782000  0.63671000  1.0
  Zn  Zn2  1  0.48047000  0.64099000  0.36121000  1.0
  Zn  Zn3  1  0.50035000  0.37475000  0.62164000  1.0
  H  H4  1  0.83600000  0.67045000  0.31769000  1.0
  H  H5  1  0.50050000  0.70854000  0.95417000  1.0
  H  H6  1  0.73073000  0.57843000  0.92869000  1.0
  H  H7  1  0.50233000  0.70609000  0.79215000  1.0
  H  H8  1  0.24226000  0.99397000  0.67090000  1.0
  H  H9  1  0.43420000  0.00850000  0.31635000  1.0
  H  H10  1  0.22219000  0.82504000  0.67474000  1.0
  H  H11  1  0.45378000  0.17664000  0.31252000  1.0
  H  H12  1  0.49525000  0.69546000  0.64623000  1.0
  H  H13  1  0.69946000  0.54342000  0.10365000  1.0
  H  H14  1  0.07501000  0.07836000  0.89707000  1.0
  H  H15  1  0.15590000  0.32970000  0.90413000  1.0
  H  H16  1  0.94944000  0.92638000  0.30022000  1.0
  H  H17  1  0.43184000  0.85388000  0.31946000  1.0
  H  H18  1  0.32080000  0.15183000  0.67359000  1.0
  H  H19  1  0.66150000  0.27086000  0.67082000  1.0
  H  H20  1  0.29649000  0.50241000  0.34265000  1.0
  H  H21  1  0.26348000  0.67743000  0.68167000  1.0
  H  H22  1  0.50070000  0.33669000  0.31021000  1.0
  H  H23  1  0.86888000  0.50577000  0.31525000  1.0
  H  H24  1  0.15405000  0.30465000  0.70225000  1.0
  H  H25  1  0.65951000  0.49294000  0.68179000  1.0
  H  H26  1  0.84993000  0.33720000  0.19454000  1.0
  H  H27  1  0.48590000  0.69559000  0.11825000  1.0
  H  H28  1  0.68166000  0.87928000  0.25618000  1.0
  H  H29  1  0.33497000  0.14752000  0.86125000  1.0
  H  H30  1  0.10187000  0.21075000  0.40352000  1.0
  H  H31  1  0.19324000  0.26162000  0.44329000  1.0
  H  H32  1  0.28839000  0.23500000  0.29056000  1.0
  H  H33  1  0.25175000  0.31962000  0.20340000  1.0
  H  H34  1  0.34248000  0.37640000  0.24048000  1.0
  H  H35  1  0.79406000  0.45085000  0.66246000  1.0
  H  H36  1  0.88301000  0.43033000  0.71339000  1.0
  H  H37  1  0.98157000  0.32952000  0.93204000  1.0
  H  H38  1  0.72648000  0.28115000  0.90290000  1.0
  H  H39  1  0.71199000  0.40326000  0.86319000  1.0
  H  H40  1  0.63454000  0.29857000  0.85518000  1.0
  H  H41  1  0.01834000  0.91589000  0.90251000  1.0
  H  H42  1  0.95668000  0.00146000  0.86618000  1.0
  H  H43  1  0.78767000  0.83778000  0.93902000  1.0
  H  H44  1  0.90237000  0.85621000  0.82821000  1.0
  H  H45  1  0.85221000  0.75435000  0.96975000  1.0
  H  H46  1  0.25144000  0.05422000  0.07921000  1.0
  H  H47  1  0.22646000  0.01908000  0.21588000  1.0
  H  H48  1  0.84778000  0.27510000  0.37251000  1.0
  H  H49  1  0.32582000  0.21661000  0.14600000  1.0
  H  H50  1  0.40903000  0.17605000  0.06828000  1.0
  H  H51  1  0.34881000  0.25250000  0.00960000  1.0
  H  H52  1  0.85616000  0.50330000  0.04566000  1.0
  H  H53  1  0.88282000  0.40364000  0.01917000  1.0
  H  H54  1  0.00839000  0.54544000  0.81456000  1.0
  H  H55  1  0.87648000  0.53640000  0.86031000  1.0
  H  H56  1  0.98106000  0.64546000  0.83948000  1.0
  H  H57  1  0.87199000  0.24559000  0.10909000  1.0
  H  H58  1  0.96329000  0.18650000  0.10362000  1.0
  H  H59  1  0.04296000  0.41706000  0.73091000  1.0
  H  H60  1  0.81471000  0.01649000  0.28752000  1.0
  H  H61  1  0.84251000  0.13184000  0.30030000  1.0
  H  H62  1  0.72583000  0.07813000  0.29265000  1.0
  H  H63  1  0.15515000  0.61521000  0.02976000  1.0
  H  H64  1  0.79109000  0.02333000  0.98783000  1.0
  H  H65  1  0.73407000  0.57801000  0.76439000  1.0
  C  C66  1  0.78083000  0.70574000  0.31381000  1.0
  C  C67  1  0.95232000  0.28104000  0.90109000  1.0
  C  C68  1  0.91600000  0.34954000  0.29741000  1.0
  C  C69  1  0.98763000  0.33062000  0.78671000  1.0
  C  C70  1  0.99696000  0.40910000  0.30721000  1.0
  C  C71  1  0.95419000  0.27269000  0.74162000  1.0
  C  C72  1  0.08450000  0.50559000  0.20776000  1.0
  C  C73  1  0.88301000  0.16028000  0.81673000  1.0
  C  C74  1  0.08796000  0.54040000  0.10514000  1.0
  C  C75  1  0.84548000  0.10981000  0.93144000  1.0
  C  C76  1  0.00354000  0.48120000  0.09929000  1.0
  C  C77  1  0.21521000  0.30162000  0.87697000  1.0
  C  C78  1  0.87916000  0.17035000  0.97460000  1.0
  C  C79  1  0.07226000  0.36583000  0.43350000  1.0
  C  C80  1  0.89167000  0.32972000  0.60943000  1.0
  C  C81  1  0.53006000  0.63972000  0.64573000  1.0
  C  C82  1  0.64599000  0.57974000  0.12274000  1.0
  C  C83  1  0.07532000  0.34922000  0.53143000  1.0
  C  C84  1  0.89503000  0.36333000  0.50641000  1.0
  C  C85  1  0.97802000  0.32082000  0.62377000  1.0
  C  C86  1  0.98708000  0.37761000  0.41790000  1.0
  C  C87  1  0.68188000  0.60600000  0.80633000  1.0
  C  C88  1  0.59533000  0.61342000  0.68950000  1.0
  C  C89  1  0.55205000  0.67949000  0.91330000  1.0
  C  C90  1  0.67982000  0.60616000  0.89934000  1.0
  C  C91  1  0.55379000  0.67888000  0.82079000  1.0
  C  C92  1  0.61148000  0.63861000  0.95799000  1.0
  C  C93  1  0.61491000  0.63758000  0.76794000  1.0
  C  C94  1  0.28477000  0.99808000  0.59230000  1.0
  C  C95  1  0.39055000  0.00400000  0.39491000  1.0
  C  C96  1  0.27344000  0.90203000  0.59450000  1.0
  C  C97  1  0.40169000  0.09982000  0.39271000  1.0
  C  C98  1  0.33085000  0.90285000  0.49651000  1.0
  C  C99  1  0.59962000  0.62684000  0.06287000  1.0
  C  C100  1  0.35428000  0.09998000  0.49213000  1.0
  C  C101  1  0.94913000  0.94919000  0.06576000  1.0
  C  C102  1  0.07663000  0.04996000  0.13130000  1.0
  C  C103  1  0.04648000  0.04261000  0.98601000  1.0
  C  C104  1  0.97620000  0.95892000  0.21176000  1.0
  C  C105  1  0.39311000  0.79634000  0.40867000  1.0
  C  C106  1  0.37228000  0.21184000  0.58452000  1.0
  C  C107  1  0.10938000  0.09511000  0.01763000  1.0
  C  C108  1  0.91008000  0.90936000  0.18099000  1.0
  C  C109  1  0.69761000  0.33078000  0.58307000  1.0
  C  C110  1  0.33835000  0.80620000  0.49977000  1.0
  C  C111  1  0.27839000  0.46269000  0.42865000  1.0
  C  C112  1  0.30656000  0.70610000  0.59304000  1.0
  C  C113  1  0.46452000  0.30571000  0.39926000  1.0
  C  C114  1  0.80374000  0.45016000  0.40147000  1.0
  C  C115  1  0.20377000  0.36209000  0.61276000  1.0
  C  C116  1  0.61417000  0.53687000  0.66290000  1.0
  C  C117  1  0.53783000  0.65781000  0.12981000  1.0
  C  C118  1  0.70171000  0.81213000  0.28227000  1.0
  C  C119  1  0.30609000  0.20843000  0.85495000  1.0
  C  C120  1  0.80292000  0.81501000  0.26121000  1.0
  C  C121  1  0.38870000  0.20049000  0.49195000  1.0
  C  C122  1  0.20677000  0.19682000  0.92633000  1.0
  C  C123  1  0.17056000  0.57401000  0.20827000  1.0
  C  C124  1  0.84711000  0.09614000  0.77525000  1.0
  C  C125  1  0.17587000  0.28003000  0.37475000  1.0
  C  C126  1  0.27035000  0.30479000  0.27062000  1.0
  C  C127  1  0.80342000  0.38989000  0.72462000  1.0
  C  C128  1  0.71387000  0.34021000  0.84340000  1.0
  C  C129  1  0.94004000  0.91848000  0.92380000  1.0
  C  C130  1  0.86624000  0.83671000  0.91507000  1.0
  C  C131  1  0.23931000  0.08315000  0.13752000  1.0
  C  C132  1  0.80551000  0.38079000  0.49595000  1.0
  C  C133  1  0.33599000  0.18858000  0.08744000  1.0
  C  C134  1  0.91696000  0.49071000  0.98981000  1.0
  C  C135  1  0.94779000  0.55874000  0.86892000  1.0
  C  C136  1  0.87745000  0.16836000  0.13558000  1.0
  C  C137  1  0.81075000  0.09400000  0.26153000  1.0
  C  C138  1  0.17940000  0.37955000  0.52704000  1.0
  C  C139  1  0.91714000  0.38473000  0.19633000  1.0
  N  N140  1  0.67437000  0.64263000  0.36147000  1.0
  N  N141  1  0.49163000  0.37215000  0.43509000  1.0
  N  N142  1  0.70342000  0.44069000  0.43050000  1.0
  N  N143  1  0.30701000  0.43203000  0.56852000  1.0
  N  N144  1  0.56163000  0.51766000  0.61071000  1.0
  N  N145  1  0.54824000  0.63235000  0.22054000  1.0
  N  N146  1  0.62579000  0.70819000  0.34260000  1.0
  N  N147  1  0.36883000  0.31225000  0.76965000  1.0
  N  N148  1  0.24254000  0.63320000  0.20384000  1.0
  N  N149  1  0.81778000  0.04159000  0.74336000  1.0
  N  N150  1  0.31246000  0.37071000  0.78256000  1.0
  N  N151  1  0.50960000  0.58095000  0.60006000  1.0
  N  N152  1  0.61579000  0.58396000  0.21598000  1.0
  N  N153  1  0.39413000  0.69944000  0.44462000  1.0
  N  N154  1  0.43493000  0.31455000  0.54867000  1.0
  N  N155  1  0.63801000  0.36705000  0.54364000  1.0
  N  N156  1  0.35254000  0.49333000  0.45546000  1.0
  N  N157  1  0.34007000  0.64282000  0.55969000  1.0
  O  O158  1  0.15667000  0.37519000  0.34664000  1.0
  O  O159  1  0.79988000  0.30350000  0.70311000  1.0
  O  O160  1  0.88791000  0.89321000  0.03774000  1.0
  O  O161  1  0.14095000  0.09637000  0.16421000  1.0
  O  O162  1  0.01338000  0.52355000  0.99569000  1.0
  O  O163  1  0.83570000  0.11473000  0.08759000  1.0
