# generated using pymatgen
data_FeH3(CN2)4
_symmetry_space_group_name_H-M   'P 1'
_cell_length_a   5.54776000
_cell_length_b   7.44679000
_cell_length_c   8.87223000
_cell_angle_alpha   89.39870000
_cell_angle_beta   88.33680000
_cell_angle_gamma   68.14180000
_symmetry_Int_Tables_number   1
_chemical_formula_structural   FeH3(CN2)4
_chemical_formula_sum   'Fe2 H6 C8 N16'
_cell_volume   340.04399335
_cell_formula_units_Z   2
loop_
 _symmetry_equiv_pos_site_id
 _symmetry_equiv_pos_as_xyz
  1  'x, y, z'
loop_
 _atom_site_type_symbol
 _atom_site_label
 _atom_site_symmetry_multiplicity
 _atom_site_fract_x
 _atom_site_fract_y
 _atom_site_fract_z
 _atom_site_occupancy
  Fe  Fe0  1  0.19242000  0.61524000  0.00002000  1.0
  Fe  Fe1  1  0.80759000  0.38476000  0.99998000  1.0
  H  H2  1  0.93790000  0.68874000  0.33547000  1.0
  H  H3  1  0.37386000  0.68850000  0.66461000  1.0
  H  H4  1  0.06210000  0.31126000  0.66453000  1.0
  H  H5  1  0.62614000  0.31150000  0.33539000  1.0
  H  H6  1  0.71649000  0.00017000  0.47156000  1.0
  H  H7  1  0.28348000  0.99983000  0.52843000  1.0
  C  C8  1  0.90024000  0.82563000  0.27823000  1.0
  C  C9  1  0.27443000  0.82543000  0.72182000  1.0
  C  C10  1  0.09976000  0.17437000  0.72176000  1.0
  C  C11  1  0.72556000  0.17457000  0.27819000  1.0
  C  C12  1  0.77593000  0.00013000  0.35376000  1.0
  C  C13  1  0.22405000  0.99988000  0.64623000  1.0
  C  C14  1  0.94052000  0.00003000  0.07123000  1.0
  C  C15  1  0.05949000  0.99997000  0.92877000  1.0
  N  N16  1  0.98160000  0.82372000  0.13249000  1.0
  N  N17  1  0.19489000  0.82364000  0.86754000  1.0
  N  N18  1  0.01840000  0.17628000  0.86752000  1.0
  N  N19  1  0.80512000  0.17637000  0.13245000  1.0
  N  N20  1  0.09957000  0.41433000  0.11459000  1.0
  N  N21  1  0.48609000  0.41426000  0.88540000  1.0
  N  N22  1  0.90044000  0.58567000  0.88542000  1.0
  N  N23  1  0.51392000  0.58574000  0.11460000  1.0
  N  N24  1  0.12885000  0.36256000  0.24555000  1.0
  N  N25  1  0.50853000  0.36247000  0.75442000  1.0
  N  N26  1  0.87115000  0.63745000  0.75445000  1.0
  N  N27  1  0.49147000  0.63753000  0.24558000  1.0
  N  N28  1  0.15400000  0.30818000  0.36955000  1.0
  N  N29  1  0.53767000  0.30810000  0.63039000  1.0
  N  N30  1  0.84600000  0.69182000  0.63047000  1.0
  N  N31  1  0.46233000  0.69189000  0.36960000  1.0
