# generated using pymatgen
data_Al6H17C96I10Br17O28
_symmetry_space_group_name_H-M   'P 1'
_cell_length_a   13.80990000
_cell_length_b   14.06810000
_cell_length_c   26.87900000
_cell_angle_alpha   89.77410000
_cell_angle_beta   89.12920000
_cell_angle_gamma   62.09880000
_symmetry_Int_Tables_number   1
_chemical_formula_structural   Al6H17C96I10Br17O28
_chemical_formula_sum   'Al6 H17 C96 I10 Br17 O28'
_cell_volume   4614.43386441
_cell_formula_units_Z   1
loop_
 _symmetry_equiv_pos_site_id
 _symmetry_equiv_pos_as_xyz
  1  'x, y, z'
loop_
 _atom_site_type_symbol
 _atom_site_label
 _atom_site_symmetry_multiplicity
 _atom_site_fract_x
 _atom_site_fract_y
 _atom_site_fract_z
 _atom_site_occupancy
  Al  Al0  1  0.63117000  0.82826000  0.49329000  1.0
  Al  Al1  1  0.57169000  0.07756000  0.49987000  1.0
  Al  Al2  1  0.38693000  0.02291000  0.50446000  1.0
  Al  Al3  1  0.05961000  0.81231000  0.98309000  1.0
  Al  Al4  1  0.29228000  0.60189000  0.98681000  1.0
  Al  Al5  1  0.09143000  0.57259000  0.98543000  1.0
  H  H6  1  0.41663000  0.94365000  0.18052000  1.0
  H  H7  1  0.52600000  0.76096000  0.24320000  1.0
  H  H8  1  0.93840000  0.69065000  0.28558000  1.0
  H  H9  1  0.61993000  0.88125000  0.26192000  1.0
  H  H10  1  0.40960000  0.45102000  0.85965000  1.0
  H  H11  1  0.48039000  0.28003000  0.61964000  1.0
  H  H12  1  0.19206000  0.18306000  0.82099000  1.0
  H  H13  1  0.26025000  0.89287000  0.60341000  1.0
  H  H14  1  0.07134000  0.88833000  0.75228000  1.0
  H  H15  1  0.60790000  0.67691000  0.81263000  1.0
  H  H16  1  0.85421000  0.74509000  0.59585000  1.0
  H  H17  1  0.78097000  0.05809000  0.81654000  1.0
  H  H18  1  0.20225000  0.56155000  0.25172000  1.0
  H  H19  1  0.12717000  0.96753000  0.22476000  1.0
  H  H20  1  0.26506000  0.05237000  0.25892000  1.0
  H  H21  1  0.72023000  0.64513000  0.51245000  1.0
  H  H22  1  0.96580000  0.99228000  0.00962000  1.0
  C  C23  1  0.70583000  0.94657000  0.42308000  1.0
  C  C24  1  0.34028000  0.25790000  0.39876000  1.0
  C  C25  1  0.24936000  0.47435000  0.25534000  1.0
  C  C26  1  0.30341000  0.39576000  0.20921000  1.0
  C  C27  1  0.20557000  0.39778000  0.27672000  1.0
  C  C28  1  0.31274000  0.33542000  0.30822000  1.0
  C  C29  1  0.26034000  0.31782000  0.23195000  1.0
  C  C30  1  0.36803000  0.25694000  0.26239000  1.0
  C  C31  1  0.29435000  0.42433000  0.15820000  1.0
  C  C32  1  0.32279000  0.29786000  0.35747000  1.0
  C  C33  1  0.27610000  0.82358000  0.26333000  1.0
  C  C34  1  0.38183000  0.19422000  0.44281000  1.0
  C  C35  1  0.21596000  0.92325000  0.22896000  1.0
  C  C36  1  0.26628000  0.81721000  0.09477000  1.0
  C  C37  1  0.40748000  0.86890000  0.37612000  1.0
  C  C38  1  0.36175000  0.76180000  0.22061000  1.0
  C  C39  1  0.29958000  0.86281000  0.18514000  1.0
  C  C40  1  0.43753000  0.80853000  0.23870000  1.0
  C  C41  1  0.35467000  0.86900000  0.28262000  1.0
  C  C42  1  0.37693000  0.90899000  0.20460000  1.0
  C  C43  1  0.29232000  0.96941000  0.24738000  1.0
  C  C44  1  0.27726000  0.84776000  0.13565000  1.0
  C  C45  1  0.43701000  0.88153000  0.42577000  1.0
  C  C46  1  0.38275000  0.86979000  0.33278000  1.0
  C  C47  1  0.87980000  0.75266000  0.26135000  1.0
  C  C48  1  0.78884000  0.74382000  0.23058000  1.0
  C  C49  1  0.87042000  0.74053000  0.09065000  1.0
  C  C50  1  0.74786000  0.93247000  0.37264000  1.0
  C  C51  1  0.90922000  0.80238000  0.21521000  1.0
  C  C52  1  0.81796000  0.79265000  0.18343000  1.0
  C  C53  1  0.82326000  0.91879000  0.23240000  1.0
  C  C54  1  0.79278000  0.86904000  0.27949000  1.0
  C  C55  1  0.73217000  0.90845000  0.20173000  1.0
  C  C56  1  0.72463000  0.93343000  0.56368000  1.0
  C  C57  1  0.70226000  0.85899000  0.24778000  1.0
  C  C58  1  0.83848000  0.75906000  0.13366000  1.0
  C  C59  1  0.77232000  0.90641000  0.32925000  1.0
  C  C60  1  0.42251000  0.27080000  0.64441000  1.0
  C  C61  1  0.40964000  0.30711000  0.69370000  1.0
  C  C62  1  0.39545000  0.36319000  0.79680000  1.0
  C  C63  1  0.45797000  0.39159000  0.76201000  1.0
  C  C64  1  0.46188000  0.36741000  0.71222000  1.0
  C  C65  1  0.37695000  0.39879000  0.84647000  1.0
  C  C66  1  0.31142000  0.37534000  0.87949000  1.0
  C  C67  1  0.39819000  0.16846000  0.57540000  1.0
  C  C68  1  0.28032000  0.21775000  0.65561000  1.0
  C  C69  1  0.28307000  0.22869000  0.70809000  1.0
  C  C70  1  0.34667000  0.27774000  0.72736000  1.0
  C  C71  1  0.22946000  0.19342000  0.74484000  1.0
  C  C72  1  0.23082000  0.21373000  0.79449000  1.0
  C  C73  1  0.28098000  0.27410000  0.81320000  1.0
  C  C74  1  0.34214000  0.30412000  0.77896000  1.0
  C  C75  1  0.26966000  0.30672000  0.86353000  1.0
  C  C76  1  0.36262000  0.22266000  0.62520000  1.0
  C  C77  1  0.32435000  0.84133000  0.62867000  1.0
  C  C78  1  0.45429000  0.84187000  0.56506000  1.0
  C  C79  1  0.29658000  0.82139000  0.67621000  1.0
  C  C80  1  0.23860000  0.82411000  0.77846000  1.0
  C  C81  1  0.15669000  0.85885000  0.74094000  1.0
  C  C82  1  0.18527000  0.85607000  0.69193000  1.0
  C  C83  1  0.21148000  0.83559000  0.82993000  1.0
  C  C84  1  0.29309000  0.78034000  0.86579000  1.0
  C  C85  1  0.51638000  0.72727000  0.64435000  1.0
  C  C86  1  0.49468000  0.72808000  0.69629000  1.0
  C  C87  1  0.38124000  0.77414000  0.71236000  1.0
  C  C88  1  0.57453000  0.69366000  0.73539000  1.0
  C  C89  1  0.35683000  0.41254000  0.28597000  1.0
  C  C90  1  0.54507000  0.69984000  0.78454000  1.0
  C  C91  1  0.43454000  0.73755000  0.80043000  1.0
  C  C92  1  0.35147000  0.77624000  0.76368000  1.0
  C  C93  1  0.40369000  0.73710000  0.85066000  1.0
  C  C94  1  0.43306000  0.79825000  0.61252000  1.0
  C  C95  1  0.84379000  0.80416000  0.62423000  1.0
  C  C96  1  0.88493000  0.77050000  0.67162000  1.0
  C  C97  1  0.93367000  0.70034000  0.77241000  1.0
  C  C98  1  0.98440000  0.62637000  0.73132000  1.0
  C  C99  1  0.95458000  0.65928000  0.68321000  1.0
  C  C100  1  0.41172000  0.33369000  0.24077000  1.0
  C  C101  1  0.93748000  0.67141000  0.82321000  1.0
  C  C102  1  0.90788000  0.74884000  0.86177000  1.0
  C  C103  1  0.77382000  0.99088000  0.64766000  1.0
  C  C104  1  0.80962000  0.96140000  0.69732000  1.0
  C  C105  1  0.85842000  0.84875000  0.71015000  1.0
  C  C106  1  0.79690000  0.03365000  0.73818000  1.0
  C  C107  1  0.79674000  0.00133000  0.78623000  1.0
  C  C108  1  0.83302000  0.89167000  0.79915000  1.0
  C  C109  1  0.87756000  0.81291000  0.76061000  1.0
  C  C110  1  0.84624000  0.85801000  0.84915000  1.0
  C  C111  1  0.28134000  0.44493000  0.11389000  1.0
  C  C112  1  0.78369000  0.91290000  0.61222000  1.0
  C  C113  1  0.23740000  0.77764000  0.05134000  1.0
  C  C114  1  0.25984000  0.48194000  0.06304000  1.0
  C  C115  1  0.93614000  0.71717000  0.04617000  1.0
  C  C116  1  0.26169000  0.75398000  0.91577000  1.0
  C  C117  1  0.27553000  0.43955000  0.92660000  1.0
  C  C118  1  0.96423000  0.72006000  0.91137000  1.0
  I  I119  1  0.41542000  0.60343000  0.19486000  1.0
  I  I120  1  0.76072000  0.60872000  0.22716000  1.0
  I  I121  1  0.85259000  0.05188000  0.23503000  1.0
  I  I122  1  0.06598000  0.75681000  0.18414000  1.0
  I  I123  1  0.43716000  0.47238000  0.33209000  1.0
  I  I124  1  0.16623000  0.08593000  0.73140000  1.0
  I  I125  1  0.13815000  0.23165000  0.62139000  1.0
  I  I126  1  0.05173000  0.94987000  0.85065000  1.0
  I  I127  1  0.80972000  0.17795000  0.73423000  1.0
  I  I128  1  0.04729000  0.44539000  0.30533000  1.0
  Br  Br129  1  0.55522000  0.28852000  0.21599000  1.0
  Br  Br130  1  0.63346000  0.01116000  0.15659000  1.0
  Br  Br131  1  0.53174000  0.46580000  0.78610000  1.0
  Br  Br132  1  0.53146000  0.41861000  0.66582000  1.0
  Br  Br133  1  0.20098000  0.25233000  0.90893000  1.0
  Br  Br134  1  0.45204000  0.10655000  0.27104000  1.0
  Br  Br135  1  0.07389000  0.90277000  0.64319000  1.0
  Br  Br136  1  0.51697000  0.68491000  0.89881000  1.0
  Br  Br137  1  0.72552000  0.65491000  0.72518000  1.0
  Br  Br138  1  0.64981000  0.62062000  0.61637000  1.0
  Br  Br139  1  0.96219000  0.53122000  0.84138000  1.0
  Br  Br140  1  0.10863000  0.49189000  0.74149000  1.0
  Br  Br141  1  0.01253000  0.56080000  0.62943000  1.0
  Br  Br142  1  0.77560000  0.96327000  0.89948000  1.0
  Br  Br143  1  0.19419000  0.25214000  0.19360000  1.0
  Br  Br144  1  0.70144000  0.13820000  0.63062000  1.0
  Br  Br145  1  0.20487000  0.76926000  0.30781000  1.0
  O  O146  1  0.53451000  0.82394000  0.43915000  1.0
  O  O147  1  0.48358000  0.16591000  0.55481000  1.0
  O  O148  1  0.34776000  0.11958000  0.55806000  1.0
  O  O149  1  0.37249000  0.92859000  0.54900000  1.0
  O  O150  1  0.52868000  0.97808000  0.49871000  1.0
  O  O151  1  0.95543000  0.79056000  0.02958000  1.0
  O  O152  1  0.13668000  0.82411000  0.04057000  1.0
  O  O153  1  0.31428000  0.69694000  0.02818000  1.0
  O  O154  1  0.32628000  0.51186000  0.04310000  1.0
  O  O155  1  0.17578000  0.48562000  0.04239000  1.0
  O  O156  1  0.97485000  0.62021000  0.02900000  1.0
  O  O157  1  0.70908000  0.86299000  0.44215000  1.0
  O  O158  1  0.99092000  0.78935000  0.92657000  1.0
  O  O159  1  0.17442000  0.81844000  0.93759000  1.0
  O  O160  1  0.32625000  0.65778000  0.93110000  1.0
  O  O161  1  0.33572000  0.47632000  0.94520000  1.0
  O  O162  1  0.17967000  0.46186000  0.94333000  1.0
  O  O163  1  0.99060000  0.62975000  0.93251000  1.0
  O  O164  1  0.14867000  0.66067000  0.98554000  1.0
  O  O165  1  0.66579000  0.04022000  0.44337000  1.0
  O  O166  1  0.47219000  0.18678000  0.45856000  1.0
  O  O167  1  0.33044000  0.14665000  0.46113000  1.0
  O  O168  1  0.35887000  0.95571000  0.45190000  1.0
  O  O169  1  0.54864000  0.79912000  0.54555000  1.0
  O  O170  1  0.71123000  0.85651000  0.54736000  1.0
  O  O171  1  0.68831000  0.02605000  0.54242000  1.0
  O  O172  1  0.72641000  0.69177000  0.48748000  1.0
  O  O173  1  0.97484000  0.95175000  0.97940000  1.0
