# generated using pymatgen
data_ZnH22C28NO6
_symmetry_space_group_name_H-M   'P 1'
_cell_length_a   9.46586000
_cell_length_b   10.98210000
_cell_length_c   12.22700000
_cell_angle_alpha   110.09400000
_cell_angle_beta   96.67260000
_cell_angle_gamma   96.40010000
_symmetry_Int_Tables_number   1
_chemical_formula_structural   ZnH22C28NO6
_chemical_formula_sum   'Zn2 H44 C56 N2 O12'
_cell_volume   1169.88345929
_cell_formula_units_Z   2
loop_
 _symmetry_equiv_pos_site_id
 _symmetry_equiv_pos_as_xyz
  1  'x, y, z'
loop_
 _atom_site_type_symbol
 _atom_site_label
 _atom_site_symmetry_multiplicity
 _atom_site_fract_x
 _atom_site_fract_y
 _atom_site_fract_z
 _atom_site_occupancy
  Zn  Zn0  1  0.91386000  0.97390000  0.58170000  1.0
  Zn  Zn1  1  0.08613000  0.02610000  0.41830000  1.0
  H  H2  1  0.40318000  0.80265000  0.45740000  1.0
  H  H3  1  0.59683000  0.19735000  0.54260000  1.0
  H  H4  1  0.60426000  0.69949000  0.51356000  1.0
  H  H5  1  0.39574000  0.30051000  0.48643000  1.0
  H  H6  1  0.37213000  0.61039000  0.76857000  1.0
  H  H7  1  0.62788000  0.38961000  0.23143000  1.0
  H  H8  1  0.17099000  0.71621000  0.71036000  1.0
  H  H9  1  0.82902000  0.28379000  0.28964000  1.0
  H  H10  1  0.77099000  0.69047000  0.62731000  1.0
  H  H11  1  0.22901000  0.30953000  0.37269000  1.0
  H  H12  1  0.72733000  0.51612000  0.55482000  1.0
  H  H13  1  0.27267000  0.48388000  0.44518000  1.0
  H  H14  1  0.92320000  0.41295000  0.60540000  1.0
  H  H15  1  0.07680000  0.58704000  0.39460000  1.0
  H  H16  1  0.11762000  0.39739000  0.75253000  1.0
  H  H17  1  0.88238000  0.60261000  0.24747000  1.0
  H  H18  1  0.01717000  0.73692000  0.01694000  1.0
  H  H19  1  0.98282000  0.26308000  0.98305000  1.0
  H  H20  1  0.81903000  0.74984000  0.87007000  1.0
  H  H21  1  0.18097000  0.25015000  0.12993000  1.0
  H  H22  1  0.55843000  0.67775000  0.33514000  1.0
  H  H23  1  0.44156000  0.32225000  0.66486000  1.0
  H  H24  1  0.34948000  0.58016000  0.17641000  1.0
  H  H25  1  0.65052000  0.41983000  0.82358000  1.0
  H  H26  1  0.58258000  0.71055000  0.94255000  1.0
  H  H27  1  0.41742000  0.28945000  0.05745000  1.0
  H  H28  1  0.79400000  0.81003000  0.10715000  1.0
  H  H29  1  0.20600000  0.18997000  0.89285000  1.0
  H  H30  1  0.18175000  0.61907000  0.07335000  1.0
  H  H31  1  0.81825000  0.38093000  0.92665000  1.0
  H  H32  1  0.20130000  0.45831000  0.97985000  1.0
  H  H33  1  0.79870000  0.54169000  0.02015000  1.0
  H  H34  1  0.97366000  0.95787000  0.81708000  1.0
  H  H35  1  0.02634000  0.04214000  0.18292000  1.0
  H  H36  1  0.85253000  0.98770000  0.99449000  1.0
  H  H37  1  0.14748000  0.01230000  0.00551000  1.0
  H  H38  1  0.47627000  0.04723000  0.79461000  1.0
  H  H39  1  0.52373000  0.95277000  0.20540000  1.0
  H  H40  1  0.61373000  0.01879000  0.62904000  1.0
  H  H41  1  0.38627000  0.98121000  0.37096000  1.0
  H  H42  1  0.57829000  0.14252000  0.06076000  1.0
  H  H43  1  0.42172000  0.85748000  0.93925000  1.0
  H  H44  1  0.64220000  0.00510000  0.07852000  1.0
  H  H45  1  0.35780000  0.99490000  0.92148000  1.0
  C  C46  1  0.16083000  0.84046000  0.55044000  1.0
  C  C47  1  0.83917000  0.15954000  0.44956000  1.0
  C  C48  1  0.27530000  0.76885000  0.58135000  1.0
  C  C49  1  0.72470000  0.23115000  0.41864000  1.0
  C  C50  1  0.39728000  0.76080000  0.52597000  1.0
  C  C51  1  0.60272000  0.23919000  0.47403000  1.0
  C  C52  1  0.51027000  0.70191000  0.55732000  1.0
  C  C53  1  0.48973000  0.29809000  0.44268000  1.0
  C  C54  1  0.50241000  0.65049000  0.64717000  1.0
  C  C55  1  0.49758000  0.34951000  0.35283000  1.0
  C  C56  1  0.37839000  0.65341000  0.70078000  1.0
  C  C57  1  0.62162000  0.34659000  0.29922000  1.0
  C  C58  1  0.26664000  0.71250000  0.66820000  1.0
  C  C59  1  0.73337000  0.28751000  0.33180000  1.0
  C  C60  1  0.74264000  0.59717000  0.64076000  1.0
  C  C61  1  0.25736000  0.40283000  0.35924000  1.0
  C  C62  1  0.85918000  0.58342000  0.72798000  1.0
  C  C63  1  0.14082000  0.41658000  0.27201000  1.0
  C  C64  1  0.94381000  0.48433000  0.69548000  1.0
  C  C65  1  0.05619000  0.51567000  0.30451000  1.0
  C  C66  1  0.05340000  0.47579000  0.77813000  1.0
  C  C67  1  0.94660000  0.52421000  0.22187000  1.0
  C  C68  1  0.08094000  0.56663000  0.89405000  1.0
  C  C69  1  0.91906000  0.43337000  0.10594000  1.0
  C  C70  1  0.99641000  0.66618000  0.92635000  1.0
  C  C71  1  0.00358000  0.33382000  0.07365000  1.0
  C  C72  1  0.88615000  0.67374000  0.84441000  1.0
  C  C73  1  0.11385000  0.32625000  0.15558000  1.0
  C  C74  1  0.80741000  0.82607000  0.33376000  1.0
  C  C75  1  0.19257000  0.17394000  0.66626000  1.0
  C  C76  1  0.68729000  0.75568000  0.23340000  1.0
  C  C77  1  0.31271000  0.24432000  0.76661000  1.0
  C  C78  1  0.56252000  0.68768000  0.25004000  1.0
  C  C79  1  0.43747000  0.31232000  0.74995000  1.0
  C  C80  1  0.44391000  0.63343000  0.16039000  1.0
  C  C81  1  0.55608000  0.36656000  0.83961000  1.0
  C  C82  1  0.44909000  0.64848000  0.05138000  1.0
  C  C83  1  0.55092000  0.35152000  0.94861000  1.0
  C  C84  1  0.57776000  0.70727000  0.03016000  1.0
  C  C85  1  0.42225000  0.29273000  0.96984000  1.0
  C  C86  1  0.69463000  0.76111000  0.12094000  1.0
  C  C87  1  0.30537000  0.23889000  0.87907000  1.0
  C  C88  1  0.19796000  0.55957000  0.98420000  1.0
  C  C89  1  0.80205000  0.44043000  0.01579000  1.0
  C  C90  1  0.86374000  0.97901000  0.81748000  1.0
  C  C91  1  0.13626000  0.02099000  0.18252000  1.0
  C  C92  1  0.79512000  0.99484000  0.91474000  1.0
  C  C93  1  0.20488000  0.00516000  0.08526000  1.0
  C  C94  1  0.65256000  0.01895000  0.91019000  1.0
  C  C95  1  0.34744000  0.98105000  0.08981000  1.0
  C  C96  1  0.58632000  0.02764000  0.80505000  1.0
  C  C97  1  0.41368000  0.97236000  0.19495000  1.0
  C  C98  1  0.66198000  0.01163000  0.71153000  1.0
  C  C99  1  0.33803000  0.98837000  0.28847000  1.0
  C  C100  1  0.57784000  0.03666000  0.01547000  1.0
  C  C101  1  0.42216000  0.96334000  0.98454000  1.0
  N  N102  1  0.79829000  0.98689000  0.71686000  1.0
  N  N103  1  0.20172000  0.01311000  0.28314000  1.0
  O  O104  1  0.05044000  0.84530000  0.60192000  1.0
  O  O105  1  0.94957000  0.15471000  0.39807000  1.0
  O  O106  1  0.61030000  0.59762000  0.68949000  1.0
  O  O107  1  0.38970000  0.40238000  0.31051000  1.0
  O  O108  1  0.18350000  0.89404000  0.47516000  1.0
  O  O109  1  0.81650000  0.10595000  0.52483000  1.0
  O  O110  1  0.78808000  0.82960000  0.43651000  1.0
  O  O111  1  0.21191000  0.17040000  0.56350000  1.0
  O  O112  1  0.91966000  0.88020000  0.30952000  1.0
  O  O113  1  0.08033000  0.11981000  0.69049000  1.0
  O  O114  1  0.33494000  0.61135000  0.96193000  1.0
  O  O115  1  0.66506000  0.38865000  0.03806000  1.0
