# generated using pymatgen
data_AlH9C21(ClO2)3
_symmetry_space_group_name_H-M   'P 1'
_cell_length_a   3.97867000
_cell_length_b   24.68990000
_cell_length_c   24.68990000
_cell_angle_alpha   60.00000000
_cell_angle_beta   89.99970000
_cell_angle_gamma   90.00000000
_symmetry_Int_Tables_number   1
_chemical_formula_structural   AlH9C21(ClO2)3
_chemical_formula_sum   'Al2 H18 C42 Cl6 O12'
_cell_volume   2100.42516470
_cell_formula_units_Z   2
loop_
 _symmetry_equiv_pos_site_id
 _symmetry_equiv_pos_as_xyz
  1  'x, y, z'
loop_
 _atom_site_type_symbol
 _atom_site_label
 _atom_site_symmetry_multiplicity
 _atom_site_fract_x
 _atom_site_fract_y
 _atom_site_fract_z
 _atom_site_occupancy
  Al  Al0  1  0.99231000  0.00000000  0.50000000  1.0
  Al  Al1  1  0.99231000  0.66667000  0.16666000  1.0
  H  H2  1  0.49843000  0.28928000  0.26748000  1.0
  H  H3  1  0.49846000  0.37738000  0.39919000  1.0
  H  H4  1  0.51799000  0.49431000  0.16771000  1.0
  H  H5  1  0.50374000  0.37965000  0.22277000  1.0
  H  H6  1  0.51800000  0.17235000  0.49896000  1.0
  H  H7  1  0.50375000  0.28702000  0.44390000  1.0
  H  H8  1  0.49846000  0.76748000  0.44324000  1.0
  H  H9  1  0.49845000  0.89919000  0.22343000  1.0
  H  H10  1  0.51798000  0.66770000  0.33798000  1.0
  H  H11  1  0.50374000  0.72277000  0.39758000  1.0
  H  H12  1  0.51800000  0.99896000  0.32869000  1.0
  H  H13  1  0.50375000  0.94389000  0.26909000  1.0
  H  H14  1  0.49845000  0.94324000  0.78928000  1.0
  H  H15  1  0.49845000  0.72343000  0.87738000  1.0
  H  H16  1  0.51800000  0.83798000  0.99431000  1.0
  H  H17  1  0.50374000  0.89759000  0.87964000  1.0
  H  H18  1  0.51800000  0.82869000  0.67235000  1.0
  H  H19  1  0.50375000  0.76909000  0.78702000  1.0
  C  C20  1  0.49496000  0.95252000  0.59593000  1.0
  C  C21  1  0.49497000  0.09594000  0.45154000  1.0
  C  C22  1  0.49496000  0.95155000  0.45252000  1.0
  C  C23  1  0.49497000  0.57074000  0.21512000  1.0
  C  C24  1  0.49496000  0.71513000  0.21414000  1.0
  C  C25  1  0.49497000  0.71415000  0.07073000  1.0
  C  C26  1  0.50125000  0.16566000  0.41554000  1.0
  C  C27  1  0.50124000  0.50101000  0.25113000  1.0
  C  C28  1  0.49450000  0.20012000  0.35001000  1.0
  C  C29  1  0.49656000  0.26524000  0.31832000  1.0
  C  C30  1  0.49451000  0.46655000  0.31666000  1.0
  C  C31  1  0.49657000  0.40143000  0.34835000  1.0
  C  C32  1  0.51019000  0.46794000  0.21869000  1.0
  C  C33  1  0.50330000  0.40302000  0.25026000  1.0
  C  C34  1  0.51020000  0.19873000  0.44798000  1.0
  C  C35  1  0.50330000  0.26365000  0.41641000  1.0
  C  C36  1  0.49797000  0.29866000  0.35058000  1.0
  C  C37  1  0.49797000  0.36801000  0.31609000  1.0
  C  C38  1  0.50125000  0.91553000  0.41881000  1.0
  C  C39  1  0.50124000  0.75113000  0.24786000  1.0
  C  C40  1  0.49451000  0.85001000  0.44987000  1.0
  C  C41  1  0.49657000  0.81832000  0.41645000  1.0
  C  C42  1  0.49451000  0.81666000  0.21680000  1.0
  C  C43  1  0.49657000  0.84835000  0.25022000  1.0
  C  C44  1  0.51019000  0.71869000  0.31337000  1.0
  C  C45  1  0.50330000  0.75026000  0.34673000  1.0
  C  C46  1  0.51020000  0.94797000  0.35330000  1.0
  C  C47  1  0.50331000  0.91641000  0.31994000  1.0
  C  C48  1  0.49798000  0.85058000  0.35076000  1.0
  C  C49  1  0.49798000  0.81608000  0.31591000  1.0
  C  C50  1  0.50125000  0.91881000  0.66565000  1.0
  C  C51  1  0.50125000  0.74786000  0.00101000  1.0
  C  C52  1  0.49451000  0.94987000  0.70012000  1.0
  C  C53  1  0.49657000  0.91645000  0.76523000  1.0
  C  C54  1  0.49450000  0.71680000  0.96654000  1.0
  C  C55  1  0.49656000  0.75022000  0.90143000  1.0
  C  C56  1  0.51019000  0.81337000  0.96794000  1.0
  C  C57  1  0.50330000  0.84673000  0.90301000  1.0
  C  C58  1  0.51020000  0.85330000  0.69872000  1.0
  C  C59  1  0.50331000  0.81995000  0.76365000  1.0
  C  C60  1  0.49798000  0.85076000  0.79866000  1.0
  C  C61  1  0.49798000  0.81590000  0.86801000  1.0
  Cl  Cl62  1  0.50151000  0.16318000  0.30612000  1.0
  Cl  Cl63  1  0.50151000  0.50350000  0.36054000  1.0
  Cl  Cl64  1  0.50152000  0.80612000  0.53071000  1.0
  Cl  Cl65  1  0.50150000  0.86055000  0.13596000  1.0
  Cl  Cl66  1  0.50151000  0.03071000  0.66317000  1.0
  Cl  Cl67  1  0.50150000  0.63597000  0.00349000  1.0
  O  O68  1  0.72669000  0.99188000  0.43960000  1.0
  O  O69  1  0.72669000  0.93960000  0.56852000  1.0
  O  O70  1  0.72670000  0.06853000  0.49187000  1.0
  O  O71  1  0.25546000  0.94038000  0.49081000  1.0
  O  O72  1  0.25547000  0.06882000  0.44037000  1.0
  O  O73  1  0.25546000  0.99082000  0.56881000  1.0
  O  O74  1  0.72670000  0.72707000  0.09814000  1.0
  O  O75  1  0.72669000  0.59815000  0.17479000  1.0
  O  O76  1  0.72669000  0.67480000  0.22706000  1.0
  O  O77  1  0.25547000  0.67586000  0.09785000  1.0
  O  O78  1  0.25546000  0.72630000  0.17585000  1.0
  O  O79  1  0.25546000  0.59786000  0.22629000  1.0
