# generated using pymatgen
data_ZnH6C17(NO2)4
_symmetry_space_group_name_H-M   'P 1'
_cell_length_a   14.86250000
_cell_length_b   16.15670000
_cell_length_c   17.24740000
_cell_angle_alpha   88.93140000
_cell_angle_beta   85.57880000
_cell_angle_gamma   89.22930000
_symmetry_Int_Tables_number   1
_chemical_formula_structural   ZnH6C17(NO2)4
_chemical_formula_sum   'Zn2 H12 C34 N8 O16'
_cell_volume   4128.25798743
_cell_formula_units_Z   2
loop_
 _symmetry_equiv_pos_site_id
 _symmetry_equiv_pos_as_xyz
  1  'x, y, z'
loop_
 _atom_site_type_symbol
 _atom_site_label
 _atom_site_symmetry_multiplicity
 _atom_site_fract_x
 _atom_site_fract_y
 _atom_site_fract_z
 _atom_site_occupancy
  Zn  Zn0  1  0.59410000  0.49781000  0.50057000  1.0
  Zn  Zn1  1  0.40590000  0.50219000  0.49943000  1.0
  H  H2  1  0.58829000  0.57751000  0.74232000  1.0
  H  H3  1  0.41170000  0.42250000  0.25768000  1.0
  H  H4  1  0.58432000  0.57794000  0.88817000  1.0
  H  H5  1  0.41567000  0.42207000  0.11183000  1.0
  H  H6  1  0.64637000  0.58157000  0.09986000  1.0
  H  H7  1  0.35363000  0.41842000  0.90014000  1.0
  H  H8  1  0.64630000  0.92244000  0.49175000  1.0
  H  H9  1  0.35370000  0.07757000  0.50825000  1.0
  H  H10  1  0.64461000  0.07678000  0.49196000  1.0
  H  H11  1  0.35539000  0.92322000  0.50804000  1.0
  H  H12  1  0.09987000  0.56724000  0.39494000  1.0
  H  H13  1  0.90013000  0.43276000  0.60506000  1.0
  C  C14  1  0.50018000  0.66054000  0.49896000  1.0
  C  C15  1  0.49982000  0.33946000  0.50104000  1.0
  C  C16  1  0.51629000  0.50284000  0.34821000  1.0
  C  C17  1  0.48371000  0.49716000  0.65179000  1.0
  C  C18  1  0.52307000  0.50487000  0.26078000  1.0
  C  C19  1  0.47692000  0.49513000  0.73922000  1.0
  C  C20  1  0.46178000  0.45809000  0.22217000  1.0
  C  C21  1  0.53821000  0.54191000  0.77783000  1.0
  C  C22  1  0.46390000  0.45753000  0.14167000  1.0
  C  C23  1  0.53609000  0.54247000  0.85833000  1.0
  C  C24  1  0.52925000  0.50412000  0.09726000  1.0
  C  C25  1  0.47075000  0.49587000  0.90274000  1.0
  C  C26  1  0.59434000  0.54728000  0.13430000  1.0
  C  C27  1  0.40566000  0.45271000  0.86570000  1.0
  C  C28  1  0.58915000  0.54848000  0.21504000  1.0
  C  C29  1  0.41085000  0.45151000  0.78496000  1.0
  C  C30  1  0.58164000  0.04266000  0.49547000  1.0
  C  C31  1  0.41836000  0.95734000  0.50453000  1.0
  C  C32  1  0.49907000  0.08727000  0.50004000  1.0
  C  C33  1  0.50093000  0.91273000  0.49996000  1.0
  C  C34  1  0.41741000  0.04317000  0.50454000  1.0
  C  C35  1  0.58259000  0.95684000  0.49546000  1.0
  C  C36  1  0.49845000  0.17485000  0.50027000  1.0
  C  C37  1  0.50155000  0.82515000  0.49972000  1.0
  C  C38  1  0.50142000  0.74975000  0.49925000  1.0
  C  C39  1  0.49858000  0.25025000  0.50075000  1.0
  C  C40  1  0.96407000  0.54211000  0.43878000  1.0
  C  C41  1  0.03593000  0.45789000  0.56123000  1.0
  C  C42  1  0.90572000  0.50483000  0.49690000  1.0
  C  C43  1  0.09428000  0.49517000  0.50310000  1.0
  C  C44  1  0.94304000  0.46229000  0.55881000  1.0
  C  C45  1  0.05696000  0.53771000  0.44119000  1.0
  C  C46  1  0.81009000  0.50615000  0.49555000  1.0
  C  C47  1  0.18991000  0.49385000  0.50445000  1.0
  N  N48  1  0.53483000  0.51192000  0.01539000  1.0
  N  N49  1  0.46517000  0.48808000  0.98461000  1.0
  N  N50  1  0.26775000  0.50043000  0.49859000  1.0
  N  N51  1  0.73225000  0.49957000  0.50141000  1.0
  N  N52  1  0.65332000  0.60286000  0.25045000  1.0
  N  N53  1  0.34669000  0.39712000  0.74955000  1.0
  N  N54  1  0.92682000  0.58888000  0.37319000  1.0
  N  N55  1  0.07318000  0.41112000  0.62681000  1.0
  O  O56  1  0.57617000  0.62325000  0.50083000  1.0
  O  O57  1  0.42383000  0.37675000  0.49917000  1.0
  O  O58  1  0.42294000  0.62737000  0.49734000  1.0
  O  O59  1  0.57706000  0.37263000  0.50266000  1.0
  O  O60  1  0.58959000  0.49781000  0.38123000  1.0
  O  O61  1  0.41040000  0.50219000  0.61877000  1.0
  O  O62  1  0.43651000  0.50390000  0.38037000  1.0
  O  O63  1  0.56349000  0.49610000  0.61963000  1.0
  O  O64  1  0.73389000  0.59614000  0.22654000  1.0
  O  O65  1  0.62149000  0.65297000  0.29870000  1.0
  O  O66  1  0.26612000  0.40383000  0.77347000  1.0
  O  O67  1  0.37853000  0.34702000  0.70129000  1.0
  O  O68  1  0.97765000  0.59828000  0.31375000  1.0
  O  O69  1  0.84853000  0.61480000  0.38468000  1.0
  O  O70  1  0.02235000  0.40171000  0.68625000  1.0
  O  O71  1  0.15148000  0.38521000  0.61532000  1.0
