# generated using pymatgen
data_Mg3H50C52(NO2)8
_symmetry_space_group_name_H-M   'P 1'
_cell_length_a   15.24340000
_cell_length_b   15.24340000
_cell_length_c   17.09530000
_cell_angle_alpha   70.88600000
_cell_angle_beta   70.88600000
_cell_angle_gamma   70.44110000
_symmetry_Int_Tables_number   1
_chemical_formula_structural   Mg3H50C52(NO2)8
_chemical_formula_sum   'Mg6 H100 C104 N16 O32'
_cell_volume   3429.23705204
_cell_formula_units_Z   2
loop_
 _symmetry_equiv_pos_site_id
 _symmetry_equiv_pos_as_xyz
  1  'x, y, z'
loop_
 _atom_site_type_symbol
 _atom_site_label
 _atom_site_symmetry_multiplicity
 _atom_site_fract_x
 _atom_site_fract_y
 _atom_site_fract_z
 _atom_site_occupancy
  Mg  Mg0  1  0.50000000  0.00000000  0.00000000  1.0
  Mg  Mg1  1  0.00000000  0.50000000  0.50000000  1.0
  Mg  Mg2  1  0.52770000  0.13289000  0.78809000  1.0
  Mg  Mg3  1  0.86711000  0.47230000  0.71191000  1.0
  Mg  Mg4  1  0.47231000  0.86711000  0.21191000  1.0
  Mg  Mg5  1  0.13289000  0.52770000  0.28809000  1.0
  H  H6  1  0.39607000  0.99655000  0.70834000  1.0
  H  H7  1  0.00345000  0.60393000  0.79166000  1.0
  H  H8  1  0.60392000  0.00345000  0.29166000  1.0
  H  H9  1  0.99655000  0.39607000  0.20834000  1.0
  H  H10  1  0.91762000  0.19513000  0.87064000  1.0
  H  H11  1  0.80487000  0.08238000  0.62936000  1.0
  H  H12  1  0.08239000  0.80487000  0.12936000  1.0
  H  H13  1  0.19513000  0.91762000  0.37064000  1.0
  H  H14  1  0.31414000  0.90235000  0.67194000  1.0
  H  H15  1  0.09765000  0.68585000  0.82806000  1.0
  H  H16  1  0.68585000  0.09765000  0.32807000  1.0
  H  H17  1  0.90235000  0.31415000  0.17194000  1.0
  H  H18  1  0.77371000  0.23059000  0.81642000  1.0
  H  H19  1  0.76940000  0.22629000  0.68358000  1.0
  H  H20  1  0.22630000  0.76940000  0.18358000  1.0
  H  H21  1  0.23059000  0.77371000  0.31642000  1.0
  H  H22  1  0.86572000  0.92315000  0.02729000  1.0
  H  H23  1  0.07685000  0.13429000  0.47271000  1.0
  H  H24  1  0.13429000  0.07684000  0.97272000  1.0
  H  H25  1  0.92315000  0.86572000  0.52728000  1.0
  H  H26  1  0.71936000  0.95952000  0.97458000  1.0
  H  H27  1  0.04048000  0.28064000  0.52542000  1.0
  H  H28  1  0.28064000  0.04048000  0.02542000  1.0
  H  H29  1  0.95951000  0.71936000  0.47458000  1.0
  H  H30  1  0.07615000  0.29106000  0.11210000  1.0
  H  H31  1  0.70894000  0.92385000  0.38790000  1.0
  H  H32  1  0.92386000  0.70896000  0.88788000  1.0
  H  H33  1  0.29104000  0.07615000  0.61211000  1.0
  H  H34  1  0.35027000  0.82976000  0.96795000  1.0
  H  H35  1  0.17024000  0.64973000  0.53205000  1.0
  H  H36  1  0.64974000  0.17023000  0.03206000  1.0
  H  H37  1  0.82976000  0.35027000  0.46794000  1.0
  H  H38  1  0.30944000  0.38640000  0.83843000  1.0
  H  H39  1  0.61360000  0.69057000  0.66157000  1.0
  H  H40  1  0.69057000  0.61361000  0.16155000  1.0
  H  H41  1  0.38640000  0.30943000  0.33844000  1.0
  H  H42  1  0.26099000  0.74049000  0.93340000  1.0
  H  H43  1  0.25951000  0.73901000  0.56660000  1.0
  H  H44  1  0.73902000  0.25950000  0.06660000  1.0
  H  H45  1  0.74049000  0.26099000  0.43340000  1.0
  H  H46  1  0.23882000  0.17865000  0.07257000  1.0
  H  H47  1  0.82135000  0.76118000  0.42743000  1.0
  H  H48  1  0.76119000  0.82137000  0.92742000  1.0
  H  H49  1  0.17863000  0.23881000  0.57258000  1.0
  H  H50  1  0.14782000  0.49972000  0.87702000  1.0
  H  H51  1  0.50028000  0.85219000  0.62297000  1.0
  H  H52  1  0.85219000  0.50029000  0.12296000  1.0
  H  H53  1  0.49971000  0.14781000  0.37704000  1.0
  H  H54  1  0.63796000  0.91544000  0.82465000  1.0
  H  H55  1  0.08455000  0.36204000  0.67536000  1.0
  H  H56  1  0.36204000  0.08455000  0.17536000  1.0
  H  H57  1  0.91545000  0.63796000  0.32465000  1.0
  H  H58  1  0.48965000  0.12024000  0.62779000  1.0
  H  H59  1  0.87977000  0.51035000  0.87221000  1.0
  H  H60  1  0.51035000  0.87976000  0.37221000  1.0
  H  H61  1  0.12023000  0.48966000  0.12779000  1.0
  H  H62  1  0.42950000  0.23781000  0.57934000  1.0
  H  H63  1  0.76219000  0.57051000  0.92066000  1.0
  H  H64  1  0.57051000  0.76219000  0.42066000  1.0
  H  H65  1  0.23781000  0.42950000  0.07934000  1.0
  H  H66  1  0.64864000  0.16067000  0.55705000  1.0
  H  H67  1  0.83933000  0.35137000  0.94295000  1.0
  H  H68  1  0.35136000  0.83933000  0.44295000  1.0
  H  H69  1  0.16067000  0.64864000  0.05705000  1.0
  H  H70  1  0.58892000  0.27870000  0.50695000  1.0
  H  H71  1  0.72130000  0.41108000  0.99305000  1.0
  H  H72  1  0.41108000  0.72129000  0.49305000  1.0
  H  H73  1  0.27870000  0.58892000  0.00695000  1.0
  H  H74  1  0.58658000  0.17759000  0.47882000  1.0
  H  H75  1  0.82241000  0.41342000  0.02118000  1.0
  H  H76  1  0.41342000  0.82240000  0.52117000  1.0
  H  H77  1  0.17759000  0.58658000  0.97883000  1.0
  H  H78  1  0.69104000  0.96959000  0.59300000  1.0
  H  H79  1  0.03041000  0.30896000  0.90701000  1.0
  H  H80  1  0.30896000  0.03041000  0.40701000  1.0
  H  H81  1  0.96959000  0.69104000  0.09299000  1.0
  H  H82  1  0.76626000  0.85147000  0.59024000  1.0
  H  H83  1  0.14852000  0.23374000  0.90977000  1.0
  H  H84  1  0.23373000  0.14852000  0.40977000  1.0
  H  H85  1  0.85147000  0.76627000  0.09024000  1.0
  H  H86  1  0.81213000  0.94092000  0.59929000  1.0
  H  H87  1  0.05908000  0.18786000  0.90072000  1.0
  H  H88  1  0.18786000  0.05907000  0.40072000  1.0
  H  H89  1  0.94092000  0.81214000  0.09929000  1.0
  H  H90  1  0.73530000  0.73323000  0.72619000  1.0
  H  H91  1  0.26677000  0.26470000  0.77381000  1.0
  H  H92  1  0.26469000  0.26676000  0.27381000  1.0
  H  H93  1  0.73323000  0.73531000  0.22619000  1.0
  H  H94  1  0.72259000  0.76849000  0.82031000  1.0
  H  H95  1  0.23150000  0.27741000  0.67969000  1.0
  H  H96  1  0.27741000  0.23150000  0.17970000  1.0
  H  H97  1  0.76850000  0.72259000  0.32031000  1.0
  H  H98  1  0.83243000  0.76234000  0.73909000  1.0
  H  H99  1  0.23766000  0.16757000  0.76091000  1.0
  H  H100  1  0.16756000  0.23765000  0.26091000  1.0
  H  H101  1  0.76235000  0.83244000  0.23909000  1.0
  H  H102  1  0.49051000  0.29172000  0.66060000  1.0
  H  H103  1  0.70828000  0.50949000  0.83940000  1.0
  H  H104  1  0.50948000  0.70828000  0.33940000  1.0
  H  H105  1  0.29171000  0.49052000  0.16060000  1.0
  C  C106  1  0.65472000  0.11441000  0.85647000  1.0
  C  C107  1  0.88559000  0.34528000  0.64352000  1.0
  C  C108  1  0.34529000  0.88560000  0.14353000  1.0
  C  C109  1  0.11440000  0.65472000  0.35647000  1.0
  C  C110  1  0.73833000  0.09629000  0.89154000  1.0
  C  C111  1  0.90371000  0.26167000  0.60846000  1.0
  C  C112  1  0.26167000  0.90371000  0.10846000  1.0
  C  C113  1  0.09629000  0.73833000  0.39154000  1.0
  C  C114  1  0.37756000  0.91887000  0.84019000  1.0
  C  C115  1  0.08113000  0.62243000  0.65980000  1.0
  C  C116  1  0.62243000  0.08113000  0.15981000  1.0
  C  C117  1  0.91887000  0.37757000  0.34020000  1.0
  C  C118  1  0.42612000  0.97705000  0.86017000  1.0
  C  C119  1  0.02296000  0.57389000  0.63981000  1.0
  C  C120  1  0.57389000  0.02294000  0.13983000  1.0
  C  C121  1  0.97705000  0.42612000  0.36018000  1.0
  C  C122  1  0.37654000  0.20573000  0.92728000  1.0
  C  C123  1  0.79427000  0.62346000  0.57272000  1.0
  C  C124  1  0.62346000  0.79428000  0.07271000  1.0
  C  C125  1  0.20573000  0.37653000  0.42728000  1.0
  C  C126  1  0.28312000  0.27655000  0.95365000  1.0
  C  C127  1  0.72345000  0.71689000  0.54635000  1.0
  C  C128  1  0.71689000  0.72346000  0.04634000  1.0
  C  C129  1  0.27654000  0.28311000  0.45366000  1.0
  C  C130  1  0.36698000  0.93944000  0.75684000  1.0
  C  C131  1  0.06056000  0.63302000  0.74316000  1.0
  C  C132  1  0.63302000  0.06056000  0.24316000  1.0
  C  C133  1  0.93944000  0.36698000  0.25684000  1.0
  C  C134  1  0.87425000  0.14350000  0.89298000  1.0
  C  C135  1  0.85650000  0.12575000  0.60702000  1.0
  C  C136  1  0.12575000  0.85650000  0.10702000  1.0
  C  C137  1  0.14350000  0.87425000  0.39298000  1.0
  C  C138  1  0.32153000  0.88775000  0.73659000  1.0
  C  C139  1  0.11224000  0.67847000  0.76341000  1.0
  C  C140  1  0.67847000  0.11224000  0.26341000  1.0
  C  C141  1  0.88776000  0.32153000  0.23659000  1.0
  C  C142  1  0.90168000  0.05595000  0.95130000  1.0
  C  C143  1  0.94405000  0.09832000  0.54870000  1.0
  C  C144  1  0.09832000  0.94405000  0.04870000  1.0
  C  C145  1  0.05595000  0.90168000  0.45130000  1.0
  C  C146  1  0.79341000  0.16336000  0.86287000  1.0
  C  C147  1  0.83664000  0.20659000  0.63713000  1.0
  C  C148  1  0.20660000  0.83664000  0.13713000  1.0
  C  C149  1  0.16336000  0.79341000  0.36287000  1.0
  C  C150  1  0.84502000  0.98971000  0.98109000  1.0
  C  C151  1  0.01028000  0.15498000  0.51891000  1.0
  C  C152  1  0.15498000  0.01028000  0.01891000  1.0
  C  C153  1  0.98971000  0.84502000  0.48109000  1.0
  C  C154  1  0.76417000  0.00986000  0.95167000  1.0
  C  C155  1  0.99013000  0.23583000  0.54833000  1.0
  C  C156  1  0.23583000  0.99013000  0.04833000  1.0
  C  C157  1  0.00986000  0.76417000  0.45166000  1.0
  C  C158  1  0.28330000  0.81542000  0.80114000  1.0
  C  C159  1  0.18458000  0.71669000  0.69886000  1.0
  C  C160  1  0.71669000  0.18457000  0.19887000  1.0
  C  C161  1  0.81543000  0.28331000  0.30113000  1.0
  C  C162  1  0.12830000  0.31145000  0.05282000  1.0
  C  C163  1  0.68855000  0.87170000  0.44718000  1.0
  C  C164  1  0.87171000  0.68857000  0.94717000  1.0
  C  C165  1  0.31144000  0.12830000  0.55283000  1.0
  C  C166  1  0.34145000  0.84540000  0.90369000  1.0
  C  C167  1  0.15460000  0.65856000  0.59631000  1.0
  C  C168  1  0.65856000  0.15459000  0.09631000  1.0
  C  C169  1  0.84540000  0.34144000  0.40368000  1.0
  C  C170  1  0.25775000  0.36729000  0.89851000  1.0
  C  C171  1  0.63271000  0.74225000  0.60149000  1.0
  C  C172  1  0.74226000  0.63272000  0.10147000  1.0
  C  C173  1  0.36728000  0.25774000  0.39852000  1.0
  C  C174  1  0.10300000  0.40174000  0.99723000  1.0
  C  C175  1  0.59826000  0.89700000  0.50277000  1.0
  C  C176  1  0.89701000  0.59828000  0.00276000  1.0
  C  C177  1  0.40172000  0.10300000  0.49724000  1.0
  C  C178  1  0.29275000  0.79555000  0.88463000  1.0
  C  C179  1  0.20445000  0.70725000  0.61537000  1.0
  C  C180  1  0.70726000  0.20444000  0.11537000  1.0
  C  C181  1  0.79555000  0.29275000  0.38463000  1.0
  C  C182  1  0.21811000  0.24964000  0.03121000  1.0
  C  C183  1  0.75036000  0.78189000  0.46879000  1.0
  C  C184  1  0.78190000  0.75038000  0.96878000  1.0
  C  C185  1  0.24963000  0.21810000  0.53122000  1.0
  C  C186  1  0.16864000  0.42978000  0.91971000  1.0
  C  C187  1  0.57021000  0.83136000  0.58029000  1.0
  C  C188  1  0.83137000  0.57023000  0.08028000  1.0
  C  C189  1  0.42978000  0.16863000  0.41972000  1.0
  C  C190  1  0.65928000  0.94499000  0.75496000  1.0
  C  C191  1  0.05501000  0.34072000  0.74504000  1.0
  C  C192  1  0.34072000  0.05500000  0.24505000  1.0
  C  C193  1  0.94499000  0.65928000  0.25496000  1.0
  C  C194  1  0.49447000  0.19493000  0.60216000  1.0
  C  C195  1  0.80507000  0.50553000  0.89784000  1.0
  C  C196  1  0.50553000  0.80507000  0.39784000  1.0
  C  C197  1  0.19492000  0.49447000  0.10217000  1.0
  C  C198  1  0.58513000  0.20341000  0.53231000  1.0
  C  C199  1  0.79659000  0.41487000  0.96769000  1.0
  C  C200  1  0.41487000  0.79658000  0.46769000  1.0
  C  C201  1  0.20341000  0.58513000  0.03231000  1.0
  C  C202  1  0.74871000  0.91255000  0.61777000  1.0
  C  C203  1  0.08745000  0.25129000  0.88223000  1.0
  C  C204  1  0.25128000  0.08744000  0.38224000  1.0
  C  C205  1  0.91255000  0.74872000  0.11777000  1.0
  C  C206  1  0.75374000  0.78083000  0.75123000  1.0
  C  C207  1  0.21916000  0.24627000  0.74877000  1.0
  C  C208  1  0.24626000  0.21916000  0.24877000  1.0
  C  C209  1  0.78084000  0.75374000  0.25123000  1.0
  N  N210  1  0.23279000  0.76056000  0.78878000  1.0
  N  N211  1  0.23945000  0.76721000  0.71121000  1.0
  N  N212  1  0.76722000  0.23944000  0.21121000  1.0
  N  N213  1  0.76056000  0.23279000  0.28879000  1.0
  N  N214  1  0.98655000  0.04102000  0.97589000  1.0
  N  N215  1  0.95898000  0.01346000  0.52411000  1.0
  N  N216  1  0.01346000  0.95898000  0.02412000  1.0
  N  N217  1  0.04102000  0.98654000  0.47589000  1.0
  N  N218  1  0.01014000  0.45857000  0.02465000  1.0
  N  N219  1  0.54143000  0.98987000  0.47535000  1.0
  N  N220  1  0.98988000  0.54145000  0.97534000  1.0
  N  N221  1  0.45855000  0.01013000  0.52466000  1.0
  N  N222  1  0.71692000  0.88102000  0.71021000  1.0
  N  N223  1  0.11898000  0.28308000  0.78979000  1.0
  N  N224  1  0.28308000  0.11898000  0.28979000  1.0
  N  N225  1  0.88102000  0.71692000  0.21021000  1.0
  O  O226  1  0.45656000  0.94342000  0.92752000  1.0
  O  O227  1  0.05659000  0.54344000  0.57247000  1.0
  O  O228  1  0.54344000  0.05658000  0.07247000  1.0
  O  O229  1  0.94341000  0.45656000  0.42753000  1.0
  O  O230  1  0.59752000  0.05821000  0.89091000  1.0
  O  O231  1  0.94179000  0.40248000  0.60909000  1.0
  O  O232  1  0.40249000  0.94179000  0.10909000  1.0
  O  O233  1  0.05821000  0.59752000  0.39091000  1.0
  O  O234  1  0.64204000  0.18140000  0.79039000  1.0
  O  O235  1  0.81860000  0.35795000  0.70961000  1.0
  O  O236  1  0.35796000  0.81860000  0.20961000  1.0
  O  O237  1  0.18139000  0.64205000  0.29039000  1.0
  O  O238  1  0.42681000  0.22975000  0.85174000  1.0
  O  O239  1  0.77024000  0.57319000  0.64827000  1.0
  O  O240  1  0.57320000  0.77025000  0.14826000  1.0
  O  O241  1  0.22975000  0.42681000  0.35175000  1.0
  O  O242  1  0.39559000  0.12679000  0.98166000  1.0
  O  O243  1  0.87321000  0.60441000  0.51834000  1.0
  O  O244  1  0.60441000  0.87322000  0.01833000  1.0
  O  O245  1  0.12678000  0.39560000  0.48167000  1.0
  O  O246  1  0.43386000  0.05685000  0.80650000  1.0
  O  O247  1  0.94315000  0.56614000  0.69349000  1.0
  O  O248  1  0.56614000  0.94315000  0.19350000  1.0
  O  O249  1  0.05685000  0.43386000  0.30651000  1.0
  O  O250  1  0.49246000  0.22400000  0.67576000  1.0
  O  O251  1  0.77600000  0.50755000  0.82424000  1.0
  O  O252  1  0.50755000  0.77600000  0.32424000  1.0
  O  O253  1  0.22399000  0.49246000  0.17576000  1.0
  O  O254  1  0.63050000  0.03264000  0.72102000  1.0
  O  O255  1  0.96735000  0.36949000  0.77899000  1.0
  O  O256  1  0.36950000  0.96735000  0.27898000  1.0
  O  O257  1  0.03265000  0.63050000  0.22101000  1.0
