# generated using pymatgen
data_ZnH8C10NClO2
_symmetry_space_group_name_H-M   'P 1'
_cell_length_a   7.09202000
_cell_length_b   7.34547000
_cell_length_c   10.17810000
_cell_angle_alpha   75.45120000
_cell_angle_beta   75.11310000
_cell_angle_gamma   85.29320000
_symmetry_Int_Tables_number   1
_chemical_formula_structural   ZnH8C10NClO2
_chemical_formula_sum   'Zn2 H16 C20 N2 Cl2 O4'
_cell_volume   495.90492028
_cell_formula_units_Z   2
loop_
 _symmetry_equiv_pos_site_id
 _symmetry_equiv_pos_as_xyz
  1  'x, y, z'
loop_
 _atom_site_type_symbol
 _atom_site_label
 _atom_site_symmetry_multiplicity
 _atom_site_fract_x
 _atom_site_fract_y
 _atom_site_fract_z
 _atom_site_occupancy
  Zn  Zn0  1  0.09906000  0.66037000  0.32151000  1.0
  Zn  Zn1  1  0.90095000  0.33963000  0.67849000  1.0
  H  H2  1  0.37282000  0.67500000  0.60292000  1.0
  H  H3  1  0.62718000  0.32500000  0.39708000  1.0
  H  H4  1  0.85512000  0.05613000  0.44838000  1.0
  H  H5  1  0.14488000  0.94386000  0.55163000  1.0
  H  H6  1  0.99842000  0.04400000  0.19636000  1.0
  H  H7  1  0.00158000  0.95600000  0.80363000  1.0
  H  H8  1  0.15627000  0.35080000  0.08800000  1.0
  H  H9  1  0.84373000  0.64920000  0.91200000  1.0
  H  H10  1  0.70632000  0.06852000  0.12806000  1.0
  H  H11  1  0.29368000  0.93148000  0.87194000  1.0
  H  H12  1  0.52434000  0.77324000  0.24051000  1.0
  H  H13  1  0.47566000  0.22677000  0.75949000  1.0
  H  H14  1  0.69328000  0.38956000  0.96226000  1.0
  H  H15  1  0.30671000  0.61045000  0.03774000  1.0
  H  H16  1  0.60436000  0.45809000  0.12012000  1.0
  H  H17  1  0.39564000  0.54191000  0.87987000  1.0
  C  C18  1  0.42779000  0.81740000  0.55827000  1.0
  C  C19  1  0.57221000  0.18259000  0.44174000  1.0
  C  C20  1  0.62864000  0.84871000  0.52723000  1.0
  C  C21  1  0.37136000  0.15129000  0.47277000  1.0
  C  C22  1  0.69983000  0.03166000  0.46888000  1.0
  C  C23  1  0.30017000  0.96833000  0.53112000  1.0
  C  C24  1  0.76720000  0.68938000  0.55769000  1.0
  C  C25  1  0.23280000  0.31061000  0.44231000  1.0
  C  C26  1  0.15524000  0.05647000  0.18054000  1.0
  C  C27  1  0.84476000  0.94353000  0.81946000  1.0
  C  C28  1  0.24579000  0.22798000  0.11911000  1.0
  C  C29  1  0.75421000  0.77202000  0.88089000  1.0
  C  C30  1  0.44790000  0.23834000  0.09912000  1.0
  C  C31  1  0.55209000  0.76166000  0.90088000  1.0
  C  C32  1  0.54854000  0.07067000  0.14278000  1.0
  C  C33  1  0.45146000  0.92933000  0.85722000  1.0
  C  C34  1  0.44847000  0.90436000  0.20488000  1.0
  C  C35  1  0.55153000  0.09565000  0.79512000  1.0
  C  C36  1  0.55711000  0.41865000  0.03585000  1.0
  C  C37  1  0.44289000  0.58135000  0.96415000  1.0
  N  N38  1  0.25347000  0.89704000  0.22376000  1.0
  N  N39  1  0.74653000  0.10297000  0.77624000  1.0
  Cl  Cl40  1  0.89308000  0.62114000  0.20007000  1.0
  Cl  Cl41  1  0.10692000  0.37886000  0.79993000  1.0
  O  O42  1  0.95009000  0.71417000  0.50490000  1.0
  O  O43  1  0.04991000  0.28583000  0.49510000  1.0
  O  O44  1  0.69735000  0.53403000  0.63878000  1.0
  O  O45  1  0.30266000  0.46596000  0.36121000  1.0
