# generated using pymatgen
data_MnH14C23N3ClO4
_symmetry_space_group_name_H-M   'P 1'
_cell_length_a   8.57487000
_cell_length_b   10.44000000
_cell_length_c   10.90640000
_cell_angle_alpha   79.60950000
_cell_angle_beta   88.00840000
_cell_angle_gamma   79.69120000
_symmetry_Int_Tables_number   1
_chemical_formula_structural   MnH14C23N3ClO4
_chemical_formula_sum   'Mn2 H28 C46 N6 Cl2 O8'
_cell_volume   944.84246436
_cell_formula_units_Z   2
loop_
 _symmetry_equiv_pos_site_id
 _symmetry_equiv_pos_as_xyz
  1  'x, y, z'
loop_
 _atom_site_type_symbol
 _atom_site_label
 _atom_site_symmetry_multiplicity
 _atom_site_fract_x
 _atom_site_fract_y
 _atom_site_fract_z
 _atom_site_occupancy
  Mn  Mn0  1  0.28633000  0.17613000  0.21139000  1.0
  Mn  Mn1  1  0.71367000  0.82387000  0.78861000  1.0
  H  H2  1  0.12153000  0.35051000  0.38273000  1.0
  H  H3  1  0.87846000  0.64949000  0.61727000  1.0
  H  H4  1  0.56324000  0.04190000  0.41084000  1.0
  H  H5  1  0.43676000  0.95811000  0.58916000  1.0
  H  H6  1  0.84461000  0.92623000  0.41048000  1.0
  H  H7  1  0.15539000  0.07378000  0.58953000  1.0
  H  H8  1  0.97887000  0.90749000  0.20510000  1.0
  H  H9  1  0.02113000  0.09251000  0.79490000  1.0
  H  H10  1  0.83149000  0.01655000  0.00806000  1.0
  H  H11  1  0.16851000  0.98345000  0.99194000  1.0
  H  H12  1  0.71354000  0.15753000  0.86001000  1.0
  H  H13  1  0.28646000  0.84247000  0.13999000  1.0
  H  H14  1  0.25128000  0.36729000  0.73594000  1.0
  H  H15  1  0.74871000  0.63271000  0.26406000  1.0
  H  H16  1  0.91124000  0.25062000  0.22970000  1.0
  H  H17  1  0.08876000  0.74938000  0.77030000  1.0
  H  H18  1  0.68456000  0.38333000  0.09610000  1.0
  H  H19  1  0.31544000  0.61667000  0.90390000  1.0
  H  H20  1  0.73955000  0.47140000  0.87228000  1.0
  H  H21  1  0.26045000  0.52860000  0.12772000  1.0
  H  H22  1  0.01544000  0.41837000  0.78913000  1.0
  H  H23  1  0.98456000  0.58163000  0.21087000  1.0
  H  H24  1  0.33814000  0.30388000  0.56024000  1.0
  H  H25  1  0.66185000  0.69612000  0.43976000  1.0
  H  H26  1  0.72859000  0.39036000  0.32221000  1.0
  H  H27  1  0.27141000  0.60964000  0.67779000  1.0
  H  H28  1  0.79376000  0.30435000  0.71867000  1.0
  H  H29  1  0.20624000  0.69565000  0.28133000  1.0
  C  C30  1  0.52708000  0.16489000  0.99827000  1.0
  C  C31  1  0.47292000  0.83511000  0.00173000  1.0
  C  C32  1  0.62128000  0.09014000  0.10732000  1.0
  C  C33  1  0.37872000  0.90986000  0.89269000  1.0
  C  C34  1  0.62743000  0.03469000  0.32354000  1.0
  C  C35  1  0.37257000  0.96531000  0.67646000  1.0
  C  C36  1  0.78364000  0.96912000  0.32289000  1.0
  C  C37  1  0.21635000  0.03088000  0.67712000  1.0
  C  C38  1  0.85784000  0.96061000  0.20802000  1.0
  C  C39  1  0.14216000  0.03939000  0.79198000  1.0
  C  C40  1  0.77633000  0.02202000  0.09893000  1.0
  C  C41  1  0.22367000  0.97797000  0.90107000  1.0
  C  C42  1  0.58987000  0.19426000  0.87897000  1.0
  C  C43  1  0.41013000  0.80574000  0.12103000  1.0
  C  C44  1  0.49194000  0.26955000  0.78185000  1.0
  C  C45  1  0.50806000  0.73044000  0.21815000  1.0
  C  C46  1  0.33159000  0.31050000  0.80903000  1.0
  C  C47  1  0.66841000  0.68949000  0.19097000  1.0
  C  C48  1  0.27587000  0.27690000  0.93014000  1.0
  C  C49  1  0.72413000  0.72310000  0.06986000  1.0
  C  C50  1  0.10882000  0.31224000  0.96828000  1.0
  C  C51  1  0.89118000  0.68776000  0.03172000  1.0
  C  C52  1  0.92845000  0.29122000  0.13193000  1.0
  C  C53  1  0.07155000  0.70878000  0.86807000  1.0
  C  C54  1  0.80350000  0.36406000  0.05694000  1.0
  C  C55  1  0.19650000  0.63594000  0.94307000  1.0
  C  C56  1  0.83524000  0.41225000  0.93240000  1.0
  C  C57  1  0.16476000  0.58775000  0.06760000  1.0
  C  C58  1  0.98926000  0.38458000  0.88678000  1.0
  C  C59  1  0.01074000  0.61542000  0.11321000  1.0
  C  C60  1  0.55639000  0.30365000  0.65556000  1.0
  C  C61  1  0.44361000  0.69635000  0.34444000  1.0
  C  C62  1  0.46105000  0.31879000  0.54997000  1.0
  C  C63  1  0.53894000  0.68121000  0.45003000  1.0
  C  C64  1  0.52346000  0.35063000  0.43040000  1.0
  C  C65  1  0.47654000  0.64937000  0.56960000  1.0
  C  C66  1  0.42817000  0.36195000  0.31500000  1.0
  C  C67  1  0.57183000  0.63806000  0.68500000  1.0
  C  C68  1  0.68209000  0.36578000  0.41581000  1.0
  C  C69  1  0.31791000  0.63423000  0.58419000  1.0
  C  C70  1  0.77963000  0.34670000  0.51989000  1.0
  C  C71  1  0.22037000  0.65330000  0.48011000  1.0
  C  C72  1  0.95291000  0.34853000  0.50708000  1.0
  C  C73  1  0.04709000  0.65147000  0.49292000  1.0
  C  C74  1  0.71583000  0.31714000  0.63906000  1.0
  C  C75  1  0.28417000  0.68286000  0.36094000  1.0
  N  N76  1  0.37279000  0.20596000  0.02237000  1.0
  N  N77  1  0.62721000  0.79403000  0.97763000  1.0
  N  N78  1  0.54742000  0.09326000  0.21874000  1.0
  N  N79  1  0.45258000  0.90674000  0.78126000  1.0
  N  N80  1  0.07793000  0.26789000  0.08979000  1.0
  N  N81  1  0.92207000  0.73211000  0.91021000  1.0
  Cl  Cl82  1  0.19197000  0.00883000  0.34104000  1.0
  Cl  Cl83  1  0.80803000  0.99117000  0.65897000  1.0
  O  O84  1  0.29939000  0.30871000  0.32931000  1.0
  O  O85  1  0.70061000  0.69129000  0.67069000  1.0
  O  O86  1  0.47631000  0.41303000  0.21188000  1.0
  O  O87  1  0.52369000  0.58697000  0.78812000  1.0
  O  O88  1  0.04241000  0.33426000  0.59650000  1.0
  O  O89  1  0.95759000  0.66575000  0.40350000  1.0
  O  O90  1  0.00192000  0.36333000  0.38842000  1.0
  O  O91  1  0.99808000  0.63667000  0.61158000  1.0
