# generated using pymatgen
data_ZnH14C27(NO2)2
_symmetry_space_group_name_H-M   'P 1'
_cell_length_a   14.70610000
_cell_length_b   16.09940000
_cell_length_c   17.30120000
_cell_angle_alpha   88.92100000
_cell_angle_beta   73.81300000
_cell_angle_gamma   78.37000000
_symmetry_Int_Tables_number   1
_chemical_formula_structural   ZnH14C27(NO2)2
_chemical_formula_sum   'Zn2 H28 C54 N4 O8'
_cell_volume   3850.03108874
_cell_formula_units_Z   2
loop_
 _symmetry_equiv_pos_site_id
 _symmetry_equiv_pos_as_xyz
  1  'x, y, z'
loop_
 _atom_site_type_symbol
 _atom_site_label
 _atom_site_symmetry_multiplicity
 _atom_site_fract_x
 _atom_site_fract_y
 _atom_site_fract_z
 _atom_site_occupancy
  Zn  Zn0  1  0.59846000  0.50919000  0.47304000  1.0
  Zn  Zn1  1  0.40159000  0.49503000  0.52883000  1.0
  H  H2  1  0.38750000  0.42365000  0.77321000  1.0
  H  H3  1  0.31308000  0.36149000  0.62745000  1.0
  H  H4  1  0.15720000  0.30941000  0.65456000  1.0
  H  H5  1  0.84024000  0.69829000  0.34884000  1.0
  H  H6  1  0.86925000  0.40080000  0.57262000  1.0
  H  H7  1  0.13041000  0.60447000  0.42758000  1.0
  H  H8  1  0.35140000  0.43860000  0.30536000  1.0
  H  H9  1  0.66221000  0.49803000  0.70076000  1.0
  H  H10  1  0.42664000  0.38844000  0.02697000  1.0
  H  H11  1  0.62934000  0.43021000  0.96825000  1.0
  H  H12  1  0.68536000  0.46408000  0.83613000  1.0
  H  H13  1  0.65010000  0.45512000  0.22143000  1.0
  H  H14  1  0.35327000  0.40143000  0.16550000  1.0
  H  H15  1  0.65414000  0.41765000  0.08210000  1.0
  H  H16  1  0.40990000  0.38757000  0.90743000  1.0
  H  H17  1  0.75511000  0.94851000  0.48818000  1.0
  H  H18  1  0.25286000  0.05415000  0.49322000  1.0
  H  H19  1  0.26470000  0.75749000  0.49572000  1.0
  H  H20  1  0.74209000  0.24380000  0.49958000  1.0
  H  H21  1  0.78935000  0.08485000  0.49896000  1.0
  H  H22  1  0.21761000  0.91557000  0.48922000  1.0
  H  H23  1  0.64508000  0.85581000  0.48491000  1.0
  H  H24  1  0.36192000  0.14744000  0.49619000  1.0
  H  H25  1  0.99211000  0.32676000  0.63416000  1.0
  H  H26  1  0.00683000  0.67962000  0.36739000  1.0
  H  H27  1  0.77373000  0.45635000  0.51772000  1.0
  H  H28  1  0.22729000  0.54714000  0.48081000  1.0
  H  H29  1  0.68404000  0.64696000  0.37725000  1.0
  C  C30  1  0.57845000  0.33799000  0.48789000  1.0
  C  C31  1  0.47057000  0.81185000  0.51392000  1.0
  C  C32  1  0.55609000  0.10263000  0.48605000  1.0
  C  C33  1  0.45028000  0.90165000  0.50183000  1.0
  C  C34  1  0.65127000  0.06534000  0.49105000  1.0
  C  C35  1  0.35535000  0.93765000  0.49576000  1.0
  C  C36  1  0.48788000  0.04705000  0.49109000  1.0
  C  C37  1  0.51866000  0.95721000  0.49478000  1.0
  C  C38  1  0.61789000  0.92378000  0.48884000  1.0
  C  C39  1  0.38905000  0.07961000  0.49462000  1.0
  C  C40  1  0.68041000  0.97563000  0.48954000  1.0
  C  C41  1  0.43074000  0.66579000  0.50919000  1.0
  C  C42  1  0.32691000  0.02723000  0.49397000  1.0
  C  C43  1  0.16953000  0.36280000  0.61609000  1.0
  C  C44  1  0.82865000  0.64423000  0.38655000  1.0
  C  C45  1  0.50673000  0.48777000  0.64909000  1.0
  C  C46  1  0.49715000  0.48105000  0.35366000  1.0
  C  C47  1  0.25498000  0.39072000  0.60192000  1.0
  C  C48  1  0.74312000  0.61638000  0.40106000  1.0
  C  C49  1  0.20647000  0.49573000  0.51911000  1.0
  C  C50  1  0.79345000  0.50924000  0.48115000  1.0
  C  C51  1  0.11647000  0.47253000  0.52972000  1.0
  C  C52  1  0.60213000  0.24245000  0.48590000  1.0
  C  C53  1  0.88310000  0.53300000  0.47090000  1.0
  C  C54  1  0.09743000  0.40366000  0.58070000  1.0
  C  C55  1  0.90153000  0.60259000  0.42075000  1.0
  C  C56  1  0.04462000  0.51586000  0.49237000  1.0
  C  C57  1  0.95511000  0.48946000  0.50796000  1.0
  C  C58  1  0.93830000  0.42070000  0.55990000  1.0
  C  C59  1  0.06123000  0.58479000  0.44059000  1.0
  C  C60  1  0.00664000  0.37906000  0.59469000  1.0
  C  C61  1  0.99247000  0.62702000  0.40650000  1.0
  C  C62  1  0.52265000  0.46427000  0.72905000  1.0
  C  C63  1  0.40489000  0.76115000  0.50822000  1.0
  C  C64  1  0.49940000  0.45306000  0.27119000  1.0
  C  C65  1  0.45268000  0.43195000  0.78777000  1.0
  C  C66  1  0.58527000  0.44416000  0.20799000  1.0
  C  C67  1  0.46574000  0.41198000  0.86283000  1.0
  C  C68  1  0.58687000  0.42304000  0.13025000  1.0
  C  C69  1  0.54893000  0.42484000  0.88257000  1.0
  C  C70  1  0.50238000  0.41027000  0.11269000  1.0
  C  C71  1  0.62022000  0.45437000  0.82205000  1.0
  C  C72  1  0.41850000  0.41367000  0.17762000  1.0
  C  C73  1  0.60759000  0.47368000  0.74660000  1.0
  C  C74  1  0.71781000  0.11623000  0.49504000  1.0
  C  C75  1  0.41668000  0.43517000  0.25558000  1.0
  C  C76  1  0.56160000  0.41600000  0.96297000  1.0
  C  C77  1  0.49554000  0.40113000  0.03106000  1.0
  C  C78  1  0.55174000  0.77170000  0.54100000  1.0
  C  C79  1  0.45415000  0.23591000  0.45248000  1.0
  C  C80  1  0.28911000  0.88549000  0.49424000  1.0
  C  C81  1  0.69286000  0.20317000  0.49481000  1.0
  C  C82  1  0.31412000  0.79877000  0.49834000  1.0
  C  C83  1  0.53597000  0.19330000  0.47761000  1.0
  N  N84  1  0.27224000  0.45709000  0.55433000  1.0
  N  N85  1  0.72683000  0.54876000  0.44718000  1.0
  N  N86  1  0.61425000  0.74118000  0.56863000  1.0
  N  N87  1  0.39063000  0.26736000  0.42634000  1.0
  O  O88  1  0.64882000  0.37617000  0.47223000  1.0
  O  O89  1  0.36219000  0.62662000  0.53679000  1.0
  O  O90  1  0.48924000  0.37243000  0.50778000  1.0
  O  O91  1  0.51940000  0.63266000  0.47911000  1.0
  O  O92  1  0.57792000  0.50613000  0.59504000  1.0
  O  O93  1  0.41552000  0.49600000  0.40711000  1.0
  O  O94  1  0.42343000  0.48731000  0.64041000  1.0
  O  O95  1  0.57768000  0.48812000  0.36454000  1.0
