# generated using pymatgen
data_MnH6C6(N2O)4
_symmetry_space_group_name_H-M   'P 1'
_cell_length_a   8.41012000
_cell_length_b   8.46532000
_cell_length_c   9.67382000
_cell_angle_alpha   114.92000000
_cell_angle_beta   90.00160000
_cell_angle_gamma   119.78200000
_symmetry_Int_Tables_number   1
_chemical_formula_structural   MnH6C6(N2O)4
_chemical_formula_sum   'Mn2 H12 C12 N16 O8'
_cell_volume   522.58401316
_cell_formula_units_Z   2
loop_
 _symmetry_equiv_pos_site_id
 _symmetry_equiv_pos_as_xyz
  1  'x, y, z'
loop_
 _atom_site_type_symbol
 _atom_site_label
 _atom_site_symmetry_multiplicity
 _atom_site_fract_x
 _atom_site_fract_y
 _atom_site_fract_z
 _atom_site_occupancy
  Mn  Mn0  1  0.95980000  0.00000000  0.25000000  1.0
  Mn  Mn1  1  0.04020000  0.00000000  0.75000000  1.0
  H  H2  1  0.37470000  0.36924000  0.65121000  1.0
  H  H3  1  0.00545000  0.63077000  0.84880000  1.0
  H  H4  1  0.62531000  0.63077000  0.34879000  1.0
  H  H5  1  0.99455000  0.36923000  0.15120000  1.0
  H  H6  1  0.51399000  0.92401000  0.83682000  1.0
  H  H7  1  0.58998000  0.07600000  0.66318000  1.0
  H  H8  1  0.48601000  0.07599000  0.16318000  1.0
  H  H9  1  0.41002000  0.92400000  0.33682000  1.0
  H  H10  1  0.58185000  0.75801000  0.70853000  1.0
  H  H11  1  0.82383000  0.24199000  0.79147000  1.0
  H  H12  1  0.41815000  0.24199000  0.29147000  1.0
  H  H13  1  0.17617000  0.75801000  0.20853000  1.0
  C  C14  1  0.33958000  0.44256000  0.75753000  1.0
  C  C15  1  0.89702000  0.55745000  0.74247000  1.0
  C  C16  1  0.66042000  0.55744000  0.24247000  1.0
  C  C17  1  0.10297000  0.44255000  0.25753000  1.0
  C  C18  1  0.55996000  0.81939000  0.82626000  1.0
  C  C19  1  0.74056000  0.18061000  0.67375000  1.0
  C  C20  1  0.44004000  0.18061000  0.17374000  1.0
  C  C21  1  0.25944000  0.81939000  0.32625000  1.0
  C  C22  1  0.74721000  0.94754000  0.95435000  1.0
  C  C23  1  0.79967000  0.05245000  0.54565000  1.0
  C  C24  1  0.25279000  0.05246000  0.04565000  1.0
  C  C25  1  0.20033000  0.94755000  0.45435000  1.0
  N  N26  1  0.21111000  0.34622000  0.82151000  1.0
  N  N27  1  0.86489000  0.65379000  0.67849000  1.0
  N  N28  1  0.78888000  0.65377000  0.17849000  1.0
  N  N29  1  0.13511000  0.34621000  0.32151000  1.0
  N  N30  1  0.20421000  0.49649000  0.94656000  1.0
  N  N31  1  0.70773000  0.50353000  0.55344000  1.0
  N  N32  1  0.79579000  0.50351000  0.05344000  1.0
  N  N33  1  0.29227000  0.49647000  0.44656000  1.0
  N  N34  1  0.32310000  0.67790000  0.95936000  1.0
  N  N35  1  0.64520000  0.32211000  0.54064000  1.0
  N  N36  1  0.67689000  0.32209000  0.04063000  1.0
  N  N37  1  0.35480000  0.67789000  0.45936000  1.0
  N  N38  1  0.40949000  0.64692000  0.84159000  1.0
  N  N39  1  0.76257000  0.35309000  0.65842000  1.0
  N  N40  1  0.59051000  0.35308000  0.15841000  1.0
  N  N41  1  0.23743000  0.64691000  0.34159000  1.0
  O  O42  1  0.74020000  0.93115000  0.07849000  1.0
  O  O43  1  0.80905000  0.06883000  0.42151000  1.0
  O  O44  1  0.25980000  0.06885000  0.92151000  1.0
  O  O45  1  0.19095000  0.93117000  0.57849000  1.0
  O  O46  1  0.89382000  0.06688000  0.92631000  1.0
  O  O47  1  0.82693000  0.93311000  0.57371000  1.0
  O  O48  1  0.10618000  0.93312000  0.07369000  1.0
  O  O49  1  0.17307000  0.06689000  0.42629000  1.0
