# generated using pymatgen
data_CuH13C20N3O5
_symmetry_space_group_name_H-M   'P 1'
_cell_length_a   19.38410000
_cell_length_b   19.38300000
_cell_length_c   19.65710000
_cell_angle_alpha   60.46350000
_cell_angle_beta   60.45940000
_cell_angle_gamma   60.02750000
_symmetry_Int_Tables_number   1
_chemical_formula_structural   CuH13C20N3O5
_chemical_formula_sum   'Cu6 H78 C120 N18 O30'
_cell_volume   5259.64788256
_cell_formula_units_Z   6
loop_
 _symmetry_equiv_pos_site_id
 _symmetry_equiv_pos_as_xyz
  1  'x, y, z'
loop_
 _atom_site_type_symbol
 _atom_site_label
 _atom_site_symmetry_multiplicity
 _atom_site_fract_x
 _atom_site_fract_y
 _atom_site_fract_z
 _atom_site_occupancy
  Cu  Cu0  1  0.04144000  0.48716000  0.42965000  1.0
  Cu  Cu1  1  0.04182000  0.04143000  0.42962000  1.0
  Cu  Cu2  1  0.48712000  0.04176000  0.42966000  1.0
  Cu  Cu3  1  0.95857000  0.51283000  0.57035000  1.0
  Cu  Cu4  1  0.95819000  0.95856000  0.57039000  1.0
  Cu  Cu5  1  0.51287000  0.95824000  0.57034000  1.0
  H  H6  1  0.96315000  0.60360000  0.13539000  1.0
  H  H7  1  0.29791000  0.96326000  0.13532000  1.0
  H  H8  1  0.60357000  0.29776000  0.13545000  1.0
  H  H9  1  0.03684000  0.39641000  0.86461000  1.0
  H  H10  1  0.70210000  0.03674000  0.86468000  1.0
  H  H11  1  0.39646000  0.70223000  0.86455000  1.0
  H  H12  1  0.71306000  0.74414000  0.11991000  1.0
  H  H13  1  0.42253000  0.71323000  0.11971000  1.0
  H  H14  1  0.74448000  0.42263000  0.11978000  1.0
  H  H15  1  0.28694000  0.25587000  0.88009000  1.0
  H  H16  1  0.57747000  0.28678000  0.88026000  1.0
  H  H17  1  0.25552000  0.57738000  0.88022000  1.0
  H  H18  1  0.00821000  0.56148000  0.01322000  1.0
  H  H19  1  0.41718000  0.00828000  0.01307000  1.0
  H  H20  1  0.56148000  0.41700000  0.01328000  1.0
  H  H21  1  0.99178000  0.43852000  0.98679000  1.0
  H  H22  1  0.58282000  0.99172000  0.98693000  1.0
  H  H23  1  0.43853000  0.58299000  0.98671000  1.0
  H  H24  1  0.75720000  0.70681000  0.99687000  1.0
  H  H25  1  0.53875000  0.75733000  0.99655000  1.0
  H  H26  1  0.70715000  0.53889000  0.99678000  1.0
  H  H27  1  0.24279000  0.29319000  0.00314000  1.0
  H  H28  1  0.46124000  0.24269000  0.00342000  1.0
  H  H29  1  0.29284000  0.46111000  0.00322000  1.0
  H  H30  1  0.80459000  0.64936000  0.90855000  1.0
  H  H31  1  0.63738000  0.80471000  0.90845000  1.0
  H  H32  1  0.64981000  0.63726000  0.90835000  1.0
  H  H33  1  0.19540000  0.35064000  0.09146000  1.0
  H  H34  1  0.36263000  0.19530000  0.09154000  1.0
  H  H35  1  0.35019000  0.36275000  0.09164000  1.0
  H  H36  1  0.77694000  0.77018000  0.77683000  1.0
  H  H37  1  0.67615000  0.77707000  0.77654000  1.0
  H  H38  1  0.77037000  0.67592000  0.77643000  1.0
  H  H39  1  0.22307000  0.22982000  0.22317000  1.0
  H  H40  1  0.32385000  0.22294000  0.22345000  1.0
  H  H41  1  0.22963000  0.32407000  0.22357000  1.0
  H  H42  1  0.98408000  0.71513000  0.84431000  1.0
  H  H43  1  0.45642000  0.98394000  0.84434000  1.0
  H  H44  1  0.71554000  0.45588000  0.84463000  1.0
  H  H45  1  0.01592000  0.28487000  0.15569000  1.0
  H  H46  1  0.54359000  0.01607000  0.15565000  1.0
  H  H47  1  0.28446000  0.54411000  0.15538000  1.0
  H  H48  1  0.62766000  0.84161000  0.32179000  1.0
  H  H49  1  0.20903000  0.62757000  0.32193000  1.0
  H  H50  1  0.84181000  0.20894000  0.32172000  1.0
  H  H51  1  0.37234000  0.15839000  0.67822000  1.0
  H  H52  1  0.79097000  0.37243000  0.67807000  1.0
  H  H53  1  0.15820000  0.79105000  0.67828000  1.0
  H  H54  1  0.86105000  0.63272000  0.32048000  1.0
  H  H55  1  0.18585000  0.86104000  0.32064000  1.0
  H  H56  1  0.63278000  0.18570000  0.32054000  1.0
  H  H57  1  0.13895000  0.36728000  0.67954000  1.0
  H  H58  1  0.81416000  0.13895000  0.67936000  1.0
  H  H59  1  0.36722000  0.81433000  0.67947000  1.0
  H  H60  1  0.73457000  0.74397000  0.51227000  1.0
  H  H61  1  0.00916000  0.73449000  0.51231000  1.0
  H  H62  1  0.74406000  0.00923000  0.51231000  1.0
  H  H63  1  0.26542000  0.25601000  0.48774000  1.0
  H  H64  1  0.99085000  0.26551000  0.48769000  1.0
  H  H65  1  0.25595000  0.99077000  0.48769000  1.0
  H  H66  1  0.80392000  0.90171000  0.66846000  1.0
  H  H67  1  0.62604000  0.80398000  0.66822000  1.0
  H  H68  1  0.90187000  0.62575000  0.66816000  1.0
  H  H69  1  0.19609000  0.09829000  0.33153000  1.0
  H  H70  1  0.37396000  0.19602000  0.33177000  1.0
  H  H71  1  0.09814000  0.37424000  0.33184000  1.0
  H  H72  1  0.99979000  0.85169000  0.73521000  1.0
  H  H73  1  0.41329000  0.99955000  0.73526000  1.0
  H  H74  1  0.85203000  0.41283000  0.73541000  1.0
  H  H75  1  0.00021000  0.14830000  0.26480000  1.0
  H  H76  1  0.58672000  0.00045000  0.26474000  1.0
  H  H77  1  0.14798000  0.58716000  0.26460000  1.0
  H  H78  1  0.90029000  0.60234000  0.84049000  1.0
  H  H79  1  0.65681000  0.90041000  0.84034000  1.0
  H  H80  1  0.60279000  0.65653000  0.84033000  1.0
  H  H81  1  0.09970000  0.39766000  0.15952000  1.0
  H  H82  1  0.34318000  0.09960000  0.15966000  1.0
  H  H83  1  0.39721000  0.34346000  0.15967000  1.0
  C  C84  1  0.83587000  0.67588000  0.13500000  1.0
  C  C85  1  0.35317000  0.83597000  0.13494000  1.0
  C  C86  1  0.67596000  0.35310000  0.13502000  1.0
  C  C87  1  0.16412000  0.32412000  0.86500000  1.0
  C  C88  1  0.64683000  0.16402000  0.86505000  1.0
  C  C89  1  0.32405000  0.64690000  0.86498000  1.0
  C  C90  1  0.74486000  0.73639000  0.31288000  1.0
  C  C91  1  0.20596000  0.74486000  0.31300000  1.0
  C  C92  1  0.73648000  0.20585000  0.31288000  1.0
  C  C93  1  0.25513000  0.26361000  0.68713000  1.0
  C  C94  1  0.79404000  0.25514000  0.68699000  1.0
  C  C95  1  0.26353000  0.79415000  0.68712000  1.0
  C  C96  1  0.60704000  0.86933000  0.45531000  1.0
  C  C97  1  0.06848000  0.60692000  0.45537000  1.0
  C  C98  1  0.86938000  0.06840000  0.45529000  1.0
  C  C99  1  0.39296000  0.13067000  0.54470000  1.0
  C  C100  1  0.93153000  0.39307000  0.54462000  1.0
  C  C101  1  0.13063000  0.93160000  0.54471000  1.0
  C  C102  1  0.87571000  0.61884000  0.45386000  1.0
  C  C103  1  0.05145000  0.87575000  0.45389000  1.0
  C  C104  1  0.61896000  0.05144000  0.45393000  1.0
  C  C105  1  0.12429000  0.38115000  0.54614000  1.0
  C  C106  1  0.94856000  0.12424000  0.54611000  1.0
  C  C107  1  0.38103000  0.94858000  0.54607000  1.0
  C  C108  1  0.91923000  0.62477000  0.10413000  1.0
  C  C109  1  0.35189000  0.91932000  0.10406000  1.0
  C  C110  1  0.62474000  0.35179000  0.10421000  1.0
  C  C111  1  0.08077000  0.37524000  0.89587000  1.0
  C  C112  1  0.64811000  0.08068000  0.89594000  1.0
  C  C113  1  0.37527000  0.64822000  0.89579000  1.0
  C  C114  1  0.77766000  0.70495000  0.09581000  1.0
  C  C115  1  0.42134000  0.77779000  0.09563000  1.0
  C  C116  1  0.70517000  0.42136000  0.09578000  1.0
  C  C117  1  0.22234000  0.29505000  0.90419000  1.0
  C  C118  1  0.57865000  0.22221000  0.90435000  1.0
  C  C119  1  0.29483000  0.57864000  0.90422000  1.0
  C  C120  1  0.94428000  0.60201000  0.03673000  1.0
  C  C121  1  0.41700000  0.94435000  0.03662000  1.0
  C  C122  1  0.60204000  0.41687000  0.03681000  1.0
  C  C123  1  0.05572000  0.39800000  0.96327000  1.0
  C  C124  1  0.58299000  0.05566000  0.96337000  1.0
  C  C125  1  0.39797000  0.58313000  0.96319000  1.0
  C  C126  1  0.80266000  0.68334000  0.02717000  1.0
  C  C127  1  0.48659000  0.80278000  0.02693000  1.0
  C  C128  1  0.68358000  0.48663000  0.02715000  1.0
  C  C129  1  0.19733000  0.31667000  0.97283000  1.0
  C  C130  1  0.51340000  0.19723000  0.97305000  1.0
  C  C131  1  0.31642000  0.51338000  0.97285000  1.0
  C  C132  1  0.88582000  0.63110000  0.99817000  1.0
  C  C133  1  0.48483000  0.88590000  0.99801000  1.0
  C  C134  1  0.63123000  0.48476000  0.99822000  1.0
  C  C135  1  0.11417000  0.36889000  0.00184000  1.0
  C  C136  1  0.51516000  0.11411000  0.00198000  1.0
  C  C137  1  0.36878000  0.51523000  0.00178000  1.0
  C  C138  1  0.87150000  0.64464000  0.87655000  1.0
  C  C139  1  0.60724000  0.87160000  0.87641000  1.0
  C  C140  1  0.64499000  0.60700000  0.87649000  1.0
  C  C141  1  0.12849000  0.35537000  0.12346000  1.0
  C  C142  1  0.39275000  0.12841000  0.12358000  1.0
  C  C143  1  0.35502000  0.39300000  0.12351000  1.0
  C  C144  1  0.87999000  0.72978000  0.81849000  1.0
  C  C145  1  0.57172000  0.87997000  0.81837000  1.0
  C  C146  1  0.73012000  0.57131000  0.81853000  1.0
  C  C147  1  0.12001000  0.27022000  0.18151000  1.0
  C  C148  1  0.42828000  0.12002000  0.18163000  1.0
  C  C149  1  0.26988000  0.42869000  0.18147000  1.0
  C  C150  1  0.82783000  0.78493000  0.76960000  1.0
  C  C151  1  0.61768000  0.82786000  0.76941000  1.0
  C  C152  1  0.78519000  0.61735000  0.76944000  1.0
  C  C153  1  0.17217000  0.21507000  0.23040000  1.0
  C  C154  1  0.38232000  0.17213000  0.23058000  1.0
  C  C155  1  0.21481000  0.38264000  0.23056000  1.0
  C  C156  1  0.94208000  0.75472000  0.80746000  1.0
  C  C157  1  0.49569000  0.94198000  0.80744000  1.0
  C  C158  1  0.75509000  0.49523000  0.80766000  1.0
  C  C159  1  0.05792000  0.24527000  0.19255000  1.0
  C  C160  1  0.50431000  0.05802000  0.19255000  1.0
  C  C161  1  0.24490000  0.50477000  0.19235000  1.0
  C  C162  1  0.84174000  0.85902000  0.70959000  1.0
  C  C163  1  0.58972000  0.84176000  0.70940000  1.0
  C  C164  1  0.85926000  0.58938000  0.70942000  1.0
  C  C165  1  0.15827000  0.14097000  0.29041000  1.0
  C  C166  1  0.41028000  0.15824000  0.29060000  1.0
  C  C167  1  0.14074000  0.41061000  0.29059000  1.0
  C  C168  1  0.95092000  0.83086000  0.74694000  1.0
  C  C169  1  0.47127000  0.95078000  0.74691000  1.0
  C  C170  1  0.83117000  0.47084000  0.74706000  1.0
  C  C171  1  0.04909000  0.16913000  0.25306000  1.0
  C  C172  1  0.52873000  0.04922000  0.25309000  1.0
  C  C173  1  0.16882000  0.52915000  0.25295000  1.0
  C  C174  1  0.67736000  0.79669000  0.34917000  1.0
  C  C175  1  0.17687000  0.67732000  0.34926000  1.0
  C  C176  1  0.79685000  0.17679000  0.34910000  1.0
  C  C177  1  0.32264000  0.20331000  0.65083000  1.0
  C  C178  1  0.82312000  0.32268000  0.65073000  1.0
  C  C179  1  0.20316000  0.82321000  0.65090000  1.0
  C  C180  1  0.80841000  0.67930000  0.34873000  1.0
  C  C181  1  0.16358000  0.80843000  0.34883000  1.0
  C  C182  1  0.67941000  0.16348000  0.34874000  1.0
  C  C183  1  0.19159000  0.32069000  0.65129000  1.0
  C  C184  1  0.83642000  0.19156000  0.65116000  1.0
  C  C185  1  0.32059000  0.83655000  0.65126000  1.0
  C  C186  1  0.67451000  0.80000000  0.42044000  1.0
  C  C187  1  0.10515000  0.67445000  0.42050000  1.0
  C  C188  1  0.80010000  0.10510000  0.42039000  1.0
  C  C189  1  0.32549000  0.20000000  0.57957000  1.0
  C  C190  1  0.89486000  0.32555000  0.57949000  1.0
  C  C191  1  0.19991000  0.89489000  0.57961000  1.0
  C  C192  1  0.80498000  0.68177000  0.41984000  1.0
  C  C193  1  0.09337000  0.80500000  0.41987000  1.0
  C  C194  1  0.68190000  0.09333000  0.41983000  1.0
  C  C195  1  0.19502000  0.31822000  0.58018000  1.0
  C  C196  1  0.90663000  0.19499000  0.58012000  1.0
  C  C197  1  0.31809000  0.90669000  0.58017000  1.0
  C  C198  1  0.73748000  0.74168000  0.45667000  1.0
  C  C199  1  0.06416000  0.73745000  0.45673000  1.0
  C  C200  1  0.74179000  0.06416000  0.45666000  1.0
  C  C201  1  0.26252000  0.25832000  0.54333000  1.0
  C  C202  1  0.93584000  0.26255000  0.54327000  1.0
  C  C203  1  0.25822000  0.93585000  0.54334000  1.0
  N  N204  1  0.74814000  0.73378000  0.23982000  1.0
  N  N205  1  0.27832000  0.74815000  0.23996000  1.0
  N  N206  1  0.73387000  0.27820000  0.23983000  1.0
  N  N207  1  0.25185000  0.26622000  0.76019000  1.0
  N  N208  1  0.72168000  0.25185000  0.76004000  1.0
  N  N209  1  0.26613000  0.72181000  0.76017000  1.0
  N  N210  1  0.82126000  0.69035000  0.20486000  1.0
  N  N211  1  0.28348000  0.82135000  0.20485000  1.0
  N  N212  1  0.69041000  0.28344000  0.20489000  1.0
  N  N213  1  0.17873000  0.30966000  0.79514000  1.0
  N  N214  1  0.71652000  0.17865000  0.79515000  1.0
  N  N215  1  0.30959000  0.71656000  0.79511000  1.0
  N  N216  1  0.90327000  0.88150000  0.69729000  1.0
  N  N217  1  0.51799000  0.90319000  0.69718000  1.0
  N  N218  1  0.88175000  0.51761000  0.69726000  1.0
  N  N219  1  0.09673000  0.11849000  0.30271000  1.0
  N  N220  1  0.48201000  0.09682000  0.30281000  1.0
  N  N221  1  0.11825000  0.48238000  0.30275000  1.0
  O  O222  1  0.59626000  0.86066000  0.52819000  1.0
  O  O223  1  0.01510000  0.59607000  0.52829000  1.0
  O  O224  1  0.86064000  0.01505000  0.52820000  1.0
  O  O225  1  0.40371000  0.13933000  0.47183000  1.0
  O  O226  1  0.98489000  0.40394000  0.47170000  1.0
  O  O227  1  0.13936000  0.98496000  0.47180000  1.0
  O  O228  1  0.86565000  0.60776000  0.52721000  1.0
  O  O229  1  0.99924000  0.86566000  0.52724000  1.0
  O  O230  1  0.60789000  0.99924000  0.52729000  1.0
  O  O231  1  0.13435000  0.39223000  0.47280000  1.0
  O  O232  1  0.00077000  0.13433000  0.47276000  1.0
  O  O233  1  0.39213000  0.00074000  0.47269000  1.0
  O  O234  1  0.94059000  0.58090000  0.40497000  1.0
  O  O235  1  0.07340000  0.94066000  0.40495000  1.0
  O  O236  1  0.58096000  0.07342000  0.40506000  1.0
  O  O237  1  0.05941000  0.41910000  0.59503000  1.0
  O  O238  1  0.92662000  0.05933000  0.59505000  1.0
  O  O239  1  0.41899000  0.92663000  0.59496000  1.0
  O  O240  1  0.56749000  0.93299000  0.40716000  1.0
  O  O241  1  0.09245000  0.56742000  0.40719000  1.0
  O  O242  1  0.93312000  0.09233000  0.40709000  1.0
  O  O243  1  0.43255000  0.06702000  0.59282000  1.0
  O  O244  1  0.90756000  0.43255000  0.59282000  1.0
  O  O245  1  0.06688000  0.90767000  0.59290000  1.0
  O  O246  1  0.91623000  0.60263000  0.93363000  1.0
  O  O247  1  0.54744000  0.91634000  0.93348000  1.0
  O  O248  1  0.60277000  0.54733000  0.93367000  1.0
  O  O249  1  0.08376000  0.39738000  0.06638000  1.0
  O  O250  1  0.45255000  0.08367000  0.06651000  1.0
  O  O251  1  0.39723000  0.45266000  0.06633000  1.0
