# generated using pymatgen
data_Zn4H8C27S4O19
_symmetry_space_group_name_H-M   'P 1'
_cell_length_a   19.56410000
_cell_length_b   19.66350000
_cell_length_c   33.21400000
_cell_angle_alpha   79.14110000
_cell_angle_beta   79.49940000
_cell_angle_gamma   63.95170000
_symmetry_Int_Tables_number   1
_chemical_formula_structural   Zn4H8C27S4O19
_chemical_formula_sum   'Zn16 H32 C108 S16 O76'
_cell_volume   11202.01848543
_cell_formula_units_Z   4
loop_
 _symmetry_equiv_pos_site_id
 _symmetry_equiv_pos_as_xyz
  1  'x, y, z'
loop_
 _atom_site_type_symbol
 _atom_site_label
 _atom_site_symmetry_multiplicity
 _atom_site_fract_x
 _atom_site_fract_y
 _atom_site_fract_z
 _atom_site_occupancy
  Zn  Zn0  1  0.59867000  0.94297000  0.52194000  1.0
  Zn  Zn1  1  0.51569000  0.01825000  0.43949000  1.0
  Zn  Zn2  1  0.43259000  0.94663000  0.51468000  1.0
  Zn  Zn3  1  0.44342000  0.09958000  0.52171000  1.0
  Zn  Zn4  1  0.64591000  0.30852000  0.72931000  1.0
  Zn  Zn5  1  0.80541000  0.31678000  0.73049000  1.0
  Zn  Zn6  1  0.74109000  0.23103000  0.80863000  1.0
  Zn  Zn7  1  0.80317000  0.15512000  0.72629000  1.0
  Zn  Zn8  1  0.23373000  0.73095000  0.31058000  1.0
  Zn  Zn9  1  0.30605000  0.64930000  0.22818000  1.0
  Zn  Zn10  1  0.14985000  0.80350000  0.22830000  1.0
  Zn  Zn11  1  0.30983000  0.80894000  0.23334000  1.0
  Zn  Zn12  1  0.93868000  0.43958000  0.01580000  1.0
  Zn  Zn13  1  0.94350000  0.59891000  0.02073000  1.0
  Zn  Zn14  1  0.09797000  0.44384000  0.02183000  1.0
  Zn  Zn15  1  0.01803000  0.51651000  0.93887000  1.0
  H  H16  1  0.72865000  0.03627000  0.66790000  1.0
  H  H17  1  0.54989000  0.25939000  0.64078000  1.0
  H  H18  1  0.68350000  0.98610000  0.61895000  1.0
  H  H19  1  0.38548000  0.91451000  0.29902000  1.0
  H  H20  1  0.33042000  0.77242000  0.40237000  1.0
  H  H21  1  0.43178000  0.96724000  0.34621000  1.0
  H  H22  1  0.76406000  0.52190000  0.63951000  1.0
  H  H23  1  0.28985000  0.51983000  0.39574000  1.0
  H  H24  1  0.02183000  0.81392000  0.39857000  1.0
  H  H25  1  0.02247000  0.06241000  0.64884000  1.0
  H  H26  1  0.96468000  0.43879000  0.84633000  1.0
  H  H27  1  0.82367000  0.37565000  0.94696000  1.0
  H  H28  1  0.91341000  0.39478000  0.79709000  1.0
  H  H29  1  0.23454000  0.46781000  0.85284000  1.0
  H  H30  1  0.85632000  0.83638000  0.95774000  1.0
  H  H31  1  0.20939000  0.50341000  0.09478000  1.0
  H  H32  1  0.99255000  0.69752000  0.10541000  1.0
  H  H33  1  0.25666000  0.54991000  0.14466000  1.0
  H  H34  1  0.72014000  0.69836000  0.09630000  1.0
  H  H35  1  0.98857000  0.21230000  0.08860000  1.0
  H  H36  1  0.41070000  0.21337000  0.61874000  1.0
  H  H37  1  0.27241000  0.85155000  0.46701000  1.0
  H  H38  1  0.81943000  0.24912000  0.93702000  1.0
  H  H39  1  0.03583000  0.82158000  0.11186000  1.0
  H  H40  1  0.44155000  0.75788000  0.53919000  1.0
  H  H41  1  0.42847000  0.22976000  0.31777000  1.0
  H  H42  1  0.65595000  0.04416000  0.35391000  1.0
  H  H43  1  0.18585000  0.26916000  0.57547000  1.0
  H  H44  1  0.61862000  0.24666000  0.88280000  1.0
  H  H45  1  0.97012000  0.93363000  0.77003000  1.0
  H  H46  1  0.49290000  0.55798000  0.10303000  1.0
  H  H47  1  0.32254000  0.99503000  0.12433000  1.0
  C  C48  1  0.68347000  0.94537000  0.43842000  1.0
  C  C49  1  0.42777000  0.93740000  0.42823000  1.0
  C  C50  1  0.55533000  0.81247000  0.55295000  1.0
  C  C51  1  0.31715000  0.06163000  0.56547000  1.0
  C  C52  1  0.56796000  0.06368000  0.57235000  1.0
  C  C53  1  0.44029000  0.18553000  0.44004000  1.0
  C  C54  1  0.68457000  0.43295000  0.68293000  1.0
  C  C55  1  0.81649000  0.32798000  0.81524000  1.0
  C  C56  1  0.57124000  0.31034000  0.81696000  1.0
  C  C57  1  0.81454000  0.06484000  0.80876000  1.0
  C  C58  1  0.67058000  0.18158000  0.68486000  1.0
  C  C59  1  0.93486000  0.19194000  0.69181000  1.0
  C  C60  1  0.32190000  0.56421000  0.31059000  1.0
  C  C61  1  0.18216000  0.67746000  0.18096000  1.0
  C  C62  1  0.06629000  0.80789000  0.31184000  1.0
  C  C63  1  0.18474000  0.93535000  0.19114000  1.0
  C  C64  1  0.32373000  0.81276000  0.32016000  1.0
  C  C65  1  0.43066000  0.69121000  0.18565000  1.0
  C  C66  1  0.81640000  0.55937000  0.06210000  1.0
  C  C67  1  0.06978000  0.57099000  0.06744000  1.0
  C  C68  1  0.05808000  0.31700000  0.06269000  1.0
  C  C69  1  0.18418000  0.43961000  0.93856000  1.0
  C  C70  1  0.92974000  0.43241000  0.92908000  1.0
  C  C71  1  0.93164000  0.68362000  0.93706000  1.0
  C  C72  1  0.59229000  0.09438000  0.60228000  1.0
  C  C73  1  0.64122000  0.15068000  0.65742000  1.0
  C  C74  1  0.55353000  0.17212000  0.60830000  1.0
  C  C75  1  0.67951000  0.07349000  0.65136000  1.0
  C  C76  1  0.57811000  0.19929000  0.63628000  1.0
  C  C77  1  0.65460000  0.04581000  0.62415000  1.0
  C  C78  1  0.40585000  0.90044000  0.40057000  1.0
  C  C79  1  0.35380000  0.84184000  0.34827000  1.0
  C  C80  1  0.37840000  0.84437000  0.41691000  1.0
  C  C81  1  0.38365000  0.89553000  0.33202000  1.0
  C  C82  1  0.35177000  0.81596000  0.39061000  1.0
  C  C83  1  0.40933000  0.92465000  0.35817000  1.0
  C  C84  1  0.53476000  0.69566000  0.59449000  1.0
  C  C85  1  0.70331000  0.54395000  0.63677000  1.0
  C  C86  1  0.57876000  0.73559000  0.57593000  1.0
  C  C87  1  0.65872000  0.50595000  0.65619000  1.0
  C  C88  1  0.65844000  0.61329000  0.61434000  1.0
  C  C89  1  0.58095000  0.62634000  0.61705000  1.0
  C  C90  1  0.45031000  0.27348000  0.37414000  1.0
  C  C91  1  0.33044000  0.47519000  0.37749000  1.0
  C  C92  1  0.42479000  0.25990000  0.41547000  1.0
  C  C93  1  0.35174000  0.48970000  0.33591000  1.0
  C  C94  1  0.36664000  0.39679000  0.39136000  1.0
  C  C95  1  0.41579000  0.35259000  0.36000000  1.0
  C  C96  1  0.77232000  0.92160000  0.36997000  1.0
  C  C97  1  0.97645000  0.83508000  0.37873000  1.0
  C  C98  1  0.75762000  0.92143000  0.41272000  1.0
  C  C99  1  0.99083000  0.83456000  0.33635000  1.0
  C  C100  1  0.89696000  0.86621000  0.39120000  1.0
  C  C101  1  0.85251000  0.88883000  0.35802000  1.0
  C  C102  1  0.21127000  0.14801000  0.61461000  1.0
  C  C103  1  0.04858000  0.10096000  0.64919000  1.0
  C  C104  1  0.24542000  0.08459000  0.59327000  1.0
  C  C105  1  0.01218000  0.16526000  0.66937000  1.0
  C  C106  1  0.12094000  0.09461000  0.62951000  1.0
  C  C107  1  0.13893000  0.15422000  0.63525000  1.0
  C  C108  1  0.84094000  0.35979000  0.84452000  1.0
  C  C109  1  0.89828000  0.40794000  0.89948000  1.0
  C  C110  1  0.81426000  0.35478000  0.88688000  1.0
  C  C111  1  0.92286000  0.41496000  0.85724000  1.0
  C  C112  1  0.84370000  0.37839000  0.91410000  1.0
  C  C113  1  0.89423000  0.39083000  0.83001000  1.0
  C  C114  1  0.47922000  0.31782000  0.88585000  1.0
  C  C115  1  0.27783000  0.43219000  0.87335000  1.0
  C  C116  1  0.49786000  0.33420000  0.84334000  1.0
  C  C117  1  0.26063000  0.41470000  0.91524000  1.0
  C  C118  1  0.35770000  0.39714000  0.86233000  1.0
  C  C119  1  0.39888000  0.35422000  0.89604000  1.0
  C  C120  1  0.87024000  0.91815000  0.81912000  1.0
  C  C121  1  0.87007000  0.82907000  0.92519000  1.0
  C  C122  1  0.83656000  0.98944000  0.83314000  1.0
  C  C123  1  0.90544000  0.75809000  0.91142000  1.0
  C  C124  1  0.85629000  0.88752000  0.89165000  1.0
  C  C125  1  0.88128000  0.85971000  0.85285000  1.0
  C  C126  1  0.15151000  0.64976000  0.15260000  1.0
  C  C127  1  0.09862000  0.59852000  0.09688000  1.0
  C  C128  1  0.07637000  0.69203000  0.14186000  1.0
  C  C129  1  0.17293000  0.55613000  0.10804000  1.0
  C  C130  1  0.05068000  0.66618000  0.11384000  1.0
  C  C131  1  0.19896000  0.58186000  0.13572000  1.0
  C  C132  1  0.54925000  0.59369000  0.14808000  1.0
  C  C133  1  0.69991000  0.65364000  0.10202000  1.0
  C  C134  1  0.50703000  0.66442000  0.16220000  1.0
  C  C135  1  0.74168000  0.58381000  0.08733000  1.0
  C  C136  1  0.62999000  0.65729000  0.12427000  1.0
  C  C137  1  0.61985000  0.58978000  0.12611000  1.0
  C  C138  1  0.19705000  0.05848000  0.15760000  1.0
  C  C139  1  0.04341000  0.19694000  0.09926000  1.0
  C  C140  1  0.15867000  0.01146000  0.16722000  1.0
  C  C141  1  0.08214000  0.24326000  0.08901000  1.0
  C  C142  1  0.08483000  0.12987000  0.12448000  1.0
  C  C143  1  0.15462000  0.12649000  0.13295000  1.0
  C  C144  1  0.49323000  0.23137000  0.58213000  1.0
  C  C145  1  0.38204000  0.81089000  0.46151000  1.0
  C  C146  1  0.74957000  0.33150000  0.90300000  1.0
  C  C147  1  0.01952000  0.76100000  0.16210000  1.0
  C  C148  1  0.45031000  0.71649000  0.59784000  1.0
  C  C149  1  0.50905000  0.21208000  0.34954000  1.0
  C  C150  1  0.71832000  0.94182000  0.33817000  1.0
  C  C151  1  0.24856000  0.19963000  0.61677000  1.0
  C  C152  1  0.52612000  0.26945000  0.92021000  1.0
  C  C153  1  0.88871000  0.90209000  0.77500000  1.0
  C  C154  1  0.52650000  0.52809000  0.15717000  1.0
  C  C155  1  0.27066000  0.04277000  0.17327000  1.0
  S  S156  1  0.67419000  0.68857000  0.58549000  1.0
  S  S157  1  0.56273000  0.55420000  0.64790000  1.0
  S  S158  1  0.36291000  0.34144000  0.43766000  1.0
  S  S159  1  0.41708000  0.40884000  0.31342000  1.0
  S  S160  1  0.84001000  0.88236000  0.43761000  1.0
  S  S161  1  0.90866000  0.87056000  0.31155000  1.0
  S  S162  1  0.19241000  0.03161000  0.59898000  1.0
  S  S163  1  0.06573000  0.21795000  0.66512000  1.0
  S  S164  1  0.41829000  0.39256000  0.81737000  1.0
  S  S165  1  0.34020000  0.35626000  0.94139000  1.0
  S  S166  1  0.81746000  0.98557000  0.88654000  1.0
  S  S167  1  0.92131000  0.76151000  0.85794000  1.0
  S  S168  1  0.55292000  0.72502000  0.14978000  1.0
  S  S169  1  0.69711000  0.52187000  0.10062000  1.0
  S  S170  1  0.07131000  0.04980000  0.14730000  1.0
  S  S171  1  0.16841000  0.20645000  0.11006000  1.0
  O  O172  1  0.49871000  0.00099000  0.49995000  1.0
  O  O173  1  0.68440000  0.92977000  0.47759000  1.0
  O  O174  1  0.47493000  0.96611000  0.41224000  1.0
  O  O175  1  0.48744000  0.84463000  0.54253000  1.0
  O  O176  1  0.62422000  0.98000000  0.41912000  1.0
  O  O177  1  0.60503000  0.84042000  0.54569000  1.0
  O  O178  1  0.39555000  0.93883000  0.46531000  1.0
  O  O179  1  0.34066000  0.99744000  0.55204000  1.0
  O  O180  1  0.50572000  0.10956000  0.55761000  1.0
  O  O181  1  0.34804000  0.10856000  0.55676000  1.0
  O  O182  1  0.60978000  0.99567000  0.56396000  1.0
  O  O183  1  0.47206000  0.12751000  0.42036000  1.0
  O  O184  1  0.41839000  0.18632000  0.47871000  1.0
  O  O185  1  0.74802000  0.25326000  0.74870000  1.0
  O  O186  1  0.63435000  0.40674000  0.69748000  1.0
  O  O187  1  0.81707000  0.35717000  0.77764000  1.0
  O  O188  1  0.63333000  0.27022000  0.83416000  1.0
  O  O189  1  0.75504000  0.40174000  0.68948000  1.0
  O  O190  1  0.56839000  0.33110000  0.77838000  1.0
  O  O191  1  0.79944000  0.27202000  0.83062000  1.0
  O  O192  1  0.77960000  0.12207000  0.82918000  1.0
  O  O193  1  0.73815000  0.13924000  0.69449000  1.0
  O  O194  1  0.83259000  0.06681000  0.76975000  1.0
  O  O195  1  0.62683000  0.24737000  0.69591000  1.0
  O  O196  1  0.91023000  0.25472000  0.70706000  1.0
  O  O197  1  0.89937000  0.14998000  0.69382000  1.0
  O  O198  1  0.25001000  0.74815000  0.24998000  1.0
  O  O199  1  0.27498000  0.62088000  0.32944000  1.0
  O  O200  1  0.24153000  0.62885000  0.19749000  1.0
  O  O201  1  0.06635000  0.81645000  0.27266000  1.0
  O  O202  1  0.34506000  0.56520000  0.27198000  1.0
  O  O203  1  0.12505000  0.77899000  0.33166000  1.0
  O  O204  1  0.14686000  0.74808000  0.18555000  1.0
  O  O205  1  0.13711000  0.90506000  0.19950000  1.0
  O  O206  1  0.33566000  0.83263000  0.28169000  1.0
  O  O207  1  0.25304000  0.90652000  0.20081000  1.0
  O  O208  1  0.28839000  0.77150000  0.33694000  1.0
  O  O209  1  0.39535000  0.64869000  0.18942000  1.0
  O  O210  1  0.40656000  0.75504000  0.19970000  1.0
  O  O211  1  0.99889000  0.50005000  0.99929000  1.0
  O  O212  1  0.84447000  0.49224000  0.05142000  1.0
  O  O213  1  0.00297000  0.61429000  0.05701000  1.0
  O  O214  1  0.10243000  0.35082000  0.05789000  1.0
  O  O215  1  0.84608000  0.60738000  0.05304000  1.0
  O  O216  1  0.99553000  0.34034000  0.04690000  1.0
  O  O217  1  0.11442000  0.50647000  0.05533000  1.0
  O  O218  1  0.18185000  0.41549000  0.97719000  1.0
  O  O219  1  0.97626000  0.46225000  0.91351000  1.0
  O  O220  1  0.12687000  0.48277000  0.91865000  1.0
  O  O221  1  0.90747000  0.42108000  0.96733000  1.0
  O  O222  1  0.91916000  0.68448000  0.97610000  1.0
  O  O223  1  0.96516000  0.62490000  0.91774000  1.0
  O  O224  1  0.41842000  0.24994000  0.59599000  1.0
  O  O225  1  0.51136000  0.26690000  0.55127000  1.0
  O  O226  1  0.31403000  0.81868000  0.48371000  1.0
  O  O227  1  0.44162000  0.77552000  0.47726000  1.0
  O  O228  1  0.76509000  0.27122000  0.93337000  1.0
  O  O229  1  0.68602000  0.36571000  0.89187000  1.0
  O  O230  1  0.00163000  0.82938000  0.13763000  1.0
  O  O231  1  0.98683000  0.75708000  0.19655000  1.0
  O  O232  1  0.41156000  0.74737000  0.56495000  1.0
  O  O233  1  0.41863000  0.70034000  0.63116000  1.0
  O  O234  1  0.48368000  0.19917000  0.31748000  1.0
  O  O235  1  0.57548000  0.17703000  0.35626000  1.0
  O  O236  1  0.66232000  0.01252000  0.33274000  1.0
  O  O237  1  0.72944000  0.89473000  0.31567000  1.0
  O  O238  1  0.22139000  0.26823000  0.59302000  1.0
  O  O239  1  0.29735000  0.18390000  0.63921000  1.0
  O  O240  1  0.60187000  0.23311000  0.91244000  1.0
  O  O241  1  0.49277000  0.26377000  0.95492000  1.0
  O  O242  1  0.95128000  0.91049000  0.75359000  1.0
  O  O243  1  0.85295000  0.87827000  0.75975000  1.0
  O  O244  1  0.49766000  0.51706000  0.12573000  1.0
  O  O245  1  0.53626000  0.48491000  0.18894000  1.0
  O  O246  1  0.33566000  0.00840000  0.14785000  1.0
  O  O247  1  0.27301000  0.06264000  0.20518000  1.0
