# generated using pymatgen
data_U2CdH30C32(N2O11)2
_symmetry_space_group_name_H-M   'P 1'
_cell_length_a   7.68753000
_cell_length_b   10.85340000
_cell_length_c   13.82260000
_cell_angle_alpha   78.79960000
_cell_angle_beta   81.63400000
_cell_angle_gamma   86.25850000
_symmetry_Int_Tables_number   1
_chemical_formula_structural   U2CdH30C32(N2O11)2
_chemical_formula_sum   'U2 Cd1 H30 C32 N4 O22'
_cell_volume   1118.48208721
_cell_formula_units_Z   1
loop_
 _symmetry_equiv_pos_site_id
 _symmetry_equiv_pos_as_xyz
  1  'x, y, z'
loop_
 _atom_site_type_symbol
 _atom_site_label
 _atom_site_symmetry_multiplicity
 _atom_site_fract_x
 _atom_site_fract_y
 _atom_site_fract_z
 _atom_site_occupancy
  U  U0  1  0.20905000  0.39993000  0.64007000  1.0
  U  U1  1  0.79094000  0.60006000  0.35993000  1.0
  Cd  Cd2  1  0.50000000  0.00000000  0.50000000  1.0
  H  H3  1  0.84849000  0.98977000  0.50859000  1.0
  H  H4  1  0.15150000  0.01022000  0.49141000  1.0
  H  H5  1  0.84601000  0.86165000  0.46923000  1.0
  H  H6  1  0.15398000  0.13834000  0.53077000  1.0
  H  H7  1  0.14384000  0.76814000  0.58203000  1.0
  H  H8  1  0.85616000  0.23185000  0.41797000  1.0
  H  H9  1  0.93489000  0.80921000  0.63964000  1.0
  H  H10  1  0.06511000  0.19078000  0.36036000  1.0
  H  H11  1  0.72101000  0.36081000  0.63326000  1.0
  H  H12  1  0.27900000  0.63920000  0.36672000  1.0
  H  H13  1  0.78970000  0.21036000  0.69537000  1.0
  H  H14  1  0.21032000  0.78966000  0.30462000  1.0
  H  H15  1  0.14051000  0.65000000  0.89367000  1.0
  H  H16  1  0.85949000  0.35001000  0.10633000  1.0
  H  H17  1  0.51686000  0.29260000  0.41450000  1.0
  H  H18  1  0.48313000  0.70740000  0.58550000  1.0
  H  H19  1  0.43247000  0.45504000  0.27660000  1.0
  H  H20  1  0.56753000  0.54496000  0.72340000  1.0
  H  H21  1  0.32006000  0.15565000  0.13096000  1.0
  H  H22  1  0.67994000  0.84436000  0.86904000  1.0
  H  H23  1  0.41745000  0.00486000  0.27322000  1.0
  H  H24  1  0.58253000  0.99514000  0.72678000  1.0
  H  H25  1  0.18251000  0.54541000  0.20227000  1.0
  H  H26  1  0.81748000  0.45460000  0.79773000  1.0
  H  H27  1  0.08604000  0.69762000  0.05973000  1.0
  H  H28  1  0.91396000  0.30239000  0.94028000  1.0
  H  H29  1  0.29613000  0.46793000  0.85908000  1.0
  H  H30  1  0.70387000  0.53208000  0.14092000  1.0
  H  H31  1  0.40874000  0.30907000  0.99084000  1.0
  H  H32  1  0.59126000  0.69094000  0.00916000  1.0
  C  C33  1  0.94950000  0.64399000  0.57271000  1.0
  C  C34  1  0.05049000  0.35600000  0.42730000  1.0
  C  C35  1  0.02559000  0.72873000  0.63059000  1.0
  C  C36  1  0.97441000  0.27126000  0.36941000  1.0
  C  C37  1  0.08240000  0.66832000  0.73028000  1.0
  C  C38  1  0.91760000  0.33167000  0.26973000  1.0
  C  C39  1  0.55183000  0.29203000  0.76782000  1.0
  C  C40  1  0.44819000  0.70799000  0.23218000  1.0
  C  C41  1  0.67449000  0.26904000  0.67537000  1.0
  C  C42  1  0.32552000  0.73097000  0.32462000  1.0
  C  C43  1  0.58220000  0.21327000  0.60560000  1.0
  C  C44  1  0.41781000  0.78673000  0.39440000  1.0
  C  C45  1  0.47439000  0.26528000  0.35013000  1.0
  C  C46  1  0.52561000  0.73471000  0.64987000  1.0
  C  C47  1  0.42302000  0.35650000  0.27304000  1.0
  C  C48  1  0.57697000  0.64350000  0.72696000  1.0
  C  C49  1  0.36504000  0.31958000  0.19189000  1.0
  C  C50  1  0.63495000  0.68043000  0.80812000  1.0
  C  C51  1  0.36622000  0.19046000  0.19111000  1.0
  C  C52  1  0.63378000  0.80954000  0.80889000  1.0
  C  C53  1  0.41931000  0.10547000  0.27115000  1.0
  C  C54  1  0.58067000  0.89453000  0.72885000  1.0
  C  C55  1  0.30369000  0.41270000  0.10996000  1.0
  C  C56  1  0.69630000  0.58730000  0.89004000  1.0
  C  C57  1  0.21351000  0.52469000  0.12769000  1.0
  C  C58  1  0.78649000  0.47532000  0.87232000  1.0
  C  C59  1  0.15688000  0.61005000  0.04922000  1.0
  C  C60  1  0.84312000  0.38996000  0.95078000  1.0
  C  C61  1  0.27590000  0.47994000  0.93636000  1.0
  C  C62  1  0.72411000  0.52007000  0.06364000  1.0
  C  C63  1  0.33491000  0.39142000  0.01183000  1.0
  C  C64  1  0.66510000  0.60859000  0.98817000  1.0
  N  N65  1  0.47055000  0.14151000  0.35028000  1.0
  N  N66  1  0.52943000  0.85849000  0.64972000  1.0
  N  N67  1  0.18840000  0.58606000  0.95610000  1.0
  N  N68  1  0.81160000  0.41395000  0.04391000  1.0
  O  O69  1  0.95075000  0.52533000  0.60237000  1.0
  O  O70  1  0.04925000  0.47466000  0.39764000  1.0
  O  O71  1  0.88716000  0.69813000  0.49404000  1.0
  O  O72  1  0.11283000  0.30186000  0.50597000  1.0
  O  O73  1  0.14704000  0.55512000  0.74023000  1.0
  O  O74  1  0.85296000  0.44487000  0.25978000  1.0
  O  O75  1  0.06851000  0.73128000  0.79890000  1.0
  O  O76  1  0.93149000  0.26872000  0.20109000  1.0
  O  O77  1  0.41526000  0.36703000  0.74883000  1.0
  O  O78  1  0.58475000  0.63298000  0.25117000  1.0
  O  O79  1  0.58442000  0.24557000  0.85265000  1.0
  O  O80  1  0.41561000  0.75447000  0.14734000  1.0
  O  O81  1  0.42092000  0.24367000  0.59687000  1.0
  O  O82  1  0.57910000  0.75631000  0.40313000  1.0
  O  O83  1  0.66827000  0.13466000  0.55809000  1.0
  O  O84  1  0.33175000  0.86533000  0.44191000  1.0
  O  O85  1  0.32944000  0.52056000  0.55115000  1.0
  O  O86  1  0.67055000  0.47943000  0.44884000  1.0
  O  O87  1  0.07072000  0.28830000  0.72777000  1.0
  O  O88  1  0.92932000  0.71169000  0.27223000  1.0
  O  O89  1  0.81305000  0.95307000  0.45570000  1.0
  O  O90  1  0.18694000  0.04692000  0.54431000  1.0
