# generated using pymatgen
data_Cu3H16C30(NO8)2
_symmetry_space_group_name_H-M   'P 1'
_cell_length_a   8.88159000
_cell_length_b   8.95866000
_cell_length_c   9.73358000
_cell_angle_alpha   96.86550000
_cell_angle_beta   105.32500000
_cell_angle_gamma   95.44060000
_symmetry_Int_Tables_number   1
_chemical_formula_structural   Cu3H16C30(NO8)2
_chemical_formula_sum   'Cu3 H16 C30 N2 O16'
_cell_volume   735.08827464
_cell_formula_units_Z   1
loop_
 _symmetry_equiv_pos_site_id
 _symmetry_equiv_pos_as_xyz
  1  'x, y, z'
loop_
 _atom_site_type_symbol
 _atom_site_label
 _atom_site_symmetry_multiplicity
 _atom_site_fract_x
 _atom_site_fract_y
 _atom_site_fract_z
 _atom_site_occupancy
  Cu  Cu0  1  0.00000000  0.00000000  0.50000000  1.0
  Cu  Cu1  1  0.03914000  0.62591000  0.41324000  1.0
  Cu  Cu2  1  0.96086000  0.37409000  0.58676000  1.0
  H  H3  1  0.24310000  0.45078000  0.27660000  1.0
  H  H4  1  0.75690000  0.54923000  0.72340000  1.0
  H  H5  1  0.52336000  0.48614000  0.26879000  1.0
  H  H6  1  0.47664000  0.51386000  0.73120000  1.0
  H  H7  1  0.58826000  0.91043000  0.55211000  1.0
  H  H8  1  0.41174000  0.08956000  0.44789000  1.0
  H  H9  1  0.30688000  0.85314000  0.55537000  1.0
  H  H10  1  0.69312000  0.14686000  0.44463000  1.0
  H  H11  1  0.00696000  0.68395000  0.97622000  1.0
  H  H12  1  0.99303000  0.31606000  0.02378000  1.0
  H  H13  1  0.25947000  0.11218000  0.20978000  1.0
  H  H14  1  0.74054000  0.88782000  0.79022000  1.0
  H  H15  1  0.28079000  0.96785000  0.77825000  1.0
  H  H16  1  0.71921000  0.03215000  0.22175000  1.0
  H  H17  1  0.53293000  0.29176000  0.92405000  1.0
  H  H18  1  0.46707000  0.70823000  0.07594000  1.0
  C  C19  1  0.32455000  0.54976000  0.33695000  1.0
  C  C20  1  0.67544000  0.45025000  0.66305000  1.0
  C  C21  1  0.48011000  0.57154000  0.33212000  1.0
  C  C22  1  0.51989000  0.42847000  0.66787000  1.0
  C  C23  1  0.57660000  0.70359000  0.40851000  1.0
  C  C24  1  0.42340000  0.29641000  0.59149000  1.0
  C  C25  1  0.51501000  0.80741000  0.49015000  1.0
  C  C26  1  0.48499000  0.19259000  0.50986000  1.0
  C  C27  1  0.35972000  0.77614000  0.49264000  1.0
  C  C28  1  0.64028000  0.22386000  0.50736000  1.0
  C  C29  1  0.74580000  0.73426000  0.40868000  1.0
  C  C30  1  0.25420000  0.26575000  0.59132000  1.0
  C  C31  1  0.13700000  0.81428000  0.86180000  1.0
  C  C32  1  0.86300000  0.18572000  0.13820000  1.0
  C  C33  1  0.08390000  0.78765000  0.98092000  1.0
  C  C34  1  0.91610000  0.21235000  0.01908000  1.0
  C  C35  1  0.12585000  0.89541000  0.10604000  1.0
  C  C36  1  0.87416000  0.10459000  0.89396000  1.0
  C  C37  1  0.22644000  0.02725000  0.11355000  1.0
  C  C38  1  0.77356000  0.97275000  0.88645000  1.0
  C  C39  1  0.28613000  0.05092000  0.99713000  1.0
  C  C40  1  0.71387000  0.94907000  0.00287000  1.0
  C  C41  1  0.23941000  0.94588000  0.87040000  1.0
  C  C42  1  0.76059000  0.05412000  0.12960000  1.0
  C  C43  1  0.08031000  0.70324000  0.72454000  1.0
  C  C44  1  0.91969000  0.29676000  0.27546000  1.0
  C  C45  1  0.39849000  0.18952000  0.01386000  1.0
  C  C46  1  0.60152000  0.81049000  0.98615000  1.0
  C  C47  1  0.06104000  0.86587000  0.22985000  1.0
  C  C48  1  0.93896000  0.13413000  0.77016000  1.0
  N  N49  1  0.26574000  0.64989000  0.41656000  1.0
  N  N50  1  0.73426000  0.35012000  0.58344000  1.0
  O  O51  1  0.81818000  0.61821000  0.41129000  1.0
  O  O52  1  0.18182000  0.38179000  0.58871000  1.0
  O  O53  1  0.79668000  0.87142000  0.40902000  1.0
  O  O54  1  0.20332000  0.12859000  0.59098000  1.0
  O  O55  1  0.01338000  0.57432000  0.73082000  1.0
  O  O56  1  0.98662000  0.42568000  0.26918000  1.0
  O  O57  1  0.10335000  0.75039000  0.61138000  1.0
  O  O58  1  0.89665000  0.24961000  0.38862000  1.0
  O  O59  1  0.98897000  0.73623000  0.22281000  1.0
  O  O60  1  0.01104000  0.26377000  0.77719000  1.0
  O  O61  1  0.08937000  0.97666000  0.33442000  1.0
  O  O62  1  0.91063000  0.02334000  0.66558000  1.0
  O  O63  1  0.45834000  0.19826000  0.90006000  1.0
  O  O64  1  0.54166000  0.80173000  0.09993000  1.0
  O  O65  1  0.43756000  0.28740000  0.12076000  1.0
  O  O66  1  0.56244000  0.71259000  0.87922000  1.0
