# generated using pymatgen
data_CdH6C6S(N5O)2
_symmetry_space_group_name_H-M   'P 1'
_cell_length_a   6.64060000
_cell_length_b   9.90496000
_cell_length_c   10.92480000
_cell_angle_alpha   64.67700000
_cell_angle_beta   81.29860000
_cell_angle_gamma   89.16200000
_symmetry_Int_Tables_number   1
_chemical_formula_structural   CdH6C6S(N5O)2
_chemical_formula_sum   'Cd2 H12 C12 S2 N20 O4'
_cell_volume   641.04459270
_cell_formula_units_Z   2
loop_
 _symmetry_equiv_pos_site_id
 _symmetry_equiv_pos_as_xyz
  1  'x, y, z'
loop_
 _atom_site_type_symbol
 _atom_site_label
 _atom_site_symmetry_multiplicity
 _atom_site_fract_x
 _atom_site_fract_y
 _atom_site_fract_z
 _atom_site_occupancy
  Cd  Cd0  1  0.76651000  0.48902000  0.42733000  1.0
  Cd  Cd1  1  0.23349000  0.51098000  0.57267000  1.0
  H  H2  1  0.65572000  0.53777000  0.10902000  1.0
  H  H3  1  0.34428000  0.46223000  0.89098000  1.0
  H  H4  1  0.78644000  0.87672000  0.22713000  1.0
  H  H5  1  0.21357000  0.12328000  0.77287000  1.0
  H  H6  1  0.72783000  0.01336000  0.95507000  1.0
  H  H7  1  0.27218000  0.98664000  0.04493000  1.0
  H  H8  1  0.80111000  0.53853000  0.80210000  1.0
  H  H9  1  0.19889000  0.46147000  0.19790000  1.0
  H  H10  1  0.98803000  0.99667000  0.67043000  1.0
  H  H11  1  0.01197000  0.00333000  0.32958000  1.0
  H  H12  1  0.28510000  0.86193000  0.56454000  1.0
  H  H13  1  0.71490000  0.13807000  0.43546000  1.0
  C  C14  1  0.68816000  0.64599000  0.10651000  1.0
  C  C15  1  0.31184000  0.35401000  0.89349000  1.0
  C  C16  1  0.75473000  0.82676000  0.16064000  1.0
  C  C17  1  0.24528000  0.17324000  0.83936000  1.0
  C  C18  1  0.72600000  0.89624000  0.02698000  1.0
  C  C19  1  0.27400000  0.10376000  0.97302000  1.0
  C  C20  1  0.89709000  0.64144000  0.75230000  1.0
  C  C21  1  0.10291000  0.35856000  0.24770000  1.0
  C  C22  1  0.99859000  0.88213000  0.68412000  1.0
  C  C23  1  0.00141000  0.11787000  0.31588000  1.0
  C  C24  1  0.14198000  0.81286000  0.63141000  1.0
  C  C25  1  0.85802000  0.18714000  0.36859000  1.0
  S  S26  1  0.62004000  0.79963000  0.84266000  1.0
  S  S27  1  0.37996000  0.20035000  0.15734000  1.0
  N  N28  1  0.73198000  0.67268000  0.20783000  1.0
  N  N29  1  0.26802000  0.32732000  0.79217000  1.0
  N  N30  1  0.68377000  0.77978000  0.99293000  1.0
  N  N31  1  0.31623000  0.22022000  0.00707000  1.0
  N  N32  1  0.84273000  0.77252000  0.76107000  1.0
  N  N33  1  0.15727000  0.22749000  0.23893000  1.0
  N  N34  1  0.07713000  0.66441000  0.67433000  1.0
  N  N35  1  0.92286000  0.33559000  0.32567000  1.0
  N  N36  1  0.56336000  0.61850000  0.53393000  1.0
  N  N37  1  0.43663000  0.38150000  0.46607000  1.0
  N  N38  1  0.61780000  0.74410000  0.51071000  1.0
  N  N39  1  0.38220000  0.25590000  0.48929000  1.0
  N  N40  1  0.67280000  0.86427000  0.48981000  1.0
  N  N41  1  0.32720000  0.13572000  0.51019000  1.0
  N  N42  1  0.91771000  0.35031000  0.61980000  1.0
  N  N43  1  0.08229000  0.64969000  0.38020000  1.0
  N  N44  1  0.82971000  0.30758000  0.73594000  1.0
  N  N45  1  0.17029000  0.69242000  0.26406000  1.0
  N  N46  1  0.75178000  0.26505000  0.85031000  1.0
  N  N47  1  0.24822000  0.73495000  0.14969000  1.0
  O  O48  1  0.57644000  0.95222000  0.77152000  1.0
  O  O49  1  0.42356000  0.04778000  0.22848000  1.0
  O  O50  1  0.48701000  0.67402000  0.87199000  1.0
  O  O51  1  0.51300000  0.32598000  0.12800000  1.0
