# generated using pymatgen
data_CuH7C9N2
_symmetry_space_group_name_H-M   'P 1'
_cell_length_a   31.86170000
_cell_length_b   35.03220000
_cell_length_c   35.10720000
_cell_angle_alpha   94.78130000
_cell_angle_beta   90.49880000
_cell_angle_gamma   90.73550000
_symmetry_Int_Tables_number   1
_chemical_formula_structural   CuH7C9N2
_chemical_formula_sum   'Cu12 H84 C108 N24'
_cell_volume   39044.68603733
_cell_formula_units_Z   12
loop_
 _symmetry_equiv_pos_site_id
 _symmetry_equiv_pos_as_xyz
  1  'x, y, z'
loop_
 _atom_site_type_symbol
 _atom_site_label
 _atom_site_symmetry_multiplicity
 _atom_site_fract_x
 _atom_site_fract_y
 _atom_site_fract_z
 _atom_site_occupancy
  Cu  Cu0  1  0.87089000  0.10050000  0.13907000  1.0
  Cu  Cu1  1  0.84037000  0.12582000  0.05937000  1.0
  Cu  Cu2  1  0.91872000  0.16817000  0.10271000  1.0
  Cu  Cu3  1  0.12904000  0.41095000  0.65978000  1.0
  Cu  Cu4  1  0.15952000  0.37823000  0.57795000  1.0
  Cu  Cu5  1  0.09172000  0.33206000  0.62322000  1.0
  Cu  Cu6  1  0.37139000  0.90613000  0.36059000  1.0
  Cu  Cu7  1  0.33615000  0.87210000  0.43464000  1.0
  Cu  Cu8  1  0.41368000  0.83262000  0.39070000  1.0
  Cu  Cu9  1  0.62539000  0.58640000  0.84484000  1.0
  Cu  Cu10  1  0.66390000  0.62295000  0.92345000  1.0
  Cu  Cu11  1  0.58999000  0.66452000  0.88183000  1.0
  H  H12  1  0.37597000  0.58596000  0.67325000  1.0
  H  H13  1  0.43303000  0.68584000  0.63066000  1.0
  H  H14  1  0.32340000  0.63367000  0.57460000  1.0
  H  H15  1  0.62087000  0.92468000  0.19293000  1.0
  H  H16  1  0.56807000  0.82175000  0.13495000  1.0
  H  H17  1  0.67444000  0.87734000  0.08745000  1.0
  H  H18  1  0.82314000  0.37129000  0.92489000  1.0
  H  H19  1  0.93180000  0.32001000  0.87062000  1.0
  H  H20  1  0.87617000  0.41872000  0.82640000  1.0
  H  H21  1  0.12342000  0.07873000  0.30553000  1.0
  H  H22  1  0.07864000  0.18462000  0.36076000  1.0
  H  H23  1  0.17392000  0.12163000  0.41528000  1.0
  H  H24  1  0.80668000  0.03290000  0.15062000  1.0
  H  H25  1  0.77432000  0.05826000  0.03536000  1.0
  H  H26  1  0.99671000  0.18082000  0.16089000  1.0
  H  H27  1  0.92805000  0.09018000  0.21098000  1.0
  H  H28  1  0.82759000  0.17899000  0.99145000  1.0
  H  H29  1  0.93555000  0.23483000  0.04893000  1.0
  H  H30  1  0.18809000  0.48369000  0.67444000  1.0
  H  H31  1  0.23028000  0.44031000  0.56222000  1.0
  H  H32  1  0.02629000  0.31255000  0.68674000  1.0
  H  H33  1  0.07514000  0.42207000  0.73553000  1.0
  H  H34  1  0.16442000  0.32473000  0.50097000  1.0
  H  H35  1  0.07687000  0.25932000  0.56432000  1.0
  H  H36  1  0.30948000  0.97525000  0.35300000  1.0
  H  H37  1  0.26735000  0.93459000  0.45963000  1.0
  H  H38  1  0.48768000  0.81944000  0.33048000  1.0
  H  H39  1  0.43017000  0.92079000  0.29137000  1.0
  H  H40  1  0.32156000  0.81501000  0.49844000  1.0
  H  H41  1  0.42897000  0.76274000  0.44114000  1.0
  H  H42  1  0.68264000  0.51424000  0.82945000  1.0
  H  H43  1  0.73858000  0.56491000  0.93507000  1.0
  H  H44  1  0.52783000  0.68625000  0.81573000  1.0
  H  H45  1  0.56949000  0.57480000  0.76921000  1.0
  H  H46  1  0.67421000  0.67852000  0.99931000  1.0
  H  H47  1  0.57115000  0.73251000  0.94412000  1.0
  H  H48  1  0.69651000  0.93800000  0.08415000  1.0
  H  H49  1  0.73765000  0.99489000  0.14677000  1.0
  H  H50  1  0.68493000  0.95226000  0.17119000  1.0
  H  H51  1  0.73934000  0.98881000  0.05871000  1.0
  H  H52  1  0.31059000  0.56771000  0.67968000  1.0
  H  H53  1  0.25044000  0.52488000  0.67710000  1.0
  H  H54  1  0.29573000  0.57278000  0.59370000  1.0
  H  H55  1  0.27212000  0.50727000  0.59239000  1.0
  H  H56  1  0.19375000  0.06008000  0.41727000  1.0
  H  H57  1  0.23617000  0.00687000  0.35387000  1.0
  H  H58  1  0.18457000  0.04934000  0.32962000  1.0
  H  H59  1  0.23499000  0.00748000  0.44166000  1.0
  H  H60  1  0.80902000  0.43542000  0.81874000  1.0
  H  H61  1  0.74728000  0.47605000  0.82245000  1.0
  H  H62  1  0.79641000  0.43159000  0.90496000  1.0
  H  H63  1  0.77695000  0.49747000  0.90511000  1.0
  H  H64  1  0.05530000  0.07503000  0.28731000  1.0
  H  H65  1  0.99441000  0.07961000  0.24582000  1.0
  H  H66  1  0.05334000  0.16294000  0.29599000  1.0
  H  H67  1  0.03242000  0.15747000  0.22902000  1.0
  H  H68  1  0.46100000  0.69346000  0.68804000  1.0
  H  H69  1  0.50112000  0.69307000  0.74764000  1.0
  H  H70  1  0.43720000  0.61097000  0.70357000  1.0
  H  H71  1  0.50527000  0.60617000  0.72716000  1.0
  H  H72  1  0.95065000  0.30896000  0.80948000  1.0
  H  H73  1  0.99070000  0.30833000  0.75032000  1.0
  H  H74  1  0.93996000  0.39442000  0.79889000  1.0
  H  H75  1  0.00982000  0.39273000  0.77642000  1.0
  H  H76  1  0.55499000  0.93103000  0.21238000  1.0
  H  H77  1  0.49489000  0.92794000  0.25446000  1.0
  H  H78  1  0.54267000  0.84388000  0.19829000  1.0
  H  H79  1  0.52451000  0.84628000  0.26488000  1.0
  H  H80  1  0.94405000  0.30614000  0.93193000  1.0
  H  H81  1  0.94359000  0.26881000  0.98811000  1.0
  H  H82  1  0.84919000  0.31125000  0.94556000  1.0
  H  H83  1  0.85467000  0.24532000  0.95986000  1.0
  H  H84  1  0.31285000  0.69547000  0.56354000  1.0
  H  H85  1  0.31387000  0.75252000  0.52807000  1.0
  H  H86  1  0.40803000  0.70918000  0.57106000  1.0
  H  H87  1  0.40314000  0.72744000  0.50616000  1.0
  H  H88  1  0.55609000  0.80557000  0.07146000  1.0
  H  H89  1  0.55845000  0.76568000  0.01036000  1.0
  H  H90  1  0.65083000  0.81479000  0.05905000  1.0
  H  H91  1  0.64707000  0.74711000  0.03802000  1.0
  H  H92  1  0.11872000  0.23371000  0.39089000  1.0
  H  H93  1  0.13640000  0.28295000  0.44310000  1.0
  H  H94  1  0.14150000  0.17778000  0.45042000  1.0
  H  H95  1  0.10199000  0.22256000  0.49373000  1.0
  C  C96  1  0.34491000  0.60696000  0.62424000  1.0
  C  C97  1  0.37593000  0.60807000  0.65311000  1.0
  C  C98  1  0.40748000  0.63655000  0.65642000  1.0
  C  C99  1  0.40823000  0.66398000  0.62929000  1.0
  C  C100  1  0.37751000  0.66406000  0.60038000  1.0
  C  C101  1  0.34656000  0.63485000  0.59778000  1.0
  C  C102  1  0.65047000  0.90554000  0.13991000  1.0
  C  C103  1  0.62023000  0.90324000  0.16853000  1.0
  C  C104  1  0.58970000  0.87373000  0.16675000  1.0
  C  C105  1  0.59068000  0.84548000  0.13595000  1.0
  C  C106  1  0.62049000  0.84693000  0.10673000  1.0
  C  C107  1  0.65046000  0.87679000  0.10942000  1.0
  C  C108  1  0.84506000  0.39802000  0.87537000  1.0
  C  C109  1  0.84664000  0.37062000  0.90237000  1.0
  C  C110  1  0.87796000  0.34262000  0.90142000  1.0
  C  C111  1  0.90760000  0.34178000  0.87197000  1.0
  C  C112  1  0.90687000  0.36866000  0.84436000  1.0
  C  C113  1  0.87605000  0.39708000  0.84704000  1.0
  C  C114  1  0.15147000  0.09576000  0.36053000  1.0
  C  C115  1  0.12380000  0.10022000  0.32990000  1.0
  C  C116  1  0.09661000  0.13156000  0.32993000  1.0
  C  C117  1  0.09947000  0.16011000  0.36042000  1.0
  C  C118  1  0.12706000  0.15672000  0.39146000  1.0
  C  C119  1  0.15195000  0.12395000  0.39158000  1.0
  C  C120  1  0.80295000  0.04457000  0.12313000  1.0
  C  C121  1  0.77742000  0.03162000  0.09161000  1.0
  C  C122  1  0.78712000  0.05716000  0.06399000  1.0
  C  C123  1  0.97485000  0.15866000  0.16831000  1.0
  C  C124  1  0.97688000  0.13481000  0.19861000  1.0
  C  C125  1  0.94007000  0.11215000  0.19380000  1.0
  C  C126  1  0.85388000  0.18814000  0.01004000  1.0
  C  C127  1  0.88217000  0.21899000  0.00749000  1.0
  C  C128  1  0.90927000  0.21649000  0.03910000  1.0
  C  C129  1  0.19377000  0.46807000  0.64702000  1.0
  C  C130  1  0.22304000  0.47547000  0.61859000  1.0
  C  C131  1  0.21503000  0.44598000  0.58960000  1.0
  C  C132  1  0.04302000  0.33940000  0.69386000  1.0
  C  C133  1  0.03859000  0.36648000  0.72553000  1.0
  C  C134  1  0.06779000  0.39550000  0.71850000  1.0
  C  C135  1  0.14288000  0.31367000  0.52128000  1.0
  C  C136  1  0.11913000  0.27935000  0.51853000  1.0
  C  C137  1  0.09862000  0.28007000  0.55390000  1.0
  C  C138  1  0.30338000  0.95994000  0.37805000  1.0
  C  C139  1  0.27487000  0.96818000  0.40796000  1.0
  C  C140  1  0.28256000  0.93961000  0.43292000  1.0
  C  C141  1  0.46864000  0.84411000  0.32571000  1.0
  C  C142  1  0.47291000  0.87066000  0.29799000  1.0
  C  C143  1  0.43957000  0.89605000  0.30586000  1.0
  C  C144  1  0.34757000  0.80664000  0.47995000  1.0
  C  C145  1  0.37499000  0.77553000  0.48121000  1.0
  C  C146  1  0.40267000  0.78025000  0.45087000  1.0
  C  C147  1  0.69161000  0.53151000  0.85540000  1.0
  C  C148  1  0.72471000  0.52668000  0.88134000  1.0
  C  C149  1  0.71992000  0.55735000  0.90946000  1.0
  C  C150  1  0.54288000  0.65890000  0.80929000  1.0
  C  C151  1  0.53730000  0.63186000  0.77756000  1.0
  C  C152  1  0.56377000  0.60172000  0.78586000  1.0
  C  C153  1  0.64926000  0.68703000  0.98067000  1.0
  C  C154  1  0.62146000  0.71786000  0.98610000  1.0
  C  C155  1  0.59631000  0.71441000  0.95277000  1.0
  C  C156  1  0.68060000  0.93733000  0.14271000  1.0
  C  C157  1  0.70187000  0.95102000  0.11328000  1.0
  C  C158  1  0.73056000  0.98298000  0.11753000  1.0
  C  C159  1  0.74812000  0.99972000  0.08786000  1.0
  C  C160  1  0.31141000  0.57802000  0.62156000  1.0
  C  C161  1  0.29749000  0.55909000  0.65130000  1.0
  C  C162  1  0.26579000  0.52915000  0.64998000  1.0
  C  C163  1  0.25490000  0.50518000  0.61898000  1.0
  C  C164  1  0.17960000  0.06316000  0.35836000  1.0
  C  C165  1  0.19952000  0.04824000  0.38795000  1.0
  C  C166  1  0.22803000  0.01686000  0.38327000  1.0
  C  C167  1  0.24483000  0.99877000  0.41244000  1.0
  C  C168  1  0.81159000  0.42614000  0.87722000  1.0
  C  C169  1  0.79690000  0.44416000  0.84718000  1.0
  C  C170  1  0.76510000  0.47330000  0.84886000  1.0
  C  C171  1  0.75695000  0.49803000  0.87968000  1.0
  C  C172  1  0.06481000  0.13424000  0.30012000  1.0
  C  C173  1  0.04674000  0.10363000  0.27978000  1.0
  C  C174  1  0.01507000  0.10485000  0.25019000  1.0
  C  C175  1  0.00974000  0.13365000  0.22709000  1.0
  C  C176  1  0.43750000  0.63677000  0.68800000  1.0
  C  C177  1  0.46327000  0.66623000  0.70102000  1.0
  C  C178  1  0.49265000  0.66539000  0.73256000  1.0
  C  C179  1  0.51067000  0.63339000  0.74427000  1.0
  C  C180  1  0.93648000  0.36774000  0.81281000  1.0
  C  C181  1  0.95751000  0.33652000  0.79816000  1.0
  C  C182  1  0.98711000  0.33585000  0.76708000  1.0
  C  C183  1  0.01088000  0.36610000  0.75781000  1.0
  C  C184  1  0.55741000  0.87196000  0.19582000  1.0
  C  C185  1  0.54326000  0.90257000  0.21803000  1.0
  C  C186  1  0.51244000  0.90157000  0.24790000  1.0
  C  C187  1  0.50472000  0.87155000  0.26903000  1.0
  C  C188  1  0.87895000  0.31581000  0.93115000  1.0
  C  C189  1  0.91362000  0.29816000  0.94338000  1.0
  C  C190  1  0.91433000  0.27049000  0.97179000  1.0
  C  C191  1  0.88244000  0.24592000  0.97848000  1.0
  C  C192  1  0.37789000  0.69454000  0.57442000  1.0
  C  C193  1  0.34353000  0.70732000  0.55656000  1.0
  C  C194  1  0.34315000  0.73675000  0.53000000  1.0
  C  C195  1  0.37516000  0.74527000  0.50674000  1.0
  C  C196  1  0.62086000  0.81853000  0.07383000  1.0
  C  C197  1  0.58682000  0.79853000  0.05928000  1.0
  C  C198  1  0.58725000  0.76938000  0.02758000  1.0
  C  C199  1  0.61985000  0.74581000  0.01869000  1.0
  C  C200  1  0.13089000  0.18674000  0.42283000  1.0
  C  C201  1  0.12455000  0.22452000  0.41949000  1.0
  C  C202  1  0.12654000  0.25445000  0.45048000  1.0
  C  C203  1  0.11564000  0.25005000  0.48714000  1.0
  N  N204  1  0.81583000  0.08334000  0.07808000  1.0
  N  N205  1  0.82584000  0.07530000  0.11474000  1.0
  N  N206  1  0.91834000  0.12167000  0.16301000  1.0
  N  N207  1  0.93995000  0.15050000  0.14701000  1.0
  N  N208  1  0.89798000  0.18649000  0.05856000  1.0
  N  N209  1  0.86360000  0.16876000  0.04044000  1.0
  N  N210  1  0.18381000  0.42283000  0.60011000  1.0
  N  N211  1  0.17065000  0.43666000  0.63580000  1.0
  N  N212  1  0.08798000  0.38632000  0.68550000  1.0
  N  N213  1  0.07252000  0.35146000  0.67020000  1.0
  N  N214  1  0.10903000  0.31236000  0.57571000  1.0
  N  N215  1  0.13667000  0.33316000  0.55544000  1.0
  N  N216  1  0.31286000  0.91609000  0.41878000  1.0
  N  N217  1  0.32599000  0.92895000  0.38483000  1.0
  N  N218  1  0.41764000  0.88546000  0.33592000  1.0
  N  N219  1  0.43571000  0.85322000  0.34840000  1.0
  N  N220  1  0.39228000  0.81138000  0.43289000  1.0
  N  N221  1  0.35809000  0.82782000  0.45110000  1.0
  N  N222  1  0.68694000  0.57880000  0.90071000  1.0
  N  N223  1  0.66935000  0.56262000  0.86714000  1.0
  N  N224  1  0.58365000  0.61031000  0.81957000  1.0
  N  N225  1  0.57055000  0.64580000  0.83417000  1.0
  N  N226  1  0.60819000  0.68391000  0.92966000  1.0
  N  N227  1  0.64104000  0.66677000  0.94704000  1.0
