# generated using pymatgen
data_AgH14C18(NO)2
_symmetry_space_group_name_H-M   'P 1'
_cell_length_a   9.24936000
_cell_length_b   12.39680000
_cell_length_c   14.27340000
_cell_angle_alpha   86.93270000
_cell_angle_beta   81.80990000
_cell_angle_gamma   68.09230000
_symmetry_Int_Tables_number   1
_chemical_formula_structural   AgH14C18(NO)2
_chemical_formula_sum   'Ag4 H56 C72 N8 O8'
_cell_volume   1502.94947100
_cell_formula_units_Z   4
loop_
 _symmetry_equiv_pos_site_id
 _symmetry_equiv_pos_as_xyz
  1  'x, y, z'
loop_
 _atom_site_type_symbol
 _atom_site_label
 _atom_site_symmetry_multiplicity
 _atom_site_fract_x
 _atom_site_fract_y
 _atom_site_fract_z
 _atom_site_occupancy
  Ag  Ag0  1  0.27289000  0.24033000  0.33159000  1.0
  Ag  Ag1  1  0.48702000  0.24004000  0.16828000  1.0
  Ag  Ag2  1  0.72711000  0.75967000  0.66841000  1.0
  Ag  Ag3  1  0.51298000  0.75996000  0.83172000  1.0
  H  H4  1  0.92425000  0.30845000  0.35909000  1.0
  H  H5  1  0.76746000  0.30839000  0.14110000  1.0
  H  H6  1  0.07575000  0.69155000  0.64091000  1.0
  H  H7  1  0.23254000  0.69161000  0.85891000  1.0
  H  H8  1  0.76009000  0.43451000  0.33809000  1.0
  H  H9  1  0.80541000  0.43450000  0.16204000  1.0
  H  H10  1  0.23990000  0.56549000  0.66191000  1.0
  H  H11  1  0.19460000  0.56550000  0.83797000  1.0
  H  H12  1  0.79540000  0.39244000  0.45565000  1.0
  H  H13  1  0.81241000  0.39235000  0.04450000  1.0
  H  H14  1  0.20459000  0.60756000  0.54435000  1.0
  H  H15  1  0.18759000  0.60765000  0.95550000  1.0
  H  H16  1  0.71290000  0.57403000  0.24993000  1.0
  H  H17  1  0.28710000  0.42597000  0.75007000  1.0
  H  H18  1  0.20240000  0.06061000  0.36284000  1.0
  H  H19  1  0.73691000  0.06097000  0.13703000  1.0
  H  H20  1  0.79760000  0.93939000  0.63716000  1.0
  H  H21  1  0.26310000  0.93903000  0.86297000  1.0
  H  H22  1  0.73282000  0.72331000  0.46952000  1.0
  H  H23  1  0.54384000  0.72315000  0.03019000  1.0
  H  H24  1  0.26717000  0.27669000  0.53048000  1.0
  H  H25  1  0.45615000  0.27685000  0.96981000  1.0
  H  H26  1  0.67169000  0.61047000  0.44530000  1.0
  H  H27  1  0.71789000  0.61036000  0.05448000  1.0
  H  H28  1  0.32831000  0.38953000  0.55470000  1.0
  H  H29  1  0.28211000  0.38964000  0.94552000  1.0
  H  H30  1  0.92829000  0.11628000  0.32986000  1.0
  H  H31  1  0.95540000  0.11658000  0.16992000  1.0
  H  H32  1  0.07171000  0.88372000  0.67014000  1.0
  H  H33  1  0.04460000  0.88342000  0.83007000  1.0
  H  H34  1  0.40326000  0.97546000  0.47183000  1.0
  H  H35  1  0.62120000  0.97563000  0.02823000  1.0
  H  H36  1  0.59674000  0.02454000  0.52817000  1.0
  H  H37  1  0.37880000  0.02437000  0.97177000  1.0
  H  H38  1  0.94866000  0.80331000  0.40284000  1.0
  H  H39  1  0.24807000  0.80311000  0.09705000  1.0
  H  H40  1  0.05135000  0.19669000  0.59716000  1.0
  H  H41  1  0.75193000  0.19690000  0.90295000  1.0
  H  H42  1  0.22143000  0.80146000  0.38581000  1.0
  H  H43  1  0.97714000  0.80126000  0.11418000  1.0
  H  H44  1  0.77858000  0.19853000  0.61419000  1.0
  H  H45  1  0.02286000  0.19874000  0.88582000  1.0
  H  H46  1  0.41974000  0.42694000  0.35207000  1.0
  H  H47  1  0.15351000  0.42670000  0.14794000  1.0
  H  H48  1  0.58026000  0.57306000  0.64793000  1.0
  H  H49  1  0.84649000  0.57330000  0.85206000  1.0
  H  H50  1  0.45148000  0.61869000  0.36196000  1.0
  H  H51  1  0.92995000  0.61845000  0.13811000  1.0
  H  H52  1  0.54852000  0.38131000  0.63804000  1.0
  H  H53  1  0.07005000  0.38155000  0.86189000  1.0
  H  H54  1  0.62349000  0.89725000  0.38658000  1.0
  H  H55  1  0.47939000  0.89718000  0.11292000  1.0
  H  H56  1  0.37651000  0.10275000  0.61342000  1.0
  H  H57  1  0.52061000  0.10282000  0.88708000  1.0
  H  H58  1  0.49754000  0.00502000  0.24971000  1.0
  H  H59  1  0.50246000  0.99498000  0.75029000  1.0
  C  C60  1  0.85302000  0.39710000  0.38351000  1.0
  C  C61  1  0.75000000  0.39703000  0.11661000  1.0
  C  C62  1  0.14697000  0.60290000  0.61649000  1.0
  C  C63  1  0.25000000  0.60297000  0.88339000  1.0
  C  C64  1  0.95623000  0.46477000  0.38091000  1.0
  C  C65  1  0.57913000  0.46463000  0.11909000  1.0
  C  C66  1  0.04377000  0.53523000  0.61909000  1.0
  C  C67  1  0.42087000  0.53536000  0.88092000  1.0
  C  C68  1  0.66557000  0.66882000  0.24986000  1.0
  C  C69  1  0.33442000  0.33118000  0.75014000  1.0
  C  C70  1  0.16556000  0.50925000  0.37212000  1.0
  C  C71  1  0.32534000  0.50905000  0.12783000  1.0
  C  C72  1  0.83444000  0.49075000  0.62788000  1.0
  C  C73  1  0.67466000  0.49095000  0.87218000  1.0
  C  C74  1  0.03390000  0.61460000  0.38716000  1.0
  C  C75  1  0.35158000  0.61441000  0.11273000  1.0
  C  C76  1  0.96610000  0.38540000  0.61284000  1.0
  C  C77  1  0.64842000  0.38559000  0.88727000  1.0
  C  C78  1  0.67335000  0.72839000  0.32825000  1.0
  C  C79  1  0.59831000  0.72831000  0.17141000  1.0
  C  C80  1  0.32665000  0.27161000  0.67175000  1.0
  C  C81  1  0.40169000  0.27169000  0.82859000  1.0
  C  C82  1  0.17361000  0.02384000  0.43110000  1.0
  C  C83  1  0.80246000  0.02410000  0.06882000  1.0
  C  C84  1  0.82640000  0.97616000  0.56890000  1.0
  C  C85  1  0.19754000  0.97590000  0.93117000  1.0
  C  C86  1  0.74014000  0.66252000  0.41412000  1.0
  C  C87  1  0.59738000  0.66239000  0.08563000  1.0
  C  C88  1  0.25986000  0.33748000  0.58588000  1.0
  C  C89  1  0.40262000  0.33761000  0.91437000  1.0
  C  C90  1  0.74993000  0.07751000  0.42251000  1.0
  C  C91  1  0.17258000  0.07754000  0.07729000  1.0
  C  C92  1  0.25006000  0.92249000  0.57749000  1.0
  C  C93  1  0.82742000  0.92246000  0.92271000  1.0
  C  C94  1  0.90040000  0.07667000  0.39657000  1.0
  C  C95  1  0.02288000  0.07689000  0.10325000  1.0
  C  C96  1  0.09960000  0.92333000  0.60343000  1.0
  C  C97  1  0.97712000  0.92312000  0.89675000  1.0
  C  C98  1  0.62353000  0.13507000  0.36053000  1.0
  C  C99  1  0.24136000  0.13525000  0.13916000  1.0
  C  C100  1  0.37647000  0.86493000  0.63947000  1.0
  C  C101  1  0.75864000  0.86475000  0.86084000  1.0
  C  C102  1  0.28571000  0.97468000  0.49070000  1.0
  C  C103  1  0.73953000  0.97482000  0.00936000  1.0
  C  C104  1  0.71429000  0.02532000  0.50930000  1.0
  C  C105  1  0.26048000  0.02518000  0.99064000  1.0
  C  C106  1  0.04965000  0.72183000  0.39219000  1.0
  C  C107  1  0.22856000  0.72164000  0.10768000  1.0
  C  C108  1  0.95035000  0.27817000  0.60782000  1.0
  C  C109  1  0.77144000  0.27836000  0.89232000  1.0
  C  C110  1  0.20289000  0.72001000  0.38254000  1.0
  C  C111  1  0.07716000  0.71981000  0.11736000  1.0
  C  C112  1  0.79711000  0.27998000  0.61746000  1.0
  C  C113  1  0.92284000  0.28019000  0.88264000  1.0
  C  C114  1  0.31840000  0.50834000  0.36387000  1.0
  C  C115  1  0.17341000  0.50811000  0.13614000  1.0
  C  C116  1  0.68160000  0.49166000  0.63614000  1.0
  C  C117  1  0.82659000  0.49189000  0.86386000  1.0
  C  C118  1  0.33450000  0.61517000  0.36931000  1.0
  C  C119  1  0.05044000  0.61494000  0.13068000  1.0
  C  C120  1  0.66550000  0.38483000  0.63069000  1.0
  C  C121  1  0.94956000  0.38506000  0.86932000  1.0
  C  C122  1  0.61507000  0.84983000  0.32678000  1.0
  C  C123  1  0.53522000  0.84977000  0.17273000  1.0
  C  C124  1  0.38493000  0.15017000  0.67322000  1.0
  C  C125  1  0.46478000  0.15023000  0.82727000  1.0
  C  C126  1  0.01860000  0.02552000  0.45582000  1.0
  C  C127  1  0.95583000  0.02567000  0.04409000  1.0
  C  C128  1  0.98140000  0.97448000  0.54418000  1.0
  C  C129  1  0.04417000  0.97433000  0.95591000  1.0
  C  C130  1  0.54488000  0.91030000  0.24973000  1.0
  C  C131  1  0.45512000  0.08970000  0.75027000  1.0
  N  N132  1  0.90340000  0.58303000  0.39389000  1.0
  N  N133  1  0.51365000  0.58289000  0.10602000  1.0
  N  N134  1  0.09660000  0.41697000  0.60611000  1.0
  N  N135  1  0.48635000  0.41711000  0.89399000  1.0
  N  N136  1  0.11296000  0.41857000  0.36771000  1.0
  N  N137  1  0.46866000  0.41838000  0.13229000  1.0
  N  N138  1  0.88704000  0.58143000  0.63229000  1.0
  N  N139  1  0.53133000  0.58162000  0.86772000  1.0
  O  O140  1  0.48787000  0.13261000  0.39164000  1.0
  O  O141  1  0.37934000  0.13292000  0.10790000  1.0
  O  O142  1  0.51212000  0.86740000  0.60836000  1.0
  O  O143  1  0.62066000  0.86708000  0.89209000  1.0
  O  O144  1  0.65927000  0.18157000  0.28374000  1.0
  O  O145  1  0.15926000  0.18172000  0.21596000  1.0
  O  O146  1  0.34073000  0.81842000  0.71626000  1.0
  O  O147  1  0.84075000  0.81827000  0.78403000  1.0
