# generated using pymatgen
data_FeH7(C2O)3
_symmetry_space_group_name_H-M   'P 1'
_cell_length_a   6.80844000
_cell_length_b   15.27533800
_cell_length_c   15.33080000
_cell_angle_alpha   117.30477681
_cell_angle_beta   99.52160000
_cell_angle_gamma   98.30482550
_symmetry_Int_Tables_number   1
_chemical_formula_structural   FeH7(C2O)3
_chemical_formula_sum   'Fe6 H42 C36 O18'
_cell_volume   1352.37210582
_cell_formula_units_Z   6
loop_
 _symmetry_equiv_pos_site_id
 _symmetry_equiv_pos_as_xyz
  1  'x, y, z'
loop_
 _atom_site_type_symbol
 _atom_site_label
 _atom_site_symmetry_multiplicity
 _atom_site_fract_x
 _atom_site_fract_y
 _atom_site_fract_z
 _atom_site_occupancy
  Fe  Fe0  1  0.90241000  0.40967000  0.67947000  1.0
  Fe  Fe1  1  0.47584000  0.26506000  0.58850000  1.0
  Fe  Fe2  1  0.20105000  0.32928000  0.72658000  1.0
  Fe  Fe3  1  0.10828000  0.59001000  0.32293000  1.0
  Fe  Fe4  1  0.52646000  0.73454000  0.41223000  1.0
  Fe  Fe5  1  0.79305000  0.67734000  0.26956000  1.0
  H  H6  1  0.64729000  0.46504000  0.01998000  1.0
  H  H7  1  0.18625000  0.55820000  0.53322000  1.0
  H  H8  1  0.62476000  0.97574000  0.44284000  1.0
  H  H9  1  0.35145000  0.53472000  0.98157000  1.0
  H  H10  1  0.81439000  0.44169000  0.46635000  1.0
  H  H11  1  0.37462000  0.02440000  0.55829000  1.0
  H  H12  1  0.09582000  0.17665000  0.88560000  1.0
  H  H13  1  0.91593000  0.70834000  0.82297000  1.0
  H  H14  1  0.20730000  0.11530000  0.29221000  1.0
  H  H15  1  0.90350000  0.82314000  0.11452000  1.0
  H  H16  1  0.08438000  0.29072000  0.17667000  1.0
  H  H17  1  0.79269000  0.88452000  0.70766000  1.0
  H  H18  1  0.10285000  0.17023000  0.76838000  1.0
  H  H19  1  0.93314000  0.59840000  0.83155000  1.0
  H  H20  1  0.33587000  0.23235000  0.40208000  1.0
  H  H21  1  0.89774000  0.83007000  0.23192000  1.0
  H  H22  1  0.06606000  0.40072000  0.16842000  1.0
  H  H23  1  0.66409000  0.76749000  0.59781000  1.0
  H  H24  1  0.08014000  0.28403000  0.87197000  1.0
  H  H25  1  0.79177000  0.58807000  0.71622000  1.0
  H  H26  1  0.20747000  0.12751000  0.41208000  1.0
  H  H27  1  0.92079000  0.71592000  0.12822000  1.0
  H  H28  1  0.20772000  0.41099000  0.28352000  1.0
  H  H29  1  0.79225000  0.87247000  0.58785000  1.0
  H  H30  1  0.73137000  0.18622000  0.74148000  1.0
  H  H31  1  0.54627000  0.55609000  0.81364000  1.0
  H  H32  1  0.99157000  0.25738000  0.44310000  1.0
  H  H33  1  0.26916000  0.81394000  0.25831000  1.0
  H  H34  1  0.45302000  0.44381000  0.18642000  1.0
  H  H35  1  0.00799000  0.74258000  0.55644000  1.0
  H  H36  1  0.74731000  0.07869000  0.75574000  1.0
  H  H37  1  0.67026000  0.67700000  0.92066000  1.0
  H  H38  1  0.99012000  0.24442000  0.32218000  1.0
  H  H39  1  0.25260000  0.92151000  0.24412000  1.0
  H  H40  1  0.32973000  0.32285000  0.07923000  1.0
  H  H41  1  0.00988000  0.75537000  0.67736000  1.0
  H  H42  1  0.72535000  0.19193000  0.85876000  1.0
  H  H43  1  0.53060000  0.66729000  0.80653000  1.0
  H  H44  1  0.86363000  0.14034000  0.33199000  1.0
  H  H45  1  0.27447000  0.80825000  0.14101000  1.0
  H  H46  1  0.46985000  0.33265000  0.19331000  1.0
  H  H47  1  0.13621000  0.85957000  0.66766000  1.0
  C  C48  1  0.64527000  0.39249000  0.82621000  1.0
  C  C49  1  0.25524000  0.43689000  0.60633000  1.0
  C  C50  1  0.81094000  0.16855000  0.56043000  1.0
  C  C51  1  0.35432000  0.60807000  0.17432000  1.0
  C  C52  1  0.74674000  0.56336000  0.39338000  1.0
  C  C53  1  0.18602000  0.83050000  0.43666000  1.0
  C  C54  1  0.82935000  0.44795000  0.91406000  1.0
  C  C55  1  0.38390000  0.46716000  0.55250000  1.0
  C  C56  1  0.91412000  0.08497000  0.53235000  1.0
  C  C57  1  0.16969000  0.55309000  0.08809000  1.0
  C  C58  1  0.61734000  0.53298000  0.44772000  1.0
  C  C59  1  0.08525000  0.91501000  0.46760000  1.0
  C  C60  1  0.03286000  0.46760000  0.90315000  1.0
  C  C61  1  0.56541000  0.43254000  0.53347000  1.0
  C  C62  1  0.13152000  0.10029000  0.56665000  1.0
  C  C63  1  0.96667000  0.53257000  0.09972000  1.0
  C  C64  1  0.43593000  0.56723000  0.46693000  1.0
  C  C65  1  0.86832000  0.90027000  0.43401000  1.0
  C  C66  1  0.80228000  0.48069000  0.01175000  1.0
  C  C67  1  0.32503000  0.53307000  0.51889000  1.0
  C  C68  1  0.78982000  0.98625000  0.46778000  1.0
  C  C69  1  0.19677000  0.51990000  0.99038000  1.0
  C  C70  1  0.67602000  0.46698000  0.48131000  1.0
  C  C71  1  0.20964000  0.01409000  0.53331000  1.0
  C  C72  1  0.03053000  0.20035000  0.83176000  1.0
  C  C73  1  0.82825000  0.63139000  0.79988000  1.0
  C  C74  1  0.19792000  0.16852000  0.36888000  1.0
  C  C75  1  0.96977000  0.79966000  0.16838000  1.0
  C  C76  1  0.17148000  0.36781000  0.19986000  1.0
  C  C77  1  0.80196000  0.83137000  0.63097000  1.0
  C  C78  1  0.79641000  0.16224000  0.79500000  1.0
  C  C79  1  0.63362000  0.63311000  0.83721000  1.0
  C  C80  1  0.00042000  0.20461000  0.36635000  1.0
  C  C81  1  0.20384000  0.83797000  0.20491000  1.0
  C  C82  1  0.36623000  0.36664000  0.16269000  1.0
  C  C83  1  0.99948000  0.79530000  0.63330000  1.0
  O  O84  1  0.67210000  0.36230000  0.73622000  1.0
  O  O85  1  0.30756000  0.37471000  0.63581000  1.0
  O  O86  1  0.92268000  0.26017000  0.62068000  1.0
  O  O87  1  0.33191000  0.63492000  0.26423000  1.0
  O  O88  1  0.69935000  0.62858000  0.36737000  1.0
  O  O89  1  0.07431000  0.73944000  0.37111000  1.0
  O  O90  1  0.46763000  0.37549000  0.83982000  1.0
  O  O91  1  0.09456000  0.46915000  0.62382000  1.0
  O  O92  1  0.61721000  0.15110000  0.52668000  1.0
  O  O93  1  0.53109000  0.62764000  0.15953000  1.0
  O  O94  1  0.90143000  0.52715000  0.37324000  1.0
  O  O95  1  0.37809000  0.84624000  0.47278000  1.0
  O  O96  1  0.07686000  0.43837000  0.81256000  1.0
  O  O97  1  0.63550000  0.36894000  0.56242000  1.0
  O  O98  1  0.26470000  0.19276000  0.62845000  1.0
  O  O99  1  0.92385000  0.56005000  0.19017000  1.0
  O  O100  1  0.36415000  0.63053000  0.43765000  1.0
  O  O101  1  0.73389000  0.80849000  0.37220000  1.0
