# generated using pymatgen
data_Zn4H40C80Br13N25
_symmetry_space_group_name_H-M   'P 1'
_cell_length_a   18.99820000
_cell_length_b   19.09690000
_cell_length_c   20.49840000
_cell_angle_alpha   106.08700000
_cell_angle_beta   107.63200000
_cell_angle_gamma   111.73700000
_symmetry_Int_Tables_number   1
_chemical_formula_structural   Zn4H40C80Br13N25
_chemical_formula_sum   'Zn4 H40 C80 Br13 N25'
_cell_volume   5912.92962503
_cell_formula_units_Z   1
loop_
 _symmetry_equiv_pos_site_id
 _symmetry_equiv_pos_as_xyz
  1  'x, y, z'
loop_
 _atom_site_type_symbol
 _atom_site_label
 _atom_site_symmetry_multiplicity
 _atom_site_fract_x
 _atom_site_fract_y
 _atom_site_fract_z
 _atom_site_occupancy
  Zn  Zn0  1  0.89546000  0.89808000  0.49753000  1.0
  Zn  Zn1  1  0.11465000  0.11637000  0.50579000  1.0
  Zn  Zn2  1  0.10593000  0.00604000  0.60488000  1.0
  Zn  Zn3  1  0.90628000  0.00087000  0.39500000  1.0
  H  H4  1  0.31593000  0.17812000  0.53148000  1.0
  H  H5  1  0.89826000  0.86709000  0.25931000  1.0
  H  H6  1  0.17179000  0.02545000  0.39014000  1.0
  H  H7  1  0.87607000  0.74292000  0.36831000  1.0
  H  H8  1  0.71603000  0.86780000  0.24289000  1.0
  H  H9  1  0.30633000  0.04926000  0.67475000  1.0
  H  H10  1  0.48105000  0.24497000  0.61599000  1.0
  H  H11  1  0.14681000  0.28940000  0.47767000  1.0
  H  H12  1  0.74738000  0.31524000  0.60618000  1.0
  H  H13  1  0.74426000  0.00223000  0.60681000  1.0
  H  H14  1  0.49959000  0.95022000  0.64424000  1.0
  H  H15  1  0.12110000  0.72422000  0.40043000  1.0
  H  H16  1  0.88091000  0.61832000  0.40603000  1.0
  H  H17  1  0.81140000  0.33780000  0.36630000  1.0
  H  H18  1  0.89095000  0.26598000  0.37210000  1.0
  H  H19  1  0.10023000  0.12414000  0.74518000  1.0
  H  H20  1  0.17849000  0.63172000  0.36152000  1.0
  H  H21  1  0.38036000  0.57645000  0.18704000  1.0
  H  H22  1  0.52132000  0.68587000  0.29747000  1.0
  H  H23  1  0.17666000  0.38791000  0.72864000  1.0
  H  H24  1  0.86191000  0.13882000  0.48074000  1.0
  H  H25  1  0.62402000  0.71531000  0.13971000  1.0
  H  H26  1  0.96271000  0.90864000  0.05008000  1.0
  H  H27  1  0.84645000  0.82013000  0.73270000  1.0
  H  H28  1  0.08174000  0.79866000  0.89951000  1.0
  H  H29  1  0.10987000  0.79321000  0.11721000  1.0
  H  H30  1  0.10504000  0.27054000  0.61644000  1.0
  H  H31  1  0.86870000  0.01047000  0.62513000  1.0
  H  H32  1  0.11221000  0.94670000  0.74822000  1.0
  H  H33  1  0.69429000  0.73713000  0.38419000  1.0
  H  H34  1  0.38402000  0.93086000  0.58684000  1.0
  H  H35  1  0.32094000  0.97408000  0.58609000  1.0
  H  H36  1  0.03598000  0.18257000  0.79595000  1.0
  H  H37  1  0.08371000  0.22788000  0.89308000  1.0
  H  H38  1  0.98188000  0.00653000  0.23726000  1.0
  H  H39  1  0.94972000  0.99754000  0.14733000  1.0
  H  H40  1  0.83642000  0.79260000  0.89925000  1.0
  H  H41  1  0.78544000  0.80563000  0.82144000  1.0
  H  H42  1  0.13672000  0.86871000  0.31264000  1.0
  H  H43  1  0.16857000  0.82312000  0.25240000  1.0
  C  C44  1  0.91119000  0.84037000  0.62646000  1.0
  C  C45  1  0.01577000  0.23590000  0.38394000  1.0
  C  C46  1  0.10925000  0.22850000  0.71008000  1.0
  C  C47  1  0.84875000  0.09327000  0.56942000  1.0
  C  C48  1  0.71301000  0.77976000  0.35915000  1.0
  C  C49  1  0.29997000  0.14444000  0.56440000  1.0
  C  C50  1  0.07437000  0.83832000  0.49584000  1.0
  C  C51  1  0.96361000  0.91108000  0.30243000  1.0
  C  C52  1  0.10320000  0.99158000  0.36877000  1.0
  C  C53  1  0.94104000  0.78227000  0.41349000  1.0
  C  C54  1  0.72500000  0.84570000  0.28660000  1.0
  C  C55  1  0.08257000  0.23767000  0.43960000  1.0
  C  C56  1  0.29471000  0.07755000  0.63638000  1.0
  C  C57  1  0.66773000  0.77450000  0.28793000  1.0
  C  C58  1  0.34770000  0.11756000  0.60763000  1.0
  C  C59  1  0.00642000  0.76266000  0.43380000  1.0
  C  C60  1  0.03902000  0.93071000  0.29503000  1.0
  C  C61  1  0.44385000  0.05626000  0.61701000  1.0
  C  C62  1  0.42960000  0.12404000  0.61584000  1.0
  C  C63  1  0.49215000  0.19318000  0.61719000  1.0
  C  C64  1  0.56803000  0.19778000  0.61815000  1.0
  C  C65  1  0.58408000  0.13120000  0.62238000  1.0
  C  C66  1  0.09810000  0.14901000  0.70350000  1.0
  C  C67  1  0.52315000  0.06253000  0.62557000  1.0
  C  C68  1  0.63141000  0.26423000  0.61415000  1.0
  C  C69  1  0.70216000  0.26393000  0.61075000  1.0
  C  C70  1  0.71687000  0.19569000  0.61116000  1.0
  C  C71  1  0.65790000  0.13033000  0.62000000  1.0
  C  C72  1  0.67217000  0.06250000  0.62290000  1.0
  C  C73  1  0.61331000  0.99944000  0.63380000  1.0
  C  C74  1  0.54162000  0.99874000  0.63457000  1.0
  C  C75  1  0.78428000  0.18775000  0.60033000  1.0
  C  C76  1  0.79372000  0.11709000  0.59585000  1.0
  C  C77  1  0.86964000  0.10129000  0.51057000  1.0
  C  C78  1  0.73871000  0.05773000  0.61056000  1.0
  C  C79  1  0.06772000  0.67138000  0.39598000  1.0
  C  C80  1  0.00200000  0.68097000  0.40693000  1.0
  C  C81  1  0.93206000  0.61112000  0.39727000  1.0
  C  C82  1  0.92839000  0.53340000  0.38143000  1.0
  C  C83  1  0.99797000  0.52453000  0.37450000  1.0
  C  C84  1  0.06619000  0.59425000  0.37956000  1.0
  C  C85  1  0.85972000  0.46225000  0.37551000  1.0
  C  C86  1  0.86272000  0.39058000  0.36855000  1.0
  C  C87  1  0.93427000  0.38348000  0.36585000  1.0
  C  C88  1  0.10211000  0.22435000  0.63825000  1.0
  C  C89  1  0.00160000  0.44947000  0.36563000  1.0
  C  C90  1  0.07205000  0.43995000  0.35957000  1.0
  C  C91  1  0.13203000  0.50817000  0.35276000  1.0
  C  C92  1  0.13047000  0.58171000  0.36526000  1.0
  C  C93  1  0.94060000  0.31363000  0.36770000  1.0
  C  C94  1  0.01143000  0.30593000  0.36984000  1.0
  C  C95  1  0.07523000  0.36788000  0.36349000  1.0
  C  C96  1  0.58291000  0.71039000  0.22651000  1.0
  C  C97  1  0.57013000  0.68756000  0.15082000  1.0
  C  C98  1  0.49104000  0.62785000  0.08941000  1.0
  C  C99  1  0.87256000  0.03535000  0.58388000  1.0
  C  C100  1  0.42032000  0.58789000  0.10186000  1.0
  C  C101  1  0.43473000  0.60922000  0.17817000  1.0
  C  C102  1  0.51344000  0.66957000  0.23937000  1.0
  C  C103  1  0.19180000  0.37305000  0.91614000  1.0
  C  C104  1  0.13893000  0.29928000  0.84705000  1.0
  C  C105  1  0.24303000  0.45166000  0.91987000  1.0
  C  C106  1  0.14006000  0.30331000  0.77881000  1.0
  C  C107  1  0.17944000  0.38280000  0.78082000  1.0
  C  C108  1  0.22779000  0.45505000  0.84888000  1.0
  C  C109  1  0.96469000  0.82183000  0.75071000  1.0
  C  C110  1  0.94917000  0.15325000  0.35443000  1.0
  C  C111  1  0.02843000  0.81002000  0.79635000  1.0
  C  C112  1  0.02978000  0.80173000  0.86151000  1.0
  C  C113  1  0.96498000  0.80049000  0.88180000  1.0
  C  C114  1  0.89324000  0.79867000  0.83061000  1.0
  C  C115  1  0.89648000  0.81218000  0.76742000  1.0
  C  C116  1  0.99456000  0.89335000  0.09328000  1.0
  C  C117  1  0.99886000  0.92225000  0.16547000  1.0
  C  C118  1  0.03320000  0.84570000  0.07606000  1.0
  C  C119  1  0.04132000  0.90234000  0.22151000  1.0
  C  C120  1  0.08256000  0.85668000  0.20425000  1.0
  C  C121  1  0.04813000  0.91634000  0.70280000  1.0
  C  C122  1  0.07938000  0.82942000  0.13174000  1.0
  C  C123  1  0.97289000  0.85325000  0.69442000  1.0
  Br  Br124  1  0.79351000  0.76409000  0.57195000  1.0
  Br  Br125  1  0.17766000  0.85514000  0.56395000  1.0
  Br  Br126  1  0.61650000  0.35705000  0.61110000  1.0
  Br  Br127  1  0.86417000  0.27560000  0.59027000  1.0
  Br  Br128  1  0.63446000  0.91256000  0.64667000  1.0
  Br  Br129  1  0.76318000  0.46804000  0.37999000  1.0
  Br  Br130  1  0.16828000  0.35026000  0.36519000  1.0
  Br  Br131  1  0.21385000  0.50323000  0.31803000  1.0
  Br  Br132  1  0.18974000  0.36188000  0.00523000  1.0
  Br  Br133  1  0.48861000  0.59830000  0.99181000  1.0
  Br  Br134  1  0.27986000  0.55941000  0.84561000  1.0
  Br  Br135  1  0.11501000  0.80431000  0.76927000  1.0
  Br  Br136  1  0.83749000  0.09691000  0.27555000  1.0
  N  N137  1  0.94623000  0.89073000  0.59733000  1.0
  N  N138  1  0.22504000  0.12145000  0.56683000  1.0
  N  N139  1  0.05196000  0.89780000  0.51049000  1.0
  N  N140  1  0.98181000  0.95811000  0.37393000  1.0
  N  N141  1  0.06758000  0.00746000  0.41519000  1.0
  N  N142  1  0.96896000  0.86260000  0.45967000  1.0
  N  N143  1  0.79803000  0.88969000  0.35164000  1.0
  N  N144  1  0.22152000  0.07918000  0.61126000  1.0
  N  N145  1  0.33867000  0.52234000  0.04662000  1.0
  N  N146  1  0.31435000  0.52350000  0.98217000  1.0
  N  N147  1  0.96751000  0.81125000  0.95235000  1.0
  N  N148  1  0.05744000  0.16328000  0.44225000  1.0
  N  N149  1  0.03026000  0.81652000  0.00338000  1.0
  N  N150  1  0.08733000  0.10374000  0.63458000  1.0
  N  N151  1  0.90115000  0.05062000  0.49128000  1.0
  N  N152  1  0.08998000  0.14982000  0.59449000  1.0
  N  N153  1  0.90313000  0.01018000  0.53641000  1.0
  N  N154  1  0.97377000  0.11009000  0.38886000  1.0
  N  N155  1  0.03215000  0.93845000  0.64562000  1.0
  N  N156  1  0.79106000  0.84842000  0.39669000  1.0
  N  N157  1  0.38110000  0.98358000  0.60924000  1.0
  N  N158  1  0.09074000  0.22300000  0.84500000  1.0
  N  N159  1  0.95934000  0.96889000  0.18136000  1.0
  N  N160  1  0.82555000  0.78710000  0.84583000  1.0
  N  N161  1  0.12259000  0.83522000  0.25804000  1.0
