# generated using pymatgen
data_CuH6C8(N2O)3
_symmetry_space_group_name_H-M   'P 1'
_cell_length_a   7.14931000
_cell_length_b   7.50871000
_cell_length_c   11.15840000
_cell_angle_alpha   80.94200000
_cell_angle_beta   79.71940000
_cell_angle_gamma   70.99620000
_symmetry_Int_Tables_number   1
_chemical_formula_structural   CuH6C8(N2O)3
_chemical_formula_sum   'Cu2 H12 C16 N12 O6'
_cell_volume   554.08127288
_cell_formula_units_Z   2
loop_
 _symmetry_equiv_pos_site_id
 _symmetry_equiv_pos_as_xyz
  1  'x, y, z'
loop_
 _atom_site_type_symbol
 _atom_site_label
 _atom_site_symmetry_multiplicity
 _atom_site_fract_x
 _atom_site_fract_y
 _atom_site_fract_z
 _atom_site_occupancy
  Cu  Cu0  1  0.92758000  0.99090000  0.73693000  1.0
  Cu  Cu1  1  0.07242000  0.00909000  0.26307000  1.0
  H  H2  1  0.24763000  0.51868000  0.27489000  1.0
  H  H3  1  0.75237000  0.48132000  0.72511000  1.0
  H  H4  1  0.12178000  0.38055000  0.38056000  1.0
  H  H5  1  0.87822000  0.61946000  0.61944000  1.0
  H  H6  1  0.72929000  0.63224000  0.08466000  1.0
  H  H7  1  0.27072000  0.36776000  0.91535000  1.0
  H  H8  1  0.59277000  0.54489000  0.21614000  1.0
  H  H9  1  0.40722000  0.45510000  0.78386000  1.0
  H  H10  1  0.21049000  0.68805000  0.61341000  1.0
  H  H11  1  0.78950000  0.31196000  0.38659000  1.0
  H  H12  1  0.05946000  0.80152000  0.52164000  1.0
  H  H13  1  0.94054000  0.19849000  0.47836000  1.0
  C  C14  1  0.40688000  0.36322000  0.41004000  1.0
  C  C15  1  0.59312000  0.63680000  0.58996000  1.0
  C  C16  1  0.40548000  0.23644000  0.52478000  1.0
  C  C17  1  0.59453000  0.76357000  0.47522000  1.0
  C  C18  1  0.56858000  0.17685000  0.58893000  1.0
  C  C19  1  0.43141000  0.82315000  0.41108000  1.0
  C  C20  1  0.24138000  0.18058000  0.58193000  1.0
  C  C21  1  0.75861000  0.81945000  0.41807000  1.0
  C  C22  1  0.42786000  0.68852000  0.07898000  1.0
  C  C23  1  0.57215000  0.31147000  0.92101000  1.0
  C  C24  1  0.43693000  0.79405000  0.95559000  1.0
  C  C25  1  0.56308000  0.20592000  0.04440000  1.0
  C  C26  1  0.26404000  0.86047000  0.89992000  1.0
  C  C27  1  0.73596000  0.13951000  0.10008000  1.0
  C  C28  1  0.60983000  0.82490000  0.89102000  1.0
  C  C29  1  0.39017000  0.17510000  0.10898000  1.0
  N  N30  1  0.24109000  0.43315000  0.35700000  1.0
  N  N31  1  0.75890000  0.56687000  0.64300000  1.0
  N  N32  1  0.69966000  0.13057000  0.64838000  1.0
  N  N33  1  0.30033000  0.86942000  0.35163000  1.0
  N  N34  1  0.10335000  0.13376000  0.63213000  1.0
  N  N35  1  0.89664000  0.86628000  0.36788000  1.0
  N  N36  1  0.59704000  0.62241000  0.13114000  1.0
  N  N37  1  0.40296000  0.37758000  0.86886000  1.0
  N  N38  1  0.11756000  0.92409000  0.85437000  1.0
  N  N39  1  0.88245000  0.07589000  0.14563000  1.0
  N  N40  1  0.76083000  0.83901000  0.83439000  1.0
  N  N41  1  0.23917000  0.16098000  0.16562000  1.0
  O  O42  1  0.56413000  0.40751000  0.36459000  1.0
  O  O43  1  0.43587000  0.59249000  0.63540000  1.0
  O  O44  1  0.26547000  0.66514000  0.13077000  1.0
  O  O45  1  0.73454000  0.33484000  0.86922000  1.0
  O  O46  1  0.06340000  0.74837000  0.60704000  1.0
  O  O47  1  0.93660000  0.25163000  0.39296000  1.0
