# generated using pymatgen
data_KH21C24S2O9
_symmetry_space_group_name_H-M   'P 1'
_cell_length_a   5.58273000
_cell_length_b   18.92080000
_cell_length_c   23.48990000
_cell_angle_alpha   89.99920000
_cell_angle_beta   89.99950000
_cell_angle_gamma   89.99890000
_symmetry_Int_Tables_number   1
_chemical_formula_structural   KH21C24S2O9
_chemical_formula_sum   'K4 H84 C96 S8 O36'
_cell_volume   2481.23150698
_cell_formula_units_Z   4
loop_
 _symmetry_equiv_pos_site_id
 _symmetry_equiv_pos_as_xyz
  1  'x, y, z'
loop_
 _atom_site_type_symbol
 _atom_site_label
 _atom_site_symmetry_multiplicity
 _atom_site_fract_x
 _atom_site_fract_y
 _atom_site_fract_z
 _atom_site_occupancy
  K  K0  1  0.35543000  0.09188000  0.68986000  1.0
  K  K1  1  0.85542000  0.90813000  0.31014000  1.0
  K  K2  1  0.85548000  0.59189000  0.81013000  1.0
  K  K3  1  0.35542000  0.40813000  0.18986000  1.0
  H  H4  1  0.92567000  0.78676000  0.40435000  1.0
  H  H5  1  0.42566000  0.21324000  0.59566000  1.0
  H  H6  1  0.42566000  0.28676000  0.09565000  1.0
  H  H7  1  0.92569000  0.71324000  0.90435000  1.0
  H  H8  1  0.83029000  0.17985000  0.63020000  1.0
  H  H9  1  0.33027000  0.82014000  0.36980000  1.0
  H  H10  1  0.33029000  0.67986000  0.86980000  1.0
  H  H11  1  0.83029000  0.32015000  0.13020000  1.0
  H  H12  1  0.05366000  0.22956000  0.64052000  1.0
  H  H13  1  0.55365000  0.77043000  0.35948000  1.0
  H  H14  1  0.55367000  0.72957000  0.85949000  1.0
  H  H15  1  0.05365000  0.27043000  0.14051000  1.0
  H  H16  1  0.24538000  0.71136000  0.79211000  1.0
  H  H17  1  0.74541000  0.28863000  0.20789000  1.0
  H  H18  1  0.74539000  0.21136000  0.70789000  1.0
  H  H19  1  0.24538000  0.78863000  0.29210000  1.0
  H  H20  1  0.05319000  0.21953000  0.04929000  1.0
  H  H21  1  0.55322000  0.78046000  0.95071000  1.0
  H  H22  1  0.55321000  0.71954000  0.45070000  1.0
  H  H23  1  0.05320000  0.28046000  0.54931000  1.0
  H  H24  1  0.32378000  0.92013000  0.46022000  1.0
  H  H25  1  0.82379000  0.07988000  0.53977000  1.0
  H  H26  1  0.82379000  0.42013000  0.03976000  1.0
  H  H27  1  0.32382000  0.57987000  0.96024000  1.0
  H  H28  1  0.24454000  0.97571000  0.55479000  1.0
  H  H29  1  0.74457000  0.02429000  0.44521000  1.0
  H  H30  1  0.74452000  0.47571000  0.94520000  1.0
  H  H31  1  0.24455000  0.52428000  0.05480000  1.0
  H  H32  1  0.54770000  0.87679000  0.55861000  1.0
  H  H33  1  0.04769000  0.12322000  0.44139000  1.0
  H  H34  1  0.04769000  0.37679000  0.94139000  1.0
  H  H35  1  0.54769000  0.62321000  0.05861000  1.0
  H  H36  1  0.62608000  0.82293000  0.46535000  1.0
  H  H37  1  0.12606000  0.17707000  0.53465000  1.0
  H  H38  1  0.12608000  0.32293000  0.03466000  1.0
  H  H39  1  0.62609000  0.67707000  0.96534000  1.0
  H  H40  1  0.58995000  0.82947000  0.65506000  1.0
  H  H41  1  0.08996000  0.17053000  0.34495000  1.0
  H  H42  1  0.08995000  0.32946000  0.84495000  1.0
  H  H43  1  0.58994000  0.67053000  0.15505000  1.0
  H  H44  1  0.69850000  0.72363000  0.71158000  1.0
  H  H45  1  0.19852000  0.27637000  0.28842000  1.0
  H  H46  1  0.19850000  0.22362000  0.78843000  1.0
  H  H47  1  0.69849000  0.77638000  0.21157000  1.0
  H  H48  1  0.36758000  0.82184000  0.75811000  1.0
  H  H49  1  0.86759000  0.17817000  0.24188000  1.0
  H  H50  1  0.86756000  0.32182000  0.74188000  1.0
  H  H51  1  0.36755000  0.67816000  0.25812000  1.0
  H  H52  1  0.26202000  0.92740000  0.70087000  1.0
  H  H53  1  0.76204000  0.07260000  0.29913000  1.0
  H  H54  1  0.76201000  0.42739000  0.79912000  1.0
  H  H55  1  0.26200000  0.57260000  0.20088000  1.0
  H  H56  1  0.50729000  0.85370000  0.82982000  1.0
  H  H57  1  0.00728000  0.14630000  0.17017000  1.0
  H  H58  1  0.00727000  0.35371000  0.67018000  1.0
  H  H59  1  0.50728000  0.64630000  0.32983000  1.0
  H  H60  1  0.63977000  0.97114000  0.79338000  1.0
  H  H61  1  0.13977000  0.02886000  0.20662000  1.0
  H  H62  1  0.13970000  0.47114000  0.70661000  1.0
  H  H63  1  0.63973000  0.52886000  0.29339000  1.0
  H  H64  1  0.29355000  0.95137000  0.89015000  1.0
  H  H65  1  0.79355000  0.04863000  0.10985000  1.0
  H  H66  1  0.79353000  0.45138000  0.60985000  1.0
  H  H67  1  0.29355000  0.54862000  0.39014000  1.0
  H  H68  1  0.16049000  0.83423000  0.92584000  1.0
  H  H69  1  0.66047000  0.16577000  0.07416000  1.0
  H  H70  1  0.66050000  0.33423000  0.57417000  1.0
  H  H71  1  0.16051000  0.66576000  0.42583000  1.0
  H  H72  1  0.30773000  0.14618000  0.99953000  1.0
  H  H73  1  0.80770000  0.85381000  0.00047000  1.0
  H  H74  1  0.80770000  0.64619000  0.50047000  1.0
  H  H75  1  0.30769000  0.35381000  0.49954000  1.0
  H  H76  1  0.37008000  0.07663000  0.91114000  1.0
  H  H77  1  0.87005000  0.92337000  0.08885000  1.0
  H  H78  1  0.87002000  0.57664000  0.58887000  1.0
  H  H79  1  0.37002000  0.42336000  0.41114000  1.0
  H  H80  1  0.69356000  0.15052000  0.84525000  1.0
  H  H81  1  0.19358000  0.84949000  0.15475000  1.0
  H  H82  1  0.19350000  0.65053000  0.65474000  1.0
  H  H83  1  0.69352000  0.34947000  0.34526000  1.0
  H  H84  1  0.63587000  0.22379000  0.93325000  1.0
  H  H85  1  0.13590000  0.77620000  0.06675000  1.0
  H  H86  1  0.13586000  0.72380000  0.56674000  1.0
  H  H87  1  0.63590000  0.27620000  0.43327000  1.0
  C  C88  1  0.98568000  0.86489000  0.45807000  1.0
  C  C89  1  0.48568000  0.13511000  0.54193000  1.0
  C  C90  1  0.48569000  0.36489000  0.04193000  1.0
  C  C91  1  0.98570000  0.63510000  0.95807000  1.0
  C  C92  1  0.15577000  0.91037000  0.48239000  1.0
  C  C93  1  0.65578000  0.08964000  0.51760000  1.0
  C  C94  1  0.65578000  0.41037000  0.01760000  1.0
  C  C95  1  0.15579000  0.58963000  0.98240000  1.0
  C  C96  1  0.11115000  0.94151000  0.53504000  1.0
  C  C97  1  0.61115000  0.05849000  0.46496000  1.0
  C  C98  1  0.61115000  0.44150000  0.96495000  1.0
  C  C99  1  0.11117000  0.55849000  0.03504000  1.0
  C  C100  1  0.89429000  0.92792000  0.56292000  1.0
  C  C101  1  0.39428000  0.07208000  0.43707000  1.0
  C  C102  1  0.39428000  0.42791000  0.93707000  1.0
  C  C103  1  0.89429000  0.57209000  0.06293000  1.0
  C  C104  1  0.71929000  0.88541000  0.53772000  1.0
  C  C105  1  0.21931000  0.11460000  0.46228000  1.0
  C  C106  1  0.21930000  0.38540000  0.96228000  1.0
  C  C107  1  0.71932000  0.61460000  0.03772000  1.0
  C  C108  1  0.76395000  0.85487000  0.48521000  1.0
  C  C109  1  0.26396000  0.14513000  0.51479000  1.0
  C  C110  1  0.26395000  0.35487000  0.01480000  1.0
  C  C111  1  0.76397000  0.64513000  0.98520000  1.0
  C  C112  1  0.91738000  0.88579000  0.67561000  1.0
  C  C113  1  0.41735000  0.11420000  0.32438000  1.0
  C  C114  1  0.41735000  0.38579000  0.82438000  1.0
  C  C115  1  0.91735000  0.61421000  0.17561000  1.0
  C  C116  1  0.75986000  0.82803000  0.67783000  1.0
  C  C117  1  0.25984000  0.17197000  0.32217000  1.0
  C  C118  1  0.25982000  0.32802000  0.82217000  1.0
  C  C119  1  0.75983000  0.67198000  0.17782000  1.0
  C  C120  1  0.81962000  0.76876000  0.70956000  1.0
  C  C121  1  0.31964000  0.23124000  0.29044000  1.0
  C  C122  1  0.31964000  0.26876000  0.79045000  1.0
  C  C123  1  0.81963000  0.73124000  0.20955000  1.0
  C  C124  1  0.03802000  0.76669000  0.73954000  1.0
  C  C125  1  0.53803000  0.23332000  0.26046000  1.0
  C  C126  1  0.53802000  0.26668000  0.76046000  1.0
  C  C127  1  0.03800000  0.73332000  0.23954000  1.0
  C  C128  1  0.19619000  0.82424000  0.73614000  1.0
  C  C129  1  0.69620000  0.17576000  0.26386000  1.0
  C  C130  1  0.69617000  0.32423000  0.76386000  1.0
  C  C131  1  0.19615000  0.67576000  0.23613000  1.0
  C  C132  1  0.13688000  0.88349000  0.70419000  1.0
  C  C133  1  0.63687000  0.11650000  0.29581000  1.0
  C  C134  1  0.63686000  0.38349000  0.79580000  1.0
  C  C135  1  0.13685000  0.61650000  0.20419000  1.0
  C  C136  1  0.82585000  0.83557000  0.87940000  1.0
  C  C137  1  0.32584000  0.16443000  0.12060000  1.0
  C  C138  1  0.32585000  0.33558000  0.62060000  1.0
  C  C139  1  0.82584000  0.66442000  0.37940000  1.0
  C  C140  1  0.68101000  0.87504000  0.84190000  1.0
  C  C141  1  0.18102000  0.12496000  0.15810000  1.0
  C  C142  1  0.18101000  0.37505000  0.65810000  1.0
  C  C143  1  0.68100000  0.62495000  0.34190000  1.0
  C  C144  1  0.75387000  0.94058000  0.82175000  1.0
  C  C145  1  0.25386000  0.05942000  0.17824000  1.0
  C  C146  1  0.25382000  0.44060000  0.67825000  1.0
  C  C147  1  0.75381000  0.55940000  0.32176000  1.0
  C  C148  1  0.97485000  0.96792000  0.83914000  1.0
  C  C149  1  0.47484000  0.03207000  0.16085000  1.0
  C  C150  1  0.47482000  0.46794000  0.66086000  1.0
  C  C151  1  0.97481000  0.53206000  0.33914000  1.0
  C  C152  1  0.12121000  0.92997000  0.87678000  1.0
  C  C153  1  0.62121000  0.07002000  0.12321000  1.0
  C  C154  1  0.62122000  0.42999000  0.62322000  1.0
  C  C155  1  0.12121000  0.57001000  0.37679000  1.0
  C  C156  1  0.04791000  0.86432000  0.89666000  1.0
  C  C157  1  0.54791000  0.13568000  0.10334000  1.0
  C  C158  1  0.54791000  0.36433000  0.60335000  1.0
  C  C159  1  0.04791000  0.63567000  0.39665000  1.0
  C  C160  1  0.96405000  0.18764000  0.97243000  1.0
  C  C161  1  0.46404000  0.81236000  0.02758000  1.0
  C  C162  1  0.46400000  0.68765000  0.52757000  1.0
  C  C163  1  0.96402000  0.31236000  0.47244000  1.0
  C  C164  1  0.17370000  0.14713000  0.96576000  1.0
  C  C165  1  0.67371000  0.85287000  0.03424000  1.0
  C  C166  1  0.67365000  0.64714000  0.53424000  1.0
  C  C167  1  0.17367000  0.35287000  0.46576000  1.0
  C  C168  1  0.20753000  0.10779000  0.91655000  1.0
  C  C169  1  0.70754000  0.89221000  0.08345000  1.0
  C  C170  1  0.70748000  0.60780000  0.58345000  1.0
  C  C171  1  0.20752000  0.39221000  0.41656000  1.0
  C  C172  1  0.03223000  0.10843000  0.87386000  1.0
  C  C173  1  0.53225000  0.89156000  0.12613000  1.0
  C  C174  1  0.53219000  0.60844000  0.62613000  1.0
  C  C175  1  0.03221000  0.39156000  0.37387000  1.0
  C  C176  1  0.82653000  0.15028000  0.87927000  1.0
  C  C177  1  0.32653000  0.84971000  0.12074000  1.0
  C  C178  1  0.32646000  0.65029000  0.62072000  1.0
  C  C179  1  0.82647000  0.34971000  0.37928000  1.0
  C  C180  1  0.79431000  0.19067000  0.92817000  1.0
  C  C181  1  0.29431000  0.80932000  0.07184000  1.0
  C  C182  1  0.29427000  0.69068000  0.57182000  1.0
  C  C183  1  0.79429000  0.30932000  0.42818000  1.0
  S  S184  1  0.84520000  0.95917000  0.63250000  1.0
  S  S185  1  0.34519000  0.04083000  0.36749000  1.0
  S  S186  1  0.34518000  0.45915000  0.86749000  1.0
  S  S187  1  0.84518000  0.54084000  0.13251000  1.0
  S  S188  1  0.06532000  0.05181000  0.81479000  1.0
  S  S189  1  0.56533000  0.94819000  0.18521000  1.0
  S  S190  1  0.56528000  0.55182000  0.68521000  1.0
  S  S191  1  0.06529000  0.44818000  0.31480000  1.0
  O  O192  1  0.03533000  0.83166000  0.40810000  1.0
  O  O193  1  0.53534000  0.16834000  0.59190000  1.0
  O  O194  1  0.53535000  0.33166000  0.09190000  1.0
  O  O195  1  0.03535000  0.66833000  0.90810000  1.0
  O  O196  1  0.94599000  0.19411000  0.65980000  1.0
  O  O197  1  0.44600000  0.80588000  0.34020000  1.0
  O  O198  1  0.44601000  0.69412000  0.84020000  1.0
  O  O199  1  0.94602000  0.30589000  0.15979000  1.0
  O  O200  1  0.59006000  0.97416000  0.63922000  1.0
  O  O201  1  0.09005000  0.02584000  0.36079000  1.0
  O  O202  1  0.09002000  0.47415000  0.86079000  1.0
  O  O203  1  0.59004000  0.52584000  0.13920000  1.0
  O  O204  1  0.01553000  0.01567000  0.64321000  1.0
  O  O205  1  0.51552000  0.98433000  0.35677000  1.0
  O  O206  1  0.51551000  0.51567000  0.85677000  1.0
  O  O207  1  0.01552000  0.48433000  0.14323000  1.0
  O  O208  1  0.08822000  0.70845000  0.77028000  1.0
  O  O209  1  0.58824000  0.29155000  0.22972000  1.0
  O  O210  1  0.58825000  0.20845000  0.72973000  1.0
  O  O211  1  0.08823000  0.79154000  0.27027000  1.0
  O  O212  1  0.91738000  0.22368000  0.02083000  1.0
  O  O213  1  0.41734000  0.77631000  0.97917000  1.0
  O  O214  1  0.41737000  0.72369000  0.47916000  1.0
  O  O215  1  0.91735000  0.27632000  0.52084000  1.0
  O  O216  1  0.32158000  0.04864000  0.80171000  1.0
  O  O217  1  0.82160000  0.95136000  0.19829000  1.0
  O  O218  1  0.82155000  0.54866000  0.69830000  1.0
  O  O219  1  0.32156000  0.45134000  0.30171000  1.0
  O  O220  1  0.90367000  0.07469000  0.76986000  1.0
  O  O221  1  0.40368000  0.92531000  0.23013000  1.0
  O  O222  1  0.40363000  0.57471000  0.73014000  1.0
  O  O223  1  0.90364000  0.42530000  0.26987000  1.0
  O  O224  1  0.75047000  0.77282000  0.89915000  1.0
  O  O225  1  0.25043000  0.22719000  0.10085000  1.0
  O  O226  1  0.25047000  0.27282000  0.60086000  1.0
  O  O227  1  0.75046000  0.72718000  0.39914000  1.0
