# generated using pymatgen
data_Cd3H22(C15O8)2
_symmetry_space_group_name_H-M   'P 1'
_cell_length_a   6.67493000
_cell_length_b   15.26480000
_cell_length_c   19.47820000
_cell_angle_alpha   113.00800000
_cell_angle_beta   90.00000000
_cell_angle_gamma   102.62900000
_symmetry_Int_Tables_number   1
_chemical_formula_structural   Cd3H22(C15O8)2
_chemical_formula_sum   'Cd6 H44 C60 O32'
_cell_volume   1774.49970273
_cell_formula_units_Z   2
loop_
 _symmetry_equiv_pos_site_id
 _symmetry_equiv_pos_as_xyz
  1  'x, y, z'
loop_
 _atom_site_type_symbol
 _atom_site_label
 _atom_site_symmetry_multiplicity
 _atom_site_fract_x
 _atom_site_fract_y
 _atom_site_fract_z
 _atom_site_occupancy
  Cd  Cd0  1  0.53728000  0.00004000  0.75000000  1.0
  Cd  Cd1  1  0.46272000  0.99996000  0.25000000  1.0
  Cd  Cd2  1  0.94372000  0.80018000  0.64712000  1.0
  Cd  Cd3  1  0.14307000  0.19972000  0.85275000  1.0
  Cd  Cd4  1  0.05628000  0.19982000  0.35288000  1.0
  Cd  Cd5  1  0.85693000  0.80028000  0.14725000  1.0
  H  H6  1  0.69746000  0.53501000  0.41041000  1.0
  H  H7  1  0.16269000  0.46483000  0.08937000  1.0
  H  H8  1  0.30254000  0.46499000  0.58959000  1.0
  H  H9  1  0.83731000  0.53517000  0.91063000  1.0
  H  H10  1  0.79449000  0.44885000  0.59005000  1.0
  H  H11  1  0.34615000  0.55121000  0.90986000  1.0
  H  H12  1  0.20551000  0.55115000  0.40996000  1.0
  H  H13  1  0.65385000  0.44879000  0.09014000  1.0
  H  H14  1  0.13708000  0.97763000  0.63147000  1.0
  H  H15  1  0.15991000  0.02246000  0.86852000  1.0
  H  H16  1  0.86292000  0.02237000  0.36853000  1.0
  H  H17  1  0.84009000  0.97754000  0.13148000  1.0
  H  H18  1  0.89607000  0.97757000  0.63003000  1.0
  H  H19  1  0.91883000  0.02229000  0.86989000  1.0
  H  H20  1  0.10393000  0.02243000  0.36997000  1.0
  H  H21  1  0.08117000  0.97770000  0.13011000  1.0
  H  H22  1  0.57124000  0.35885000  0.32325000  1.0
  H  H23  1  0.21289000  0.64097000  0.17663000  1.0
  H  H24  1  0.42876000  0.64115000  0.67675000  1.0
  H  H25  1  0.78711000  0.35903000  0.82337000  1.0
  H  H26  1  0.99288000  0.73428000  0.75203000  1.0
  H  H27  1  0.25853000  0.26579000  0.74801000  1.0
  H  H28  1  0.00712000  0.26572000  0.24796000  1.0
  H  H29  1  0.74147000  0.73421000  0.25199000  1.0
  H  H30  1  0.11389000  0.84607000  0.79707000  1.0
  H  H31  1  0.26754000  0.15397000  0.70289000  1.0
  H  H32  1  0.88611000  0.15393000  0.20293000  1.0
  H  H33  1  0.73246000  0.84603000  0.29711000  1.0
  H  H34  1  0.96929000  0.29997000  0.56449000  1.0
  H  H35  1  0.67055000  0.70017000  0.93568000  1.0
  H  H36  1  0.03071000  0.70003000  0.43551000  1.0
  H  H37  1  0.32945000  0.29983000  0.06432000  1.0
  H  H38  1  0.91466000  0.18530000  0.63003000  1.0
  H  H39  1  0.73080000  0.81481000  0.87010000  1.0
  H  H40  1  0.08534000  0.81470000  0.36997000  1.0
  H  H41  1  0.26920000  0.18519000  0.12990000  1.0
  H  H42  1  0.27759000  0.07941000  0.53888000  1.0
  H  H43  1  0.19923000  0.92051000  0.96101000  1.0
  H  H44  1  0.72241000  0.92059000  0.46112000  1.0
  H  H45  1  0.80076000  0.07949000  0.03899000  1.0
  H  H46  1  0.33270000  0.19228000  0.47408000  1.0
  H  H47  1  0.14135000  0.80775000  0.02589000  1.0
  H  H48  1  0.66730000  0.80772000  0.52592000  1.0
  H  H49  1  0.85865000  0.19225000  0.97411000  1.0
  C  C50  1  0.55624000  0.20082000  0.35325000  1.0
  C  C51  1  0.35589000  0.79907000  0.14676000  1.0
  C  C52  1  0.44376000  0.79918000  0.64675000  1.0
  C  C53  1  0.64411000  0.20093000  0.85325000  1.0
  C  C54  1  0.61652000  0.30504000  0.40788000  1.0
  C  C55  1  0.31212000  0.69488000  0.09208000  1.0
  C  C56  1  0.38348000  0.69496000  0.59212000  1.0
  C  C57  1  0.68788000  0.30513000  0.90792000  1.0
  C  C58  1  0.69323000  0.47684000  0.42986000  1.0
  C  C59  1  0.21678000  0.52305000  0.06998000  1.0
  C  C60  1  0.30677000  0.52316000  0.57014000  1.0
  C  C61  1  0.78322000  0.47695000  0.93002000  1.0
  C  C62  1  0.75739000  0.50171000  0.50489000  1.0
  C  C63  1  0.25597000  0.49824000  0.99494000  1.0
  C  C64  1  0.24261000  0.49829000  0.49511000  1.0
  C  C65  1  0.74403000  0.50176000  0.00506000  1.0
  C  C66  1  0.74859000  0.42788000  0.53102000  1.0
  C  C67  1  0.32125000  0.57213000  0.96888000  1.0
  C  C68  1  0.25141000  0.57212000  0.46898000  1.0
  C  C69  1  0.67875000  0.42788000  0.03112000  1.0
  C  C70  1  0.67779000  0.32897000  0.48360000  1.0
  C  C71  1  0.34962000  0.67103000  0.01638000  1.0
  C  C72  1  0.32221000  0.67103000  0.51640000  1.0
  C  C73  1  0.65038000  0.32898000  0.98362000  1.0
  C  C74  1  0.82885000  0.60655000  0.55830000  1.0
  C  C75  1  0.22236000  0.39343000  0.94147000  1.0
  C  C76  1  0.17114000  0.39345000  0.44170000  1.0
  C  C77  1  0.77764000  0.60657000  0.05853000  1.0
  C  C78  1  0.62226000  0.37888000  0.38170000  1.0
  C  C79  1  0.24390000  0.62099000  0.11819000  1.0
  C  C80  1  0.37774000  0.62112000  0.61830000  1.0
  C  C81  1  0.75610000  0.37901000  0.88181000  1.0
  C  C82  1  0.65456000  0.25422000  0.51562000  1.0
  C  C83  1  0.40140000  0.74585000  0.98444000  1.0
  C  C84  1  0.34544000  0.74578000  0.48438000  1.0
  C  C85  1  0.59860000  0.25415000  0.01556000  1.0
  C  C86  1  0.81844000  0.25150000  0.55947000  1.0
  C  C87  1  0.56818000  0.74865000  0.94066000  1.0
  C  C88  1  0.18157000  0.74850000  0.44053000  1.0
  C  C89  1  0.43182000  0.25135000  0.05934000  1.0
  C  C90  1  0.78906000  0.18679000  0.59492000  1.0
  C  C91  1  0.60357000  0.81333000  0.90518000  1.0
  C  C92  1  0.21095000  0.81321000  0.40508000  1.0
  C  C93  1  0.39643000  0.18667000  0.09482000  1.0
  C  C94  1  0.59294000  0.12601000  0.58883000  1.0
  C  C95  1  0.46803000  0.87400000  0.91117000  1.0
  C  C96  1  0.40706000  0.87399000  0.41117000  1.0
  C  C97  1  0.53197000  0.12600000  0.08883000  1.0
  C  C98  1  0.42964000  0.12706000  0.54401000  1.0
  C  C99  1  0.30367000  0.87293000  0.95596000  1.0
  C  C100  1  0.57036000  0.87294000  0.45599000  1.0
  C  C101  1  0.69633000  0.12707000  0.04404000  1.0
  C  C102  1  0.46147000  0.18951000  0.50683000  1.0
  C  C103  1  0.27299000  0.81053000  0.99318000  1.0
  C  C104  1  0.53854000  0.81049000  0.49317000  1.0
  C  C105  1  0.72701000  0.18947000  0.00682000  1.0
  C  C106  1  0.55518000  0.06895000  0.63595000  1.0
  C  C107  1  0.48691000  0.93100000  0.86402000  1.0
  C  C108  1  0.44482000  0.93105000  0.36406000  1.0
  C  C109  1  0.51309000  0.06900000  0.13598000  1.0
  O  O110  1  0.69261000  0.15011000  0.33762000  1.0
  O  O111  1  0.54288000  0.84986000  0.16244000  1.0
  O  O112  1  0.30738000  0.84989000  0.66238000  1.0
  O  O113  1  0.45712000  0.15014000  0.83756000  1.0
  O  O114  1  0.37431000  0.16222000  0.32046000  1.0
  O  O115  1  0.21243000  0.83759000  0.17955000  1.0
  O  O116  1  0.62569000  0.83778000  0.67954000  1.0
  O  O117  1  0.78757000  0.16241000  0.82045000  1.0
  O  O118  1  0.37951000  0.05976000  0.66345000  1.0
  O  O119  1  0.32023000  0.94012000  0.83660000  1.0
  O  O120  1  0.62049000  0.94024000  0.33655000  1.0
  O  O121  1  0.67977000  0.05988000  0.16340000  1.0
  O  O122  1  0.69680000  0.03543000  0.65353000  1.0
  O  O123  1  0.66186000  0.96465000  0.84637000  1.0
  O  O124  1  0.30320000  0.96457000  0.34647000  1.0
  O  O125  1  0.33814000  0.03535000  0.15363000  1.0
  O  O126  1  0.88027000  0.62712000  0.62676000  1.0
  O  O127  1  0.25325000  0.37291000  0.87304000  1.0
  O  O128  1  0.11973000  0.37288000  0.37324000  1.0
  O  O129  1  0.74676000  0.62709000  0.12696000  1.0
  O  O130  1  0.83425000  0.67316000  0.53298000  1.0
  O  O131  1  0.16087000  0.32680000  0.96675000  1.0
  O  O132  1  0.16575000  0.32684000  0.46702000  1.0
  O  O133  1  0.83912000  0.67320000  0.03325000  1.0
  O  O134  1  0.99572000  0.93536000  0.61973000  1.0
  O  O135  1  0.06059000  0.06461000  0.88023000  1.0
  O  O136  1  0.00428000  0.06464000  0.38027000  1.0
  O  O137  1  0.93941000  0.93539000  0.11977000  1.0
  O  O138  1  0.98108000  0.80182000  0.76781000  1.0
  O  O139  1  0.17904000  0.19825000  0.73214000  1.0
  O  O140  1  0.01892000  0.19818000  0.23219000  1.0
  O  O141  1  0.82096000  0.80175000  0.26786000  1.0
