# generated using pymatgen
data_DyPH11C9SNO9
_symmetry_space_group_name_H-M   'P 1'
_cell_length_a   6.75003000
_cell_length_b   7.52037000
_cell_length_c   13.33570000
_cell_angle_alpha   90.65270000
_cell_angle_beta   93.26240000
_cell_angle_gamma   101.85500000
_symmetry_Int_Tables_number   1
_chemical_formula_structural   DyPH11C9SNO9
_chemical_formula_sum   'Dy2 P2 H22 C18 S2 N2 O18'
_cell_volume   661.25910636
_cell_formula_units_Z   2
loop_
 _symmetry_equiv_pos_site_id
 _symmetry_equiv_pos_as_xyz
  1  'x, y, z'
loop_
 _atom_site_type_symbol
 _atom_site_label
 _atom_site_symmetry_multiplicity
 _atom_site_fract_x
 _atom_site_fract_y
 _atom_site_fract_z
 _atom_site_occupancy
  Dy  Dy0  1  0.28520000  0.76877000  0.45492000  1.0
  Dy  Dy1  1  0.71480000  0.23122000  0.54508000  1.0
  P  P2  1  0.25079000  0.38644000  0.62071000  1.0
  P  P3  1  0.74921000  0.61356000  0.37929000  1.0
  H  H4  1  0.16779000  0.10668000  0.77429000  1.0
  H  H5  1  0.83221000  0.89332000  0.22571000  1.0
  H  H6  1  0.16660000  0.12572000  0.96134000  1.0
  H  H7  1  0.83340000  0.87428000  0.03866000  1.0
  H  H8  1  0.21450000  0.31976000  0.12027000  1.0
  H  H9  1  0.78550000  0.68025000  0.87974000  1.0
  H  H10  1  0.27361000  0.62769000  0.19928000  1.0
  H  H11  1  0.72638000  0.37231000  0.80072000  1.0
  H  H12  1  0.32950000  0.89984000  0.09603000  1.0
  H  H13  1  0.67050000  0.10016000  0.90397000  1.0
  H  H14  1  0.33489000  0.87168000  0.90778000  1.0
  H  H15  1  0.66511000  0.12832000  0.09222000  1.0
  H  H16  1  0.31054000  0.67856000  0.76635000  1.0
  H  H17  1  0.68946000  0.32144000  0.23365000  1.0
  H  H18  1  0.23139000  0.39116000  0.34445000  1.0
  H  H19  1  0.76861000  0.60884000  0.65554000  1.0
  H  H20  1  0.02421000  0.41748000  0.38626000  1.0
  H  H21  1  0.97579000  0.58252000  0.61374000  1.0
  H  H22  1  0.22998000  0.92169000  0.64493000  1.0
  H  H23  1  0.77002000  0.07831000  0.35508000  1.0
  H  H24  1  0.10957000  0.03952000  0.57611000  1.0
  H  H25  1  0.89043000  0.96048000  0.42389000  1.0
  C  C26  1  0.23916000  0.39687000  0.75821000  1.0
  C  C27  1  0.76084000  0.60313000  0.24179000  1.0
  C  C28  1  0.19726000  0.23705000  0.81405000  1.0
  C  C29  1  0.80274000  0.76295000  0.18595000  1.0
  C  C30  1  0.19674000  0.24859000  0.91719000  1.0
  C  C31  1  0.80326000  0.75141000  0.08281000  1.0
  C  C32  1  0.23429000  0.41933000  0.96796000  1.0
  C  C33  1  0.76571000  0.58067000  0.03204000  1.0
  C  C34  1  0.23714000  0.43983000  0.07380000  1.0
  C  C35  1  0.76287000  0.56017000  0.92620000  1.0
  C  C36  1  0.27191000  0.61072000  0.11808000  1.0
  C  C37  1  0.72809000  0.38928000  0.88192000  1.0
  C  C38  1  0.30462000  0.76707000  0.05832000  1.0
  C  C39  1  0.69538000  0.23293000  0.94168000  1.0
  C  C40  1  0.30595000  0.75305000  0.95498000  1.0
  C  C41  1  0.69406000  0.24695000  0.04502000  1.0
  C  C42  1  0.27116000  0.57841000  0.90901000  1.0
  C  C43  1  0.72884000  0.42159000  0.09099000  1.0
  S  S44  1  0.39622000  0.08002000  0.30922000  1.0
  S  S45  1  0.60378000  0.91998000  0.69078000  1.0
  N  N46  1  0.27258000  0.55809000  0.80659000  1.0
  N  N47  1  0.72742000  0.44191000  0.19341000  1.0
  O  O48  1  0.24783000  0.58013000  0.58779000  1.0
  O  O49  1  0.75217000  0.41987000  0.41221000  1.0
  O  O50  1  0.44333000  0.32006000  0.60359000  1.0
  O  O51  1  0.55667000  0.67994000  0.39641000  1.0
  O  O52  1  0.05835000  0.24991000  0.58479000  1.0
  O  O53  1  0.94165000  0.75008000  0.41521000  1.0
  O  O54  1  0.26703000  0.89686000  0.28749000  1.0
  O  O55  1  0.73297000  0.10314000  0.71251000  1.0
  O  O56  1  0.43331000  0.08593000  0.42291000  1.0
  O  O57  1  0.56669000  0.91406000  0.57708000  1.0
  O  O58  1  0.29839000  0.22716000  0.27478000  1.0
  O  O59  1  0.70161000  0.77284000  0.72522000  1.0
  O  O60  1  0.59509000  0.09657000  0.26173000  1.0
  O  O61  1  0.40491000  0.90343000  0.73827000  1.0
  O  O62  1  0.16018000  0.48362000  0.37065000  1.0
  O  O63  1  0.83982000  0.51638000  0.62935000  1.0
  O  O64  1  0.14101000  0.91603000  0.58253000  1.0
  O  O65  1  0.85899000  0.08397000  0.41747000  1.0
