# generated using pymatgen
data_CdH6(C5N6)2
_symmetry_space_group_name_H-M   'P 1'
_cell_length_a   9.13821000
_cell_length_b   9.13824000
_cell_length_c   15.76820000
_cell_angle_alpha   90.00030000
_cell_angle_beta   89.99920000
_cell_angle_gamma   89.99950000
_symmetry_Int_Tables_number   1
_chemical_formula_structural   CdH6(C5N6)2
_chemical_formula_sum   'Cd4 H24 C40 N48'
_cell_volume   1316.75753941
_cell_formula_units_Z   4
loop_
 _symmetry_equiv_pos_site_id
 _symmetry_equiv_pos_as_xyz
  1  'x, y, z'
loop_
 _atom_site_type_symbol
 _atom_site_label
 _atom_site_symmetry_multiplicity
 _atom_site_fract_x
 _atom_site_fract_y
 _atom_site_fract_z
 _atom_site_occupancy
  Cd  Cd0  1  0.75000000  0.25000000  0.25000000  1.0
  Cd  Cd1  1  0.75001000  0.25000000  0.75000000  1.0
  Cd  Cd2  1  0.25000000  0.75000000  0.75000000  1.0
  Cd  Cd3  1  0.25000000  0.75000000  0.25000000  1.0
  H  H4  1  0.84913000  0.65088000  0.52133000  1.0
  H  H5  1  0.34912000  0.34912000  0.02133000  1.0
  H  H6  1  0.15088000  0.15088000  0.02133000  1.0
  H  H7  1  0.34912000  0.15088000  0.47867000  1.0
  H  H8  1  0.65088000  0.84912000  0.52133000  1.0
  H  H9  1  0.84912000  0.84912000  0.97867000  1.0
  H  H10  1  0.65088000  0.65088000  0.97867000  1.0
  H  H11  1  0.15088000  0.34912000  0.47867000  1.0
  H  H12  1  0.71988000  0.44645000  0.44397000  1.0
  H  H13  1  0.55355000  0.21988000  0.94397000  1.0
  H  H14  1  0.94646000  0.28012000  0.94397000  1.0
  H  H15  1  0.55354000  0.28012000  0.55603000  1.0
  H  H16  1  0.78012000  0.05355000  0.44397000  1.0
  H  H17  1  0.71988000  0.05354000  0.05603000  1.0
  H  H18  1  0.78012000  0.44645000  0.05602000  1.0
  H  H19  1  0.94645000  0.21989000  0.55602000  1.0
  H  H20  1  0.28012000  0.55354000  0.55602000  1.0
  H  H21  1  0.44646000  0.78012000  0.05603000  1.0
  H  H22  1  0.05355000  0.71989000  0.05602000  1.0
  H  H23  1  0.44645000  0.71988000  0.44397000  1.0
  H  H24  1  0.21988000  0.94645000  0.55602000  1.0
  H  H25  1  0.28012000  0.94645000  0.94397000  1.0
  H  H26  1  0.21988000  0.55355000  0.94398000  1.0
  H  H27  1  0.05355000  0.78012000  0.44397000  1.0
  C  C28  1  0.97083000  0.52917000  0.30385000  1.0
  C  C29  1  0.47084000  0.47083000  0.80385000  1.0
  C  C30  1  0.02917000  0.02917000  0.80386000  1.0
  C  C31  1  0.47083000  0.02916000  0.69614000  1.0
  C  C32  1  0.52917000  0.97084000  0.30386000  1.0
  C  C33  1  0.97083000  0.97083000  0.19615000  1.0
  C  C34  1  0.52917000  0.52917000  0.19614000  1.0
  C  C35  1  0.02917000  0.47084000  0.69615000  1.0
  C  C36  1  0.88249000  0.61751000  0.45808000  1.0
  C  C37  1  0.38249000  0.38248000  0.95807000  1.0
  C  C38  1  0.11751000  0.11751000  0.95808000  1.0
  C  C39  1  0.38249000  0.11752000  0.54192000  1.0
  C  C40  1  0.61751000  0.88248000  0.45807000  1.0
  C  C41  1  0.88248000  0.88250000  0.04193000  1.0
  C  C42  1  0.61751000  0.61751000  0.04192000  1.0
  C  C43  1  0.11751000  0.38249000  0.54192000  1.0
  C  C44  1  0.81290000  0.50336000  0.41576000  1.0
  C  C45  1  0.49664000  0.31290000  0.91576000  1.0
  C  C46  1  0.00336000  0.18710000  0.91576000  1.0
  C  C47  1  0.49664000  0.18710000  0.58424000  1.0
  C  C48  1  0.68710000  0.99664000  0.41576000  1.0
  C  C49  1  0.81290000  0.99664000  0.08423000  1.0
  C  C50  1  0.68710000  0.50336000  0.08423000  1.0
  C  C51  1  0.00336000  0.31290000  0.58423000  1.0
  C  C52  1  0.18711000  0.49665000  0.58423000  1.0
  C  C53  1  0.50336000  0.68711000  0.08424000  1.0
  C  C54  1  0.99665000  0.81290000  0.08423000  1.0
  C  C55  1  0.50335000  0.81290000  0.41576000  1.0
  C  C56  1  0.31289000  0.00335000  0.58424000  1.0
  C  C57  1  0.18711000  0.00335000  0.91576000  1.0
  C  C58  1  0.31289000  0.49664000  0.91576000  1.0
  C  C59  1  0.99664000  0.68710000  0.41576000  1.0
  C  C60  1  0.02180000  0.47819000  0.22162000  1.0
  C  C61  1  0.52181000  0.52180000  0.72162000  1.0
  C  C62  1  0.97819000  0.97819000  0.72162000  1.0
  C  C63  1  0.52181000  0.97818000  0.77838000  1.0
  C  C64  1  0.47819000  0.02181000  0.22162000  1.0
  C  C65  1  0.02180000  0.02181000  0.27838000  1.0
  C  C66  1  0.47819000  0.47818000  0.27838000  1.0
  C  C67  1  0.97819000  0.52181000  0.77838000  1.0
  N  N68  1  0.85629000  0.45894000  0.33871000  1.0
  N  N69  1  0.54108000  0.35629000  0.83871000  1.0
  N  N70  1  0.95894000  0.14371000  0.83871000  1.0
  N  N71  1  0.54107000  0.14371000  0.66129000  1.0
  N  N72  1  0.64371000  0.04107000  0.33871000  1.0
  N  N73  1  0.85628000  0.04108000  0.16129000  1.0
  N  N74  1  0.64372000  0.45894000  0.16129000  1.0
  N  N75  1  0.95894000  0.35629000  0.66129000  1.0
  N  N76  1  0.14371000  0.54107000  0.66129000  1.0
  N  N77  1  0.45893000  0.64371000  0.16129000  1.0
  N  N78  1  0.04106000  0.85629000  0.16129000  1.0
  N  N79  1  0.45893000  0.85630000  0.33871000  1.0
  N  N80  1  0.35629000  0.95893000  0.66129000  1.0
  N  N81  1  0.14371000  0.95893000  0.83870000  1.0
  N  N82  1  0.35629000  0.54106000  0.83870000  1.0
  N  N83  1  0.04106000  0.64373000  0.33871000  1.0
  N  N84  1  0.14287000  0.46028000  0.10607000  1.0
  N  N85  1  0.53975000  0.64290000  0.60607000  1.0
  N  N86  1  0.96027000  0.85711000  0.60607000  1.0
  N  N87  1  0.53972000  0.85711000  0.89394000  1.0
  N  N88  1  0.35712000  0.03973000  0.10607000  1.0
  N  N89  1  0.14288000  0.03972000  0.39394000  1.0
  N  N90  1  0.35712000  0.46028000  0.39394000  1.0
  N  N91  1  0.96027000  0.64290000  0.89393000  1.0
  N  N92  1  0.85713000  0.53972000  0.89394000  1.0
  N  N93  1  0.46028000  0.35711000  0.39394000  1.0
  N  N94  1  0.03972000  0.14288000  0.39394000  1.0
  N  N95  1  0.46028000  0.14288000  0.10606000  1.0
  N  N96  1  0.64287000  0.96027000  0.89394000  1.0
  N  N97  1  0.85713000  0.96028000  0.60607000  1.0
  N  N98  1  0.64287000  0.53971000  0.60606000  1.0
  N  N99  1  0.03972000  0.35712000  0.10607000  1.0
  N  N100  1  0.13359000  0.53742000  0.17824000  1.0
  N  N101  1  0.46260000  0.63361000  0.67824000  1.0
  N  N102  1  0.03742000  0.86640000  0.67824000  1.0
  N  N103  1  0.46259000  0.86639000  0.82177000  1.0
  N  N104  1  0.36640000  0.96259000  0.17823000  1.0
  N  N105  1  0.13360000  0.96259000  0.32177000  1.0
  N  N106  1  0.36640000  0.53741000  0.32177000  1.0
  N  N107  1  0.03741000  0.63361000  0.82177000  1.0
  N  N108  1  0.86641000  0.46257000  0.82178000  1.0
  N  N109  1  0.53742000  0.36639000  0.32177000  1.0
  N  N110  1  0.96258000  0.13360000  0.32177000  1.0
  N  N111  1  0.53742000  0.13359000  0.17823000  1.0
  N  N112  1  0.63359000  0.03741000  0.82177000  1.0
  N  N113  1  0.86641000  0.03743000  0.67823000  1.0
  N  N114  1  0.63359000  0.46256000  0.67822000  1.0
  N  N115  1  0.96258000  0.36640000  0.17824000  1.0
