# generated using pymatgen
data_CaH6C14(SO4)2
_symmetry_space_group_name_H-M   'P 1'
_cell_length_a   5.36238000
_cell_length_b   9.56218000
_cell_length_c   14.81400000
_cell_angle_alpha   101.86900000
_cell_angle_beta   89.99990000
_cell_angle_gamma   89.99930000
_symmetry_Int_Tables_number   1
_chemical_formula_structural   CaH6C14(SO4)2
_chemical_formula_sum   'Ca2 H12 C28 S4 O16'
_cell_volume   743.36329003
_cell_formula_units_Z   2
loop_
 _symmetry_equiv_pos_site_id
 _symmetry_equiv_pos_as_xyz
  1  'x, y, z'
loop_
 _atom_site_type_symbol
 _atom_site_label
 _atom_site_symmetry_multiplicity
 _atom_site_fract_x
 _atom_site_fract_y
 _atom_site_fract_z
 _atom_site_occupancy
  Ca  Ca0  1  0.50000000  0.50000000  1.00000000  1.0
  Ca  Ca1  1  0.00000000  0.00000000  0.00000000  1.0
  H  H2  1  0.35787000  0.25091000  0.21411000  1.0
  H  H3  1  0.85784000  0.24910000  0.78588000  1.0
  H  H4  1  0.64213000  0.74908000  0.78589000  1.0
  H  H5  1  0.14214000  0.75091000  0.21411000  1.0
  H  H6  1  0.46092000  0.27419000  0.38182000  1.0
  H  H7  1  0.96087000  0.22581000  0.61818000  1.0
  H  H8  1  0.53911000  0.72581000  0.61818000  1.0
  H  H9  1  0.03910000  0.77419000  0.38182000  1.0
  H  H10  1  0.72614000  0.53122000  0.28982000  1.0
  H  H11  1  0.22612000  0.96879000  0.71018000  1.0
  H  H12  1  0.27389000  0.46879000  0.71018000  1.0
  H  H13  1  0.77387000  0.03121000  0.28982000  1.0
  C  C14  1  0.03958000  0.39233000  0.24293000  1.0
  C  C15  1  0.53955000  0.10767000  0.75707000  1.0
  C  C16  1  0.96044000  0.60767000  0.75707000  1.0
  C  C17  1  0.46043000  0.89233000  0.24293000  1.0
  C  C18  1  0.24595000  0.31799000  0.26745000  1.0
  C  C19  1  0.74593000  0.18201000  0.73254000  1.0
  C  C20  1  0.75406000  0.68200000  0.73254000  1.0
  C  C21  1  0.25405000  0.81799000  0.26745000  1.0
  C  C22  1  0.30213000  0.33031000  0.36026000  1.0
  C  C23  1  0.80210000  0.16969000  0.63974000  1.0
  C  C24  1  0.69789000  0.66969000  0.63974000  1.0
  C  C25  1  0.19788000  0.83031000  0.36026000  1.0
  C  C26  1  0.15422000  0.41475000  0.42831000  1.0
  C  C27  1  0.65418000  0.08525000  0.57170000  1.0
  C  C28  1  0.84582000  0.58525000  0.57170000  1.0
  C  C29  1  0.34579000  0.91475000  0.42830000  1.0
  C  C30  1  0.94570000  0.48728000  0.40284000  1.0
  C  C31  1  0.44566000  0.01272000  0.59716000  1.0
  C  C32  1  0.05434000  0.51272000  0.59716000  1.0
  C  C33  1  0.55431000  0.98727000  0.40284000  1.0
  C  C34  1  0.88885000  0.47584000  0.30932000  1.0
  C  C35  1  0.38882000  0.02417000  0.69068000  1.0
  C  C36  1  0.11118000  0.52417000  0.69068000  1.0
  C  C37  1  0.61117000  0.97583000  0.30932000  1.0
  C  C38  1  0.21807000  0.42432000  0.52683000  1.0
  C  C39  1  0.71807000  0.07569000  0.47317000  1.0
  C  C40  1  0.78195000  0.57570000  0.47316000  1.0
  C  C41  1  0.28194000  0.92431000  0.52683000  1.0
  S  S42  1  0.97394000  0.38142000  0.12420000  1.0
  S  S43  1  0.47392000  0.11858000  0.87580000  1.0
  S  S44  1  0.02607000  0.61857000  0.87580000  1.0
  S  S45  1  0.52606000  0.88142000  0.12420000  1.0
  O  O46  1  0.15079000  0.47749000  0.09163000  1.0
  O  O47  1  0.65078000  0.02252000  0.90837000  1.0
  O  O48  1  0.84923000  0.52251000  0.90837000  1.0
  O  O49  1  0.34922000  0.97750000  0.09163000  1.0
  O  O50  1  0.01112000  0.23163000  0.07947000  1.0
  O  O51  1  0.51110000  0.26836000  0.92053000  1.0
  O  O52  1  0.98887000  0.76836000  0.92053000  1.0
  O  O53  1  0.48886000  0.73164000  0.07946000  1.0
  O  O54  1  0.71462000  0.42921000  0.12037000  1.0
  O  O55  1  0.21461000  0.07080000  0.87964000  1.0
  O  O56  1  0.28538000  0.57080000  0.87964000  1.0
  O  O57  1  0.78538000  0.92920000  0.12036000  1.0
  O  O58  1  0.40197000  0.36170000  0.54989000  1.0
  O  O59  1  0.90192000  0.13829000  0.45012000  1.0
  O  O60  1  0.59809000  0.63831000  0.45012000  1.0
  O  O61  1  0.09805000  0.86169000  0.54989000  1.0
