# generated using pymatgen
data_MnH44C32(NO2)2
_symmetry_space_group_name_H-M   'P 1'
_cell_length_a   7.55915000
_cell_length_b   10.64920000
_cell_length_c   14.09130000
_cell_angle_alpha   110.92000000
_cell_angle_beta   90.01190000
_cell_angle_gamma   110.77500000
_symmetry_Int_Tables_number   1
_chemical_formula_structural   MnH44C32(NO2)2
_chemical_formula_sum   'Mn1 H44 C32 N2 O4'
_cell_volume   980.16001076
_cell_formula_units_Z   1
loop_
 _symmetry_equiv_pos_site_id
 _symmetry_equiv_pos_as_xyz
  1  'x, y, z'
loop_
 _atom_site_type_symbol
 _atom_site_label
 _atom_site_symmetry_multiplicity
 _atom_site_fract_x
 _atom_site_fract_y
 _atom_site_fract_z
 _atom_site_occupancy
  Mn  Mn0  1  0.00000000  0.00000000  0.00000000  1.0
  H  H1  1  0.05108000  0.10174000  0.60121000  1.0
  H  H2  1  0.94893000  0.89826000  0.39879000  1.0
  H  H3  1  0.91970000  0.83901000  0.53848000  1.0
  H  H4  1  0.08030000  0.16099000  0.46152000  1.0
  H  H5  1  0.24030000  0.48004000  0.74532000  1.0
  H  H6  1  0.75970000  0.51996000  0.25468000  1.0
  H  H7  1  0.04438000  0.32380000  0.66560000  1.0
  H  H8  1  0.72024000  0.67631000  0.33445000  1.0
  H  H9  1  0.95562000  0.67620000  0.33440000  1.0
  H  H10  1  0.27976000  0.32369000  0.66555000  1.0
  H  H11  1  0.41091000  0.48605000  0.89717000  1.0
  H  H12  1  0.92419000  0.51378000  0.10289000  1.0
  H  H13  1  0.58909000  0.51395000  0.10284000  1.0
  H  H14  1  0.07581000  0.48622000  0.89711000  1.0
  H  H15  1  0.45100000  0.32640000  0.82344000  1.0
  H  H16  1  0.12400000  0.67327000  0.17663000  1.0
  H  H17  1  0.54900000  0.67359000  0.17656000  1.0
  H  H18  1  0.87600000  0.32673000  0.82337000  1.0
  H  H19  1  0.33655000  0.33485000  0.93505000  1.0
  H  H20  1  0.00130000  0.66494000  0.06500000  1.0
  H  H21  1  0.66345000  0.66515000  0.06495000  1.0
  H  H22  1  0.99870000  0.33507000  0.93500000  1.0
  H  H23  1  0.73334000  0.46739000  0.50673000  1.0
  H  H24  1  0.26666000  0.53261000  0.49327000  1.0
  H  H25  1  0.92533000  0.61578000  0.49738000  1.0
  H  H26  1  0.31006000  0.38396000  0.50237000  1.0
  H  H27  1  0.07468000  0.38422000  0.50262000  1.0
  H  H28  1  0.68995000  0.61604000  0.49764000  1.0
  H  H29  1  0.99270000  0.64845000  0.77227000  1.0
  H  H30  1  0.34338000  0.35116000  0.22749000  1.0
  H  H31  1  0.00731000  0.35155000  0.22773000  1.0
  H  H32  1  0.65663000  0.64884000  0.77251000  1.0
  H  H33  1  0.10722000  0.63948000  0.66063000  1.0
  H  H34  1  0.46714000  0.36005000  0.33902000  1.0
  H  H35  1  0.89278000  0.36052000  0.33937000  1.0
  H  H36  1  0.53286000  0.63995000  0.66098000  1.0
  H  H37  1  0.90924000  0.48610000  0.66002000  1.0
  H  H38  1  0.42282000  0.51357000  0.33968000  1.0
  H  H39  1  0.09076000  0.51390000  0.33997000  1.0
  H  H40  1  0.57718000  0.48643000  0.66032000  1.0
  H  H41  1  0.21815000  0.77520000  0.94492000  1.0
  H  H42  1  0.44430000  0.22536000  0.05542000  1.0
  H  H43  1  0.78184000  0.22480000  0.05507000  1.0
  H  H44  1  0.55569000  0.77463000  0.94458000  1.0
  C  C45  1  0.95543000  0.91039000  0.79232000  1.0
  C  C46  1  0.04458000  0.08961000  0.20768000  1.0
  C  C47  1  0.03300000  0.06572000  0.82965000  1.0
  C  C48  1  0.96700000  0.93428000  0.17035000  1.0
  C  C49  1  0.07046000  0.14060000  0.76222000  1.0
  C  C50  1  0.92954000  0.85939000  0.23778000  1.0
  C  C51  1  0.02620000  0.05200000  0.65786000  1.0
  C  C52  1  0.97380000  0.94800000  0.34214000  1.0
  C  C53  1  0.94978000  0.89913000  0.62128000  1.0
  C  C54  1  0.05022000  0.10087000  0.37872000  1.0
  C  C55  1  0.91170000  0.82293000  0.68630000  1.0
  C  C56  1  0.08831000  0.17707000  0.31370000  1.0
  C  C57  1  0.15353000  0.30662000  0.80255000  1.0
  C  C58  1  0.84647000  0.69338000  0.19745000  1.0
  C  C59  1  0.18059000  0.36068000  0.71437000  1.0
  C  C60  1  0.81941000  0.63932000  0.28564000  1.0
  C  C61  1  0.34995000  0.36657000  0.86863000  1.0
  C  C62  1  0.98283000  0.63325000  0.13143000  1.0
  C  C63  1  0.65005000  0.63343000  0.13137000  1.0
  C  C64  1  0.01716000  0.36675000  0.86857000  1.0
  C  C65  1  0.82879000  0.65734000  0.64835000  1.0
  C  C66  1  0.17121000  0.34266000  0.35165000  1.0
  C  C67  1  0.79288000  0.58623000  0.53084000  1.0
  C  C68  1  0.20712000  0.41377000  0.46916000  1.0
  C  C69  1  0.96875000  0.60539000  0.68811000  1.0
  C  C70  1  0.36282000  0.39430000  0.31164000  1.0
  C  C71  1  0.03126000  0.39461000  0.31189000  1.0
  C  C72  1  0.63718000  0.60570000  0.68836000  1.0
  C  C73  1  0.34526000  0.87548000  0.96947000  1.0
  C  C74  1  0.47044000  0.12478000  0.03072000  1.0
  C  C75  1  0.65473000  0.12452000  0.03052000  1.0
  C  C76  1  0.52955000  0.87521000  0.96927000  1.0
  N  N77  1  0.31660000  0.00027000  0.00019000  1.0
  N  N78  1  0.68340000  0.99973000  0.99980000  1.0
  O  O79  1  0.92883000  0.85694000  0.86626000  1.0
  O  O80  1  0.07117000  0.14306000  0.13374000  1.0
  O  O81  1  0.06543000  0.13093000  0.93221000  1.0
  O  O82  1  0.93457000  0.86907000  0.06779000  1.0
