# generated using pymatgen
data_LaH23C21(NO5)2
_symmetry_space_group_name_H-M   'P 1'
_cell_length_a   8.73010000
_cell_length_b   11.19420000
_cell_length_c   12.61410000
_cell_angle_alpha   73.71270000
_cell_angle_beta   85.85260000
_cell_angle_gamma   76.28780000
_symmetry_Int_Tables_number   1
_chemical_formula_structural   LaH23C21(NO5)2
_chemical_formula_sum   'La2 H46 C42 N4 O20'
_cell_volume   1149.51201180
_cell_formula_units_Z   2
loop_
 _symmetry_equiv_pos_site_id
 _symmetry_equiv_pos_as_xyz
  1  'x, y, z'
loop_
 _atom_site_type_symbol
 _atom_site_label
 _atom_site_symmetry_multiplicity
 _atom_site_fract_x
 _atom_site_fract_y
 _atom_site_fract_z
 _atom_site_occupancy
  La  La0  1  0.66138000  0.11557000  0.61682000  1.0
  La  La1  1  0.33862000  0.88443000  0.38318000  1.0
  H  H2  1  0.44464000  0.40623000  0.42340000  1.0
  H  H3  1  0.55537000  0.59377000  0.57660000  1.0
  H  H4  1  0.30798000  0.65016000  0.09924000  1.0
  H  H5  1  0.69201000  0.34984000  0.90076000  1.0
  H  H6  1  0.35461000  0.24230000  0.17018000  1.0
  H  H7  1  0.64538000  0.75770000  0.82982000  1.0
  H  H8  1  0.02426000  0.58143000  0.07962000  1.0
  H  H9  1  0.97573000  0.41856000  0.92038000  1.0
  H  H10  1  0.85367000  0.78027000  0.96220000  1.0
  H  H11  1  0.14632000  0.21972000  0.03780000  1.0
  H  H12  1  0.19485000  0.78085000  0.69892000  1.0
  H  H13  1  0.80514000  0.21914000  0.30108000  1.0
  H  H14  1  0.35997000  0.57784000  0.81321000  1.0
  H  H15  1  0.64003000  0.42216000  0.18679000  1.0
  H  H16  1  0.20123000  0.84927000  0.98093000  1.0
  H  H17  1  0.79877000  0.15073000  0.01907000  1.0
  H  H18  1  0.23980000  0.95173000  0.05777000  1.0
  H  H19  1  0.76020000  0.04827000  0.94222000  1.0
  H  H20  1  0.39924000  0.85336000  0.00413000  1.0
  H  H21  1  0.60076000  0.14665000  0.99586000  1.0
  H  H22  1  0.03220000  0.04201000  0.87106000  1.0
  H  H23  1  0.96780000  0.95799000  0.12894000  1.0
  H  H24  1  0.12831000  0.12384000  0.75269000  1.0
  H  H25  1  0.87169000  0.87616000  0.24731000  1.0
  H  H26  1  0.09795000  0.17992000  0.87348000  1.0
  H  H27  1  0.90205000  0.82008000  0.12652000  1.0
  H  H28  1  0.51758000  0.95854000  0.86784000  1.0
  H  H29  1  0.48242000  0.04146000  0.13215000  1.0
  H  H30  1  0.66427000  0.45186000  0.45413000  1.0
  H  H31  1  0.33573000  0.54814000  0.54587000  1.0
  H  H32  1  0.13240000  0.42736000  0.40257000  1.0
  H  H33  1  0.86761000  0.57265000  0.59744000  1.0
  H  H34  1  0.07008000  0.37973000  0.29250000  1.0
  H  H35  1  0.92993000  0.62027000  0.70751000  1.0
  H  H36  1  0.06476000  0.28188000  0.43087000  1.0
  H  H37  1  0.93525000  0.71812000  0.56914000  1.0
  H  H38  1  0.92826000  0.63414000  0.36739000  1.0
  H  H39  1  0.07174000  0.36586000  0.63262000  1.0
  H  H40  1  0.72630000  0.62743000  0.35754000  1.0
  H  H41  1  0.27370000  0.37258000  0.64246000  1.0
  H  H42  1  0.86303000  0.60262000  0.24935000  1.0
  H  H43  1  0.13697000  0.39738000  0.75066000  1.0
  H  H44  1  0.86812000  0.02136000  0.40841000  1.0
  H  H45  1  0.13188000  0.97864000  0.59159000  1.0
  H  H46  1  0.71141000  0.96485000  0.43521000  1.0
  H  H47  1  0.28859000  0.03515000  0.56480000  1.0
  C  C48  1  0.42308000  0.18353000  0.38716000  1.0
  C  C49  1  0.57693000  0.81647000  0.61284000  1.0
  C  C50  1  0.40557000  0.31181000  0.30392000  1.0
  C  C51  1  0.59444000  0.68820000  0.69607000  1.0
  C  C52  1  0.41629000  0.41833000  0.33781000  1.0
  C  C53  1  0.58371000  0.58168000  0.66219000  1.0
  C  C54  1  0.38028000  0.53993000  0.26358000  1.0
  C  C55  1  0.61972000  0.46008000  0.73642000  1.0
  C  C56  1  0.37776000  0.65668000  0.30024000  1.0
  C  C57  1  0.62224000  0.34333000  0.69976000  1.0
  C  C58  1  0.33740000  0.55466000  0.15528000  1.0
  C  C59  1  0.66260000  0.44534000  0.84472000  1.0
  C  C60  1  0.33219000  0.44741000  0.12110000  1.0
  C  C61  1  0.66781000  0.55259000  0.87890000  1.0
  C  C62  1  0.36532000  0.32570000  0.19493000  1.0
  C  C63  1  0.63468000  0.67430000  0.80507000  1.0
  C  C64  1  0.20298000  0.57034000  0.95289000  1.0
  C  C65  1  0.79702000  0.42965000  0.04712000  1.0
  C  C66  1  0.06053000  0.62599000  0.99632000  1.0
  C  C67  1  0.93946000  0.37401000  0.00369000  1.0
  C  C68  1  0.96686000  0.73696000  0.93137000  1.0
  C  C69  1  0.03313000  0.26303000  0.06862000  1.0
  C  C70  1  0.01463000  0.79512000  0.82438000  1.0
  C  C71  1  0.98537000  0.20487000  0.17562000  1.0
  C  C72  1  0.91004000  0.91538000  0.75869000  1.0
  C  C73  1  0.08995000  0.08461000  0.24131000  1.0
  C  C74  1  0.15696000  0.73736000  0.78206000  1.0
  C  C75  1  0.84304000  0.26263000  0.21795000  1.0
  C  C76  1  0.25011000  0.62424000  0.84556000  1.0
  C  C77  1  0.74988000  0.37575000  0.15444000  1.0
  C  C78  1  0.27861000  0.91116000  0.98784000  1.0
  C  C79  1  0.72139000  0.08884000  0.01216000  1.0
  C  C80  1  0.12551000  0.09421000  0.84308000  1.0
  C  C81  1  0.87449000  0.90579000  0.15692000  1.0
  C  C82  1  0.41047000  0.02847000  0.83053000  1.0
  C  C83  1  0.58952000  0.97153000  0.16946000  1.0
  C  C84  1  0.78091000  0.38911000  0.44872000  1.0
  C  C85  1  0.21909000  0.61089000  0.55128000  1.0
  C  C86  1  0.04834000  0.38045000  0.37924000  1.0
  C  C87  1  0.95166000  0.61955000  0.62077000  1.0
  C  C88  1  0.84892000  0.58630000  0.33938000  1.0
  C  C89  1  0.15109000  0.41370000  0.66063000  1.0
  N  N90  1  0.27670000  0.01116000  0.88468000  1.0
  N  N91  1  0.72329000  0.98884000  0.11532000  1.0
  N  N92  1  0.88888000  0.44983000  0.39329000  1.0
  N  N93  1  0.11113000  0.55018000  0.60671000  1.0
  O  O94  1  0.41756000  0.08966000  0.35176000  1.0
  O  O95  1  0.58246000  0.91034000  0.64824000  1.0
  O  O96  1  0.43709000  0.17807000  0.48868000  1.0
  O  O97  1  0.56292000  0.82193000  0.51131000  1.0
  O  O98  1  0.46533000  0.64733000  0.38040000  1.0
  O  O99  1  0.53467000  0.35267000  0.61960000  1.0
  O  O100  1  0.28420000  0.76104000  0.25134000  1.0
  O  O101  1  0.71580000  0.23897000  0.74866000  1.0
  O  O102  1  0.29824000  0.45704000  0.01290000  1.0
  O  O103  1  0.70176000  0.54296000  0.98710000  1.0
  O  O104  1  0.77614000  0.95505000  0.79982000  1.0
  O  O105  1  0.22385000  0.04495000  0.20018000  1.0
  O  O106  1  0.95304000  0.97575000  0.66303000  1.0
  O  O107  1  0.04696000  0.02424000  0.33696000  1.0
  O  O108  1  0.41757000  0.11597000  0.74400000  1.0
  O  O109  1  0.58242000  0.88402000  0.25600000  1.0
  O  O110  1  0.80866000  0.27032000  0.49192000  1.0
  O  O111  1  0.19134000  0.72968000  0.50807000  1.0
  O  O112  1  0.76558000  0.02609000  0.44904000  1.0
  O  O113  1  0.23442000  0.97392000  0.55097000  1.0
