# generated using pymatgen
data_LiH5C5N2O5
_symmetry_space_group_name_H-M   'P 1'
_cell_length_a   3.50128000
_cell_length_b   10.30410000
_cell_length_c   17.93680000
_cell_angle_alpha   89.99970000
_cell_angle_beta   89.99940000
_cell_angle_gamma   90.62290000
_symmetry_Int_Tables_number   1
_chemical_formula_structural   LiH5C5N2O5
_chemical_formula_sum   'Li4 H20 C20 N8 O20'
_cell_volume   647.07736408
_cell_formula_units_Z   4
loop_
 _symmetry_equiv_pos_site_id
 _symmetry_equiv_pos_as_xyz
  1  'x, y, z'
loop_
 _atom_site_type_symbol
 _atom_site_label
 _atom_site_symmetry_multiplicity
 _atom_site_fract_x
 _atom_site_fract_y
 _atom_site_fract_z
 _atom_site_occupancy
  Li  Li0  1  0.53193000  0.13254000  0.46662000  1.0
  Li  Li1  1  0.96806000  0.36746000  0.96662000  1.0
  Li  Li2  1  0.46806000  0.86745000  0.53338000  1.0
  Li  Li3  1  0.03193000  0.63255000  0.03338000  1.0
  H  H4  1  0.93319000  0.46371000  0.76184000  1.0
  H  H5  1  0.56681000  0.03628000  0.26184000  1.0
  H  H6  1  0.06681000  0.53629000  0.23816000  1.0
  H  H7  1  0.43318000  0.96372000  0.73816000  1.0
  H  H8  1  0.37325000  0.54957000  0.55552000  1.0
  H  H9  1  0.12677000  0.95044000  0.05551000  1.0
  H  H10  1  0.62676000  0.45043000  0.44449000  1.0
  H  H11  1  0.87322000  0.04957000  0.94448000  1.0
  H  H12  1  0.01874000  0.23375000  0.74189000  1.0
  H  H13  1  0.48125000  0.26625000  0.24188000  1.0
  H  H14  1  0.98126000  0.76625000  0.25811000  1.0
  H  H15  1  0.51876000  0.73375000  0.75811000  1.0
  H  H16  1  0.99064000  0.08790000  0.37640000  1.0
  H  H17  1  0.50937000  0.41210000  0.87640000  1.0
  H  H18  1  0.00935000  0.91210000  0.62360000  1.0
  H  H19  1  0.49063000  0.58790000  0.12360000  1.0
  H  H20  1  0.00020000  0.24045000  0.38387000  1.0
  H  H21  1  0.49980000  0.25955000  0.88386000  1.0
  H  H22  1  0.99980000  0.75955000  0.61614000  1.0
  H  H23  1  0.50021000  0.74045000  0.11614000  1.0
  C  C24  1  0.15357000  0.52362000  0.66133000  1.0
  C  C25  1  0.34646000  0.97639000  0.16132000  1.0
  C  C26  1  0.84645000  0.47638000  0.33868000  1.0
  C  C27  1  0.65353000  0.02362000  0.83867000  1.0
  C  C28  1  0.36583000  0.34979000  0.57603000  1.0
  C  C29  1  0.13419000  0.15021000  0.07603000  1.0
  C  C30  1  0.63419000  0.65020000  0.42397000  1.0
  C  C31  1  0.86579000  0.84980000  0.92397000  1.0
  C  C32  1  0.25914000  0.25574000  0.63267000  1.0
  C  C33  1  0.24086000  0.24426000  0.13267000  1.0
  C  C34  1  0.74086000  0.74426000  0.36733000  1.0
  C  C35  1  0.75913000  0.75575000  0.86733000  1.0
  C  C36  1  0.10758000  0.30130000  0.69828000  1.0
  C  C37  1  0.39242000  0.19870000  0.19828000  1.0
  C  C38  1  0.89242000  0.69870000  0.30172000  1.0
  C  C39  1  0.60758000  0.80130000  0.80172000  1.0
  C  C40  1  0.29937000  0.11217000  0.62324000  1.0
  C  C41  1  0.20062000  0.38783000  0.12324000  1.0
  C  C42  1  0.70062000  0.88784000  0.37676000  1.0
  C  C43  1  0.79938000  0.61217000  0.87676000  1.0
  N  N44  1  0.05920000  0.42891000  0.71240000  1.0
  N  N45  1  0.44082000  0.07109000  0.21240000  1.0
  N  N46  1  0.94082000  0.57109000  0.28760000  1.0
  N  N47  1  0.55917000  0.92891000  0.78760000  1.0
  N  N48  1  0.30262000  0.47930000  0.59528000  1.0
  N  N49  1  0.19741000  0.02071000  0.09528000  1.0
  N  N50  1  0.69740000  0.52070000  0.40472000  1.0
  N  N51  1  0.80258000  0.97930000  0.90472000  1.0
  O  O52  1  0.10323000  0.64035000  0.67479000  1.0
  O  O53  1  0.39680000  0.85965000  0.17478000  1.0
  O  O54  1  0.89679000  0.35965000  0.32522000  1.0
  O  O55  1  0.60321000  0.14035000  0.82521000  1.0
  O  O56  1  0.50841000  0.32737000  0.51330000  1.0
  O  O57  1  0.99160000  0.17264000  0.01330000  1.0
  O  O58  1  0.49160000  0.67264000  0.48670000  1.0
  O  O59  1  0.00838000  0.82736000  0.98670000  1.0
  O  O60  1  0.45360000  0.06851000  0.56499000  1.0
  O  O61  1  0.04639000  0.43148000  0.06498000  1.0
  O  O62  1  0.54640000  0.93150000  0.43502000  1.0
  O  O63  1  0.95361000  0.56851000  0.93502000  1.0
  O  O64  1  0.16594000  0.04002000  0.67572000  1.0
  O  O65  1  0.33403000  0.45997000  0.17572000  1.0
  O  O66  1  0.83405000  0.95998000  0.32428000  1.0
  O  O67  1  0.66595000  0.54003000  0.82428000  1.0
  O  O68  1  0.04196000  0.15974000  0.41276000  1.0
  O  O69  1  0.45805000  0.34025000  0.91276000  1.0
  O  O70  1  0.95804000  0.84025000  0.58724000  1.0
  O  O71  1  0.54196000  0.65975000  0.08724000  1.0
