# generated using pymatgen
data_Cd3H44C75(N4O9)2
_symmetry_space_group_name_H-M   'P 1'
_cell_length_a   10.21540000
_cell_length_b   16.02190000
_cell_length_c   23.71150000
_cell_angle_alpha   105.06500000
_cell_angle_beta   91.66530000
_cell_angle_gamma   90.59820000
_symmetry_Int_Tables_number   1
_chemical_formula_structural   Cd3H44C75(N4O9)2
_chemical_formula_sum   'Cd6 H88 C150 N16 O36'
_cell_volume   3745.25110912
_cell_formula_units_Z   2
loop_
 _symmetry_equiv_pos_site_id
 _symmetry_equiv_pos_as_xyz
  1  'x, y, z'
loop_
 _atom_site_type_symbol
 _atom_site_label
 _atom_site_symmetry_multiplicity
 _atom_site_fract_x
 _atom_site_fract_y
 _atom_site_fract_z
 _atom_site_occupancy
  Cd  Cd0  1  0.85836000  0.00007000  0.12631000  1.0
  Cd  Cd1  1  0.14164000  0.99993000  0.87368000  1.0
  Cd  Cd2  1  0.82327000  0.67749000  0.40393000  1.0
  Cd  Cd3  1  0.17673000  0.32251000  0.59607000  1.0
  Cd  Cd4  1  0.53255000  0.54821000  0.29845000  1.0
  Cd  Cd5  1  0.46745000  0.45179000  0.70155000  1.0
  H  H6  1  0.76595000  0.55174000  0.74187000  1.0
  H  H7  1  0.23405000  0.44827000  0.25813000  1.0
  H  H8  1  0.97951000  0.91163000  0.22723000  1.0
  H  H9  1  0.02049000  0.08837000  0.77277000  1.0
  H  H10  1  0.90316000  0.81969000  0.29293000  1.0
  H  H11  1  0.09684000  0.18030000  0.70706000  1.0
  H  H12  1  0.67168000  0.76645000  0.28232000  1.0
  H  H13  1  0.32832000  0.23355000  0.71768000  1.0
  H  H14  1  0.29760000  0.81486000  0.16732000  1.0
  H  H15  1  0.70240000  0.18515000  0.83268000  1.0
  H  H16  1  0.45068000  0.75875000  0.23205000  1.0
  H  H17  1  0.54932000  0.24125000  0.76795000  1.0
  H  H18  1  0.25680000  0.91347000  0.10383000  1.0
  H  H19  1  0.74320000  0.08653000  0.89617000  1.0
  H  H20  1  0.34928000  0.01359000  0.04781000  1.0
  H  H21  1  0.65072000  0.98641000  0.95219000  1.0
  H  H22  1  0.59012000  0.04736000  0.05717000  1.0
  H  H23  1  0.40988000  0.95264000  0.94283000  1.0
  H  H24  1  0.80907000  0.69918000  0.93702000  1.0
  H  H25  1  0.19093000  0.30082000  0.06298000  1.0
  H  H26  1  0.88824000  0.96162000  0.93295000  1.0
  H  H27  1  0.11176000  0.03838000  0.06705000  1.0
  H  H28  1  0.80980000  0.76698000  0.77266000  1.0
  H  H29  1  0.19020000  0.23302000  0.22734000  1.0
  H  H30  1  0.84379000  0.06401000  0.27167000  1.0
  H  H31  1  0.15622000  0.93599000  0.72833000  1.0
  H  H32  1  0.86356000  0.19799000  0.35436000  1.0
  H  H33  1  0.13645000  0.80200000  0.64564000  1.0
  H  H34  1  0.88028000  0.34208000  0.33064000  1.0
  H  H35  1  0.11972000  0.65792000  0.66936000  1.0
  H  H36  1  0.88467000  0.42537000  0.25581000  1.0
  H  H37  1  0.11533000  0.57462000  0.74419000  1.0
  H  H38  1  0.87653000  0.42765000  0.15168000  1.0
  H  H39  1  0.12347000  0.57235000  0.84832000  1.0
  H  H40  1  0.85555000  0.34701000  0.04575000  1.0
  H  H41  1  0.14445000  0.65299000  0.95425000  1.0
  H  H42  1  0.83700000  0.20617000  0.97034000  1.0
  H  H43  1  0.16300000  0.79383000  0.02966000  1.0
  H  H44  1  0.82944000  0.06839000  0.00429000  1.0
  H  H45  1  0.17056000  0.93161000  0.99571000  1.0
  H  H46  1  0.20987000  0.01444000  0.26660000  1.0
  H  H47  1  0.79013000  0.98555000  0.73340000  1.0
  H  H48  1  0.87968000  0.76043000  0.07914000  1.0
  H  H49  1  0.12032000  0.23957000  0.92086000  1.0
  H  H50  1  0.10886000  0.87165000  0.34040000  1.0
  H  H51  1  0.89114000  0.12835000  0.65960000  1.0
  H  H52  1  0.81295000  0.86755000  0.50446000  1.0
  H  H53  1  0.18705000  0.13245000  0.49554000  1.0
  H  H54  1  0.82016000  0.92606000  0.61420000  1.0
  H  H55  1  0.17984000  0.07394000  0.38580000  1.0
  H  H56  1  0.82394000  0.82265000  0.67663000  1.0
  H  H57  1  0.17606000  0.17735000  0.32337000  1.0
  H  H58  1  0.82685000  0.51078000  0.63219000  1.0
  H  H59  1  0.17315000  0.48922000  0.36781000  1.0
  H  H60  1  0.82586000  0.66653000  0.68238000  1.0
  H  H61  1  0.17414000  0.33347000  0.31762000  1.0
  H  H62  1  0.84182000  0.39347000  0.53981000  1.0
  H  H63  1  0.15818000  0.60653000  0.46019000  1.0
  H  H64  1  0.84185000  0.35101000  0.43016000  1.0
  H  H65  1  0.15815000  0.64899000  0.56984000  1.0
  H  H66  1  0.82900000  0.46898000  0.37666000  1.0
  H  H67  1  0.17100000  0.53102000  0.62334000  1.0
  H  H68  1  0.53048000  0.87775000  0.35175000  1.0
  H  H69  1  0.46952000  0.12225000  0.64825000  1.0
  H  H70  1  0.31263000  0.68064000  0.40478000  1.0
  H  H71  1  0.68736000  0.31935000  0.59521000  1.0
  H  H72  1  0.52367000  0.52235000  0.43097000  1.0
  H  H73  1  0.47633000  0.47765000  0.56903000  1.0
  H  H74  1  0.50193000  0.40319000  0.48275000  1.0
  H  H75  1  0.49806000  0.59681000  0.51725000  1.0
  H  H76  1  0.49007000  0.24977000  0.42275000  1.0
  H  H77  1  0.50993000  0.75023000  0.57726000  1.0
  H  H78  1  0.50499000  0.17703000  0.12787000  1.0
  H  H79  1  0.49501000  0.82297000  0.87213000  1.0
  H  H80  1  0.52581000  0.30589000  0.08679000  1.0
  H  H81  1  0.47419000  0.69411000  0.91321000  1.0
  H  H82  1  0.54359000  0.45402000  0.15641000  1.0
  H  H83  1  0.45640000  0.54598000  0.84359000  1.0
  H  H84  1  0.04771000  0.55998000  0.30004000  1.0
  H  H85  1  0.95230000  0.44002000  0.69996000  1.0
  H  H86  1  0.23574000  0.67354000  0.17697000  1.0
  H  H87  1  0.76427000  0.32646000  0.82303000  1.0
  H  H88  1  0.81463000  0.65311000  0.17627000  1.0
  H  H89  1  0.18537000  0.34689000  0.82373000  1.0
  H  H90  1  0.48804000  0.11835000  0.21625000  1.0
  H  H91  1  0.51196000  0.88165000  0.78375000  1.0
  H  H92  1  0.48153000  0.14380000  0.32245000  1.0
  H  H93  1  0.51847000  0.85619000  0.67755000  1.0
  C  C94  1  0.87769000  0.88954000  0.22612000  1.0
  C  C95  1  0.12231000  0.11046000  0.77388000  1.0
  C  C96  1  0.83543000  0.83754000  0.26179000  1.0
  C  C97  1  0.16458000  0.16246000  0.73821000  1.0
  C  C98  1  0.70658000  0.80838000  0.25619000  1.0
  C  C99  1  0.29342000  0.19162000  0.74381000  1.0
  C  C100  1  0.61912000  0.83311000  0.21648000  1.0
  C  C101  1  0.38088000  0.16689000  0.78352000  1.0
  C  C102  1  0.66901000  0.88906000  0.18416000  1.0
  C  C103  1  0.33099000  0.11094000  0.81584000  1.0
  C  C104  1  0.58034000  0.92023000  0.14579000  1.0
  C  C105  1  0.41967000  0.07977000  0.85421000  1.0
  C  C106  1  0.44562000  0.89465000  0.14177000  1.0
  C  C107  1  0.55438000  0.10535000  0.85823000  1.0
  C  C108  1  0.40042000  0.83541000  0.17323000  1.0
  C  C109  1  0.59958000  0.16459000  0.82677000  1.0
  C  C110  1  0.48450000  0.80508000  0.20882000  1.0
  C  C111  1  0.51550000  0.19492000  0.79118000  1.0
  C  C112  1  0.36120000  0.92955000  0.10590000  1.0
  C  C113  1  0.63880000  0.07046000  0.89410000  1.0
  C  C114  1  0.41171000  0.98472000  0.07533000  1.0
  C  C115  1  0.58830000  0.01528000  0.92467000  1.0
  C  C116  1  0.54635000  0.00465000  0.08091000  1.0
  C  C117  1  0.45365000  0.99535000  0.91909000  1.0
  C  C118  1  0.85377000  0.86133000  0.00784000  1.0
  C  C119  1  0.14622000  0.13867000  0.99216000  1.0
  C  C120  1  0.84478000  0.83402000  0.94200000  1.0
  C  C121  1  0.15521000  0.16598000  0.05800000  1.0
  C  C122  1  0.82052000  0.74744000  0.91244000  1.0
  C  C123  1  0.17948000  0.25256000  0.08756000  1.0
  C  C124  1  0.81215000  0.72241000  0.85127000  1.0
  C  C125  1  0.18785000  0.27759000  0.14873000  1.0
  C  C126  1  0.78972000  0.62944000  0.82046000  1.0
  C  C127  1  0.21028000  0.37056000  0.17955000  1.0
  C  C128  1  0.85988000  0.93749000  0.81470000  1.0
  C  C129  1  0.14012000  0.06251000  0.18530000  1.0
  C  C130  1  0.86226000  0.89513000  0.90994000  1.0
  C  C131  1  0.13774000  0.10487000  0.09006000  1.0
  C  C132  1  0.82180000  0.78498000  0.81999000  1.0
  C  C133  1  0.17820000  0.21502000  0.18001000  1.0
  C  C134  1  0.84753000  0.87141000  0.84910000  1.0
  C  C135  1  0.15247000  0.12859000  0.15090000  1.0
  C  C136  1  0.84922000  0.12769000  0.26319000  1.0
  C  C137  1  0.15079000  0.87231000  0.73681000  1.0
  C  C138  1  0.86039000  0.20311000  0.30941000  1.0
  C  C139  1  0.13961000  0.79689000  0.69059000  1.0
  C  C140  1  0.86894000  0.28207000  0.29631000  1.0
  C  C141  1  0.13107000  0.71793000  0.70369000  1.0
  C  C142  1  0.86476000  0.28583000  0.23748000  1.0
  C  C143  1  0.13525000  0.71417000  0.76252000  1.0
  C  C144  1  0.85193000  0.20619000  0.19371000  1.0
  C  C145  1  0.14808000  0.79381000  0.80629000  1.0
  C  C146  1  0.87397000  0.36554000  0.22121000  1.0
  C  C147  1  0.12603000  0.63446000  0.77879000  1.0
  C  C148  1  0.86898000  0.36663000  0.16383000  1.0
  C  C149  1  0.13102000  0.63337000  0.83617000  1.0
  C  C150  1  0.85451000  0.28807000  0.11841000  1.0
  C  C151  1  0.14549000  0.71193000  0.88159000  1.0
  C  C152  1  0.84672000  0.20738000  0.13289000  1.0
  C  C153  1  0.15328000  0.79262000  0.86711000  1.0
  C  C154  1  0.84873000  0.28644000  0.05855000  1.0
  C  C155  1  0.15127000  0.71356000  0.94145000  1.0
  C  C156  1  0.83701000  0.20833000  0.01669000  1.0
  C  C157  1  0.16298000  0.79167000  0.98331000  1.0
  C  C158  1  0.83216000  0.13190000  0.03531000  1.0
  C  C159  1  0.16784000  0.86810000  0.96469000  1.0
  C  C160  1  0.06899000  0.73704000  0.38704000  1.0
  C  C161  1  0.93101000  0.26296000  0.61296000  1.0
  C  C162  1  0.19741000  0.77526000  0.37672000  1.0
  C  C163  1  0.80259000  0.22474000  0.62328000  1.0
  C  C164  1  0.20056000  0.84582000  0.35233000  1.0
  C  C165  1  0.79944000  0.15418000  0.64768000  1.0
  C  C166  1  0.32010000  0.88259000  0.34292000  1.0
  C  C167  1  0.67990000  0.11740000  0.65708000  1.0
  C  C168  1  0.32388000  0.95555000  0.31423000  1.0
  C  C169  1  0.67612000  0.04445000  0.68578000  1.0
  C  C170  1  0.79501000  0.58425000  0.26775000  1.0
  C  C171  1  0.20499000  0.41575000  0.73225000  1.0
  C  C172  1  0.91820000  0.60421000  0.24086000  1.0
  C  C173  1  0.08181000  0.39579000  0.75914000  1.0
  C  C174  1  0.81753000  0.82442000  0.53333000  1.0
  C  C175  1  0.18247000  0.17558000  0.46667000  1.0
  C  C176  1  0.82071000  0.85668000  0.59449000  1.0
  C  C177  1  0.17929000  0.14332000  0.40551000  1.0
  C  C178  1  0.82403000  0.79909000  0.62904000  1.0
  C  C179  1  0.17597000  0.20091000  0.37096000  1.0
  C  C180  1  0.82550000  0.70927000  0.60222000  1.0
  C  C181  1  0.17450000  0.29073000  0.39778000  1.0
  C  C182  1  0.82323000  0.68277000  0.54010000  1.0
  C  C183  1  0.17677000  0.31723000  0.45990000  1.0
  C  C184  1  0.82491000  0.59148000  0.51086000  1.0
  C  C185  1  0.17510000  0.40852000  0.48914000  1.0
  C  C186  1  0.82860000  0.53023000  0.54476000  1.0
  C  C187  1  0.17140000  0.46977000  0.45524000  1.0
  C  C188  1  0.82803000  0.55921000  0.60723000  1.0
  C  C189  1  0.17198000  0.44079000  0.39277000  1.0
  C  C190  1  0.82702000  0.64548000  0.63483000  1.0
  C  C191  1  0.17298000  0.35452000  0.36517000  1.0
  C  C192  1  0.83456000  0.44179000  0.51473000  1.0
  C  C193  1  0.16544000  0.55821000  0.48527000  1.0
  C  C194  1  0.83618000  0.41864000  0.45436000  1.0
  C  C195  1  0.16382000  0.58136000  0.54564000  1.0
  C  C196  1  0.83003000  0.48332000  0.42424000  1.0
  C  C197  1  0.16997000  0.51668000  0.57576000  1.0
  C  C198  1  0.55959000  0.73140000  0.38846000  1.0
  C  C199  1  0.44040000  0.26860000  0.61154000  1.0
  C  C200  1  0.43476000  0.77474000  0.37957000  1.0
  C  C201  1  0.56523000  0.22526000  0.62043000  1.0
  C  C202  1  0.43732000  0.84851000  0.35833000  1.0
  C  C203  1  0.56268000  0.15149000  0.64167000  1.0
  C  C204  1  0.31480000  0.73864000  0.38902000  1.0
  C  C205  1  0.68519000  0.26136000  0.61098000  1.0
  C  C206  1  0.51799000  0.45427000  0.40702000  1.0
  C  C207  1  0.48201000  0.54573000  0.59299000  1.0
  C  C208  1  0.50594000  0.38773000  0.43537000  1.0
  C  C209  1  0.49405000  0.61227000  0.56464000  1.0
  C  C210  1  0.49985000  0.30295000  0.40217000  1.0
  C  C211  1  0.50015000  0.69705000  0.59783000  1.0
  C  C212  1  0.50484000  0.28452000  0.34063000  1.0
  C  C213  1  0.49516000  0.71548000  0.65937000  1.0
  C  C214  1  0.51792000  0.35612000  0.31584000  1.0
  C  C215  1  0.48208000  0.64388000  0.68416000  1.0
  C  C216  1  0.52217000  0.34057000  0.25311000  1.0
  C  C217  1  0.47783000  0.65943000  0.74689000  1.0
  C  C218  1  0.51261000  0.25418000  0.21759000  1.0
  C  C219  1  0.48739000  0.74582000  0.78241000  1.0
  C  C220  1  0.51427000  0.24237000  0.15642000  1.0
  C  C221  1  0.48573000  0.75763000  0.84358000  1.0
  C  C222  1  0.52565000  0.31315000  0.13375000  1.0
  C  C223  1  0.47435000  0.68685000  0.86625000  1.0
  C  C224  1  0.53507000  0.39627000  0.17241000  1.0
  C  C225  1  0.46493000  0.60373000  0.82759000  1.0
  C  C226  1  0.28588000  0.59342000  0.26296000  1.0
  C  C227  1  0.71412000  0.40658000  0.73704000  1.0
  C  C228  1  0.15540000  0.61249000  0.23977000  1.0
  C  C229  1  0.84460000  0.38751000  0.76023000  1.0
  C  C230  1  0.04107000  0.58883000  0.26330000  1.0
  C  C231  1  0.95894000  0.41117000  0.73670000  1.0
  C  C232  1  0.14670000  0.65381000  0.19459000  1.0
  C  C233  1  0.85330000  0.34619000  0.80541000  1.0
  C  C234  1  0.02411000  0.66862000  0.17158000  1.0
  C  C235  1  0.97589000  0.33139000  0.82842000  1.0
  C  C236  1  0.91027000  0.64210000  0.19403000  1.0
  C  C237  1  0.08973000  0.35790000  0.80597000  1.0
  C  C238  1  0.01454000  0.71656000  0.12528000  1.0
  C  C239  1  0.98547000  0.28344000  0.87472000  1.0
  C  C240  1  0.49856000  0.18406000  0.24414000  1.0
  C  C241  1  0.50143000  0.81594000  0.75586000  1.0
  C  C242  1  0.49492000  0.19843000  0.30346000  1.0
  C  C243  1  0.50508000  0.80157000  0.69654000  1.0
  N  N244  1  0.84544000  0.12926000  0.20739000  1.0
  N  N245  1  0.15457000  0.87074000  0.79261000  1.0
  N  N246  1  0.83631000  0.13125000  0.09141000  1.0
  N  N247  1  0.16370000  0.86875000  0.90859000  1.0
  N  N248  1  0.79673000  0.91469000  0.18873000  1.0
  N  N249  1  0.20327000  0.08531000  0.81127000  1.0
  N  N250  1  0.62750000  0.97400000  0.11525000  1.0
  N  N251  1  0.37250000  0.02600000  0.88475000  1.0
  N  N252  1  0.81896000  0.74027000  0.50715000  1.0
  N  N253  1  0.18104000  0.25973000  0.49285000  1.0
  N  N254  1  0.82418000  0.56677000  0.45168000  1.0
  N  N255  1  0.17582000  0.43323000  0.54832000  1.0
  N  N256  1  0.52482000  0.43886000  0.34937000  1.0
  N  N257  1  0.47518000  0.56114000  0.65063000  1.0
  N  N258  1  0.53305000  0.40923000  0.23003000  1.0
  N  N259  1  0.46695000  0.59077000  0.76997000  1.0
  O  O260  1  0.82147000  0.80699000  0.03513000  1.0
  O  O261  1  0.17853000  0.19301000  0.96487000  1.0
  O  O262  1  0.89193000  0.93975000  0.03091000  1.0
  O  O263  1  0.10807000  0.06026000  0.96909000  1.0
  O  O264  1  0.76977000  0.57286000  0.84580000  1.0
  O  O265  1  0.23023000  0.42714000  0.15420000  1.0
  O  O266  1  0.79220000  0.61490000  0.76208000  1.0
  O  O267  1  0.20780000  0.38510000  0.23792000  1.0
  O  O268  1  0.92812000  0.00599000  0.83641000  1.0
  O  O269  1  0.07189000  0.99401000  0.16359000  1.0
  O  O270  1  0.79840000  0.91997000  0.76541000  1.0
  O  O271  1  0.20159000  0.08003000  0.23459000  1.0
  O  O272  1  0.06776000  0.67407000  0.41056000  1.0
  O  O273  1  0.93224000  0.32593000  0.58944000  1.0
  O  O274  1  0.96386000  0.76900000  0.37150000  1.0
  O  O275  1  0.03613000  0.23100000  0.62850000  1.0
  O  O276  1  0.20780000  0.96724000  0.29061000  1.0
  O  O277  1  0.79220000  0.03276000  0.70939000  1.0
  O  O278  1  0.42407000  0.99873000  0.31301000  1.0
  O  O279  1  0.57593000  0.00127000  0.68699000  1.0
  O  O280  1  0.80231000  0.56367000  0.31675000  1.0
  O  O281  1  0.19769000  0.43633000  0.68325000  1.0
  O  O282  1  0.68649000  0.58885000  0.24124000  1.0
  O  O283  1  0.31351000  0.41115000  0.75876000  1.0
  O  O284  1  0.55585000  0.65121000  0.38934000  1.0
  O  O285  1  0.44414000  0.34879000  0.61066000  1.0
  O  O286  1  0.66604000  0.77471000  0.39349000  1.0
  O  O287  1  0.33396000  0.22529000  0.60651000  1.0
  O  O288  1  0.29046000  0.53649000  0.29300000  1.0
  O  O289  1  0.70954000  0.46351000  0.70700000  1.0
  O  O290  1  0.38842000  0.63142000  0.25312000  1.0
  O  O291  1  0.61159000  0.36859000  0.74688000  1.0
  O  O292  1  0.89104000  0.72290000  0.10769000  1.0
  O  O293  1  0.10896000  0.27710000  0.89231000  1.0
  O  O294  1  0.11077000  0.74759000  0.10709000  1.0
  O  O295  1  0.88923000  0.25241000  0.89291000  1.0
