# generated using pymatgen
data_CuNiH12(C3N2)4
_symmetry_space_group_name_H-M   'P 1'
_cell_length_a   6.91261000
_cell_length_b   7.34282000
_cell_length_c   8.76540000
_cell_angle_alpha   112.48500000
_cell_angle_beta   112.62600000
_cell_angle_gamma   92.95180000
_symmetry_Int_Tables_number   1
_chemical_formula_structural   CuNiH12(C3N2)4
_chemical_formula_sum   'Cu1 Ni1 H12 C12 N8'
_cell_volume   369.01862513
_cell_formula_units_Z   1
loop_
 _symmetry_equiv_pos_site_id
 _symmetry_equiv_pos_as_xyz
  1  'x, y, z'
loop_
 _atom_site_type_symbol
 _atom_site_label
 _atom_site_symmetry_multiplicity
 _atom_site_fract_x
 _atom_site_fract_y
 _atom_site_fract_z
 _atom_site_occupancy
  Cu  Cu0  1  0.50000000  0.50000000  0.50000000  1.0
  Ni  Ni1  1  0.99999000  0.00000000  0.50000000  1.0
  H  H2  1  0.15339000  0.20331000  0.09237000  1.0
  H  H3  1  0.84661000  0.79670000  0.90762000  1.0
  H  H4  1  0.26678000  0.07908000  0.80068000  1.0
  H  H5  1  0.73322000  0.92092000  0.19931000  1.0
  H  H6  1  0.81382000  0.45886000  0.29472000  1.0
  H  H7  1  0.18619000  0.54112000  0.70528000  1.0
  H  H8  1  0.63041000  0.30555000  0.81267000  1.0
  H  H9  1  0.36960000  0.69446000  0.18733000  1.0
  H  H10  1  0.70909000  0.09245000  0.84857000  1.0
  H  H11  1  0.29093000  0.90756000  0.15143000  1.0
  H  H12  1  0.86520000  0.34485000  0.01290000  1.0
  H  H13  1  0.13481000  0.65515000  0.98711000  1.0
  C  C14  1  0.30666000  0.23715000  0.09082000  1.0
  C  C15  1  0.69334000  0.76285000  0.90919000  1.0
  C  C16  1  0.36043000  0.17658000  0.94636000  1.0
  C  C17  1  0.63957000  0.82342000  0.05364000  1.0
  C  C18  1  0.64863000  0.37387000  0.20312000  1.0
  C  C19  1  0.35138000  0.62613000  0.79689000  1.0
  C  C20  1  0.70255000  0.25051000  0.91680000  1.0
  C  C21  1  0.29747000  0.74950000  0.08320000  1.0
  C  C22  1  0.81725000  0.84556000  0.53380000  1.0
  C  C23  1  0.18273000  0.15443000  0.46619000  1.0
  C  C24  1  0.11155000  0.77807000  0.42119000  1.0
  C  C25  1  0.88843000  0.22194000  0.57881000  1.0
  N  N26  1  0.48791000  0.35965000  0.24967000  1.0
  N  N27  1  0.51209000  0.64034000  0.75032000  1.0
  N  N28  1  0.57626000  0.26521000  0.01952000  1.0
  N  N29  1  0.42376000  0.73480000  0.98049000  1.0
  N  N30  1  0.69952000  0.73866000  0.54737000  1.0
  N  N31  1  0.30047000  0.26133000  0.45263000  1.0
  N  N32  1  0.17711000  0.63309000  0.36995000  1.0
  N  N33  1  0.82289000  0.36691000  0.63004000  1.0
