# generated using pymatgen
data_Zn2H36C35(NO3)4
_symmetry_space_group_name_H-M   'P 1'
_cell_length_a   7.85054000
_cell_length_b   16.72750000
_cell_length_c   18.38600000
_cell_angle_alpha   89.99990000
_cell_angle_beta   90.00020000
_cell_angle_gamma   89.99980000
_symmetry_Int_Tables_number   1
_chemical_formula_structural   Zn2H36C35(NO3)4
_chemical_formula_sum   'Zn4 H72 C70 N8 O24'
_cell_volume   2414.44782570
_cell_formula_units_Z   2
loop_
 _symmetry_equiv_pos_site_id
 _symmetry_equiv_pos_as_xyz
  1  'x, y, z'
loop_
 _atom_site_type_symbol
 _atom_site_label
 _atom_site_symmetry_multiplicity
 _atom_site_fract_x
 _atom_site_fract_y
 _atom_site_fract_z
 _atom_site_occupancy
  Zn  Zn0  1  0.29445000  0.17222000  0.25726000  1.0
  Zn  Zn1  1  0.29445000  0.82778000  0.74275000  1.0
  Zn  Zn2  1  0.70555000  0.32778000  0.75725000  1.0
  Zn  Zn3  1  0.70555000  0.67222000  0.24275000  1.0
  H  H4  1  0.69034000  0.14919000  0.75461000  1.0
  H  H5  1  0.69034000  0.85080000  0.24539000  1.0
  H  H6  1  0.30966000  0.35080000  0.25461000  1.0
  H  H7  1  0.30966000  0.64919000  0.74539000  1.0
  H  H8  1  0.53272000  0.03818000  0.81816000  1.0
  H  H9  1  0.53273000  0.96182000  0.18184000  1.0
  H  H10  1  0.46729000  0.46182000  0.31815000  1.0
  H  H11  1  0.46727000  0.53818000  0.68183000  1.0
  H  H12  1  0.30863000  0.21888000  0.95703000  1.0
  H  H13  1  0.30862000  0.78112000  0.04297000  1.0
  H  H14  1  0.69138000  0.28112000  0.45703000  1.0
  H  H15  1  0.69138000  0.71889000  0.54297000  1.0
  H  H16  1  0.47548000  0.32022000  0.88880000  1.0
  H  H17  1  0.47548000  0.67977000  0.11120000  1.0
  H  H18  1  0.52451000  0.17978000  0.38880000  1.0
  H  H19  1  0.52452000  0.82023000  0.61120000  1.0
  H  H20  1  0.40090000  0.21240000  0.10281000  1.0
  H  H21  1  0.40091000  0.78759000  0.89719000  1.0
  H  H22  1  0.59910000  0.28760000  0.60281000  1.0
  H  H23  1  0.59910000  0.71240000  0.39719000  1.0
  H  H24  1  0.63465000  0.17439000  0.01500000  1.0
  H  H25  1  0.63465000  0.82561000  0.98501000  1.0
  H  H26  1  0.36535000  0.32561000  0.51499000  1.0
  H  H27  1  0.36536000  0.67439000  0.48501000  1.0
  H  H28  1  0.88128000  0.05108000  0.19365000  1.0
  H  H29  1  0.88127000  0.94892000  0.80635000  1.0
  H  H30  1  0.11872000  0.44892000  0.69365000  1.0
  H  H31  1  0.11873000  0.55108000  0.30636000  1.0
  H  H32  1  0.63569000  0.09133000  0.27116000  1.0
  H  H33  1  0.63567000  0.90867000  0.72884000  1.0
  H  H34  1  0.36432000  0.40867000  0.77116000  1.0
  H  H35  1  0.36432000  0.59132000  0.22885000  1.0
  H  H36  1  0.92512000  0.96609000  0.08275000  1.0
  H  H37  1  0.92512000  0.03391000  0.91725000  1.0
  H  H38  1  0.07487000  0.53391000  0.58276000  1.0
  H  H39  1  0.07487000  0.46609000  0.41724000  1.0
  H  H40  1  0.08102000  0.03665000  0.11314000  1.0
  H  H41  1  0.08102000  0.96335000  0.88686000  1.0
  H  H42  1  0.91897000  0.46335000  0.61314000  1.0
  H  H43  1  0.91898000  0.53665000  0.38686000  1.0
  H  H44  1  0.13179000  0.12419000  0.97082000  1.0
  H  H45  1  0.13178000  0.87582000  0.02918000  1.0
  H  H46  1  0.86822000  0.37582000  0.47082000  1.0
  H  H47  1  0.86821000  0.62418000  0.52918000  1.0
  H  H48  1  0.29271000  0.09017000  0.03278000  1.0
  H  H49  1  0.29270000  0.90983000  0.96722000  1.0
  H  H50  1  0.70728000  0.40983000  0.53277000  1.0
  H  H51  1  0.70729000  0.59017000  0.46722000  1.0
  H  H52  1  0.75603000  0.27423000  0.21602000  1.0
  H  H53  1  0.75603000  0.72576000  0.78398000  1.0
  H  H54  1  0.24397000  0.22577000  0.71602000  1.0
  H  H55  1  0.24397000  0.77423000  0.28398000  1.0
  H  H56  1  0.87627000  0.29253000  0.13523000  1.0
  H  H57  1  0.87627000  0.70747000  0.86477000  1.0
  H  H58  1  0.12373000  0.20747000  0.63523000  1.0
  H  H59  1  0.12373000  0.79253000  0.36477000  1.0
  H  H60  1  0.02751000  0.40577000  0.20335000  1.0
  H  H61  1  0.02752000  0.59423000  0.79665000  1.0
  H  H62  1  0.97248000  0.09424000  0.70335000  1.0
  H  H63  1  0.97249000  0.90577000  0.29665000  1.0
  H  H64  1  0.88945000  0.38922000  0.27751000  1.0
  H  H65  1  0.88946000  0.61078000  0.72249000  1.0
  H  H66  1  0.11054000  0.11078000  0.77751000  1.0
  H  H67  1  0.11055000  0.88922000  0.22249000  1.0
  H  H68  1  0.78523000  0.44257000  0.12348000  1.0
  H  H69  1  0.78524000  0.55743000  0.87652000  1.0
  H  H70  1  0.21476000  0.05743000  0.62348000  1.0
  H  H71  1  0.21477000  0.94257000  0.37653000  1.0
  H  H72  1  0.63809000  0.41343000  0.19015000  1.0
  H  H73  1  0.63810000  0.58657000  0.80985000  1.0
  H  H74  1  0.36190000  0.08657000  0.69015000  1.0
  H  H75  1  0.36191000  0.91343000  0.30985000  1.0
  C  C76  1  0.60492000  0.16123000  0.80013000  1.0
  C  C77  1  0.60492000  0.83876000  0.19987000  1.0
  C  C78  1  0.39508000  0.33876000  0.30012000  1.0
  C  C79  1  0.39508000  0.66123000  0.69987000  1.0
  C  C80  1  0.51853000  0.10021000  0.83483000  1.0
  C  C81  1  0.51853000  0.89979000  0.16517000  1.0
  C  C82  1  0.48148000  0.39979000  0.33482000  1.0
  C  C83  1  0.48147000  0.60021000  0.66517000  1.0
  C  C84  1  0.40938000  0.11936000  0.89273000  1.0
  C  C85  1  0.40939000  0.88064000  0.10726000  1.0
  C  C86  1  0.59062000  0.38064000  0.39273000  1.0
  C  C87  1  0.59061000  0.61937000  0.60726000  1.0
  C  C88  1  0.39180000  0.19985000  0.91301000  1.0
  C  C89  1  0.39179000  0.80014000  0.08699000  1.0
  C  C90  1  0.60821000  0.30015000  0.41301000  1.0
  C  C91  1  0.60820000  0.69986000  0.58699000  1.0
  C  C92  1  0.48422000  0.25696000  0.87476000  1.0
  C  C93  1  0.48422000  0.74304000  0.12524000  1.0
  C  C94  1  0.51577000  0.24304000  0.37476000  1.0
  C  C95  1  0.51578000  0.75696000  0.62524000  1.0
  C  C96  1  0.50897000  0.17569000  0.11951000  1.0
  C  C97  1  0.50897000  0.82431000  0.88049000  1.0
  C  C98  1  0.49104000  0.32432000  0.61951000  1.0
  C  C99  1  0.49104000  0.67568000  0.38049000  1.0
  C  C100  1  0.63731000  0.15489000  0.07151000  1.0
  C  C101  1  0.63731000  0.84511000  0.92849000  1.0
  C  C102  1  0.36269000  0.34511000  0.57151000  1.0
  C  C103  1  0.36269000  0.65489000  0.42849000  1.0
  C  C104  1  0.77022000  0.10587000  0.09650000  1.0
  C  C105  1  0.77021000  0.89413000  0.90350000  1.0
  C  C106  1  0.22978000  0.39414000  0.59650000  1.0
  C  C107  1  0.22979000  0.60586000  0.40351000  1.0
  C  C108  1  0.77474000  0.08403000  0.17013000  1.0
  C  C109  1  0.77473000  0.91598000  0.82987000  1.0
  C  C110  1  0.22527000  0.41598000  0.67013000  1.0
  C  C111  1  0.22528000  0.58402000  0.32988000  1.0
  C  C112  1  0.63984000  0.10809000  0.21385000  1.0
  C  C113  1  0.63983000  0.89191000  0.78615000  1.0
  C  C114  1  0.36016000  0.39191000  0.71385000  1.0
  C  C115  1  0.36017000  0.60809000  0.28615000  1.0
  C  C116  1  0.00071000  0.01873000  0.06696000  1.0
  C  C117  1  0.00072000  0.98127000  0.93304000  1.0
  C  C118  1  0.99928000  0.48127000  0.56696000  1.0
  C  C119  1  0.99929000  0.51873000  0.43304000  1.0
  C  C120  1  0.10944000  0.00000000  0.00000000  1.0
  C  C121  1  0.89056000  0.50000000  0.50000000  1.0
  C  C122  1  0.21698000  0.07421000  0.98457000  1.0
  C  C123  1  0.21698000  0.92579000  0.01543000  1.0
  C  C124  1  0.78302000  0.42579000  0.48456000  1.0
  C  C125  1  0.78302000  0.57421000  0.51543000  1.0
  C  C126  1  0.02133000  0.24639000  0.22453000  1.0
  C  C127  1  0.02132000  0.75361000  0.77547000  1.0
  C  C128  1  0.97867000  0.25362000  0.72452000  1.0
  C  C129  1  0.97867000  0.74639000  0.27548000  1.0
  C  C130  1  0.87754000  0.29709000  0.19485000  1.0
  C  C131  1  0.87753000  0.70291000  0.80515000  1.0
  C  C132  1  0.12246000  0.20291000  0.69484000  1.0
  C  C133  1  0.12246000  0.79709000  0.30516000  1.0
  C  C134  1  0.89910000  0.38466000  0.21803000  1.0
  C  C135  1  0.89911000  0.61534000  0.78197000  1.0
  C  C136  1  0.10089000  0.11534000  0.71802000  1.0
  C  C137  1  0.10089000  0.88466000  0.28198000  1.0
  C  C138  1  0.76666000  0.43881000  0.18270000  1.0
  C  C139  1  0.76667000  0.56119000  0.81730000  1.0
  C  C140  1  0.23333000  0.06119000  0.68270000  1.0
  C  C141  1  0.23334000  0.93881000  0.31730000  1.0
  C  C142  1  0.76149000  0.52319000  0.21305000  1.0
  C  C143  1  0.76149000  0.47681000  0.78694000  1.0
  C  C144  1  0.23850000  0.97681000  0.71306000  1.0
  C  C145  1  0.23853000  0.02319000  0.28695000  1.0
  N  N146  1  0.58913000  0.23876000  0.81947000  1.0
  N  N147  1  0.58912000  0.76124000  0.18053000  1.0
  N  N148  1  0.41087000  0.26124000  0.31947000  1.0
  N  N149  1  0.41087000  0.73876000  0.68053000  1.0
  N  N150  1  0.50690000  0.15125000  0.18946000  1.0
  N  N151  1  0.50690000  0.84875000  0.81054000  1.0
  N  N152  1  0.49310000  0.34876000  0.68946000  1.0
  N  N153  1  0.49310000  0.65125000  0.31054000  1.0
  O  O154  1  0.01464000  0.21764000  0.28782000  1.0
  O  O155  1  0.01462000  0.78237000  0.71218000  1.0
  O  O156  1  0.98536000  0.28238000  0.78780000  1.0
  O  O157  1  0.98536000  0.71763000  0.21219000  1.0
  O  O158  1  0.15462000  0.23689000  0.18352000  1.0
  O  O159  1  0.15462000  0.76311000  0.81647000  1.0
  O  O160  1  0.84536000  0.26310000  0.68351000  1.0
  O  O161  1  0.84537000  0.73690000  0.31648000  1.0
  O  O162  1  0.83712000  0.54071000  0.27143000  1.0
  O  O163  1  0.83711000  0.45929000  0.72856000  1.0
  O  O164  1  0.16288000  0.95929000  0.77144000  1.0
  O  O165  1  0.16291000  0.04072000  0.22858000  1.0
  O  O166  1  0.67304000  0.57523000  0.17723000  1.0
  O  O167  1  0.67306000  0.42477000  0.82277000  1.0
  O  O168  1  0.32694000  0.92477000  0.67723000  1.0
  O  O169  1  0.32696000  0.07523000  0.32278000  1.0
  O  O170  1  0.88600000  0.08255000  0.04663000  1.0
  O  O171  1  0.88600000  0.91745000  0.95337000  1.0
  O  O172  1  0.11400000  0.41744000  0.54663000  1.0
  O  O173  1  0.11400000  0.58255000  0.45338000  1.0
  O  O174  1  0.32917000  0.05734000  0.92472000  1.0
  O  O175  1  0.32918000  0.94266000  0.07528000  1.0
  O  O176  1  0.67084000  0.44266000  0.42471000  1.0
  O  O177  1  0.67082000  0.55734000  0.57528000  1.0
