# generated using pymatgen
data_CdH14C10(N4O)2
_symmetry_space_group_name_H-M   'P 1'
_cell_length_a   6.45053000
_cell_length_b   7.76103000
_cell_length_c   8.15108000
_cell_angle_alpha   102.65200000
_cell_angle_beta   103.41900000
_cell_angle_gamma   103.44800000
_symmetry_Int_Tables_number   1
_chemical_formula_structural   CdH14C10(N4O)2
_chemical_formula_sum   'Cd1 H14 C10 N8 O2'
_cell_volume   369.61859363
_cell_formula_units_Z   1
loop_
 _symmetry_equiv_pos_site_id
 _symmetry_equiv_pos_as_xyz
  1  'x, y, z'
loop_
 _atom_site_type_symbol
 _atom_site_label
 _atom_site_symmetry_multiplicity
 _atom_site_fract_x
 _atom_site_fract_y
 _atom_site_fract_z
 _atom_site_occupancy
  Cd  Cd0  1  0.50001000  0.50001000  0.00000000  1.0
  H  H1  1  0.31997000  0.57210000  0.34292000  1.0
  H  H2  1  0.68002000  0.42788000  0.65708000  1.0
  H  H3  1  0.38385000  0.62252000  0.57656000  1.0
  H  H4  1  0.61614000  0.37746000  0.42345000  1.0
  H  H5  1  0.46271000  0.80334000  0.47946000  1.0
  H  H6  1  0.53728000  0.19664000  0.52054000  1.0
  H  H7  1  0.93112000  0.84473000  0.58090000  1.0
  H  H8  1  0.06888000  0.15525000  0.41910000  1.0
  H  H9  1  0.21823000  0.97392000  0.63564000  1.0
  H  H10  1  0.78176000  0.02607000  0.36437000  1.0
  H  H11  1  0.14201000  0.78367000  0.72200000  1.0
  H  H12  1  0.85798000  0.21631000  0.27801000  1.0
  H  H13  1  0.98704000  0.53684000  0.20131000  1.0
  H  H14  1  0.01296000  0.46315000  0.79869000  1.0
  C  C15  1  0.73327000  0.84743000  0.86779000  1.0
  C  C16  1  0.26675000  0.15261000  0.13220000  1.0
  C  C17  1  0.33392000  0.67513000  0.46366000  1.0
  C  C18  1  0.66608000  0.32485000  0.53634000  1.0
  C  C19  1  0.10153000  0.83530000  0.60686000  1.0
  C  C20  1  0.89847000  0.16468000  0.39314000  1.0
  C  C21  1  0.94785000  0.62771000  0.30672000  1.0
  C  C22  1  0.05215000  0.37229000  0.69328000  1.0
  C  C23  1  0.72029000  0.14747000  0.89838000  1.0
  C  C24  1  0.27973000  0.85255000  0.10163000  1.0
  N  N25  1  0.72605000  0.70366000  0.89638000  1.0
  N  N26  1  0.27394000  0.29636000  0.10361000  1.0
  N  N27  1  0.74768000  0.99557000  0.81841000  1.0
  N  N28  1  0.25235000  0.00448000  0.18159000  1.0
  N  N29  1  0.11942000  0.70940000  0.45343000  1.0
  N  N30  1  0.88057000  0.29058000  0.54657000  1.0
  N  N31  1  0.70053000  0.29315000  0.95909000  1.0
  N  N32  1  0.29949000  0.70686000  0.04090000  1.0
  O  O33  1  0.75624000  0.64796000  0.28616000  1.0
  O  O34  1  0.24376000  0.35204000  0.71384000  1.0
