# generated using pymatgen
data_CdH20C18N6(ClO)2
_symmetry_space_group_name_H-M   'P 1'
_cell_length_a   5.74959000
_cell_length_b   11.87170000
_cell_length_c   14.60340000
_cell_angle_alpha   84.42650000
_cell_angle_beta   89.99980000
_cell_angle_gamma   89.99980000
_symmetry_Int_Tables_number   1
_chemical_formula_structural   CdH20C18N6(ClO)2
_chemical_formula_sum   'Cd2 H40 C36 N12 Cl4 O4'
_cell_volume   992.07782744
_cell_formula_units_Z   2
loop_
 _symmetry_equiv_pos_site_id
 _symmetry_equiv_pos_as_xyz
  1  'x, y, z'
loop_
 _atom_site_type_symbol
 _atom_site_label
 _atom_site_symmetry_multiplicity
 _atom_site_fract_x
 _atom_site_fract_y
 _atom_site_fract_z
 _atom_site_occupancy
  Cd  Cd0  1  0.50000000  0.00000000  0.00000000  1.0
  Cd  Cd1  1  0.00000000  0.50000000  0.00000000  1.0
  H  H2  1  0.05342000  0.86929000  0.03693000  1.0
  H  H3  1  0.55342000  0.63070000  0.96308000  1.0
  H  H4  1  0.94658000  0.13071000  0.96307000  1.0
  H  H5  1  0.44658000  0.36930000  0.03693000  1.0
  H  H6  1  0.21537000  0.80477000  0.97030000  1.0
  H  H7  1  0.71537000  0.69522000  0.02971000  1.0
  H  H8  1  0.78463000  0.19523000  0.02970000  1.0
  H  H9  1  0.28463000  0.30478000  0.97030000  1.0
  H  H10  1  0.07930000  0.16538000  0.12252000  1.0
  H  H11  1  0.57931000  0.33461000  0.87748000  1.0
  H  H12  1  0.92068000  0.83461000  0.87749000  1.0
  H  H13  1  0.42069000  0.66538000  0.12252000  1.0
  H  H14  1  0.69414000  0.00319000  0.21835000  1.0
  H  H15  1  0.19414000  0.49682000  0.78165000  1.0
  H  H16  1  0.30587000  0.99682000  0.78164000  1.0
  H  H17  1  0.80586000  0.50318000  0.21836000  1.0
  H  H18  1  0.00833000  0.15816000  0.35523000  1.0
  H  H19  1  0.50834000  0.34184000  0.64477000  1.0
  H  H20  1  0.99167000  0.84184000  0.64477000  1.0
  H  H21  1  0.49167000  0.65816000  0.35523000  1.0
  H  H22  1  0.97812000  0.26125000  0.25975000  1.0
  H  H23  1  0.47812000  0.23875000  0.74024000  1.0
  H  H24  1  0.02187000  0.73875000  0.74024000  1.0
  H  H25  1  0.52187000  0.76125000  0.25976000  1.0
  H  H26  1  0.52465000  0.33384000  0.27223000  1.0
  H  H27  1  0.02464000  0.16615000  0.72777000  1.0
  H  H28  1  0.47534000  0.66616000  0.72777000  1.0
  H  H29  1  0.97535000  0.83385000  0.27223000  1.0
  H  H30  1  0.71221000  0.46588000  0.36764000  1.0
  H  H31  1  0.21220000  0.03410000  0.63237000  1.0
  H  H32  1  0.28778000  0.53411000  0.63236000  1.0
  H  H33  1  0.78779000  0.96589000  0.36764000  1.0
  H  H34  1  0.13972000  0.42562000  0.56004000  1.0
  H  H35  1  0.63972000  0.07439000  0.43997000  1.0
  H  H36  1  0.86030000  0.57438000  0.43996000  1.0
  H  H37  1  0.36029000  0.92561000  0.56004000  1.0
  H  H38  1  0.96194000  0.29074000  0.46747000  1.0
  H  H39  1  0.46194000  0.20926000  0.53253000  1.0
  H  H40  1  0.03806000  0.70927000  0.53253000  1.0
  H  H41  1  0.53806000  0.79073000  0.46747000  1.0
  C  C42  1  0.22601000  0.13426000  0.16427000  1.0
  C  C43  1  0.72602000  0.36573000  0.83573000  1.0
  C  C44  1  0.77398000  0.86573000  0.83573000  1.0
  C  C45  1  0.27398000  0.63426000  0.16428000  1.0
  C  C46  1  0.53563000  0.05287000  0.21607000  1.0
  C  C47  1  0.03563000  0.44714000  0.78393000  1.0
  C  C48  1  0.46437000  0.94715000  0.78393000  1.0
  C  C49  1  0.96436000  0.55286000  0.21608000  1.0
  C  C50  1  0.10500000  0.21892000  0.30811000  1.0
  C  C51  1  0.60500000  0.28108000  0.69189000  1.0
  C  C52  1  0.89500000  0.78108000  0.69189000  1.0
  C  C53  1  0.39500000  0.71892000  0.30812000  1.0
  C  C54  1  0.22807000  0.30259000  0.36254000  1.0
  C  C55  1  0.72807000  0.19741000  0.63746000  1.0
  C  C56  1  0.77191000  0.69741000  0.63747000  1.0
  C  C57  1  0.27192000  0.80259000  0.36254000  1.0
  C  C58  1  0.43911000  0.35421000  0.33528000  1.0
  C  C59  1  0.93912000  0.14578000  0.66472000  1.0
  C  C60  1  0.56089000  0.64579000  0.66471000  1.0
  C  C61  1  0.06088000  0.85421000  0.33529000  1.0
  C  C62  1  0.54438000  0.43023000  0.38930000  1.0
  C  C63  1  0.04437000  0.06976000  0.61069000  1.0
  C  C64  1  0.45562000  0.56976000  0.61070000  1.0
  C  C65  1  0.95562000  0.93024000  0.38930000  1.0
  C  C66  1  0.44233000  0.45987000  0.47135000  1.0
  C  C67  1  0.94233000  0.04012000  0.52865000  1.0
  C  C68  1  0.55767000  0.54013000  0.52865000  1.0
  C  C69  1  0.05767000  0.95987000  0.47135000  1.0
  C  C70  1  0.22814000  0.40860000  0.49689000  1.0
  C  C71  1  0.72813000  0.09141000  0.50311000  1.0
  C  C72  1  0.77186000  0.59141000  0.50311000  1.0
  C  C73  1  0.27186000  0.90859000  0.49689000  1.0
  C  C74  1  0.12488000  0.33088000  0.44402000  1.0
  C  C75  1  0.62488000  0.16913000  0.55599000  1.0
  C  C76  1  0.87512000  0.66914000  0.55598000  1.0
  C  C77  1  0.37513000  0.83087000  0.44402000  1.0
  N  N78  1  0.39925000  0.06862000  0.13929000  1.0
  N  N79  1  0.89925000  0.43138000  0.86071000  1.0
  N  N80  1  0.60075000  0.93138000  0.86071000  1.0
  N  N81  1  0.10075000  0.56861000  0.13929000  1.0
  N  N82  1  0.45567000  0.10378000  0.28660000  1.0
  N  N83  1  0.95567000  0.39623000  0.71341000  1.0
  N  N84  1  0.54434000  0.89624000  0.71340000  1.0
  N  N85  1  0.04433000  0.60377000  0.28660000  1.0
  N  N86  1  0.25873000  0.15579000  0.25207000  1.0
  N  N87  1  0.75873000  0.34421000  0.74793000  1.0
  N  N88  1  0.74127000  0.84422000  0.74792000  1.0
  N  N89  1  0.24127000  0.65578000  0.25208000  1.0
  Cl  Cl90  1  0.26078000  0.16197000  0.89728000  1.0
  Cl  Cl91  1  0.76077000  0.33803000  0.10273000  1.0
  Cl  Cl92  1  0.73922000  0.83803000  0.10273000  1.0
  Cl  Cl93  1  0.23923000  0.66197000  0.89728000  1.0
  O  O94  1  0.18323000  0.87980000  0.99208000  1.0
  O  O95  1  0.68323000  0.62019000  0.00793000  1.0
  O  O96  1  0.81678000  0.12020000  0.00793000  1.0
  O  O97  1  0.31678000  0.37981000  0.99207000  1.0
