# generated using pymatgen
data_Co2H25C33N5O9
_symmetry_space_group_name_H-M   'P 1'
_cell_length_a   8.62911000
_cell_length_b   15.64240000
_cell_length_c   16.29160000
_cell_angle_alpha   104.33600000
_cell_angle_beta   102.24200000
_cell_angle_gamma   90.56970000
_symmetry_Int_Tables_number   1
_chemical_formula_structural   Co2H25C33N5O9
_chemical_formula_sum   'Co4 H50 C66 N10 O18'
_cell_volume   2077.58190991
_cell_formula_units_Z   2
loop_
 _symmetry_equiv_pos_site_id
 _symmetry_equiv_pos_as_xyz
  1  'x, y, z'
loop_
 _atom_site_type_symbol
 _atom_site_label
 _atom_site_symmetry_multiplicity
 _atom_site_fract_x
 _atom_site_fract_y
 _atom_site_fract_z
 _atom_site_occupancy
  Co  Co0  1  0.35214000  0.94675000  0.35635000  1.0
  Co  Co1  1  0.81725000  0.78636000  0.73575000  1.0
  Co  Co2  1  0.64786000  0.05325000  0.64365000  1.0
  Co  Co3  1  0.18273000  0.21365000  0.26424000  1.0
  H  H4  1  0.39021000  0.82078000  0.75847000  1.0
  H  H5  1  0.05275000  0.00698000  0.59999000  1.0
  H  H6  1  0.23148000  0.95299000  0.16270000  1.0
  H  H7  1  0.32194000  0.91113000  0.02291000  1.0
  H  H8  1  0.76708000  0.84898000  0.16918000  1.0
  H  H9  1  0.64784000  0.88166000  0.29942000  1.0
  H  H10  1  0.13779000  0.79748000  0.23282000  1.0
  H  H11  1  0.09386000  0.63490000  0.20904000  1.0
  H  H12  1  0.48844000  0.65252000  0.42853000  1.0
  H  H13  1  0.50601000  0.81521000  0.44587000  1.0
  H  H14  1  0.14421000  0.50046000  0.16839000  1.0
  H  H15  1  0.10595000  0.33955000  0.15563000  1.0
  H  H16  1  0.34457000  0.36678000  0.40941000  1.0
  H  H17  1  0.38349000  0.53037000  0.43698000  1.0
  H  H18  1  0.82930000  0.94267000  0.05786000  1.0
  H  H19  1  0.92931000  0.89922000  0.92099000  1.0
  H  H20  1  0.53659000  0.72596000  0.79680000  1.0
  H  H21  1  0.41685000  0.76376000  0.92751000  1.0
  H  H22  1  0.76667000  0.83340000  0.54921000  1.0
  H  H23  1  0.98377000  0.79825000  0.37722000  1.0
  H  H24  1  0.77915000  0.79542000  0.38248000  1.0
  H  H25  1  0.91258000  0.88720000  0.44656000  1.0
  H  H26  1  0.12820000  0.71087000  0.44014000  1.0
  H  H27  1  0.17025000  0.74891000  0.55586000  1.0
  H  H28  1  0.04409000  0.65158000  0.50308000  1.0
  H  H29  1  0.60984000  0.17922000  0.24152000  1.0
  H  H30  1  0.94727000  0.99302000  0.39997000  1.0
  H  H31  1  0.76852000  0.04698000  0.83728000  1.0
  H  H32  1  0.67806000  0.08884000  0.97708000  1.0
  H  H33  1  0.23293000  0.15099000  0.83082000  1.0
  H  H34  1  0.35216000  0.11832000  0.70057000  1.0
  H  H35  1  0.86218000  0.20251000  0.76721000  1.0
  H  H36  1  0.90613000  0.36510000  0.79099000  1.0
  H  H37  1  0.51157000  0.34747000  0.57147000  1.0
  H  H38  1  0.49401000  0.18479000  0.55413000  1.0
  H  H39  1  0.85578000  0.49956000  0.83162000  1.0
  H  H40  1  0.89405000  0.66046000  0.84436000  1.0
  H  H41  1  0.65546000  0.63322000  0.59060000  1.0
  H  H42  1  0.61652000  0.46964000  0.56303000  1.0
  H  H43  1  0.17070000  0.05734000  0.94213000  1.0
  H  H44  1  0.07068000  0.10080000  0.07899000  1.0
  H  H45  1  0.46342000  0.27406000  0.20317000  1.0
  H  H46  1  0.58314000  0.23622000  0.07246000  1.0
  H  H47  1  0.23333000  0.16659000  0.45080000  1.0
  H  H48  1  0.01622000  0.20174000  0.62280000  1.0
  H  H49  1  0.22086000  0.20458000  0.61754000  1.0
  H  H50  1  0.08740000  0.11279000  0.55346000  1.0
  H  H51  1  0.87179000  0.28914000  0.55985000  1.0
  H  H52  1  0.82975000  0.25110000  0.44414000  1.0
  H  H53  1  0.95592000  0.34841000  0.49692000  1.0
  C  C54  1  0.32542000  0.98258000  0.54668000  1.0
  C  C55  1  0.53169000  0.86416000  0.64461000  1.0
  C  C56  1  0.12910000  0.85789000  0.82123000  1.0
  C  C57  1  0.92507000  0.97016000  0.72317000  1.0
  C  C58  1  0.27599000  0.94396000  0.61416000  1.0
  C  C59  1  0.37115000  0.89075000  0.66025000  1.0
  C  C60  1  0.31594000  0.86239000  0.72447000  1.0
  C  C61  1  0.17289000  0.88718000  0.74693000  1.0
  C  C62  1  0.07922000  0.94111000  0.70170000  1.0
  C  C63  1  0.13038000  0.96696000  0.63497000  1.0
  C  C64  1  0.34684000  0.92631000  0.16036000  1.0
  C  C65  1  0.39943000  0.90469000  0.08314000  1.0
  C  C66  1  0.55362000  0.87696000  0.08446000  1.0
  C  C67  1  0.64607000  0.86998000  0.16407000  1.0
  C  C68  1  0.58138000  0.88885000  0.23712000  1.0
  C  C69  1  0.21255000  0.76173000  0.27415000  1.0
  C  C70  1  0.19055000  0.67096000  0.26109000  1.0
  C  C71  1  0.28919000  0.62729000  0.31610000  1.0
  C  C72  1  0.40628000  0.68088000  0.38338000  1.0
  C  C73  1  0.41895000  0.77157000  0.39333000  1.0
  C  C74  1  0.26817000  0.53141000  0.30454000  1.0
  C  C75  1  0.18889000  0.47485000  0.22473000  1.0
  C  C76  1  0.16906000  0.38477000  0.21619000  1.0
  C  C77  1  0.30178000  0.40020000  0.35842000  1.0
  C  C78  1  0.32440000  0.49107000  0.37250000  1.0
  C  C79  1  0.61637000  0.85472000  0.00477000  1.0
  C  C80  1  0.76270000  0.89243000  0.00216000  1.0
  C  C81  1  0.81678000  0.87037000  0.92544000  1.0
  C  C82  1  0.59676000  0.77396000  0.85622000  1.0
  C  C83  1  0.53187000  0.79444000  0.92928000  1.0
  C  C84  1  0.86213000  0.78717000  0.55409000  1.0
  C  C85  1  0.90112000  0.81534000  0.42023000  1.0
  C  C86  1  0.07892000  0.71738000  0.49769000  1.0
  C  C87  1  0.67461000  0.01743000  0.45335000  1.0
  C  C88  1  0.46832000  0.13585000  0.35539000  1.0
  C  C89  1  0.87091000  0.14212000  0.17877000  1.0
  C  C90  1  0.07493000  0.02984000  0.27681000  1.0
  C  C91  1  0.72402000  0.05605000  0.38586000  1.0
  C  C92  1  0.62885000  0.10927000  0.33977000  1.0
  C  C93  1  0.68405000  0.13761000  0.27553000  1.0
  C  C94  1  0.82709000  0.11281000  0.25306000  1.0
  C  C95  1  0.92077000  0.05888000  0.29830000  1.0
  C  C96  1  0.86961000  0.03304000  0.36503000  1.0
  C  C97  1  0.65315000  0.07366000  0.83963000  1.0
  C  C98  1  0.60058000  0.09529000  0.91685000  1.0
  C  C99  1  0.44639000  0.12301000  0.91553000  1.0
  C  C100  1  0.35394000  0.12999000  0.83592000  1.0
  C  C101  1  0.41862000  0.11112000  0.76287000  1.0
  C  C102  1  0.78744000  0.23826000  0.72587000  1.0
  C  C103  1  0.80945000  0.32904000  0.73893000  1.0
  C  C104  1  0.71082000  0.37271000  0.68391000  1.0
  C  C105  1  0.59374000  0.31912000  0.61663000  1.0
  C  C106  1  0.58107000  0.22843000  0.60669000  1.0
  C  C107  1  0.73183000  0.46860000  0.69547000  1.0
  C  C108  1  0.81111000  0.52516000  0.77528000  1.0
  C  C109  1  0.83095000  0.61523000  0.78381000  1.0
  C  C110  1  0.69822000  0.59980000  0.64158000  1.0
  C  C111  1  0.67559000  0.50893000  0.62751000  1.0
  C  C112  1  0.38364000  0.14528000  0.99522000  1.0
  C  C113  1  0.23728000  0.10758000  0.99784000  1.0
  C  C114  1  0.18320000  0.12966000  0.07456000  1.0
  C  C115  1  0.40324000  0.22606000  0.14376000  1.0
  C  C116  1  0.46812000  0.20558000  0.07071000  1.0
  C  C117  1  0.13789000  0.21281000  0.44592000  1.0
  C  C118  1  0.09888000  0.18466000  0.57977000  1.0
  C  C119  1  0.92109000  0.28263000  0.50231000  1.0
  N  N120  1  0.43508000  0.91845000  0.23676000  1.0
  N  N121  1  0.32471000  0.81202000  0.33918000  1.0
  N  N122  1  0.22535000  0.34688000  0.28159000  1.0
  N  N123  1  0.73552000  0.81185000  0.85322000  1.0
  N  N124  1  0.94154000  0.77098000  0.49039000  1.0
  N  N125  1  0.56493000  0.08154000  0.76323000  1.0
  N  N126  1  0.67530000  0.18797000  0.66083000  1.0
  N  N127  1  0.77464000  0.65310000  0.71841000  1.0
  N  N128  1  0.26448000  0.18817000  0.14677000  1.0
  N  N129  1  0.05845000  0.22902000  0.50961000  1.0
  O  O130  1  0.25554000  0.95107000  0.46824000  1.0
  O  O131  1  0.42540000  0.04991000  0.57416000  1.0
  O  O132  1  0.58337000  0.79528000  0.66812000  1.0
  O  O133  1  0.60604000  0.90997000  0.60914000  1.0
  O  O134  1  0.18525000  0.90360000  0.89651000  1.0
  O  O135  1  0.04093000  0.78500000  0.80237000  1.0
  O  O136  1  0.87399000  0.04146000  0.70467000  1.0
  O  O137  1  0.85248000  0.92485000  0.75984000  1.0
  O  O138  1  0.89499000  0.75281000  0.61721000  1.0
  O  O139  1  0.74443000  0.04894000  0.53178000  1.0
  O  O140  1  0.57461000  0.95011000  0.42588000  1.0
  O  O141  1  0.41658000  0.20472000  0.33188000  1.0
  O  O142  1  0.39396000  0.09005000  0.39086000  1.0
  O  O143  1  0.81474000  0.09642000  0.10348000  1.0
  O  O144  1  0.95908000  0.21503000  0.19765000  1.0
  O  O145  1  0.12599000  0.95854000  0.29532000  1.0
  O  O146  1  0.14750000  0.07516000  0.24014000  1.0
  O  O147  1  0.10505000  0.24717000  0.38278000  1.0
