# generated using pymatgen
data_SmH14(C11O4)2
_symmetry_space_group_name_H-M   'P 1'
_cell_length_a   8.50928000
_cell_length_b   14.23790000
_cell_length_c   15.05103706
_cell_angle_alpha   114.64209620
_cell_angle_beta   106.36226173
_cell_angle_gamma   90.01500000
_symmetry_Int_Tables_number   1
_chemical_formula_structural   SmH14(C11O4)2
_chemical_formula_sum   'Sm2 H28 C44 O16'
_cell_volume   1575.75081990
_cell_formula_units_Z   2
loop_
 _symmetry_equiv_pos_site_id
 _symmetry_equiv_pos_as_xyz
  1  'x, y, z'
loop_
 _atom_site_type_symbol
 _atom_site_label
 _atom_site_symmetry_multiplicity
 _atom_site_fract_x
 _atom_site_fract_y
 _atom_site_fract_z
 _atom_site_occupancy
  Sm  Sm0  1  0.50155000  0.00638000  0.54456000  1.0
  Sm  Sm1  1  0.95723000  0.99344000  0.45575000  1.0
  H  H2  1  0.46394000  0.80320000  0.67173000  1.0
  H  H3  1  0.79254000  0.19627000  0.32790000  1.0
  H  H4  1  0.47888000  0.63722000  0.68942000  1.0
  H  H5  1  0.78994000  0.36213000  0.31003000  1.0
  H  H6  1  0.95209000  0.55469000  0.53981000  1.0
  H  H7  1  0.41317000  0.44518000  0.46033000  1.0
  H  H8  1  0.94077000  0.72000000  0.52293000  1.0
  H  H9  1  0.41849000  0.27995000  0.47731000  1.0
  H  H10  1  0.44076000  0.53387000  0.75479000  1.0
  H  H11  1  0.68726000  0.46604000  0.24505000  1.0
  H  H12  1  0.47828000  0.35747000  0.74465000  1.0
  H  H13  1  0.73441000  0.64250000  0.25516000  1.0
  H  H14  1  0.05238000  0.22528000  0.47503000  1.0
  H  H15  1  0.57826000  0.77443000  0.52515000  1.0
  H  H16  1  0.01862000  0.39922000  0.48112000  1.0
  H  H17  1  0.53853000  0.60050000  0.51900000  1.0
  H  H18  1  0.42471000  0.72100000  0.22772000  1.0
  H  H19  1  0.19618000  0.27905000  0.77182000  1.0
  H  H20  1  0.34818000  0.55586000  0.07036000  1.0
  H  H21  1  0.27730000  0.44462000  0.92871000  1.0
  H  H22  1  0.83355000  0.57313000  0.05191000  1.0
  H  H23  1  0.78154000  0.42822000  0.94814000  1.0
  H  H24  1  0.91541000  0.73485000  0.21411000  1.0
  H  H25  1  0.70100000  0.26609000  0.78630000  1.0
  H  H26  1  0.89253000  0.92189000  0.64967000  1.0
  H  H27  1  0.24290000  0.07792000  0.35048000  1.0
  H  H28  1  0.86974000  0.01301000  0.85187000  1.0
  H  H29  1  0.01857000  0.98678000  0.14817000  1.0
  C  C30  1  0.19757000  0.86748000  0.57745000  1.0
  C  C31  1  0.62078000  0.13247000  0.42293000  1.0
  C  C32  1  0.20203000  0.77154000  0.59530000  1.0
  C  C33  1  0.60732000  0.22820000  0.40473000  1.0
  C  C34  1  0.35271000  0.74805000  0.64373000  1.0
  C  C35  1  0.70938000  0.25149000  0.35597000  1.0
  C  C36  1  0.35977000  0.65534000  0.65388000  1.0
  C  C37  1  0.70640000  0.34417000  0.34576000  1.0
  C  C38  1  0.21703000  0.58235000  0.61465000  1.0
  C  C39  1  0.60315000  0.41733000  0.38517000  1.0
  C  C40  1  0.06565000  0.60819000  0.56881000  1.0
  C  C41  1  0.49755000  0.39162000  0.43115000  1.0
  C  C42  1  0.05818000  0.70159000  0.55982000  1.0
  C  C43  1  0.49907000  0.29829000  0.44029000  1.0
  C  C44  1  0.22918000  0.47988000  0.61708000  1.0
  C  C45  1  0.61305000  0.51984000  0.38280000  1.0
  C  C46  1  0.35640000  0.46639000  0.69235000  1.0
  C  C47  1  0.66507000  0.53347000  0.30751000  1.0
  C  C48  1  0.37669000  0.36795000  0.68803000  1.0
  C  C49  1  0.68940000  0.63195000  0.31180000  1.0
  C  C50  1  0.26946000  0.27967000  0.60896000  1.0
  C  C51  1  0.66113000  0.72016000  0.39097000  1.0
  C  C52  1  0.13780000  0.29283000  0.53641000  1.0
  C  C53  1  0.60223000  0.70691000  0.46365000  1.0
  C  C54  1  0.11842000  0.39137000  0.54042000  1.0
  C  C55  1  0.57891000  0.60836000  0.45959000  1.0
  C  C56  1  0.30676000  0.17421000  0.59909000  1.0
  C  C57  1  0.70810000  0.82568000  0.40090000  1.0
  C  C58  1  0.22140000  0.83476000  0.32998000  1.0
  C  C59  1  0.89097000  0.16530000  0.67040000  1.0
  C  C60  1  0.17529000  0.73757000  0.23152000  1.0
  C  C61  1  0.94315000  0.26300000  0.76842000  1.0
  C  C62  1  0.29564000  0.68711000  0.18909000  1.0
  C  C63  1  0.10587000  0.31336000  0.81048000  1.0
  C  C64  1  0.25073000  0.59443000  0.09951000  1.0
  C  C65  1  0.15075000  0.40617000  0.89993000  1.0
  C  C66  1  0.08403000  0.54980000  0.04758000  1.0
  C  C67  1  0.03622000  0.45107000  0.95208000  1.0
  C  C68  1  0.96432000  0.60318000  0.09030000  1.0
  C  C69  1  0.87383000  0.39787000  0.90966000  1.0
  C  C70  1  0.00861000  0.69475000  0.18090000  1.0
  C  C71  1  0.82736000  0.30611000  0.81925000  1.0
  C  C72  1  0.82928000  0.95362000  0.70875000  1.0
  C  C73  1  0.12074000  0.04606000  0.29136000  1.0
  O  O74  1  0.33409000  0.91078000  0.58444000  1.0
  O  O75  1  0.75044000  0.08932000  0.41619000  1.0
  O  O76  1  0.05828000  0.89918000  0.55498000  1.0
  O  O77  1  0.50388000  0.10078000  0.44545000  1.0
  O  O78  1  0.22710000  0.09216000  0.51651000  1.0
  O  O79  1  0.71076000  0.90766000  0.48354000  1.0
  O  O80  1  0.42664000  0.16550000  0.66638000  1.0
  O  O81  1  0.76072000  0.83454000  0.33360000  1.0
  O  O82  1  0.37369000  0.87180000  0.37603000  1.0
  O  O83  1  0.99708000  0.12806000  0.62425000  1.0
  O  O84  1  0.10452000  0.87567000  0.36298000  1.0
  O  O85  1  0.74137000  0.12410000  0.63803000  1.0
  O  O86  1  0.68198000  0.96394000  0.69181000  1.0
  O  O87  1  0.99038000  0.03552000  0.30830000  1.0
  O  O88  1  0.93285000  0.98132000  0.80363000  1.0
  O  O89  1  0.12971000  0.01856000  0.19650000  1.0
