# generated using pymatgen
data_ZnH10C21Br2(NO2)4
_symmetry_space_group_name_H-M   'P 1'
_cell_length_a   16.34650000
_cell_length_b   17.27250000
_cell_length_c   17.54980000
_cell_angle_alpha   90.25890000
_cell_angle_beta   97.57990000
_cell_angle_gamma   91.36500000
_symmetry_Int_Tables_number   1
_chemical_formula_structural   ZnH10C21Br2(NO2)4
_chemical_formula_sum   'Zn2 H20 C42 Br4 N8 O16'
_cell_volume   4910.25808688
_cell_formula_units_Z   2
loop_
 _symmetry_equiv_pos_site_id
 _symmetry_equiv_pos_as_xyz
  1  'x, y, z'
loop_
 _atom_site_type_symbol
 _atom_site_label
 _atom_site_symmetry_multiplicity
 _atom_site_fract_x
 _atom_site_fract_y
 _atom_site_fract_z
 _atom_site_occupancy
  Zn  Zn0  1  0.59118000  0.50969000  0.50989000  1.0
  Zn  Zn1  1  0.41273000  0.48809000  0.49524000  1.0
  H  H2  1  0.29170000  0.57562000  0.55460000  1.0
  H  H3  1  0.14115000  0.58424000  0.55403000  1.0
  H  H4  1  0.11315000  0.38114000  0.40561000  1.0
  H  H5  1  0.89191000  0.60177000  0.61340000  1.0
  H  H6  1  0.85966000  0.43139000  0.42878000  1.0
  H  H7  1  0.70961000  0.43454000  0.43518000  1.0
  H  H8  1  0.99132000  0.43479000  0.43938000  1.0
  H  H9  1  0.01147000  0.56470000  0.56188000  1.0
  H  H10  1  0.39898000  0.55523000  0.73461000  1.0
  H  H11  1  0.40511000  0.55763000  0.87623000  1.0
  H  H12  1  0.62596000  0.42300000  0.89324000  1.0
  H  H13  1  0.35594000  0.55030000  0.11200000  1.0
  H  H14  1  0.60894000  0.47884000  0.12754000  1.0
  H  H15  1  0.61626000  0.47733000  0.26909000  1.0
  H  H16  1  0.58262000  0.46306000  0.00676000  1.0
  H  H17  1  0.41276000  0.53819000  0.99776000  1.0
  H  H18  1  0.39574000  0.24922000  0.50771000  1.0
  H  H19  1  0.39571000  0.10321000  0.50267000  1.0
  H  H20  1  0.34716000  0.88546000  0.51346000  1.0
  H  H21  1  0.59951000  0.89638000  0.46570000  1.0
  C  C22  1  0.50150000  0.49625000  0.64738000  1.0
  C  C23  1  0.48241000  0.64883000  0.49665000  1.0
  C  C24  1  0.50044000  0.50255000  0.35704000  1.0
  C  C25  1  0.51998000  0.34964000  0.50624000  1.0
  C  C26  1  0.24947000  0.53377000  0.52241000  1.0
  C  C27  1  0.16511000  0.53751000  0.52225000  1.0
  C  C28  1  0.11271000  0.48169000  0.48063000  1.0
  C  C29  1  0.15006000  0.42561000  0.43943000  1.0
  C  C30  1  0.23564000  0.42646000  0.44250000  1.0
  C  C31  1  0.02333000  0.47836000  0.47851000  1.0
  C  C32  1  0.97931000  0.52223000  0.52153000  1.0
  C  C33  1  0.85415000  0.56375000  0.57256000  1.0
  C  C34  1  0.89005000  0.51779000  0.52045000  1.0
  C  C35  1  0.83674000  0.46962000  0.47019000  1.0
  C  C36  1  0.75279000  0.47082000  0.47314000  1.0
  C  C37  1  0.76882000  0.56052000  0.57233000  1.0
  C  C38  1  0.50864000  0.49028000  0.73300000  1.0
  C  C39  1  0.44864000  0.52663000  0.77058000  1.0
  C  C40  1  0.45221000  0.52753000  0.84985000  1.0
  C  C41  1  0.51683000  0.49066000  0.89607000  1.0
  C  C42  1  0.57610000  0.45301000  0.85896000  1.0
  C  C43  1  0.57238000  0.45244000  0.77920000  1.0
  C  C44  1  0.52575000  0.48896000  0.97965000  1.0
  C  C45  1  0.47095000  0.51466000  0.02477000  1.0
  C  C46  1  0.41305000  0.53257000  0.14593000  1.0
  C  C47  1  0.48062000  0.51268000  0.10839000  1.0
  C  C48  1  0.55446000  0.49264000  0.15420000  1.0
  C  C49  1  0.55891000  0.49162000  0.23351000  1.0
  C  C50  1  0.49066000  0.50876000  0.27135000  1.0
  C  C51  1  0.41763000  0.53007000  0.22570000  1.0
  C  C52  1  0.52565000  0.26247000  0.50720000  1.0
  C  C53  1  0.45245000  0.21786000  0.50582000  1.0
  C  C54  1  0.45218000  0.13782000  0.50222000  1.0
  C  C55  1  0.52604000  0.09915000  0.49792000  1.0
  C  C56  1  0.59959000  0.14331000  0.49896000  1.0
  C  C57  1  0.59970000  0.22371000  0.50553000  1.0
  C  C58  1  0.40323000  0.85618000  0.50379000  1.0
  C  C59  1  0.47334000  0.89978000  0.49094000  1.0
  C  C60  1  0.54540000  0.86247000  0.47694000  1.0
  C  C61  1  0.54518000  0.78238000  0.47646000  1.0
  C  C62  1  0.47791000  0.73598000  0.49292000  1.0
  C  C63  1  0.40779000  0.77608000  0.50664000  1.0
  Br  Br64  1  0.28347000  0.34988000  0.38626000  1.0
  Br  Br65  1  0.72315000  0.62103000  0.64499000  1.0
  Br  Br66  1  0.65468000  0.39380000  0.73928000  1.0
  Br  Br67  1  0.32214000  0.56240000  0.26794000  1.0
  N  N68  1  0.28519000  0.47874000  0.48329000  1.0
  N  N69  1  0.71837000  0.51606000  0.52304000  1.0
  N  N70  1  0.53349000  0.01813000  0.49646000  1.0
  N  N71  1  0.46538000  0.98086000  0.49221000  1.0
  N  N72  1  0.68028000  0.26633000  0.51073000  1.0
  N  N73  1  0.67733000  0.10282000  0.49340000  1.0
  N  N74  1  0.33455000  0.73414000  0.52867000  1.0
  N  N75  1  0.61992000  0.74622000  0.45375000  1.0
  O  O76  1  0.56733000  0.48892000  0.61715000  1.0
  O  O77  1  0.43033000  0.50935000  0.61093000  1.0
  O  O78  1  0.41595000  0.61053000  0.47742000  1.0
  O  O79  1  0.55347000  0.62363000  0.51949000  1.0
  O  O80  1  0.43835000  0.47710000  0.38679000  1.0
  O  O81  1  0.57081000  0.52143000  0.39335000  1.0
  O  O82  1  0.58231000  0.38797000  0.48996000  1.0
  O  O83  1  0.45160000  0.37577000  0.52026000  1.0
  O  O84  1  0.70836000  0.29343000  0.57397000  1.0
  O  O85  1  0.71373000  0.26826000  0.45143000  1.0
  O  O86  1  0.68230000  0.06814000  0.43272000  1.0
  O  O87  1  0.73062000  0.10743000  0.55032000  1.0
  O  O88  1  0.34330000  0.70084000  0.59140000  1.0
  O  O89  1  0.26950000  0.73873000  0.48445000  1.0
  O  O90  1  0.61082000  0.70992000  0.39238000  1.0
  O  O91  1  0.68551000  0.75901000  0.49604000  1.0
