# generated using pymatgen
data_ZnH9C16N7O
_symmetry_space_group_name_H-M   'P 1'
_cell_length_a   8.48507000
_cell_length_b   12.60960000
_cell_length_c   15.61710000
_cell_angle_alpha   89.99980000
_cell_angle_beta   89.99980000
_cell_angle_gamma   89.99990000
_symmetry_Int_Tables_number   1
_chemical_formula_structural   ZnH9C16N7O
_chemical_formula_sum   'Zn4 H36 C64 N28 O4'
_cell_volume   1670.92566935
_cell_formula_units_Z   4
loop_
 _symmetry_equiv_pos_site_id
 _symmetry_equiv_pos_as_xyz
  1  'x, y, z'
loop_
 _atom_site_type_symbol
 _atom_site_label
 _atom_site_symmetry_multiplicity
 _atom_site_fract_x
 _atom_site_fract_y
 _atom_site_fract_z
 _atom_site_occupancy
  Zn  Zn0  1  0.81227000  0.40275000  0.19879000  1.0
  Zn  Zn1  1  0.68773000  0.59725000  0.69879000  1.0
  Zn  Zn2  1  0.18773000  0.90275000  0.30121000  1.0
  Zn  Zn3  1  0.31227000  0.09725000  0.80121000  1.0
  H  H4  1  0.02621000  0.20916000  0.22289000  1.0
  H  H5  1  0.47378000  0.79084000  0.72289000  1.0
  H  H6  1  0.97378000  0.70916000  0.27711000  1.0
  H  H7  1  0.52622000  0.29084000  0.77711000  1.0
  H  H8  1  0.29680000  0.15187000  0.18047000  1.0
  H  H9  1  0.20319000  0.84813000  0.68047000  1.0
  H  H10  1  0.70319000  0.65187000  0.31953000  1.0
  H  H11  1  0.79681000  0.34813000  0.81953000  1.0
  H  H12  1  0.46055000  0.27485000  0.08842000  1.0
  H  H13  1  0.03944000  0.72514000  0.58842000  1.0
  H  H14  1  0.53944000  0.77486000  0.41159000  1.0
  H  H15  1  0.96056000  0.22514000  0.91158000  1.0
  H  H16  1  0.34415000  0.44791000  0.04388000  1.0
  H  H17  1  0.15585000  0.55209000  0.54388000  1.0
  H  H18  1  0.65586000  0.94792000  0.45612000  1.0
  H  H19  1  0.84415000  0.05209000  0.95612000  1.0
  H  H20  1  0.06567000  0.73718000  0.09771000  1.0
  H  H21  1  0.43433000  0.26282000  0.59771000  1.0
  H  H22  1  0.93434000  0.23718000  0.40229000  1.0
  H  H23  1  0.56567000  0.76282000  0.90229000  1.0
  H  H24  1  0.15055000  0.85769000  0.97992000  1.0
  H  H25  1  0.34946000  0.14231000  0.47993000  1.0
  H  H26  1  0.84945000  0.35769000  0.52007000  1.0
  H  H27  1  0.65055000  0.64231000  0.02007000  1.0
  H  H28  1  0.23510000  0.78403000  0.84112000  1.0
  H  H29  1  0.26490000  0.21597000  0.34112000  1.0
  H  H30  1  0.76489000  0.28403000  0.65887000  1.0
  H  H31  1  0.73511000  0.71597000  0.15887000  1.0
  H  H32  1  0.23286000  0.58796000  0.81668000  1.0
  H  H33  1  0.26714000  0.41204000  0.31668000  1.0
  H  H34  1  0.76714000  0.08796000  0.68332000  1.0
  H  H35  1  0.73286000  0.91204000  0.18332000  1.0
  H  H36  1  0.15396000  0.46735000  0.93419000  1.0
  H  H37  1  0.34605000  0.53264000  0.43419000  1.0
  H  H38  1  0.84605000  0.96735000  0.56581000  1.0
  H  H39  1  0.65395000  0.03265000  0.06581000  1.0
  C  C40  1  0.10050000  0.25975000  0.18309000  1.0
  C  C41  1  0.39949000  0.74025000  0.68309000  1.0
  C  C42  1  0.89950000  0.75975000  0.31691000  1.0
  C  C43  1  0.60051000  0.24025000  0.81691000  1.0
  C  C44  1  0.25202000  0.22828000  0.15891000  1.0
  C  C45  1  0.24798000  0.77172000  0.65891000  1.0
  C  C46  1  0.74798000  0.72828000  0.34109000  1.0
  C  C47  1  0.75202000  0.27172000  0.84109000  1.0
  C  C48  1  0.34116000  0.29576000  0.10776000  1.0
  C  C49  1  0.15884000  0.70424000  0.60776000  1.0
  C  C50  1  0.65884000  0.79577000  0.39224000  1.0
  C  C51  1  0.84116000  0.20424000  0.89224000  1.0
  C  C52  1  0.27626000  0.39264000  0.08252000  1.0
  C  C53  1  0.22374000  0.60736000  0.58252000  1.0
  C  C54  1  0.72374000  0.89264000  0.41748000  1.0
  C  C55  1  0.77626000  0.10736000  0.91748000  1.0
  C  C56  1  0.12458000  0.41887000  0.10962000  1.0
  C  C57  1  0.37542000  0.58113000  0.60962000  1.0
  C  C58  1  0.87542000  0.91887000  0.39038000  1.0
  C  C59  1  0.62458000  0.08113000  0.89038000  1.0
  C  C60  1  0.05191000  0.52592000  0.09463000  1.0
  C  C61  1  0.44809000  0.47408000  0.59463000  1.0
  C  C62  1  0.94809000  0.02592000  0.40537000  1.0
  C  C63  1  0.55191000  0.97408000  0.90537000  1.0
  C  C64  1  0.10677000  0.59455000  0.02419000  1.0
  C  C65  1  0.39323000  0.40545000  0.52419000  1.0
  C  C66  1  0.89323000  0.09455000  0.47581000  1.0
  C  C67  1  0.60677000  0.90545000  0.97581000  1.0
  C  C68  1  0.10291000  0.70510000  0.03620000  1.0
  C  C69  1  0.39709000  0.29490000  0.53620000  1.0
  C  C70  1  0.89709000  0.20509000  0.46380000  1.0
  C  C71  1  0.60291000  0.79491000  0.96380000  1.0
  C  C72  1  0.14978000  0.77221000  0.97036000  1.0
  C  C73  1  0.35022000  0.22779000  0.47036000  1.0
  C  C74  1  0.85022000  0.27221000  0.52963000  1.0
  C  C75  1  0.64978000  0.72779000  0.02964000  1.0
  C  C76  1  0.19692000  0.73029000  0.89155000  1.0
  C  C77  1  0.30307000  0.26971000  0.39155000  1.0
  C  C78  1  0.80307000  0.23028000  0.60845000  1.0
  C  C79  1  0.69693000  0.76971000  0.10845000  1.0
  C  C80  1  0.19725000  0.62078000  0.87827000  1.0
  C  C81  1  0.30275000  0.37922000  0.37827000  1.0
  C  C82  1  0.80275000  0.12078000  0.62173000  1.0
  C  C83  1  0.69725000  0.87922000  0.12173000  1.0
  C  C84  1  0.15406000  0.55283000  0.94462000  1.0
  C  C85  1  0.34594000  0.44717000  0.44463000  1.0
  C  C86  1  0.84594000  0.05282000  0.55537000  1.0
  C  C87  1  0.65406000  0.94717000  0.05537000  1.0
  C  C88  1  0.66402000  0.42024000  0.00798000  1.0
  C  C89  1  0.83598000  0.57976000  0.50799000  1.0
  C  C90  1  0.33598000  0.92024000  0.49201000  1.0
  C  C91  1  0.16402000  0.07976000  0.99201000  1.0
  C  C92  1  0.59056000  0.50839000  0.88452000  1.0
  C  C93  1  0.90944000  0.49162000  0.38452000  1.0
  C  C94  1  0.40944000  0.00838000  0.61549000  1.0
  C  C95  1  0.09056000  0.99161000  0.11548000  1.0
  C  C96  1  0.49765000  0.54159000  0.21522000  1.0
  C  C97  1  0.00234000  0.45841000  0.71522000  1.0
  C  C98  1  0.50235000  0.04159000  0.28478000  1.0
  C  C99  1  0.99766000  0.95841000  0.78478000  1.0
  C  C100  1  0.32090000  0.67582000  0.24319000  1.0
  C  C101  1  0.17909000  0.32418000  0.74319000  1.0
  C  C102  1  0.67909000  0.17582000  0.25681000  1.0
  C  C103  1  0.82091000  0.82418000  0.75682000  1.0
  N  N104  1  0.03931000  0.35283000  0.15943000  1.0
  N  N105  1  0.46068000  0.64717000  0.65943000  1.0
  N  N106  1  0.96069000  0.85282000  0.34057000  1.0
  N  N107  1  0.53931000  0.14718000  0.84057000  1.0
  N  N108  1  0.74343000  0.38425000  0.06281000  1.0
  N  N109  1  0.75657000  0.61575000  0.56281000  1.0
  N  N110  1  0.25657000  0.88425000  0.43719000  1.0
  N  N111  1  0.24343000  0.11575000  0.93719000  1.0
  N  N112  1  0.56215000  0.45333000  0.95248000  1.0
  N  N113  1  0.93785000  0.54667000  0.45248000  1.0
  N  N114  1  0.43785000  0.95332000  0.54752000  1.0
  N  N115  1  0.06215000  0.04667000  0.04752000  1.0
  N  N116  1  0.60107000  0.55908000  0.82145000  1.0
  N  N117  1  0.89893000  0.44092000  0.32145000  1.0
  N  N118  1  0.39893000  0.05908000  0.67855000  1.0
  N  N119  1  0.10107000  0.94092000  0.17855000  1.0
  N  N120  1  0.61837000  0.49588000  0.21338000  1.0
  N  N121  1  0.88162000  0.50412000  0.71338000  1.0
  N  N122  1  0.38163000  0.99588000  0.28661000  1.0
  N  N123  1  0.11838000  0.00412000  0.78662000  1.0
  N  N124  1  0.35914000  0.58351000  0.21446000  1.0
  N  N125  1  0.14085000  0.41649000  0.71446000  1.0
  N  N126  1  0.64086000  0.08350000  0.28553000  1.0
  N  N127  1  0.85915000  0.91649000  0.78554000  1.0
  N  N128  1  0.27151000  0.75732000  0.26787000  1.0
  N  N129  1  0.22849000  0.24268000  0.76787000  1.0
  N  N130  1  0.72849000  0.25732000  0.23213000  1.0
  N  N131  1  0.77151000  0.74268000  0.73213000  1.0
  O  O132  1  0.94703000  0.55625000  0.14460000  1.0
  O  O133  1  0.55298000  0.44376000  0.64460000  1.0
  O  O134  1  0.05298000  0.05624000  0.35540000  1.0
  O  O135  1  0.44702000  0.94376000  0.85540000  1.0
