# generated using pymatgen
data_CuH12C14N2(ClO)2
_symmetry_space_group_name_H-M   'P 1'
_cell_length_a   6.80011000
_cell_length_b   13.15650000
_cell_length_c   19.92500000
_cell_angle_alpha   90.00000000
_cell_angle_beta   90.00000000
_cell_angle_gamma   90.00000000
_symmetry_Int_Tables_number   1
_chemical_formula_structural   CuH12C14N2(ClO)2
_chemical_formula_sum   'Cu4 H48 C56 N8 Cl8 O8'
_cell_volume   1782.60302076
_cell_formula_units_Z   4
loop_
 _symmetry_equiv_pos_site_id
 _symmetry_equiv_pos_as_xyz
  1  'x, y, z'
loop_
 _atom_site_type_symbol
 _atom_site_label
 _atom_site_symmetry_multiplicity
 _atom_site_fract_x
 _atom_site_fract_y
 _atom_site_fract_z
 _atom_site_occupancy
  Cu  Cu0  1  0.25000000  0.00000000  0.02972000  1.0
  Cu  Cu1  1  0.75000000  0.50000000  0.47028000  1.0
  Cu  Cu2  1  0.75000000  0.00000000  0.97028000  1.0
  Cu  Cu3  1  0.25000000  0.50000000  0.52972000  1.0
  H  H4  1  0.39143000  0.09698000  0.28221000  1.0
  H  H5  1  0.89144000  0.40302000  0.21777000  1.0
  H  H6  1  0.60856000  0.59698000  0.21777000  1.0
  H  H7  1  0.10857000  0.90302000  0.28221000  1.0
  H  H8  1  0.60857000  0.90302000  0.71779000  1.0
  H  H9  1  0.10855000  0.59698000  0.78223000  1.0
  H  H10  1  0.39145000  0.40302000  0.78223000  1.0
  H  H11  1  0.89143000  0.09698000  0.71779000  1.0
  H  H12  1  0.25348000  0.17839000  0.38428000  1.0
  H  H13  1  0.75347000  0.32160000  0.11570000  1.0
  H  H14  1  0.74654000  0.67840000  0.11570000  1.0
  H  H15  1  0.24652000  0.82161000  0.38428000  1.0
  H  H16  1  0.74651000  0.82161000  0.61572000  1.0
  H  H17  1  0.24652000  0.67840000  0.88430000  1.0
  H  H18  1  0.25348000  0.32160000  0.88430000  1.0
  H  H19  1  0.75349000  0.17838000  0.61572000  1.0
  H  H20  1  0.89763000  0.22097000  0.38956000  1.0
  H  H21  1  0.39764000  0.27900000  0.11044000  1.0
  H  H22  1  0.10237000  0.72100000  0.11043000  1.0
  H  H23  1  0.60237000  0.77903000  0.38956000  1.0
  H  H24  1  0.10235000  0.77901000  0.61044000  1.0
  H  H25  1  0.60236000  0.72097000  0.88958000  1.0
  H  H26  1  0.89764000  0.27902000  0.88958000  1.0
  H  H27  1  0.39765000  0.22098000  0.61044000  1.0
  H  H28  1  0.68084000  0.18493000  0.29215000  1.0
  H  H29  1  0.18084000  0.31508000  0.20785000  1.0
  H  H30  1  0.31916000  0.68492000  0.20785000  1.0
  H  H31  1  0.81916000  0.81507000  0.29215000  1.0
  H  H32  1  0.31914000  0.81507000  0.70785000  1.0
  H  H33  1  0.81915000  0.68493000  0.79216000  1.0
  H  H34  1  0.68085000  0.31507000  0.79216000  1.0
  H  H35  1  0.18085000  0.18492000  0.70785000  1.0
  H  H36  1  0.81924000  0.10690000  0.18879000  1.0
  H  H37  1  0.31927000  0.39310000  0.31121000  1.0
  H  H38  1  0.18073000  0.60690000  0.31121000  1.0
  H  H39  1  0.68076000  0.89309000  0.18878000  1.0
  H  H40  1  0.18077000  0.89309000  0.81122000  1.0
  H  H41  1  0.68073000  0.60692000  0.68880000  1.0
  H  H42  1  0.81927000  0.39309000  0.68880000  1.0
  H  H43  1  0.31923000  0.10691000  0.81122000  1.0
  H  H44  1  0.05346000  0.17621000  0.04938000  1.0
  H  H45  1  0.55340000  0.32377000  0.45058000  1.0
  H  H46  1  0.94659000  0.67623000  0.45058000  1.0
  H  H47  1  0.44654000  0.82380000  0.04938000  1.0
  H  H48  1  0.94660000  0.82380000  0.95062000  1.0
  H  H49  1  0.44654000  0.67623000  0.54941000  1.0
  H  H50  1  0.05346000  0.32377000  0.54941000  1.0
  H  H51  1  0.55340000  0.17620000  0.95062000  1.0
  C  C52  1  0.19170000  0.04784000  0.16782000  1.0
  C  C53  1  0.69169000  0.45217000  0.33217000  1.0
  C  C54  1  0.80831000  0.54783000  0.33217000  1.0
  C  C55  1  0.30831000  0.95217000  0.16782000  1.0
  C  C56  1  0.80831000  0.95217000  0.83218000  1.0
  C  C57  1  0.30831000  0.54783000  0.66784000  1.0
  C  C58  1  0.19169000  0.45217000  0.66784000  1.0
  C  C59  1  0.69170000  0.04784000  0.83218000  1.0
  C  C60  1  0.11409000  0.09564000  0.22918000  1.0
  C  C61  1  0.61409000  0.40436000  0.27080000  1.0
  C  C62  1  0.88591000  0.59565000  0.27080000  1.0
  C  C63  1  0.38591000  0.90436000  0.22918000  1.0
  C  C64  1  0.88592000  0.90436000  0.77082000  1.0
  C  C65  1  0.38590000  0.59565000  0.72920000  1.0
  C  C66  1  0.11410000  0.40435000  0.72920000  1.0
  C  C67  1  0.61409000  0.09564000  0.77082000  1.0
  C  C68  1  0.23573000  0.11573000  0.28459000  1.0
  C  C69  1  0.73575000  0.38427000  0.21540000  1.0
  C  C70  1  0.76426000  0.61573000  0.21540000  1.0
  C  C71  1  0.26428000  0.88427000  0.28459000  1.0
  C  C72  1  0.76428000  0.88428000  0.71542000  1.0
  C  C73  1  0.26426000  0.61573000  0.78460000  1.0
  C  C74  1  0.23575000  0.38427000  0.78460000  1.0
  C  C75  1  0.73572000  0.11572000  0.71542000  1.0
  C  C76  1  0.15785000  0.16076000  0.34199000  1.0
  C  C77  1  0.65786000  0.33923000  0.15800000  1.0
  C  C78  1  0.84214000  0.66077000  0.15799000  1.0
  C  C79  1  0.34214000  0.83923000  0.34199000  1.0
  C  C80  1  0.84213000  0.83924000  0.65801000  1.0
  C  C81  1  0.34212000  0.66077000  0.84201000  1.0
  C  C82  1  0.15787000  0.33923000  0.84201000  1.0
  C  C83  1  0.65788000  0.16076000  0.65801000  1.0
  C  C84  1  0.95805000  0.18492000  0.34488000  1.0
  C  C85  1  0.45805000  0.31507000  0.15511000  1.0
  C  C86  1  0.04195000  0.68492000  0.15511000  1.0
  C  C87  1  0.54195000  0.81508000  0.34488000  1.0
  C  C88  1  0.04194000  0.81508000  0.65512000  1.0
  C  C89  1  0.54195000  0.68492000  0.84490000  1.0
  C  C90  1  0.95806000  0.31508000  0.84489000  1.0
  C  C91  1  0.45805000  0.18492000  0.65512000  1.0
  C  C92  1  0.83601000  0.16448000  0.29007000  1.0
  C  C93  1  0.33602000  0.33552000  0.20992000  1.0
  C  C94  1  0.16398000  0.66448000  0.20992000  1.0
  C  C95  1  0.66400000  0.83551000  0.29007000  1.0
  C  C96  1  0.16400000  0.83552000  0.70992000  1.0
  C  C97  1  0.66399000  0.66449000  0.79009000  1.0
  C  C98  1  0.83602000  0.33551000  0.79009000  1.0
  C  C99  1  0.33599000  0.16448000  0.70992000  1.0
  C  C100  1  0.91327000  0.12088000  0.23209000  1.0
  C  C101  1  0.41330000  0.37912000  0.26789000  1.0
  C  C102  1  0.08670000  0.62088000  0.26789000  1.0
  C  C103  1  0.58673000  0.87912000  0.23209000  1.0
  C  C104  1  0.08672000  0.87912000  0.76790000  1.0
  C  C105  1  0.58670000  0.62089000  0.73211000  1.0
  C  C106  1  0.91330000  0.37911000  0.73211000  1.0
  C  C107  1  0.41328000  0.12088000  0.76790000  1.0
  N  N108  1  0.16064000  0.08295000  0.10758000  1.0
  N  N109  1  0.66054000  0.41708000  0.39240000  1.0
  N  N110  1  0.83946000  0.58292000  0.39240000  1.0
  N  N111  1  0.33936000  0.91705000  0.10758000  1.0
  N  N112  1  0.83940000  0.91706000  0.89243000  1.0
  N  N113  1  0.33944000  0.58293000  0.60760000  1.0
  N  N114  1  0.16056000  0.41707000  0.60760000  1.0
  N  N115  1  0.66061000  0.08294000  0.89243000  1.0
  Cl  Cl116  1  0.11896000  0.11289000  0.95657000  1.0
  Cl  Cl117  1  0.61903000  0.38708000  0.54339000  1.0
  Cl  Cl118  1  0.88097000  0.61292000  0.54339000  1.0
  Cl  Cl119  1  0.38104000  0.88712000  0.95657000  1.0
  Cl  Cl120  1  0.88108000  0.88713000  0.04342000  1.0
  Cl  Cl121  1  0.38092000  0.61294000  0.45661000  1.0
  Cl  Cl122  1  0.11907000  0.38707000  0.45661000  1.0
  Cl  Cl123  1  0.61892000  0.11287000  0.04342000  1.0
  O  O124  1  0.06418000  0.17275000  0.09973000  1.0
  O  O125  1  0.56419000  0.32724000  0.40023000  1.0
  O  O126  1  0.93581000  0.67277000  0.40024000  1.0
  O  O127  1  0.43582000  0.82725000  0.09973000  1.0
  O  O128  1  0.93583000  0.82725000  0.90027000  1.0
  O  O129  1  0.43582000  0.67276000  0.59976000  1.0
  O  O130  1  0.06418000  0.32724000  0.59976000  1.0
  O  O131  1  0.56418000  0.17275000  0.90027000  1.0
