# generated using pymatgen
data_ZnH11C13NO4
_symmetry_space_group_name_H-M   'P 1'
_cell_length_a   9.58460000
_cell_length_b   10.94400000
_cell_length_c   11.00800000
_cell_angle_alpha   90.01400000
_cell_angle_beta   90.01190000
_cell_angle_gamma   90.77980000
_symmetry_Int_Tables_number   1
_chemical_formula_structural   ZnH11C13NO4
_chemical_formula_sum   'Zn2 H22 C26 N2 O8'
_cell_volume   1154.56463643
_cell_formula_units_Z   2
loop_
 _symmetry_equiv_pos_site_id
 _symmetry_equiv_pos_as_xyz
  1  'x, y, z'
loop_
 _atom_site_type_symbol
 _atom_site_label
 _atom_site_symmetry_multiplicity
 _atom_site_fract_x
 _atom_site_fract_y
 _atom_site_fract_z
 _atom_site_occupancy
  Zn  Zn0  1  0.35853000  0.50164000  0.49973000  1.0
  Zn  Zn1  1  0.64146000  0.49836000  0.50027000  1.0
  H  H2  1  0.86388000  0.35991000  0.62683000  1.0
  H  H3  1  0.13611000  0.64009000  0.37316000  1.0
  H  H4  1  0.86790000  0.64023000  0.37366000  1.0
  H  H5  1  0.13209000  0.35977000  0.62634000  1.0
  H  H6  1  0.60551000  0.08557000  0.31546000  1.0
  H  H7  1  0.39450000  0.91443000  0.68454000  1.0
  H  H8  1  0.37029000  0.92354000  0.32294000  1.0
  H  H9  1  0.62972000  0.07646000  0.67706000  1.0
  H  H10  1  0.25665000  0.06738000  0.51365000  1.0
  H  H11  1  0.74336000  0.93262000  0.48635000  1.0
  H  H12  1  0.44053000  0.28666000  0.23019000  1.0
  H  H13  1  0.32870000  0.23896000  0.11136000  1.0
  H  H14  1  0.50741000  0.20020000  0.10759000  1.0
  H  H15  1  0.55947000  0.71334000  0.76981000  1.0
  H  H16  1  0.49259000  0.79980000  0.89241000  1.0
  H  H17  1  0.67129000  0.76104000  0.88865000  1.0
  H  H18  1  0.51921000  0.25932000  0.79633000  1.0
  H  H19  1  0.41834000  0.19759000  0.91732000  1.0
  H  H20  1  0.33990000  0.29153000  0.80568000  1.0
  H  H21  1  0.48079000  0.74068000  0.20367000  1.0
  H  H22  1  0.66010000  0.70846000  0.19431000  1.0
  H  H23  1  0.58166000  0.80241000  0.08268000  1.0
  C  C24  1  0.50010000  0.50165000  0.87509000  1.0
  C  C25  1  0.49988000  0.49836000  0.12491000  1.0
  C  C26  1  0.49943000  0.49837000  0.26141000  1.0
  C  C27  1  0.50056000  0.50163000  0.73859000  1.0
  C  C28  1  0.50359000  0.74044000  0.49536000  1.0
  C  C29  1  0.49643000  0.25956000  0.50465000  1.0
  C  C30  1  0.42754000  0.95903000  0.40176000  1.0
  C  C31  1  0.57248000  0.04097000  0.59825000  1.0
  C  C32  1  0.36443000  0.03630000  0.50771000  1.0
  C  C33  1  0.63559000  0.96370000  0.49229000  1.0
  C  C34  1  0.55903000  0.04562000  0.39736000  1.0
  C  C35  1  0.44098000  0.95438000  0.60265000  1.0
  C  C36  1  0.49451000  0.12380000  0.50365000  1.0
  C  C37  1  0.50550000  0.87621000  0.49635000  1.0
  C  C38  1  0.92629000  0.42183000  0.57077000  1.0
  C  C39  1  0.07371000  0.57817000  0.42923000  1.0
  C  C40  1  0.92850000  0.57814000  0.42944000  1.0
  C  C41  1  0.07150000  0.42186000  0.57056000  1.0
  C  C42  1  0.46739000  0.38950000  0.06274000  1.0
  C  C43  1  0.53259000  0.61050000  0.93726000  1.0
  C  C44  1  0.46749000  0.39148000  0.93492000  1.0
  C  C45  1  0.53251000  0.60852000  0.06508000  1.0
  C  C46  1  0.43464000  0.27328000  0.13167000  1.0
  C  C47  1  0.56536000  0.72672000  0.86833000  1.0
  C  C48  1  0.43445000  0.27878000  0.86069000  1.0
  C  C49  1  0.56555000  0.72122000  0.13931000  1.0
  N  N50  1  0.14335000  0.50004000  0.49984000  1.0
  N  N51  1  0.85665000  0.49996000  0.50016000  1.0
  O  O52  1  0.38100000  0.50101000  0.31365000  1.0
  O  O53  1  0.61897000  0.49899000  0.68635000  1.0
  O  O54  1  0.38251000  0.50385000  0.68552000  1.0
  O  O55  1  0.61746000  0.49615000  0.31448000  1.0
  O  O56  1  0.38331000  0.68890000  0.49429000  1.0
  O  O57  1  0.61670000  0.31110000  0.50571000  1.0
  O  O58  1  0.37954000  0.31395000  0.50282000  1.0
  O  O59  1  0.62046000  0.68606000  0.49718000  1.0
