# generated using pymatgen
data_AlH3C6Cl2O7
_symmetry_space_group_name_H-M   'P 1'
_cell_length_a   6.74685000
_cell_length_b   10.65540000
_cell_length_c   18.42010000
_cell_angle_alpha   89.98240000
_cell_angle_beta   90.01220000
_cell_angle_gamma   89.99630000
_symmetry_Int_Tables_number   1
_chemical_formula_structural   AlH3C6Cl2O7
_chemical_formula_sum   'Al4 H12 C24 Cl8 O28'
_cell_volume   1324.22799450
_cell_formula_units_Z   4
loop_
 _symmetry_equiv_pos_site_id
 _symmetry_equiv_pos_as_xyz
  1  'x, y, z'
loop_
 _atom_site_type_symbol
 _atom_site_label
 _atom_site_symmetry_multiplicity
 _atom_site_fract_x
 _atom_site_fract_y
 _atom_site_fract_z
 _atom_site_occupancy
  Al  Al0  1  0.90871000  0.75329000  0.75019000  1.0
  Al  Al1  1  0.08948000  0.23959000  0.25035000  1.0
  Al  Al2  1  0.41049000  0.73952000  0.75019000  1.0
  Al  Al3  1  0.59125000  0.25340000  0.25029000  1.0
  H  H4  1  0.31272000  0.52470000  0.44831000  1.0
  H  H5  1  0.89307000  0.67634000  0.58400000  1.0
  H  H6  1  0.89339000  0.67647000  0.91640000  1.0
  H  H7  1  0.31309000  0.52460000  0.05200000  1.0
  H  H8  1  0.60686000  0.17607000  0.08399000  1.0
  H  H9  1  0.18708000  0.02451000  0.94820000  1.0
  H  H10  1  0.18711000  0.02472000  0.55185000  1.0
  H  H11  1  0.60674000  0.17662000  0.41635000  1.0
  H  H12  1  0.67074000  0.57762000  0.74913000  1.0
  H  H13  1  0.32539000  0.40900000  0.24157000  1.0
  H  H14  1  0.17457000  0.90979000  0.74823000  1.0
  H  H15  1  0.82925000  0.07776000  0.24803000  1.0
  C  C16  1  0.65067000  0.88433000  0.64735000  1.0
  C  C17  1  0.33964000  0.09643000  0.34991000  1.0
  C  C18  1  0.33956000  0.09582000  0.15042000  1.0
  C  C19  1  0.65078000  0.88422000  0.85296000  1.0
  C  C20  1  0.16053000  0.59619000  0.84998000  1.0
  C  C21  1  0.84905000  0.38468000  0.14749000  1.0
  C  C22  1  0.84946000  0.38392000  0.35315000  1.0
  C  C23  1  0.16024000  0.59596000  0.65051000  1.0
  C  C24  1  0.14911000  0.51910000  0.58338000  1.0
  C  C25  1  0.86086000  0.44868000  0.42398000  1.0
  C  C26  1  0.86103000  0.44910000  0.07656000  1.0
  C  C27  1  0.14948000  0.51929000  0.91715000  1.0
  C  C28  1  0.63906000  0.94891000  0.92380000  1.0
  C  C29  1  0.35069000  0.01903000  0.08320000  1.0
  C  C30  1  0.35084000  0.01937000  0.41696000  1.0
  C  C31  1  0.63902000  0.94883000  0.57642000  1.0
  C  C32  1  0.02882000  0.55495000  0.52741000  1.0
  C  C33  1  0.03082000  0.49522000  0.45441000  1.0
  C  C34  1  0.03109000  0.49544000  0.04611000  1.0
  C  C35  1  0.02926000  0.55516000  0.97309000  1.0
  C  C36  1  0.46904000  0.99530000  0.95425000  1.0
  C  C37  1  0.47085000  0.05493000  0.02725000  1.0
  C  C38  1  0.47114000  0.05512000  0.47294000  1.0
  C  C39  1  0.46908000  0.99533000  0.54594000  1.0
  Cl  Cl40  1  0.64703000  0.44939000  0.47541000  1.0
  Cl  Cl41  1  0.29490000  0.38653000  0.57962000  1.0
  Cl  Cl42  1  0.29496000  0.38660000  0.92092000  1.0
  Cl  Cl43  1  0.64751000  0.44971000  0.02494000  1.0
  Cl  Cl44  1  0.20516000  0.88633000  0.07945000  1.0
  Cl  Cl45  1  0.85281000  0.94965000  0.97533000  1.0
  Cl  Cl46  1  0.85272000  0.94941000  0.52493000  1.0
  Cl  Cl47  1  0.20511000  0.88682000  0.42071000  1.0
  O  O48  1  0.48693000  0.85250000  0.82423000  1.0
  O  O49  1  0.50706000  0.13801000  0.17321000  1.0
  O  O50  1  0.50655000  0.14015000  0.32757000  1.0
  O  O51  1  0.48680000  0.85287000  0.67617000  1.0
  O  O52  1  0.99294000  0.63872000  0.67313000  1.0
  O  O53  1  0.01339000  0.35162000  0.32475000  1.0
  O  O54  1  0.01281000  0.35373000  0.17663000  1.0
  O  O55  1  0.99333000  0.63917000  0.82742000  1.0
  O  O56  1  0.82282000  0.86216000  0.67372000  1.0
  O  O57  1  0.17211000  0.11635000  0.32144000  1.0
  O  O58  1  0.17158000  0.11672000  0.17833000  1.0
  O  O59  1  0.82287000  0.86215000  0.82656000  1.0
  O  O60  1  0.32824000  0.61651000  0.82176000  1.0
  O  O61  1  0.67675000  0.36203000  0.17356000  1.0
  O  O62  1  0.67752000  0.36242000  0.32643000  1.0
  O  O63  1  0.32806000  0.61647000  0.67866000  1.0
  O  O64  1  0.66487000  0.66844000  0.75017000  1.0
  O  O65  1  0.33811000  0.31946000  0.24975000  1.0
  O  O66  1  0.16184000  0.81922000  0.75007000  1.0
  O  O67  1  0.83509000  0.16852000  0.25006000  1.0
  O  O68  1  0.20435000  0.49234000  0.41820000  1.0
  O  O69  1  0.90418000  0.65350000  0.53194000  1.0
  O  O70  1  0.90460000  0.65373000  0.96851000  1.0
  O  O71  1  0.20493000  0.49240000  0.08230000  1.0
  O  O72  1  0.59542000  0.15356000  0.03189000  1.0
  O  O73  1  0.29541000  0.99231000  0.91802000  1.0
  O  O74  1  0.29530000  0.99239000  0.58209000  1.0
  O  O75  1  0.59589000  0.15360000  0.46844000  1.0
