# generated using pymatgen
data_Hg2H8C8SO4
_symmetry_space_group_name_H-M   'P 1'
_cell_length_a   5.20874000
_cell_length_b   6.52899000
_cell_length_c   17.03140000
_cell_angle_alpha   90.00030000
_cell_angle_beta   90.00040000
_cell_angle_gamma   105.58000000
_symmetry_Int_Tables_number   1
_chemical_formula_structural   Hg2H8C8SO4
_chemical_formula_sum   'Hg4 H16 C16 S2 O8'
_cell_volume   557.91870974
_cell_formula_units_Z   2
loop_
 _symmetry_equiv_pos_site_id
 _symmetry_equiv_pos_as_xyz
  1  'x, y, z'
loop_
 _atom_site_type_symbol
 _atom_site_label
 _atom_site_symmetry_multiplicity
 _atom_site_fract_x
 _atom_site_fract_y
 _atom_site_fract_z
 _atom_site_occupancy
  Hg  Hg0  1  0.89704000  0.73458000  0.56218000  1.0
  Hg  Hg1  1  0.10296000  0.26543000  0.06219000  1.0
  Hg  Hg2  1  0.10296000  0.26543000  0.43782000  1.0
  Hg  Hg3  1  0.89704000  0.73457000  0.93782000  1.0
  H  H4  1  0.24056000  0.46843000  0.67223000  1.0
  H  H5  1  0.75943000  0.53157000  0.17223000  1.0
  H  H6  1  0.75944000  0.53157000  0.32777000  1.0
  H  H7  1  0.24056000  0.46843000  0.82777000  1.0
  H  H8  1  0.22764000  0.81090000  0.35994000  1.0
  H  H9  1  0.77236000  0.18910000  0.85994000  1.0
  H  H10  1  0.77236000  0.18910000  0.64006000  1.0
  H  H11  1  0.22764000  0.81090000  0.14006000  1.0
  H  H12  1  0.52826000  0.78256000  0.31552000  1.0
  H  H13  1  0.47175000  0.21744000  0.81553000  1.0
  H  H14  1  0.47175000  0.21744000  0.68448000  1.0
  H  H15  1  0.52825000  0.78256000  0.18447000  1.0
  H  H16  1  0.52575000  0.02789000  0.35768000  1.0
  H  H17  1  0.47425000  0.97211000  0.85768000  1.0
  H  H18  1  0.47425000  0.97211000  0.64232000  1.0
  H  H19  1  0.52574000  0.02789000  0.14232000  1.0
  C  C20  1  0.98344000  0.68130000  0.67642000  1.0
  C  C21  1  0.01656000  0.31870000  0.17642000  1.0
  C  C22  1  0.01656000  0.31870000  0.32358000  1.0
  C  C23  1  0.98343000  0.68130000  0.82357000  1.0
  C  C24  1  0.13471000  0.55704000  0.70813000  1.0
  C  C25  1  0.86528000  0.44295000  0.20813000  1.0
  C  C26  1  0.86528000  0.44295000  0.29187000  1.0
  C  C27  1  0.13471000  0.55705000  0.79187000  1.0
  C  C28  1  0.53414000  0.78789000  0.44159000  1.0
  C  C29  1  0.46586000  0.21211000  0.94159000  1.0
  C  C30  1  0.46586000  0.21211000  0.55841000  1.0
  C  C31  1  0.53414000  0.78789000  0.05841000  1.0
  C  C32  1  0.44492000  0.85484000  0.36401000  1.0
  C  C33  1  0.55508000  0.14516000  0.86401000  1.0
  C  C34  1  0.55508000  0.14517000  0.63599000  1.0
  C  C35  1  0.44492000  0.85483000  0.13599000  1.0
  S  S36  1  0.84539000  0.79754000  0.75000000  1.0
  S  S37  1  0.15461000  0.20246000  0.25000000  1.0
  O  O38  1  0.79218000  0.81192000  0.44731000  1.0
  O  O39  1  0.20783000  0.18808000  0.94731000  1.0
  O  O40  1  0.20782000  0.18808000  0.55269000  1.0
  O  O41  1  0.79218000  0.81192000  0.05269000  1.0
  O  O42  1  0.37628000  0.71619000  0.49656000  1.0
  O  O43  1  0.62372000  0.28382000  0.99656000  1.0
  O  O44  1  0.62371000  0.28381000  0.50344000  1.0
  O  O45  1  0.37629000  0.71618000  0.00344000  1.0
