# generated using pymatgen
data_ZnH4C3N4O3
_symmetry_space_group_name_H-M   'P 1'
_cell_length_a   8.86423000
_cell_length_b   16.03580000
_cell_length_c   16.94220000
_cell_angle_alpha   72.26200000
_cell_angle_beta   89.99990000
_cell_angle_gamma   89.99980000
_symmetry_Int_Tables_number   1
_chemical_formula_structural   ZnH4C3N4O3
_chemical_formula_sum   'Zn12 H48 C36 N48 O36'
_cell_volume   2293.76028169
_cell_formula_units_Z   12
loop_
 _symmetry_equiv_pos_site_id
 _symmetry_equiv_pos_as_xyz
  1  'x, y, z'
loop_
 _atom_site_type_symbol
 _atom_site_label
 _atom_site_symmetry_multiplicity
 _atom_site_fract_x
 _atom_site_fract_y
 _atom_site_fract_z
 _atom_site_occupancy
  Zn  Zn0  1  0.12844000  0.02087000  0.20055000  1.0
  Zn  Zn1  1  0.62843000  0.47914000  0.29944000  1.0
  Zn  Zn2  1  0.87156000  0.97914000  0.79944000  1.0
  Zn  Zn3  1  0.37157000  0.52086000  0.70055000  1.0
  Zn  Zn4  1  0.62402000  0.17726000  0.95140000  1.0
  Zn  Zn5  1  0.12401000  0.32275000  0.54859000  1.0
  Zn  Zn6  1  0.37598000  0.82275000  0.04860000  1.0
  Zn  Zn7  1  0.87599000  0.67726000  0.45140000  1.0
  Zn  Zn8  1  0.56582000  0.33383000  0.05933000  1.0
  Zn  Zn9  1  0.06581000  0.16617000  0.44068000  1.0
  Zn  Zn10  1  0.43418000  0.66617000  0.94067000  1.0
  Zn  Zn11  1  0.93418000  0.83383000  0.55933000  1.0
  H  H12  1  0.13119000  0.26843000  0.14611000  1.0
  H  H13  1  0.63119000  0.23157000  0.35389000  1.0
  H  H14  1  0.86880000  0.73158000  0.85389000  1.0
  H  H15  1  0.36882000  0.76842000  0.64612000  1.0
  H  H16  1  0.29807000  0.29059000  0.19045000  1.0
  H  H17  1  0.79807000  0.20941000  0.30955000  1.0
  H  H18  1  0.70192000  0.70942000  0.80955000  1.0
  H  H19  1  0.20194000  0.79059000  0.69045000  1.0
  H  H20  1  0.98826000  0.20829000  0.94972000  1.0
  H  H21  1  0.48826000  0.29170000  0.55028000  1.0
  H  H22  1  0.01175000  0.79171000  0.05028000  1.0
  H  H23  1  0.51174000  0.70829000  0.44972000  1.0
  H  H24  1  0.09157000  0.19503000  0.04252000  1.0
  H  H25  1  0.59156000  0.30497000  0.45748000  1.0
  H  H26  1  0.90843000  0.80498000  0.95748000  1.0
  H  H27  1  0.40843000  0.69503000  0.54252000  1.0
  H  H28  1  0.04308000  0.73238000  0.27077000  1.0
  H  H29  1  0.54308000  0.76762000  0.22923000  1.0
  H  H30  1  0.95692000  0.26761000  0.72923000  1.0
  H  H31  1  0.45693000  0.23238000  0.77077000  1.0
  H  H32  1  0.93757000  0.82106000  0.20507000  1.0
  H  H33  1  0.43757000  0.67894000  0.29492000  1.0
  H  H34  1  0.06243000  0.17894000  0.79492000  1.0
  H  H35  1  0.56244000  0.32106000  0.70507000  1.0
  H  H36  1  0.44877000  0.46219000  0.10351000  1.0
  H  H37  1  0.94877000  0.03781000  0.39649000  1.0
  H  H38  1  0.55122000  0.53781000  0.89649000  1.0
  H  H39  1  0.05123000  0.96219000  0.60352000  1.0
  H  H40  1  0.34024000  0.45678000  0.03272000  1.0
  H  H41  1  0.84024000  0.04322000  0.46729000  1.0
  H  H42  1  0.65976000  0.54322000  0.96728000  1.0
  H  H43  1  0.15976000  0.95678000  0.53272000  1.0
  H  H44  1  0.41795000  0.06452000  0.91203000  1.0
  H  H45  1  0.91795000  0.43548000  0.58798000  1.0
  H  H46  1  0.58205000  0.93548000  0.08797000  1.0
  H  H47  1  0.08206000  0.56452000  0.41202000  1.0
  H  H48  1  0.58108000  0.07824000  0.86702000  1.0
  H  H49  1  0.08108000  0.42176000  0.63297000  1.0
  H  H50  1  0.41893000  0.92176000  0.13298000  1.0
  H  H51  1  0.91892000  0.57824000  0.36703000  1.0
  H  H52  1  0.82440000  0.40679000  0.04802000  1.0
  H  H53  1  0.32440000  0.09320000  0.45198000  1.0
  H  H54  1  0.17559000  0.59321000  0.95198000  1.0
  H  H55  1  0.67560000  0.90680000  0.54802000  1.0
  H  H56  1  0.71598000  0.44597000  0.10421000  1.0
  H  H57  1  0.21597000  0.05403000  0.39579000  1.0
  H  H58  1  0.28401000  0.55404000  0.89579000  1.0
  H  H59  1  0.78402000  0.94597000  0.60422000  1.0
  C  C60  1  0.31529000  0.18723000  0.13680000  1.0
  C  C61  1  0.81528000  0.31277000  0.36320000  1.0
  C  C62  1  0.68471000  0.81278000  0.86320000  1.0
  C  C63  1  0.18472000  0.68723000  0.63680000  1.0
  C  C64  1  0.22954000  0.23634000  0.18365000  1.0
  C  C65  1  0.72954000  0.26365000  0.31635000  1.0
  C  C66  1  0.77045000  0.76366000  0.81635000  1.0
  C  C67  1  0.27046000  0.73634000  0.68365000  1.0
  C  C68  1  0.16997000  0.18228000  0.26794000  1.0
  C  C69  1  0.66998000  0.31772000  0.23207000  1.0
  C  C70  1  0.83001000  0.81772000  0.73206000  1.0
  C  C71  1  0.33002000  0.68228000  0.76794000  1.0
  C  C72  1  0.90625000  0.10683000  0.05269000  1.0
  C  C73  1  0.40625000  0.39317000  0.44730000  1.0
  C  C74  1  0.09375000  0.89317000  0.94730000  1.0
  C  C75  1  0.59375000  0.60683000  0.55269000  1.0
  C  C76  1  0.97857000  0.19385000  0.01736000  1.0
  C  C77  1  0.47857000  0.30615000  0.48264000  1.0
  C  C78  1  0.02143000  0.80615000  0.98264000  1.0
  C  C79  1  0.52143000  0.69385000  0.51735000  1.0
  C  C80  1  0.88247000  0.26809000  0.03084000  1.0
  C  C81  1  0.38247000  0.23190000  0.46916000  1.0
  C  C82  1  0.11753000  0.73191000  0.96916000  1.0
  C  C83  1  0.61753000  0.76810000  0.53083000  1.0
  C  C84  1  0.02344000  0.84425000  0.31219000  1.0
  C  C85  1  0.52344000  0.65575000  0.18781000  1.0
  C  C86  1  0.97657000  0.15575000  0.68781000  1.0
  C  C87  1  0.47657000  0.34425000  0.81219000  1.0
  C  C88  1  0.03894000  0.80386000  0.24468000  1.0
  C  C89  1  0.53894000  0.69614000  0.25532000  1.0
  C  C90  1  0.96106000  0.19614000  0.75532000  1.0
  C  C91  1  0.46107000  0.30385000  0.74468000  1.0
  C  C92  1  0.17352000  0.83598000  0.18671000  1.0
  C  C93  1  0.67351000  0.66402000  0.31329000  1.0
  C  C94  1  0.82649000  0.16402000  0.81329000  1.0
  C  C95  1  0.32649000  0.33598000  0.68671000  1.0
  N  N96  1  0.42514000  0.22118000  0.08233000  1.0
  N  N97  1  0.92514000  0.27882000  0.41767000  1.0
  N  N98  1  0.57486000  0.77883000  0.91767000  1.0
  N  N99  1  0.07486000  0.72118000  0.58233000  1.0
  N  N100  1  0.46554000  0.15714000  0.05028000  1.0
  N  N101  1  0.96553000  0.34287000  0.44972000  1.0
  N  N102  1  0.53446000  0.84287000  0.94972000  1.0
  N  N103  1  0.03447000  0.65714000  0.55028000  1.0
  N  N104  1  0.38579000  0.08674000  0.08265000  1.0
  N  N105  1  0.88579000  0.41326000  0.41735000  1.0
  N  N106  1  0.61421000  0.91326000  0.91735000  1.0
  N  N107  1  0.11422000  0.58674000  0.58265000  1.0
  N  N108  1  0.29052000  0.10390000  0.13747000  1.0
  N  N109  1  0.79052000  0.39610000  0.36253000  1.0
  N  N110  1  0.70947000  0.89610000  0.86253000  1.0
  N  N111  1  0.20949000  0.60390000  0.63747000  1.0
  N  N112  1  0.95292000  0.04124000  0.11876000  1.0
  N  N113  1  0.45292000  0.45875000  0.38124000  1.0
  N  N114  1  0.04708000  0.95876000  0.88123000  1.0
  N  N115  1  0.54709000  0.54124000  0.61877000  1.0
  N  N116  1  0.85030000  0.97587000  0.13010000  1.0
  N  N117  1  0.35030000  0.52413000  0.36990000  1.0
  N  N118  1  0.14970000  0.02413000  0.86990000  1.0
  N  N119  1  0.64971000  0.47588000  0.63011000  1.0
  N  N120  1  0.74568000  0.00155000  0.07373000  1.0
  N  N121  1  0.24568000  0.49845000  0.42627000  1.0
  N  N122  1  0.25432000  0.99845000  0.92627000  1.0
  N  N123  1  0.75434000  0.50156000  0.57373000  1.0
  N  N124  1  0.77695000  0.08309000  0.02437000  1.0
  N  N125  1  0.27695000  0.41690000  0.47563000  1.0
  N  N126  1  0.22305000  0.91690000  0.97563000  1.0
  N  N127  1  0.72306000  0.58309000  0.52437000  1.0
  N  N128  1  0.98473000  0.80269000  0.39097000  1.0
  N  N129  1  0.48473000  0.69731000  0.10903000  1.0
  N  N130  1  0.01527000  0.19731000  0.60903000  1.0
  N  N131  1  0.51527000  0.30269000  0.89097000  1.0
  N  N132  1  0.98375000  0.86467000  0.42943000  1.0
  N  N133  1  0.48375000  0.63533000  0.07057000  1.0
  N  N134  1  0.01625000  0.13533000  0.57057000  1.0
  N  N135  1  0.51624000  0.36467000  0.92943000  1.0
  N  N136  1  0.04485000  0.92971000  0.30354000  1.0
  N  N137  1  0.54486000  0.57029000  0.19646000  1.0
  N  N138  1  0.95515000  0.07029000  0.69646000  1.0
  N  N139  1  0.45515000  0.42971000  0.80354000  1.0
  N  N140  1  0.01935000  0.94054000  0.37768000  1.0
  N  N141  1  0.51936000  0.55946000  0.12232000  1.0
  N  N142  1  0.98065000  0.05946000  0.62232000  1.0
  N  N143  1  0.48064000  0.44054000  0.87768000  1.0
  O  O144  1  0.14719000  0.10005000  0.28351000  1.0
  O  O145  1  0.64721000  0.39994000  0.21649000  1.0
  O  O146  1  0.85280000  0.89995000  0.71649000  1.0
  O  O147  1  0.35279000  0.60004000  0.78351000  1.0
  O  O148  1  0.14416000  0.22378000  0.31915000  1.0
  O  O149  1  0.64414000  0.27621000  0.18085000  1.0
  O  O150  1  0.85584000  0.77622000  0.68085000  1.0
  O  O151  1  0.35585000  0.72378000  0.81915000  1.0
  O  O152  1  0.74018000  0.26265000  0.01905000  1.0
  O  O153  1  0.24018000  0.23734000  0.48095000  1.0
  O  O154  1  0.25981000  0.73735000  0.98095000  1.0
  O  O155  1  0.75982000  0.76265000  0.51905000  1.0
  O  O156  1  0.94676000  0.32866000  0.05054000  1.0
  O  O157  1  0.44677000  0.17133000  0.44946000  1.0
  O  O158  1  0.05322000  0.67134000  0.94945000  1.0
  O  O159  1  0.55324000  0.82866000  0.55053000  1.0
  O  O160  1  0.21797000  0.78433000  0.14794000  1.0
  O  O161  1  0.71796000  0.71567000  0.35206000  1.0
  O  O162  1  0.78203000  0.21567000  0.85206000  1.0
  O  O163  1  0.28204000  0.28433000  0.64794000  1.0
  O  O164  1  0.23151000  0.91121000  0.17834000  1.0
  O  O165  1  0.73151000  0.58879000  0.32166000  1.0
  O  O166  1  0.76849000  0.08879000  0.82166000  1.0
  O  O167  1  0.26850000  0.41120000  0.67834000  1.0
  O  O168  1  0.39892000  0.41917000  0.08007000  1.0
  O  O169  1  0.89892000  0.08083000  0.41993000  1.0
  O  O170  1  0.60108000  0.58083000  0.91993000  1.0
  O  O171  1  0.10108000  0.91917000  0.58007000  1.0
  O  O172  1  0.50017000  0.10794000  0.88851000  1.0
  O  O173  1  0.00017000  0.39206000  0.61148000  1.0
  O  O174  1  0.49983000  0.89206000  0.11148000  1.0
  O  O175  1  0.99983000  0.60794000  0.38852000  1.0
  O  O176  1  0.72941000  0.44263000  0.04733000  1.0
  O  O177  1  0.22941000  0.05737000  0.45267000  1.0
  O  O178  1  0.27058000  0.55737000  0.95267000  1.0
  O  O179  1  0.77059000  0.94263000  0.54734000  1.0
