# generated using pymatgen
data_AgH10C10SN3O8
_symmetry_space_group_name_H-M   'P 1'
_cell_length_a   5.70455000
_cell_length_b   11.25580000
_cell_length_c   12.58340000
_cell_angle_alpha   113.26800000
_cell_angle_beta   89.99040000
_cell_angle_gamma   104.68400000
_symmetry_Int_Tables_number   1
_chemical_formula_structural   AgH10C10SN3O8
_chemical_formula_sum   'Ag2 H20 C20 S2 N6 O16'
_cell_volume   713.45566131
_cell_formula_units_Z   2
loop_
 _symmetry_equiv_pos_site_id
 _symmetry_equiv_pos_as_xyz
  1  'x, y, z'
loop_
 _atom_site_type_symbol
 _atom_site_label
 _atom_site_symmetry_multiplicity
 _atom_site_fract_x
 _atom_site_fract_y
 _atom_site_fract_z
 _atom_site_occupancy
  Ag  Ag0  1  0.41401000  0.47433000  0.29386000  1.0
  Ag  Ag1  1  0.06021000  0.47402000  0.79366000  1.0
  H  H2  1  0.91000000  0.27202000  0.02383000  1.0
  H  H3  1  0.36180000  0.27211000  0.52377000  1.0
  H  H4  1  0.93727000  0.03548000  0.96261000  1.0
  H  H5  1  0.09848000  0.03544000  0.46235000  1.0
  H  H6  1  0.58231000  0.14030000  0.79960000  1.0
  H  H7  1  0.55775000  0.14022000  0.29968000  1.0
  H  H8  1  0.52177000  0.37265000  0.86366000  1.0
  H  H9  1  0.85033000  0.37269000  0.36390000  1.0
  H  H10  1  0.63152000  0.57416000  0.52775000  1.0
  H  H11  1  0.94197000  0.57342000  0.02761000  1.0
  H  H12  1  0.81459000  0.72089000  0.73699000  1.0
  H  H13  1  0.90573000  0.72029000  0.23688000  1.0
  H  H14  1  0.44709000  0.89542000  0.60179000  1.0
  H  H15  1  0.44984000  0.89570000  0.10162000  1.0
  H  H16  1  0.23582000  0.74468000  0.40104000  1.0
  H  H17  1  0.51005000  0.74474000  0.90088000  1.0
  H  H18  1  0.03550000  0.54906000  0.24187000  1.0
  H  H19  1  0.51356000  0.54897000  0.74172000  1.0
  H  H20  1  0.17507000  0.51585000  0.12450000  1.0
  H  H21  1  0.34052000  0.51593000  0.62453000  1.0
  C  C22  1  0.05162000  0.23546000  0.97291000  1.0
  C  C23  1  0.18365000  0.23547000  0.47285000  1.0
  C  C24  1  0.07043000  0.10564000  0.93829000  1.0
  C  C25  1  0.03520000  0.10560000  0.43817000  1.0
  C  C26  1  0.25981000  0.06996000  0.87404000  1.0
  C  C27  1  0.81014000  0.06991000  0.37394000  1.0
  C  C28  1  0.42794000  0.16417000  0.84617000  1.0
  C  C29  1  0.73599000  0.16416000  0.34624000  1.0
  C  C30  1  0.40079000  0.29214000  0.88122000  1.0
  C  C31  1  0.89093000  0.29218000  0.38138000  1.0
  C  C32  1  0.80895000  0.64830000  0.55212000  1.0
  C  C33  1  0.83922000  0.64782000  0.05200000  1.0
  C  C34  1  0.91320000  0.72892000  0.66516000  1.0
  C  C35  1  0.81567000  0.72852000  0.16503000  1.0
  C  C36  1  0.14622000  0.81647000  0.68468000  1.0
  C  C37  1  0.67079000  0.81635000  0.18452000  1.0
  C  C38  1  0.26753000  0.82605000  0.59067000  1.0
  C  C39  1  0.55954000  0.82610000  0.09049000  1.0
  C  C40  1  0.15547000  0.74438000  0.47909000  1.0
  C  C41  1  0.58985000  0.74436000  0.97894000  1.0
  S  S42  1  0.29569000  0.90565000  0.82920000  1.0
  S  S43  1  0.61018000  0.90552000  0.32897000  1.0
  N  N44  1  0.52610000  0.22382000  0.14315000  1.0
  N  N45  1  0.69674000  0.22376000  0.64304000  1.0
  N  N46  1  0.21447000  0.32586000  0.94345000  1.0
  N  N47  1  0.11101000  0.32590000  0.44352000  1.0
  N  N48  1  0.93225000  0.65477000  0.46105000  1.0
  N  N49  1  0.72291000  0.65452000  0.96093000  1.0
  O  O50  1  0.55258000  0.91485000  0.82039000  1.0
  O  O51  1  0.36239000  0.91454000  0.32001000  1.0
  O  O52  1  0.16157000  0.84418000  0.90087000  1.0
  O  O53  1  0.68284000  0.84412000  0.40069000  1.0
  O  O54  1  0.19380000  0.44974000  0.97651000  1.0
  O  O55  1  0.25546000  0.44983000  0.47663000  1.0
  O  O56  1  0.83700000  0.57143000  0.35386000  1.0
  O  O57  1  0.73470000  0.57118000  0.85371000  1.0
  O  O58  1  0.63164000  0.32936000  0.12770000  1.0
  O  O59  1  0.69676000  0.32926000  0.62755000  1.0
  O  O60  1  0.58050000  0.11560000  0.09096000  1.0
  O  O61  1  0.53419000  0.11551000  0.59088000  1.0
  O  O62  1  0.36376000  0.23069000  0.21438000  1.0
  O  O63  1  0.86587000  0.23067000  0.71431000  1.0
  O  O64  1  0.19500000  0.56464000  0.21101000  1.0
  O  O65  1  0.36966000  0.56471000  0.71105000  1.0
