# generated using pymatgen
data_Ag2H14C17N3O5
_symmetry_space_group_name_H-M   'P 1'
_cell_length_a   12.28490000
_cell_length_b   17.45780000
_cell_length_c   18.06040000
_cell_angle_alpha   90.00080000
_cell_angle_beta   90.00020000
_cell_angle_gamma   95.70730000
_symmetry_Int_Tables_number   1
_chemical_formula_structural   Ag2H14C17N3O5
_chemical_formula_sum   'Ag16 H112 C136 N24 O40'
_cell_volume   3854.16508455
_cell_formula_units_Z   8
loop_
 _symmetry_equiv_pos_site_id
 _symmetry_equiv_pos_as_xyz
  1  'x, y, z'
loop_
 _atom_site_type_symbol
 _atom_site_label
 _atom_site_symmetry_multiplicity
 _atom_site_fract_x
 _atom_site_fract_y
 _atom_site_fract_z
 _atom_site_occupancy
  Ag  Ag0  1  0.20564000  0.01356000  0.29835000  1.0
  Ag  Ag1  1  0.29436000  0.48645000  0.79834000  1.0
  Ag  Ag2  1  0.79436000  0.98644000  0.70165000  1.0
  Ag  Ag3  1  0.70564000  0.51355000  0.20166000  1.0
  Ag  Ag4  1  0.25497000  0.00361000  0.45677000  1.0
  Ag  Ag5  1  0.24502000  0.49639000  0.95676000  1.0
  Ag  Ag6  1  0.74502000  0.99639000  0.54323000  1.0
  Ag  Ag7  1  0.75498000  0.50361000  0.04324000  1.0
  Ag  Ag8  1  0.49999000  0.49999000  0.50000000  1.0
  Ag  Ag9  1  0.00000000  0.00000000  0.00000000  1.0
  Ag  Ag10  1  0.00000000  0.50001000  0.50000000  1.0
  Ag  Ag11  1  0.50002000  0.99999000  0.00000000  1.0
  Ag  Ag12  1  0.74025000  0.51127000  0.48337000  1.0
  Ag  Ag13  1  0.75976000  0.98873000  0.98336000  1.0
  Ag  Ag14  1  0.25974000  0.48873000  0.51663000  1.0
  Ag  Ag15  1  0.24024000  0.01127000  0.01663000  1.0
  H  H16  1  0.43851000  0.98875000  0.26136000  1.0
  H  H17  1  0.06148000  0.51124000  0.76136000  1.0
  H  H18  1  0.56149000  0.01125000  0.73864000  1.0
  H  H19  1  0.93850000  0.48876000  0.23865000  1.0
  H  H20  1  0.55113000  0.88023000  0.23734000  1.0
  H  H21  1  0.94886000  0.61976000  0.73734000  1.0
  H  H22  1  0.44887000  0.11977000  0.76267000  1.0
  H  H23  1  0.05112000  0.38024000  0.26266000  1.0
  H  H24  1  0.27414000  0.72532000  0.31006000  1.0
  H  H25  1  0.22585000  0.77469000  0.81007000  1.0
  H  H26  1  0.72586000  0.27468000  0.68993000  1.0
  H  H27  1  0.77414000  0.22531000  0.18993000  1.0
  H  H28  1  0.17096000  0.83994000  0.32433000  1.0
  H  H29  1  0.32904000  0.66006000  0.82433000  1.0
  H  H30  1  0.82905000  0.16006000  0.67566000  1.0
  H  H31  1  0.67096000  0.33994000  0.17566000  1.0
  H  H32  1  0.64059000  0.10605000  0.48870000  1.0
  H  H33  1  0.85941000  0.39395000  0.98870000  1.0
  H  H34  1  0.35941000  0.89395000  0.51130000  1.0
  H  H35  1  0.14059000  0.60605000  0.01130000  1.0
  H  H36  1  0.60919000  0.20973000  0.57950000  1.0
  H  H37  1  0.89082000  0.29028000  0.07950000  1.0
  H  H38  1  0.39081000  0.79028000  0.42049000  1.0
  H  H39  1  0.10919000  0.70972000  0.92049000  1.0
  H  H40  1  0.76536000  0.22290000  0.48872000  1.0
  H  H41  1  0.73464000  0.27711000  0.98872000  1.0
  H  H42  1  0.23464000  0.77711000  0.51128000  1.0
  H  H43  1  0.26536000  0.72290000  0.01128000  1.0
  H  H44  1  0.73076000  0.25472000  0.36267000  1.0
  H  H45  1  0.76925000  0.24527000  0.86267000  1.0
  H  H46  1  0.26924000  0.74528000  0.63733000  1.0
  H  H47  1  0.23076000  0.75473000  0.13733000  1.0
  H  H48  1  0.53470000  0.25192000  0.32365000  1.0
  H  H49  1  0.96530000  0.24807000  0.82365000  1.0
  H  H50  1  0.46530000  0.74808000  0.67635000  1.0
  H  H51  1  0.03471000  0.75193000  0.17635000  1.0
  H  H52  1  0.61009000  0.12843000  0.36193000  1.0
  H  H53  1  0.88990000  0.37156000  0.86193000  1.0
  H  H54  1  0.38991000  0.87157000  0.63807000  1.0
  H  H55  1  0.11010000  0.62844000  0.13807000  1.0
  H  H56  1  0.45490000  0.28843000  0.55265000  1.0
  H  H57  1  0.04510000  0.21158000  0.05265000  1.0
  H  H58  1  0.54510000  0.71158000  0.44735000  1.0
  H  H59  1  0.95489000  0.78841000  0.94735000  1.0
  H  H60  1  0.41220000  0.30874000  0.41516000  1.0
  H  H61  1  0.08780000  0.19126000  0.91516000  1.0
  H  H62  1  0.58780000  0.69126000  0.58484000  1.0
  H  H63  1  0.91220000  0.80874000  0.08485000  1.0
  H  H64  1  0.43812000  0.53580000  0.63707000  1.0
  H  H65  1  0.06189000  0.96422000  0.13708000  1.0
  H  H66  1  0.56188000  0.46421000  0.36293000  1.0
  H  H67  1  0.93812000  0.03580000  0.86293000  1.0
  H  H68  1  0.56592000  0.52721000  0.64153000  1.0
  H  H69  1  0.93408000  0.97279000  0.14152000  1.0
  H  H70  1  0.43407000  0.47279000  0.35847000  1.0
  H  H71  1  0.06592000  0.02721000  0.85847000  1.0
  H  H72  1  0.85450000  0.43859000  0.59657000  1.0
  H  H73  1  0.64550000  0.06141000  0.09657000  1.0
  H  H74  1  0.14550000  0.56141000  0.40343000  1.0
  H  H75  1  0.35450000  0.93859000  0.90343000  1.0
  H  H76  1  0.87690000  0.53104000  0.61336000  1.0
  H  H77  1  0.62311000  0.96896000  0.11336000  1.0
  H  H78  1  0.12310000  0.46896000  0.38665000  1.0
  H  H79  1  0.37691000  0.03104000  0.88665000  1.0
  H  H80  1  0.74930000  0.68039000  0.24538000  1.0
  H  H81  1  0.75069000  0.81961000  0.74538000  1.0
  H  H82  1  0.25070000  0.31961000  0.75462000  1.0
  H  H83  1  0.24930000  0.18040000  0.25462000  1.0
  H  H84  1  0.64609000  0.79231000  0.27485000  1.0
  H  H85  1  0.85390000  0.70769000  0.77486000  1.0
  H  H86  1  0.35391000  0.20769000  0.72514000  1.0
  H  H87  1  0.14610000  0.29232000  0.22514000  1.0
  H  H88  1  0.34822000  0.64260000  0.23876000  1.0
  H  H89  1  0.15178000  0.85740000  0.73877000  1.0
  H  H90  1  0.65178000  0.35740000  0.76124000  1.0
  H  H91  1  0.84821000  0.14260000  0.26123000  1.0
  H  H92  1  0.46422000  0.53736000  0.21218000  1.0
  H  H93  1  0.03578000  0.96264000  0.71218000  1.0
  H  H94  1  0.53578000  0.46263000  0.78782000  1.0
  H  H95  1  0.96421000  0.03736000  0.28782000  1.0
  H  H96  1  0.86017000  0.90868000  0.46747000  1.0
  H  H97  1  0.63984000  0.59132000  0.96749000  1.0
  H  H98  1  0.13983000  0.09132000  0.53252000  1.0
  H  H99  1  0.36016000  0.40868000  0.03253000  1.0
  H  H100  1  0.86059000  0.80247000  0.37407000  1.0
  H  H101  1  0.63941000  0.69751000  0.87408000  1.0
  H  H102  1  0.13942000  0.19752000  0.62593000  1.0
  H  H103  1  0.36058000  0.30248000  0.12593000  1.0
  H  H104  1  0.72867000  0.79857000  0.48032000  1.0
  H  H105  1  0.77133000  0.70142000  0.98033000  1.0
  H  H106  1  0.27134000  0.20142000  0.51967000  1.0
  H  H107  1  0.22866000  0.29859000  0.01967000  1.0
  H  H108  1  0.79324000  0.77571000  0.60273000  1.0
  H  H109  1  0.70677000  0.72430000  0.10273000  1.0
  H  H110  1  0.20677000  0.22429000  0.39727000  1.0
  H  H111  1  0.29324000  0.27570000  0.89727000  1.0
  H  H112  1  0.99361000  0.76210000  0.61854000  1.0
  H  H113  1  0.50639000  0.73791000  0.11854000  1.0
  H  H114  1  0.00639000  0.23789000  0.38145000  1.0
  H  H115  1  0.49362000  0.26211000  0.88145000  1.0
  H  H116  1  0.93261000  0.89123000  0.58682000  1.0
  H  H117  1  0.56738000  0.60878000  0.08684000  1.0
  H  H118  1  0.06739000  0.10877000  0.41317000  1.0
  H  H119  1  0.43262000  0.39123000  0.91318000  1.0
  H  H120  1  0.01045000  0.71465000  0.38554000  1.0
  H  H121  1  0.48956000  0.78535000  0.88555000  1.0
  H  H122  1  0.98956000  0.28535000  0.61445000  1.0
  H  H123  1  0.51044000  0.21465000  0.11445000  1.0
  H  H124  1  0.07696000  0.69131000  0.51673000  1.0
  H  H125  1  0.42304000  0.80869000  0.01673000  1.0
  H  H126  1  0.92305000  0.30870000  0.48326000  1.0
  H  H127  1  0.57696000  0.19130000  0.98326000  1.0
  C  C128  1  0.40541000  0.92915000  0.26994000  1.0
  C  C129  1  0.09460000  0.57084000  0.76994000  1.0
  C  C130  1  0.59460000  0.07085000  0.73006000  1.0
  C  C131  1  0.90539000  0.42915000  0.23006000  1.0
  C  C132  1  0.46803000  0.86844000  0.25806000  1.0
  C  C133  1  0.03197000  0.63155000  0.75806000  1.0
  C  C134  1  0.53198000  0.13156000  0.74194000  1.0
  C  C135  1  0.96802000  0.36845000  0.24194000  1.0
  C  C136  1  0.42239000  0.79285000  0.27126000  1.0
  C  C137  1  0.07760000  0.70715000  0.77127000  1.0
  C  C138  1  0.57761000  0.20715000  0.72874000  1.0
  C  C139  1  0.92239000  0.29285000  0.22873000  1.0
  C  C140  1  0.31324000  0.78211000  0.29557000  1.0
  C  C141  1  0.18676000  0.71789000  0.79557000  1.0
  C  C142  1  0.68676000  0.21788000  0.70443000  1.0
  C  C143  1  0.81324000  0.28211000  0.20442000  1.0
  C  C144  1  0.25560000  0.84574000  0.30537000  1.0
  C  C145  1  0.24440000  0.65426000  0.80536000  1.0
  C  C146  1  0.74441000  0.15426000  0.69463000  1.0
  C  C147  1  0.75560000  0.34574000  0.19463000  1.0
  C  C148  1  0.46672000  0.09388000  0.50635000  1.0
  C  C149  1  0.03326000  0.40612000  0.00634000  1.0
  C  C150  1  0.53327000  0.90612000  0.49366000  1.0
  C  C151  1  0.96674000  0.59389000  0.99365000  1.0
  C  C152  1  0.57135000  0.14069000  0.47993000  1.0
  C  C153  1  0.92865000  0.35931000  0.97993000  1.0
  C  C154  1  0.42866000  0.85932000  0.52007000  1.0
  C  C155  1  0.07135000  0.64069000  0.02007000  1.0
  C  C156  1  0.59433000  0.21885000  0.52066000  1.0
  C  C157  1  0.90568000  0.28115000  0.02066000  1.0
  C  C158  1  0.40567000  0.78115000  0.47934000  1.0
  C  C159  1  0.09433000  0.71885000  0.97934000  1.0
  C  C160  1  0.69842000  0.25964000  0.48266000  1.0
  C  C161  1  0.80158000  0.24035000  0.98266000  1.0
  C  C162  1  0.30158000  0.74036000  0.51734000  1.0
  C  C163  1  0.19843000  0.75965000  0.01734000  1.0
  C  C164  1  0.73354000  0.33914000  0.51412000  1.0
  C  C165  1  0.76646000  0.16086000  0.01412000  1.0
  C  C166  1  0.26646000  0.66086000  0.48588000  1.0
  C  C167  1  0.23354000  0.83914000  0.98588000  1.0
  C  C168  1  0.67663000  0.36302000  0.39801000  1.0
  C  C169  1  0.82337000  0.13697000  0.89801000  1.0
  C  C170  1  0.32336000  0.63698000  0.60199000  1.0
  C  C171  1  0.17663000  0.86303000  0.10199000  1.0
  C  C172  1  0.67123000  0.27602000  0.40115000  1.0
  C  C173  1  0.82878000  0.22397000  0.90115000  1.0
  C  C174  1  0.32877000  0.72398000  0.59885000  1.0
  C  C175  1  0.17123000  0.77603000  0.09884000  1.0
  C  C176  1  0.55364000  0.24114000  0.38178000  1.0
  C  C177  1  0.94636000  0.25886000  0.88178000  1.0
  C  C178  1  0.44636000  0.75886000  0.61822000  1.0
  C  C179  1  0.05365000  0.74114000  0.11822000  1.0
  C  C180  1  0.55049000  0.15387000  0.39746000  1.0
  C  C181  1  0.94951000  0.34612000  0.89746000  1.0
  C  C182  1  0.44951000  0.84613000  0.60254000  1.0
  C  C183  1  0.05050000  0.65387000  0.10254000  1.0
  C  C184  1  0.43702000  0.11253000  0.38373000  1.0
  C  C185  1  0.06297000  0.38747000  0.88372000  1.0
  C  C186  1  0.56298000  0.88747000  0.61628000  1.0
  C  C187  1  0.93703000  0.61253000  0.11628000  1.0
  C  C188  1  0.49995000  0.26577000  0.50690000  1.0
  C  C189  1  0.00006000  0.23424000  0.00691000  1.0
  C  C190  1  0.50005000  0.73424000  0.49309000  1.0
  C  C191  1  0.99995000  0.76577000  0.99309000  1.0
  C  C192  1  0.47768000  0.27620000  0.43494000  1.0
  C  C193  1  0.02232000  0.22380000  0.93495000  1.0
  C  C194  1  0.52232000  0.72380000  0.56505000  1.0
  C  C195  1  0.97769000  0.77620000  0.06505000  1.0
  C  C196  1  0.66022000  0.67511000  0.24522000  1.0
  C  C197  1  0.83977000  0.82489000  0.74522000  1.0
  C  C198  1  0.33978000  0.32489000  0.75478000  1.0
  C  C199  1  0.16022000  0.17511000  0.25478000  1.0
  C  C200  1  0.60182000  0.73705000  0.26118000  1.0
  C  C201  1  0.89817000  0.76295000  0.76118000  1.0
  C  C202  1  0.39819000  0.26295000  0.73882000  1.0
  C  C203  1  0.10182000  0.23706000  0.23882000  1.0
  C  C204  1  0.48719000  0.72732000  0.25982000  1.0
  C  C205  1  0.01280000  0.77268000  0.75983000  1.0
  C  C206  1  0.51281000  0.27268000  0.74018000  1.0
  C  C207  1  0.98719000  0.22732000  0.24018000  1.0
  C  C208  1  0.43655000  0.65357000  0.24379000  1.0
  C  C209  1  0.06344000  0.84642000  0.74379000  1.0
  C  C210  1  0.56345000  0.34643000  0.75621000  1.0
  C  C211  1  0.93655000  0.15357000  0.25621000  1.0
  C  C212  1  0.50030000  0.59441000  0.22844000  1.0
  C  C213  1  0.99968000  0.90558000  0.72844000  1.0
  C  C214  1  0.49969000  0.40558000  0.77156000  1.0
  C  C215  1  0.00031000  0.09441000  0.27156000  1.0
  C  C216  1  0.02415000  0.91816000  0.42707000  1.0
  C  C217  1  0.47585000  0.58183000  0.92707000  1.0
  C  C218  1  0.97586000  0.08184000  0.57293000  1.0
  C  C219  1  0.52414000  0.41816000  0.07293000  1.0
  C  C220  1  0.92917000  0.87270000  0.46678000  1.0
  C  C221  1  0.57083000  0.62730000  0.96679000  1.0
  C  C222  1  0.07084000  0.12730000  0.53322000  1.0
  C  C223  1  0.42917000  0.37270000  0.03322000  1.0
  C  C224  1  0.88983000  0.79451000  0.43062000  1.0
  C  C225  1  0.61017000  0.70549000  0.93062000  1.0
  C  C226  1  0.11018000  0.20549000  0.56938000  1.0
  C  C227  1  0.38982000  0.29450000  0.06938000  1.0
  C  C228  1  0.79423000  0.76010000  0.48113000  1.0
  C  C229  1  0.70576000  0.73990000  0.98114000  1.0
  C  C230  1  0.20578000  0.23990000  0.51887000  1.0
  C  C231  1  0.29422000  0.26010000  0.01887000  1.0
  C  C232  1  0.75002000  0.68052000  0.45475000  1.0
  C  C233  1  0.74998000  0.81948000  0.95475000  1.0
  C  C234  1  0.24999000  0.31947000  0.54525000  1.0
  C  C235  1  0.25001000  0.18052000  0.04525000  1.0
  C  C236  1  0.81584000  0.65896000  0.56951000  1.0
  C  C237  1  0.68417000  0.84104000  0.06951000  1.0
  C  C238  1  0.18417000  0.34104000  0.43049000  1.0
  C  C239  1  0.31583000  0.15896000  0.93049000  1.0
  C  C240  1  0.83666000  0.74604000  0.55977000  1.0
  C  C241  1  0.66334000  0.75397000  0.05978000  1.0
  C  C242  1  0.16335000  0.25397000  0.44022000  1.0
  C  C243  1  0.33665000  0.24604000  0.94022000  1.0
  C  C244  1  0.96110000  0.77234000  0.56351000  1.0
  C  C245  1  0.53890000  0.72766000  0.06351000  1.0
  C  C246  1  0.03890000  0.22766000  0.43649000  1.0
  C  C247  1  0.46110000  0.27234000  0.93649000  1.0
  C  C248  1  0.97382000  0.85916000  0.54450000  1.0
  C  C249  1  0.52618000  0.64084000  0.04450000  1.0
  C  C250  1  0.02619000  0.14084000  0.45550000  1.0
  C  C251  1  0.47382000  0.35916000  0.95550000  1.0
  C  C252  1  0.09322000  0.89315000  0.54014000  1.0
  C  C253  1  0.40679000  0.60686000  0.04014000  1.0
  C  C254  1  0.90680000  0.10685000  0.45985000  1.0
  C  C255  1  0.59321000  0.39315000  0.95986000  1.0
  C  C256  1  0.97994000  0.74191000  0.43466000  1.0
  C  C257  1  0.52007000  0.75808000  0.93466000  1.0
  C  C258  1  0.02007000  0.25808000  0.56534000  1.0
  C  C259  1  0.47993000  0.24191000  0.06533000  1.0
  C  C260  1  0.01557000  0.72998000  0.50357000  1.0
  C  C261  1  0.48444000  0.77003000  0.00357000  1.0
  C  C262  1  0.98443000  0.27002000  0.49643000  1.0
  C  C263  1  0.51557000  0.22998000  0.99642000  1.0
  N  N264  1  0.30070000  0.91812000  0.29279000  1.0
  N  N265  1  0.19930000  0.58188000  0.79279000  1.0
  N  N266  1  0.69931000  0.08188000  0.70720000  1.0
  N  N267  1  0.80069000  0.41812000  0.20720000  1.0
  N  N268  1  0.39555000  0.07880000  0.44742000  1.0
  N  N269  1  0.10444000  0.42121000  0.94741000  1.0
  N  N270  1  0.60445000  0.92120000  0.55259000  1.0
  N  N271  1  0.89556000  0.57879000  0.05259000  1.0
  N  N272  1  0.71731000  0.39515000  0.46277000  1.0
  N  N273  1  0.78269000  0.10485000  0.96277000  1.0
  N  N274  1  0.28269000  0.60485000  0.53723000  1.0
  N  N275  1  0.21731000  0.89515000  0.03723000  1.0
  N  N276  1  0.61057000  0.60503000  0.22853000  1.0
  N  N277  1  0.88943000  0.89497000  0.72854000  1.0
  N  N278  1  0.38943000  0.39497000  0.77147000  1.0
  N  N279  1  0.11056000  0.10503000  0.27146000  1.0
  N  N280  1  0.11269000  0.93076000  0.47337000  1.0
  N  N281  1  0.38731000  0.56924000  0.97338000  1.0
  N  N282  1  0.88732000  0.06924000  0.52662000  1.0
  N  N283  1  0.61269000  0.43076000  0.02663000  1.0
  N  N284  1  0.76630000  0.62604000  0.50841000  1.0
  N  N285  1  0.73370000  0.87396000  0.00841000  1.0
  N  N286  1  0.23370000  0.37396000  0.49159000  1.0
  N  N287  1  0.26629000  0.12604000  0.99159000  1.0
  O  O288  1  0.91285000  0.48264000  0.60272000  1.0
  O  O289  1  0.58716000  0.01736000  0.10271000  1.0
  O  O290  1  0.08716000  0.51736000  0.39730000  1.0
  O  O291  1  0.41285000  0.98264000  0.89729000  1.0
  O  O292  1  0.49789000  0.50324000  0.62055000  1.0
  O  O293  1  0.00211000  0.99677000  0.12055000  1.0
  O  O294  1  0.50210000  0.49676000  0.37946000  1.0
  O  O295  1  0.99790000  0.00324000  0.87946000  1.0
  O  O296  1  0.64292000  0.40028000  0.34538000  1.0
  O  O297  1  0.85707000  0.09971000  0.84538000  1.0
  O  O298  1  0.35706000  0.59973000  0.65463000  1.0
  O  O299  1  0.14294000  0.90029000  0.15462000  1.0
  O  O300  1  0.77216000  0.35309000  0.57702000  1.0
  O  O301  1  0.72784000  0.14692000  0.07703000  1.0
  O  O302  1  0.22784000  0.64691000  0.42297000  1.0
  O  O303  1  0.27216000  0.85309000  0.92297000  1.0
  O  O304  1  0.44792000  0.07249000  0.57052000  1.0
  O  O305  1  0.05206000  0.42753000  0.07052000  1.0
  O  O306  1  0.55207000  0.92753000  0.42949000  1.0
  O  O307  1  0.94793000  0.57249000  0.92948000  1.0
  O  O308  1  0.38989000  0.11155000  0.32275000  1.0
  O  O309  1  0.11010000  0.38845000  0.82275000  1.0
  O  O310  1  0.61012000  0.88844000  0.67725000  1.0
  O  O311  1  0.88989000  0.61155000  0.17725000  1.0
  O  O312  1  0.16323000  0.88760000  0.58843000  1.0
  O  O313  1  0.33677000  0.61241000  0.08843000  1.0
  O  O314  1  0.83679000  0.11240000  0.41156000  1.0
  O  O315  1  0.66322000  0.38761000  0.91157000  1.0
  O  O316  1  0.02053000  0.94041000  0.36194000  1.0
  O  O317  1  0.47947000  0.55957000  0.86195000  1.0
  O  O318  1  0.97947000  0.05958000  0.63805000  1.0
  O  O319  1  0.52052000  0.44041000  0.13806000  1.0
  O  O320  1  0.70740000  0.66447000  0.39443000  1.0
  O  O321  1  0.79260000  0.83552000  0.89443000  1.0
  O  O322  1  0.29260000  0.33553000  0.60557000  1.0
  O  O323  1  0.20740000  0.16447000  0.10557000  1.0
  O  O324  1  0.84358000  0.62223000  0.62477000  1.0
  O  O325  1  0.65642000  0.87777000  0.12478000  1.0
  O  O326  1  0.15640000  0.37777000  0.37523000  1.0
  O  O327  1  0.34358000  0.12222000  0.87523000  1.0
