# generated using pymatgen
data_TbCoH12C22N5O8
_symmetry_space_group_name_H-M   'P 1'
_cell_length_a   10.54550000
_cell_length_b   12.59560000
_cell_length_c   18.08500000
_cell_angle_alpha   89.99920000
_cell_angle_beta   90.02910000
_cell_angle_gamma   89.99980000
_symmetry_Int_Tables_number   1
_chemical_formula_structural   TbCoH12C22N5O8
_chemical_formula_sum   'Tb4 Co4 H48 C88 N20 O32'
_cell_volume   2402.17417281
_cell_formula_units_Z   4
loop_
 _symmetry_equiv_pos_site_id
 _symmetry_equiv_pos_as_xyz
  1  'x, y, z'
loop_
 _atom_site_type_symbol
 _atom_site_label
 _atom_site_symmetry_multiplicity
 _atom_site_fract_x
 _atom_site_fract_y
 _atom_site_fract_z
 _atom_site_occupancy
  Tb  Tb0  1  0.05915000  0.35403000  0.99278000  1.0
  Tb  Tb1  1  0.44084000  0.85404000  0.50723000  1.0
  Tb  Tb2  1  0.92521000  0.64370000  0.01058000  1.0
  Tb  Tb3  1  0.57480000  0.14371000  0.48941000  1.0
  Co  Co4  1  0.25722000  0.34561000  0.23062000  1.0
  Co  Co5  1  0.24279000  0.84561000  0.26937000  1.0
  Co  Co6  1  0.73943000  0.65293000  0.77293000  1.0
  Co  Co7  1  0.76056000  0.15293000  0.72707000  1.0
  H  H8  1  0.50477000  0.47573000  0.28390000  1.0
  H  H9  1  0.99523000  0.97571000  0.21613000  1.0
  H  H10  1  0.49247000  0.51832000  0.71424000  1.0
  H  H11  1  0.00753000  0.01831000  0.78576000  1.0
  H  H12  1  0.66576000  0.49378000  0.38495000  1.0
  H  H13  1  0.83424000  0.99376000  0.11510000  1.0
  H  H14  1  0.33586000  0.49941000  0.61066000  1.0
  H  H15  1  0.16414000  0.99937000  0.88934000  1.0
  H  H16  1  0.62844000  0.63088000  0.48439000  1.0
  H  H17  1  0.87154000  0.13084000  0.01564000  1.0
  H  H18  1  0.38111000  0.36554000  0.51022000  1.0
  H  H19  1  0.11886000  0.86550000  0.98978000  1.0
  H  H20  1  0.27334000  0.70143000  0.40172000  1.0
  H  H21  1  0.22666000  0.20138000  0.09827000  1.0
  H  H22  1  0.73397000  0.29919000  0.59736000  1.0
  H  H23  1  0.76602000  0.79917000  0.90263000  1.0
  H  H24  1  0.28912000  0.76411000  0.87368000  1.0
  H  H25  1  0.21088000  0.26410000  0.62632000  1.0
  H  H26  1  0.69371000  0.23709000  0.13775000  1.0
  H  H27  1  0.80632000  0.73709000  0.36223000  1.0
  H  H28  1  0.49819000  0.79101000  0.80853000  1.0
  H  H29  1  0.00181000  0.29100000  0.69147000  1.0
  H  H30  1  0.49097000  0.21510000  0.20667000  1.0
  H  H31  1  0.00903000  0.71511000  0.29330000  1.0
  H  H32  1  0.63355000  0.50214000  0.88457000  1.0
  H  H33  1  0.86645000  0.00214000  0.61542000  1.0
  H  H34  1  0.35180000  0.49994000  0.12342000  1.0
  H  H35  1  0.14823000  0.99991000  0.37659000  1.0
  H  H36  1  0.42757000  0.46091000  0.94686000  1.0
  H  H37  1  0.07242000  0.96091000  0.55313000  1.0
  H  H38  1  0.55371000  0.53669000  0.05879000  1.0
  H  H39  1  0.94632000  0.03666000  0.44121000  1.0
  H  H40  1  0.48421000  0.19573000  0.96078000  1.0
  H  H41  1  0.01575000  0.69574000  0.53922000  1.0
  H  H42  1  0.50296000  0.81510000  0.03838000  1.0
  H  H43  1  0.99705000  0.31513000  0.46163000  1.0
  H  H44  1  0.66933000  0.13533000  0.88283000  1.0
  H  H45  1  0.83064000  0.63532000  0.61718000  1.0
  H  H46  1  0.31490000  0.87156000  0.11529000  1.0
  H  H47  1  0.18511000  0.37155000  0.38470000  1.0
  H  H48  1  0.47854000  0.20711000  0.68881000  1.0
  H  H49  1  0.02146000  0.70709000  0.81119000  1.0
  H  H50  1  0.49960000  0.79015000  0.30964000  1.0
  H  H51  1  0.00040000  0.29010000  0.19037000  1.0
  H  H52  1  0.28777000  0.27237000  0.75944000  1.0
  H  H53  1  0.21222000  0.77235000  0.74055000  1.0
  H  H54  1  0.69313000  0.73119000  0.24037000  1.0
  H  H55  1  0.80687000  0.23114000  0.25965000  1.0
  C  C56  1  0.10245000  0.47887000  0.12728000  1.0
  C  C57  1  0.39756000  0.97889000  0.37271000  1.0
  C  C58  1  0.88591000  0.51869000  0.87560000  1.0
  C  C59  1  0.61409000  0.01870000  0.62440000  1.0
  C  C60  1  0.15639000  0.54879000  0.18323000  1.0
  C  C61  1  0.34363000  0.04881000  0.31676000  1.0
  C  C62  1  0.83567000  0.44818000  0.81942000  1.0
  C  C63  1  0.66432000  0.94818000  0.68058000  1.0
  C  C64  1  0.15297000  0.65887000  0.19354000  1.0
  C  C65  1  0.34705000  0.15888000  0.30645000  1.0
  C  C66  1  0.84449000  0.33877000  0.80722000  1.0
  C  C67  1  0.65550000  0.83877000  0.69278000  1.0
  C  C68  1  0.10870000  0.74886000  0.14763000  1.0
  C  C69  1  0.39133000  0.24887000  0.35236000  1.0
  C  C70  1  0.88729000  0.24744000  0.85179000  1.0
  C  C71  1  0.61270000  0.74744000  0.64822000  1.0
  C  C72  1  0.27831000  0.58853000  0.27694000  1.0
  C  C73  1  0.22171000  0.08852000  0.22307000  1.0
  C  C74  1  0.72050000  0.40861000  0.72345000  1.0
  C  C75  1  0.77948000  0.90860000  0.77655000  1.0
  C  C76  1  0.37471000  0.58657000  0.33509000  1.0
  C  C77  1  0.12530000  0.08656000  0.16492000  1.0
  C  C78  1  0.62667000  0.41026000  0.66392000  1.0
  C  C79  1  0.87332000  0.91024000  0.83607000  1.0
  C  C80  1  0.48788000  0.52832000  0.33043000  1.0
  C  C81  1  0.01213000  0.02831000  0.16960000  1.0
  C  C82  1  0.51220000  0.46681000  0.66744000  1.0
  C  C83  1  0.98779000  0.96679000  0.83256000  1.0
  C  C84  1  0.57864000  0.54028000  0.38578000  1.0
  C  C85  1  0.92136000  0.04026000  0.11426000  1.0
  C  C86  1  0.42423000  0.45457000  0.61061000  1.0
  C  C87  1  0.07576000  0.95454000  0.88939000  1.0
  C  C88  1  0.55829000  0.61462000  0.44156000  1.0
  C  C89  1  0.94170000  0.11460000  0.05847000  1.0
  C  C90  1  0.44894000  0.38198000  0.55427000  1.0
  C  C91  1  0.05105000  0.88195000  0.94573000  1.0
  C  C92  1  0.36017000  0.65563000  0.39500000  1.0
  C  C93  1  0.13982000  0.15560000  0.10501000  1.0
  C  C94  1  0.64554000  0.34303000  0.60343000  1.0
  C  C95  1  0.85443000  0.84301000  0.89656000  1.0
  C  C96  1  0.21730000  0.58254000  0.95043000  1.0
  C  C97  1  0.28270000  0.08255000  0.54957000  1.0
  C  C98  1  0.76532000  0.41569000  0.05513000  1.0
  C  C99  1  0.73470000  0.91567000  0.44487000  1.0
  C  C100  1  0.34255000  0.60919000  0.91429000  1.0
  C  C101  1  0.15745000  0.10919000  0.58570000  1.0
  C  C102  1  0.64137000  0.39042000  0.09347000  1.0
  C  C103  1  0.85865000  0.89040000  0.40653000  1.0
  C  C104  1  0.36354000  0.70415000  0.87616000  1.0
  C  C105  1  0.13646000  0.20415000  0.62384000  1.0
  C  C106  1  0.62043000  0.29798000  0.13457000  1.0
  C  C107  1  0.87958000  0.79798000  0.36541000  1.0
  C  C108  1  0.47937000  0.71948000  0.84068000  1.0
  C  C109  1  0.02062000  0.21947000  0.65931000  1.0
  C  C110  1  0.50675000  0.28492000  0.17260000  1.0
  C  C111  1  0.99325000  0.78491000  0.32739000  1.0
  C  C112  1  0.55483000  0.55784000  0.88216000  1.0
  C  C113  1  0.94517000  0.05784000  0.61783000  1.0
  C  C114  1  0.42955000  0.44399000  0.12736000  1.0
  C  C115  1  0.07046000  0.94397000  0.37265000  1.0
  C  C116  1  0.44113000  0.53525000  0.91728000  1.0
  C  C117  1  0.05887000  0.03526000  0.58270000  1.0
  C  C118  1  0.54197000  0.46374000  0.09031000  1.0
  C  C119  1  0.95805000  0.96372000  0.40969000  1.0
  C  C120  1  0.26262000  0.28004000  0.90923000  1.0
  C  C121  1  0.23735000  0.78005000  0.59077000  1.0
  C  C122  1  0.72228000  0.72553000  0.09088000  1.0
  C  C123  1  0.77774000  0.22552000  0.40914000  1.0
  C  C124  1  0.37313000  0.23963000  0.86528000  1.0
  C  C125  1  0.12684000  0.73962000  0.63472000  1.0
  C  C126  1  0.61126000  0.76689000  0.13393000  1.0
  C  C127  1  0.88875000  0.26689000  0.36608000  1.0
  C  C128  1  0.48079000  0.19927000  0.90061000  1.0
  C  C129  1  0.01918000  0.69928000  0.59939000  1.0
  C  C130  1  0.50476000  0.80908000  0.09847000  1.0
  C  C131  1  0.99525000  0.30909000  0.40153000  1.0
  C  C132  1  0.58258000  0.16582000  0.85779000  1.0
  C  C133  1  0.91740000  0.66581000  0.64221000  1.0
  C  C134  1  0.40094000  0.84030000  0.14036000  1.0
  C  C135  1  0.09908000  0.34029000  0.35963000  1.0
  C  C136  1  0.47658000  0.20664000  0.74908000  1.0
  C  C137  1  0.02340000  0.70663000  0.75092000  1.0
  C  C138  1  0.50377000  0.79394000  0.24965000  1.0
  C  C139  1  0.99624000  0.29391000  0.25035000  1.0
  C  C140  1  0.37113000  0.24211000  0.78806000  1.0
  C  C141  1  0.12885000  0.74210000  0.71194000  1.0
  C  C142  1  0.61077000  0.76195000  0.21109000  1.0
  C  C143  1  0.88924000  0.26192000  0.28892000  1.0
  N  N144  1  0.23666000  0.50552000  0.23529000  1.0
  N  N145  1  0.26336000  0.00551000  0.26471000  1.0
  N  N146  1  0.75634000  0.49069000  0.76684000  1.0
  N  N147  1  0.74364000  0.99069000  0.73316000  1.0
  N  N148  1  0.22674000  0.68279000  0.25385000  1.0
  N  N149  1  0.27328000  0.18278000  0.24614000  1.0
  N  N150  1  0.77461000  0.31570000  0.74535000  1.0
  N  N151  1  0.72538000  0.81569000  0.75465000  1.0
  N  N152  1  0.57376000  0.64735000  0.84290000  1.0
  N  N153  1  0.92624000  0.14734000  0.65710000  1.0
  N  N154  1  0.41119000  0.35712000  0.17044000  1.0
  N  N155  1  0.08881000  0.85711000  0.32955000  1.0
  N  N156  1  0.58191000  0.17080000  0.78322000  1.0
  N  N157  1  0.91807000  0.67081000  0.71677000  1.0
  N  N158  1  0.39843000  0.82995000  0.21486000  1.0
  N  N159  1  0.10159000  0.32994000  0.28513000  1.0
  N  N160  1  0.45138000  0.67275000  0.44535000  1.0
  N  N161  1  0.04862000  0.17272000  0.05465000  1.0
  N  N162  1  0.55742000  0.32582000  0.55130000  1.0
  N  N163  1  0.94257000  0.82579000  0.94870000  1.0
  O  O164  1  0.14224000  0.38243000  0.12517000  1.0
  O  O165  1  0.35779000  0.88245000  0.37484000  1.0
  O  O166  1  0.84999000  0.61647000  0.87485000  1.0
  O  O167  1  0.65001000  0.11648000  0.62515000  1.0
  O  O168  1  0.02150000  0.51069000  0.07991000  1.0
  O  O169  1  0.47853000  0.01068000  0.42008000  1.0
  O  O170  1  0.96031000  0.48686000  0.92653000  1.0
  O  O171  1  0.53970000  0.98686000  0.57346000  1.0
  O  O172  1  0.05848000  0.73522000  0.08495000  1.0
  O  O173  1  0.44152000  0.23519000  0.41504000  1.0
  O  O174  1  0.93271000  0.25747000  0.91605000  1.0
  O  O175  1  0.56726000  0.75746000  0.58396000  1.0
  O  O176  1  0.13432000  0.84050000  0.17350000  1.0
  O  O177  1  0.36570000  0.34050000  0.32648000  1.0
  O  O178  1  0.86508000  0.15681000  0.82236000  1.0
  O  O179  1  0.63490000  0.65681000  0.67764000  1.0
  O  O180  1  0.21197000  0.49154000  0.98043000  1.0
  O  O181  1  0.28802000  0.99155000  0.51956000  1.0
  O  O182  1  0.77099000  0.50784000  0.02665000  1.0
  O  O183  1  0.72903000  0.00783000  0.47334000  1.0
  O  O184  1  0.12959000  0.65135000  0.94761000  1.0
  O  O185  1  0.37041000  0.15135000  0.55238000  1.0
  O  O186  1  0.85173000  0.34539000  0.05482000  1.0
  O  O187  1  0.64829000  0.84538000  0.44520000  1.0
  O  O188  1  0.17192000  0.32568000  0.87552000  1.0
  O  O189  1  0.32805000  0.82568000  0.62448000  1.0
  O  O190  1  0.81362000  0.68304000  0.12607000  1.0
  O  O191  1  0.68640000  0.18302000  0.37394000  1.0
  O  O192  1  0.26380000  0.26750000  0.97939000  1.0
  O  O193  1  0.23618000  0.76752000  0.52061000  1.0
  O  O194  1  0.72049000  0.73302000  0.02044000  1.0
  O  O195  1  0.77952000  0.23304000  0.47958000  1.0
