# generated using pymatgen
data_CdH16C14(N5O3)2
_symmetry_space_group_name_H-M   'P 1'
_cell_length_a   8.54288000
_cell_length_b   8.54287000
_cell_length_c   8.70976000
_cell_angle_alpha   62.54940000
_cell_angle_beta   62.54930000
_cell_angle_gamma   67.30020000
_symmetry_Int_Tables_number   1
_chemical_formula_structural   CdH16C14(N5O3)2
_chemical_formula_sum   'Cd1 H16 C14 N10 O6'
_cell_volume   488.28071146
_cell_formula_units_Z   1
loop_
 _symmetry_equiv_pos_site_id
 _symmetry_equiv_pos_as_xyz
  1  'x, y, z'
loop_
 _atom_site_type_symbol
 _atom_site_label
 _atom_site_symmetry_multiplicity
 _atom_site_fract_x
 _atom_site_fract_y
 _atom_site_fract_z
 _atom_site_occupancy
  Cd  Cd0  1  0.50000000  0.50000000  1.00000000  1.0
  H  H1  1  0.97935000  0.25545000  0.41667000  1.0
  H  H2  1  0.74455000  0.02065000  0.58333000  1.0
  H  H3  1  0.02065000  0.74454000  0.58333000  1.0
  H  H4  1  0.25545000  0.97935000  0.41667000  1.0
  H  H5  1  0.26599000  0.26599000  0.64206000  1.0
  H  H6  1  0.73401000  0.73401000  0.35794000  1.0
  H  H7  1  0.27808000  0.27808000  0.42496000  1.0
  H  H8  1  0.72192000  0.72192000  0.57504000  1.0
  H  H9  1  0.61808000  0.36581000  0.62782000  1.0
  H  H10  1  0.63419000  0.38193000  0.37218000  1.0
  H  H11  1  0.38192000  0.63419000  0.37218000  1.0
  H  H12  1  0.36581000  0.61808000  0.62782000  1.0
  H  H13  1  0.96076000  0.33017000  0.87374000  1.0
  H  H14  1  0.66984000  0.03924000  0.12626000  1.0
  H  H15  1  0.03924000  0.66984000  0.12626000  1.0
  H  H16  1  0.33016000  0.96076000  0.87374000  1.0
  C  C17  1  0.91923000  0.28818000  0.54139000  1.0
  C  C18  1  0.71182000  0.08078000  0.45861000  1.0
  C  C19  1  0.08077000  0.71182000  0.45861000  1.0
  C  C20  1  0.28818000  0.91923000  0.54139000  1.0
  C  C21  1  0.21950000  0.21950000  0.57510000  1.0
  C  C22  1  0.78050000  0.78050000  0.42490000  1.0
  C  C23  1  0.74370000  0.34560000  0.64343000  1.0
  C  C24  1  0.65441000  0.25630000  0.35657000  1.0
  C  C25  1  0.25630000  0.65440000  0.35657000  1.0
  C  C26  1  0.34559000  0.74370000  0.64343000  1.0
  C  C27  1  0.91214000  0.32863000  0.77929000  1.0
  C  C28  1  0.67137000  0.08787000  0.22071000  1.0
  C  C29  1  0.08786000  0.67137000  0.22070000  1.0
  C  C30  1  0.32863000  0.91214000  0.77930000  1.0
  N  N31  1  0.02402000  0.27811000  0.62973000  1.0
  N  N32  1  0.72189000  0.97598000  0.37027000  1.0
  N  N33  1  0.97598000  0.72189000  0.37027000  1.0
  N  N34  1  0.27811000  0.02402000  0.62973000  1.0
  N  N35  1  0.74132000  0.37153000  0.78985000  1.0
  N  N36  1  0.62847000  0.25868000  0.21015000  1.0
  N  N37  1  0.25868000  0.62847000  0.21015000  1.0
  N  N38  1  0.37153000  0.74132000  0.78985000  1.0
  N  N39  1  0.25775000  0.25775000  0.00997000  1.0
  N  N40  1  0.74225000  0.74225000  0.99003000  1.0
  O  O41  1  0.29636000  0.29636000  0.11327000  1.0
  O  O42  1  0.70364000  0.70364000  0.88673000  1.0
  O  O43  1  0.32576000  0.32575000  0.83625000  1.0
  O  O44  1  0.67424000  0.67425000  0.16375000  1.0
  O  O45  1  0.15261000  0.15261000  0.08431000  1.0
  O  O46  1  0.84739000  0.84739000  0.91569000  1.0
