# generated using pymatgen
data_CuH20C24N2O9
_symmetry_space_group_name_H-M   'P 1'
_cell_length_a   7.64087000
_cell_length_b   12.28990000
_cell_length_c   12.28980000
_cell_angle_alpha   78.18900000
_cell_angle_beta   76.13820000
_cell_angle_gamma   76.13900000
_symmetry_Int_Tables_number   1
_chemical_formula_structural   CuH20C24N2O9
_chemical_formula_sum   'Cu2 H40 C48 N4 O18'
_cell_volume   1074.47838777
_cell_formula_units_Z   2
loop_
 _symmetry_equiv_pos_site_id
 _symmetry_equiv_pos_as_xyz
  1  'x, y, z'
loop_
 _atom_site_type_symbol
 _atom_site_label
 _atom_site_symmetry_multiplicity
 _atom_site_fract_x
 _atom_site_fract_y
 _atom_site_fract_z
 _atom_site_occupancy
  Cu  Cu0  1  0.31323000  0.89755000  0.66269000  1.0
  Cu  Cu1  1  0.81323000  0.66269000  0.89755000  1.0
  H  H2  1  0.89205000  0.72575000  0.47353000  1.0
  H  H3  1  0.39206000  0.47352000  0.72575000  1.0
  H  H4  1  0.91882000  0.83370000  0.61351000  1.0
  H  H5  1  0.41882000  0.61350000  0.83369000  1.0
  H  H6  1  0.24643000  0.92411000  0.21955000  1.0
  H  H7  1  0.74643000  0.21954000  0.92410000  1.0
  H  H8  1  0.24726000  0.02828000  0.37308000  1.0
  H  H9  1  0.74725000  0.37308000  0.02828000  1.0
  H  H10  1  0.21235000  0.83978000  0.09662000  1.0
  H  H11  1  0.71236000  0.09662000  0.83977000  1.0
  H  H12  1  0.20276000  0.71460000  0.96606000  1.0
  H  H13  1  0.70276000  0.96606000  0.71459000  1.0
  H  H14  1  0.95530000  0.60936000  0.37108000  1.0
  H  H15  1  0.45530000  0.37107000  0.60935000  1.0
  H  H16  1  0.95574000  0.49408000  0.22882000  1.0
  H  H17  1  0.45574000  0.22881000  0.49408000  1.0
  H  H18  1  0.56118000  0.75112000  0.36585000  1.0
  H  H19  1  0.06119000  0.36585000  0.75112000  1.0
  H  H20  1  0.61617000  0.65749000  0.19534000  1.0
  H  H21  1  0.11617000  0.19534000  0.65749000  1.0
  H  H22  1  0.29279000  0.41407000  0.39101000  1.0
  H  H23  1  0.79280000  0.39100000  0.41407000  1.0
  H  H24  1  0.26007000  0.19167000  0.80332000  1.0
  H  H25  1  0.76007000  0.80332000  0.19168000  1.0
  H  H26  1  0.53929000  0.52330000  0.12199000  1.0
  H  H27  1  0.03930000  0.12198000  0.52330000  1.0
  H  H28  1  0.20106000  0.34536000  0.92049000  1.0
  H  H29  1  0.70106000  0.92049000  0.34536000  1.0
  H  H30  1  0.88203000  0.15052000  0.19350000  1.0
  H  H31  1  0.38203000  0.19350000  0.15053000  1.0
  H  H32  1  0.23336000  0.51219000  0.55911000  1.0
  H  H33  1  0.73336000  0.55910000  0.51219000  1.0
  H  H34  1  0.03446000  0.41306000  0.08152000  1.0
  H  H35  1  0.53446000  0.08152000  0.41307000  1.0
  H  H36  1  0.93287000  0.00080000  0.07249000  1.0
  H  H37  1  0.43288000  0.07249000  0.00080000  1.0
  H  H38  1  0.50769000  0.83451000  0.82309000  1.0
  H  H39  1  0.00768000  0.82309000  0.83451000  1.0
  H  H40  1  0.58751000  0.75234000  0.72435000  1.0
  H  H41  1  0.08751000  0.72435000  0.75234000  1.0
  C  C42  1  0.97601000  0.79009000  0.44373000  1.0
  C  C43  1  0.47601000  0.44373000  0.79008000  1.0
  C  C44  1  0.07462000  0.81019000  0.33152000  1.0
  C  C45  1  0.57463000  0.33151000  0.81019000  1.0
  C  C46  1  0.98367000  0.85080000  0.52453000  1.0
  C  C47  1  0.48367000  0.52453000  0.85079000  1.0
  C  C48  1  0.16892000  0.90063000  0.30437000  1.0
  C  C49  1  0.66892000  0.30437000  0.90062000  1.0
  C  C50  1  0.17312000  0.95995000  0.38716000  1.0
  C  C51  1  0.67312000  0.38716000  0.95994000  1.0
  C  C52  1  0.08064000  0.73838000  0.24852000  1.0
  C  C53  1  0.58065000  0.24852000  0.73838000  1.0
  C  C54  1  0.15487000  0.76424000  0.13222000  1.0
  C  C55  1  0.65487000  0.13222000  0.76423000  1.0
  C  C56  1  0.15232000  0.69580000  0.05676000  1.0
  C  C57  1  0.65232000  0.05677000  0.69580000  1.0
  C  C58  1  0.01025000  0.63830000  0.28262000  1.0
  C  C59  1  0.51026000  0.28261000  0.63829000  1.0
  C  C60  1  0.00987000  0.57156000  0.20551000  1.0
  C  C61  1  0.50987000  0.20551000  0.57155000  1.0
  C  C62  1  0.50632000  0.67585000  0.37131000  1.0
  C  C63  1  0.00632000  0.37131000  0.67585000  1.0
  C  C64  1  0.53757000  0.62345000  0.27651000  1.0
  C  C65  1  0.03757000  0.27651000  0.62345000  1.0
  C  C66  1  0.39825000  0.63610000  0.47443000  1.0
  C  C67  1  0.89825000  0.47442000  0.63610000  1.0
  C  C68  1  0.46053000  0.52850000  0.28355000  1.0
  C  C69  1  0.96053000  0.28355000  0.52850000  1.0
  C  C70  1  0.35551000  0.48603000  0.38720000  1.0
  C  C71  1  0.85551000  0.38720000  0.48603000  1.0
  C  C72  1  0.34889000  0.69909000  0.57241000  1.0
  C  C73  1  0.84889000  0.57241000  0.69909000  1.0
  C  C74  1  0.17663000  0.18355000  0.88844000  1.0
  C  C75  1  0.67663000  0.88844000  0.18356000  1.0
  C  C76  1  0.14587000  0.26849000  0.95394000  1.0
  C  C77  1  0.64587000  0.95394000  0.26850000  1.0
  C  C78  1  0.03798000  0.25727000  0.06413000  1.0
  C  C79  1  0.53798000  0.06413000  0.25727000  1.0
  C  C80  1  0.96546000  0.15856000  0.10792000  1.0
  C  C81  1  0.46547000  0.10792000  0.15857000  1.0
  C  C82  1  0.32365000  0.54058000  0.48068000  1.0
  C  C83  1  0.82365000  0.48068000  0.54057000  1.0
  C  C84  1  0.99471000  0.07527000  0.04036000  1.0
  C  C85  1  0.49472000  0.04037000  0.07528000  1.0
  C  C86  1  0.12779000  0.99825000  0.85640000  1.0
  C  C87  1  0.62779000  0.85640000  0.99826000  1.0
  C  C88  1  0.09995000  0.08660000  0.92935000  1.0
  C  C89  1  0.59996000  0.92936000  0.08661000  1.0
  N  N90  1  0.08603000  0.93216000  0.49589000  1.0
  N  N91  1  0.58602000  0.49588000  0.93216000  1.0
  N  N92  1  0.07887000  0.60078000  0.09282000  1.0
  N  N93  1  0.57888000  0.09282000  0.60077000  1.0
  O  O94  1  0.23332000  0.01459000  0.75717000  1.0
  O  O95  1  0.73331000  0.75717000  0.01460000  1.0
  O  O96  1  0.10725000  0.98362000  0.57728000  1.0
  O  O97  1  0.60724000  0.57728000  0.98362000  1.0
  O  O98  1  0.07231000  0.53904000  0.01867000  1.0
  O  O99  1  0.57232000  0.01867000  0.53903000  1.0
  O  O100  1  0.40136000  0.79526000  0.55311000  1.0
  O  O101  1  0.90136000  0.55311000  0.79526000  1.0
  O  O102  1  0.47839000  0.47830000  0.19232000  1.0
  O  O103  1  0.97840000  0.19232000  0.47830000  1.0
  O  O104  1  0.99563000  0.34116000  0.12799000  1.0
  O  O105  1  0.49564000  0.12799000  0.34117000  1.0
  O  O106  1  0.25510000  0.65925000  0.66500000  1.0
  O  O107  1  0.75510000  0.66500000  0.65925000  1.0
  O  O108  1  0.47282000  0.79921000  0.76549000  1.0
  O  O109  1  0.97282000  0.76549000  0.79921000  1.0
  O  O110  1  0.04826000  0.91524000  0.89377000  1.0
  O  O111  1  0.54826000  0.89378000  0.91525000  1.0
