# generated using pymatgen
data_SnH8C6(SN)2
_symmetry_space_group_name_H-M   'P 1'
_cell_length_a   12.60170000
_cell_length_b   13.16910000
_cell_length_c   12.61631122
_cell_angle_alpha   118.28419557
_cell_angle_beta   90.61614226
_cell_angle_gamma   118.25000000
_symmetry_Int_Tables_number   1
_chemical_formula_structural   SnH8C6(SN)2
_chemical_formula_sum   'Sn4 H32 C24 S8 N8'
_cell_volume   1547.79220937
_cell_formula_units_Z   4
loop_
 _symmetry_equiv_pos_site_id
 _symmetry_equiv_pos_as_xyz
  1  'x, y, z'
loop_
 _atom_site_type_symbol
 _atom_site_label
 _atom_site_symmetry_multiplicity
 _atom_site_fract_x
 _atom_site_fract_y
 _atom_site_fract_z
 _atom_site_occupancy
  Sn  Sn0  1  0.46987000  0.56362000  0.17006000  1.0
  Sn  Sn1  1  0.09375000  0.56361000  0.39356000  1.0
  Sn  Sn2  1  0.42007000  0.06365000  0.21967000  1.0
  Sn  Sn3  1  0.64358000  0.06366000  0.84399000  1.0
  H  H4  1  0.37836000  0.22340000  0.07852000  1.0
  H  H5  1  0.84503000  0.22339000  0.14488000  1.0
  H  H6  1  0.32842000  0.72343000  0.12833000  1.0
  H  H7  1  0.39504000  0.72343000  0.59510000  1.0
  H  H8  1  0.50643000  0.38532000  0.46729000  1.0
  H  H9  1  0.87890000  0.38533000  0.91804000  1.0
  H  H10  1  0.71753000  0.88514000  0.25607000  1.0
  H  H11  1  0.16761000  0.88511000  0.62907000  1.0
  H  H12  1  0.71434000  0.64827000  0.19759000  1.0
  H  H13  1  0.93394000  0.64827000  0.45069000  1.0
  H  H14  1  0.44767000  0.14820000  0.46386000  1.0
  H  H15  1  0.70054000  0.14820000  0.68433000  1.0
  H  H16  1  0.64813000  0.62080000  0.05264000  1.0
  H  H17  1  0.97269000  0.62079000  0.56817000  1.0
  H  H18  1  0.30248000  0.12072000  0.39778000  1.0
  H  H19  1  0.81824000  0.12070000  0.72294000  1.0
  H  H20  1  0.61835000  0.47706000  0.06018000  1.0
  H  H21  1  0.85872000  0.47706000  0.41689000  1.0
  H  H22  1  0.31024000  0.97698000  0.36777000  1.0
  H  H23  1  0.66673000  0.97696000  0.60921000  1.0
  H  H24  1  0.22852000  0.49545000  0.13359000  1.0
  H  H25  1  0.26693000  0.49546000  0.36186000  1.0
  H  H26  1  0.38356000  0.99533000  0.97850000  1.0
  H  H27  1  0.61175000  0.99531000  0.01681000  1.0
  H  H28  1  0.23168000  0.34400000  0.03754000  1.0
  H  H29  1  0.11233000  0.34399000  0.30646000  1.0
  H  H30  1  0.28730000  0.84404000  0.98172000  1.0
  H  H31  1  0.55672000  0.84403000  0.86231000  1.0
  H  H32  1  0.26508000  0.46015000  0.98784000  1.0
  H  H33  1  0.19508000  0.46016000  0.47231000  1.0
  H  H34  1  0.23774000  0.96039000  0.01509000  1.0
  H  H35  1  0.72262000  0.96038000  0.94529000  1.0
  C  C36  1  0.53583000  0.62378000  0.46014000  1.0
  C  C37  1  0.08796000  0.62378000  0.16364000  1.0
  C  C38  1  0.71034000  0.12357000  0.28545000  1.0
  C  C39  1  0.41321000  0.12354000  0.83811000  1.0
  C  C40  1  0.49270000  0.48264000  0.36704000  1.0
  C  C41  1  0.98994000  0.48266000  0.11560000  1.0
  C  C42  1  0.61719000  0.98245000  0.24226000  1.0
  C  C43  1  0.36525000  0.98246000  0.74020000  1.0
  C  C44  1  0.41554000  0.29448000  0.18044000  1.0
  C  C45  1  0.87892000  0.29447000  0.11403000  1.0
  C  C46  1  0.43043000  0.79444000  0.16543000  1.0
  C  C47  1  0.36400000  0.79443000  0.62899000  1.0
  C  C48  1  0.48200000  0.37979000  0.38122000  1.0
  C  C49  1  0.89780000  0.37980000  0.99858000  1.0
  C  C50  1  0.63141000  0.87964000  0.23163000  1.0
  C  C51  1  0.24822000  0.87961000  0.64800000  1.0
  C  C52  1  0.63297000  0.57910000  0.11225000  1.0
  C  C53  1  0.94613000  0.57909000  0.46685000  1.0
  C  C54  1  0.36225000  0.07905000  0.38254000  1.0
  C  C55  1  0.71680000  0.07906000  0.69651000  1.0
  C  C56  1  0.27432000  0.45185000  0.06943000  1.0
  C  C57  1  0.17753000  0.45184000  0.38241000  1.0
  C  C58  1  0.31929000  0.95187000  0.02427000  1.0
  C  C59  1  0.63257000  0.95187000  0.92760000  1.0
  S  S60  1  0.52924000  0.71989000  0.40490000  1.0
  S  S61  1  0.19065000  0.71989000  0.31499000  1.0
  S  S62  1  0.65504000  0.21978000  0.27894000  1.0
  S  S63  1  0.56471000  0.21976000  0.94082000  1.0
  S  S64  1  0.58696000  0.69357000  0.61447000  1.0
  S  S65  1  0.10662000  0.69359000  0.07911000  1.0
  S  S66  1  0.86483000  0.19347000  0.33677000  1.0
  S  S67  1  0.32860000  0.19341000  0.85668000  1.0
  N  N68  1  0.44961000  0.42513000  0.23841000  1.0
  N  N69  1  0.97552000  0.42514000  0.18672000  1.0
  N  N70  1  0.48841000  0.92502000  0.19930000  1.0
  N  N71  1  0.43661000  0.92504000  0.72572000  1.0
  N  N72  1  0.43331000  0.26250000  0.26397000  1.0
  N  N73  1  0.82919000  0.26252000  0.99853000  1.0
  N  N74  1  0.51403000  0.76241000  0.18316000  1.0
  N  N75  1  0.24839000  0.76241000  0.57926000  1.0
