# generated using pymatgen
data_NdH12C11O8
_symmetry_space_group_name_H-M   'P 1'
_cell_length_a   6.30049000
_cell_length_b   8.87107000
_cell_length_c   12.39940000
_cell_angle_alpha   77.67220000
_cell_angle_beta   79.25010000
_cell_angle_gamma   70.66190000
_symmetry_Int_Tables_number   1
_chemical_formula_structural   NdH12C11O8
_chemical_formula_sum   'Nd2 H24 C22 O16'
_cell_volume   633.78747093
_cell_formula_units_Z   2
loop_
 _symmetry_equiv_pos_site_id
 _symmetry_equiv_pos_as_xyz
  1  'x, y, z'
loop_
 _atom_site_type_symbol
 _atom_site_label
 _atom_site_symmetry_multiplicity
 _atom_site_fract_x
 _atom_site_fract_y
 _atom_site_fract_z
 _atom_site_occupancy
  Nd  Nd0  1  0.10519000  0.27100000  0.10189000  1.0
  Nd  Nd1  1  0.87819000  0.74030000  0.90793000  1.0
  H  H2  1  0.67467000  0.50355000  0.33268000  1.0
  H  H3  1  0.34190000  0.47956000  0.86731000  1.0
  H  H4  1  0.26296000  0.58129000  0.75308000  1.0
  H  H5  1  0.89032000  0.99334000  0.15160000  1.0
  H  H6  1  0.70308000  0.14464000  0.19672000  1.0
  H  H7  1  0.00819000  0.70671000  0.50011000  1.0
  H  H8  1  0.84462000  0.75386000  0.32187000  1.0
  H  H9  1  0.70583000  0.92136000  0.53075000  1.0
  H  H10  1  0.64440000  0.73757000  0.55540000  1.0
  H  H11  1  0.29694000  0.04039000  0.63611000  1.0
  H  H12  1  0.24837000  0.86078000  0.62775000  1.0
  H  H13  1  0.34823000  0.91713000  0.41635000  1.0
  H  H14  1  0.10211000  0.05559000  0.47180000  1.0
  H  H15  1  0.56568000  0.11603000  0.39799000  1.0
  H  H16  1  0.32277000  0.24761000  0.46678000  1.0
  H  H17  1  0.04543000  0.45792000  0.66460000  1.0
  H  H18  1  0.94201000  0.41683000  0.49019000  1.0
  H  H19  1  0.50013000  0.15229000  0.68686000  1.0
  H  H20  1  0.07668000  0.01702000  0.88928000  1.0
  H  H21  1  0.27970000  0.88010000  0.83036000  1.0
  H  H22  1  0.32305000  0.88543000  0.10609000  1.0
  H  H23  1  0.47150000  0.99339000  0.04653000  1.0
  H  H24  1  0.41915000  0.57671000  0.50607000  1.0
  H  H25  1  0.67291000  0.26351000  0.50170000  1.0
  C  C26  1  0.49246000  0.55948000  0.33163000  1.0
  C  C27  1  0.06452000  0.68068000  0.12446000  1.0
  C  C28  1  0.16894000  0.65805000  0.22787000  1.0
  C  C29  1  0.40394000  0.59126000  0.23063000  1.0
  C  C30  1  0.11674000  0.67265000  0.42451000  1.0
  C  C31  1  0.02657000  0.70039000  0.32509000  1.0
  C  C32  1  0.57226000  0.56546000  0.12812000  1.0
  C  C33  1  0.69460000  0.80906000  0.69806000  1.0
  C  C34  1  0.60195000  0.85214000  0.58763000  1.0
  C  C35  1  0.34946000  0.94177000  0.58671000  1.0
  C  C36  1  0.28740000  0.01225000  0.46899000  1.0
  C  C37  1  0.37966000  0.15404000  0.41300000  1.0
  C  C38  1  0.92167000  0.32804000  0.87619000  1.0
  C  C39  1  0.83848000  0.32257000  0.77246000  1.0
  C  C40  1  0.92777000  0.38985000  0.66859000  1.0
  C  C41  1  0.86863000  0.36809000  0.57136000  1.0
  C  C42  1  0.62218000  0.21741000  0.68135000  1.0
  C  C43  1  0.57376000  0.17448000  0.89042000  1.0
  C  C44  1  0.28774000  0.22902000  0.30347000  1.0
  C  C45  1  0.34924000  0.60049000  0.42790000  1.0
  C  C46  1  0.68375000  0.23656000  0.77899000  1.0
  C  C47  1  0.71702000  0.28106000  0.57794000  1.0
  O  O48  1  0.90955000  0.75709000  0.69892000  1.0
  O  O49  1  0.56230000  0.82524000  0.78958000  1.0
  O  O50  1  0.92615000  0.45999000  0.89833000  1.0
  O  O51  1  0.99301000  0.19357000  0.94050000  1.0
  O  O52  1  0.27893000  0.59177000  0.82745000  1.0
  O  O53  1  0.62924000  0.02343000  0.92607000  1.0
  O  O54  1  0.42395000  0.28037000  0.94233000  1.0
  O  O55  1  0.73050000  0.43316000  0.13421000  1.0
  O  O56  1  0.87094000  0.09078000  0.18389000  1.0
  O  O57  1  0.11401000  0.56241000  0.07010000  1.0
  O  O58  1  0.92411000  0.81651000  0.09233000  1.0
  O  O59  1  0.11463000  0.91552000  0.85796000  1.0
  O  O60  1  0.55490000  0.68164000  0.04605000  1.0
  O  O61  1  0.07399000  0.29028000  0.30211000  1.0
  O  O62  1  0.42216000  0.22346000  0.21167000  1.0
  O  O63  1  0.34377000  0.98933000  0.10769000  1.0
