# generated using pymatgen
data_AgH16(C2N)9
_symmetry_space_group_name_H-M   'P 1'
_cell_length_a   7.58366000
_cell_length_b   8.18964000
_cell_length_c   14.99420000
_cell_angle_alpha   95.93530000
_cell_angle_beta   103.03700000
_cell_angle_gamma   102.55600000
_symmetry_Int_Tables_number   1
_chemical_formula_structural   AgH16(C2N)9
_chemical_formula_sum   'Ag2 H32 C36 N18'
_cell_volume   874.09690472
_cell_formula_units_Z   2
loop_
 _symmetry_equiv_pos_site_id
 _symmetry_equiv_pos_as_xyz
  1  'x, y, z'
loop_
 _atom_site_type_symbol
 _atom_site_label
 _atom_site_symmetry_multiplicity
 _atom_site_fract_x
 _atom_site_fract_y
 _atom_site_fract_z
 _atom_site_occupancy
  Ag  Ag0  1  0.52308000  0.64640000  0.94248000  1.0
  Ag  Ag1  1  0.47691000  0.35360000  0.05752000  1.0
  H  H2  1  0.53955000  0.48052000  0.72327000  1.0
  H  H3  1  0.46046000  0.51948000  0.27673000  1.0
  H  H4  1  0.10294000  0.35419000  0.85523000  1.0
  H  H5  1  0.89706000  0.64580000  0.14477000  1.0
  H  H6  1  0.02143000  0.01266000  0.66124000  1.0
  H  H7  1  0.97858000  0.98734000  0.33876000  1.0
  H  H8  1  0.90770000  0.09828000  0.73957000  1.0
  H  H9  1  0.09230000  0.90171000  0.26043000  1.0
  H  H10  1  0.01402000  0.16864000  0.50846000  1.0
  H  H11  1  0.98599000  0.83136000  0.49153000  1.0
  H  H12  1  0.78049000  0.22321000  0.37812000  1.0
  H  H13  1  0.21950000  0.77679000  0.62188000  1.0
  H  H14  1  0.40111000  0.22816000  0.55417000  1.0
  H  H15  1  0.59889000  0.77184000  0.44583000  1.0
  H  H16  1  0.63690000  0.17972000  0.68324000  1.0
  H  H17  1  0.36311000  0.82027000  0.31676000  1.0
  H  H18  1  0.51867000  0.11115000  0.27315000  1.0
  H  H19  1  0.48133000  0.88885000  0.72685000  1.0
  H  H20  1  0.26821000  0.13184000  0.14253000  1.0
  H  H21  1  0.73179000  0.86816000  0.85747000  1.0
  H  H22  1  0.04623000  0.41810000  0.32794000  1.0
  H  H23  1  0.95377000  0.58190000  0.67206000  1.0
  H  H24  1  0.29611000  0.39587000  0.45992000  1.0
  H  H25  1  0.70390000  0.60414000  0.54008000  1.0
  H  H26  1  0.91544000  0.38421000  0.16260000  1.0
  H  H27  1  0.08456000  0.61579000  0.83740000  1.0
  H  H28  1  0.03697000  0.31351000  0.08411000  1.0
  H  H29  1  0.96302000  0.68649000  0.91589000  1.0
  H  H30  1  0.84413000  0.05055000  0.97509000  1.0
  H  H31  1  0.15586000  0.94944000  0.02491000  1.0
  H  H32  1  0.51665000  0.84128000  0.14787000  1.0
  H  H33  1  0.48335000  0.15872000  0.85214000  1.0
  C  C34  1  0.40830000  0.42200000  0.73746000  1.0
  C  C35  1  0.59171000  0.57800000  0.26254000  1.0
  C  C36  1  0.19002000  0.36173000  0.80632000  1.0
  C  C37  1  0.80998000  0.63826000  0.19368000  1.0
  C  C38  1  0.97457000  0.12441000  0.68328000  1.0
  C  C39  1  0.02543000  0.87559000  0.31671000  1.0
  C  C40  1  0.83996000  0.16838000  0.60437000  1.0
  C  C41  1  0.16005000  0.83162000  0.39562000  1.0
  C  C42  1  0.87929000  0.18255000  0.51809000  1.0
  C  C43  1  0.12072000  0.81745000  0.48191000  1.0
  C  C44  1  0.74747000  0.21347000  0.44486000  1.0
  C  C45  1  0.25253000  0.78653000  0.55514000  1.0
  C  C46  1  0.57218000  0.22968000  0.45583000  1.0
  C  C47  1  0.42782000  0.77032000  0.54417000  1.0
  C  C48  1  0.53585000  0.21904000  0.54301000  1.0
  C  C49  1  0.46416000  0.78096000  0.45699000  1.0
  C  C50  1  0.66831000  0.18979000  0.61623000  1.0
  C  C51  1  0.33169000  0.81021000  0.38377000  1.0
  C  C52  1  0.42537000  0.24911000  0.37713000  1.0
  C  C53  1  0.57463000  0.75089000  0.62287000  1.0
  C  C54  1  0.41519000  0.17780000  0.28614000  1.0
  C  C55  1  0.58481000  0.82220000  0.71386000  1.0
  C  C56  1  0.27351000  0.19031000  0.21204000  1.0
  C  C57  1  0.72649000  0.80969000  0.78795000  1.0
  C  C58  1  0.13798000  0.27544000  0.22561000  1.0
  C  C59  1  0.86202000  0.72456000  0.77439000  1.0
  C  C60  1  0.14829000  0.34843000  0.31591000  1.0
  C  C61  1  0.85171000  0.65157000  0.68409000  1.0
  C  C62  1  0.28946000  0.33521000  0.39060000  1.0
  C  C63  1  0.71054000  0.66480000  0.60940000  1.0
  C  C64  1  0.98402000  0.28562000  0.14476000  1.0
  C  C65  1  0.01597000  0.71438000  0.85524000  1.0
  C  C66  1  0.78751000  0.02133000  0.03368000  1.0
  C  C67  1  0.21247000  0.97867000  0.96633000  1.0
  C  C68  1  0.62308000  0.92150000  0.12292000  1.0
  C  C69  1  0.37690000  0.07850000  0.87709000  1.0
  N  N70  1  0.35814000  0.46740000  0.81674000  1.0
  N  N71  1  0.64186000  0.53260000  0.18326000  1.0
  N  N72  1  0.28044000  0.29614000  0.67906000  1.0
  N  N73  1  0.71956000  0.70386000  0.32094000  1.0
  N  N74  1  0.14316000  0.26041000  0.72389000  1.0
  N  N75  1  0.85684000  0.73959000  0.27611000  1.0
  N  N76  1  0.83887000  0.12634000  0.11513000  1.0
  N  N77  1  0.16113000  0.87366000  0.88487000  1.0
  N  N78  1  0.73528000  0.06483000  0.17303000  1.0
  N  N79  1  0.26471000  0.93517000  0.82697000  1.0
  N  N80  1  0.65075000  0.88845000  0.03633000  1.0
  N  N81  1  0.34924000  0.11155000  0.96367000  1.0
  N  N82  1  0.75323000  0.47381000  0.98204000  1.0
  N  N83  1  0.24676000  0.52619000  0.01796000  1.0
  N  N84  1  0.78276000  0.37247000  0.92767000  1.0
  N  N85  1  0.21724000  0.62753000  0.07234000  1.0
  N  N86  1  0.81270000  0.27085000  0.87461000  1.0
  N  N87  1  0.18731000  0.72915000  0.12539000  1.0
