# generated using pymatgen
data_MnH24C24S2(N5O)2
_symmetry_space_group_name_H-M   'P 1'
_cell_length_a   6.91622000
_cell_length_b   11.69190000
_cell_length_c   17.01340000
_cell_angle_alpha   90.00230000
_cell_angle_beta   90.00650000
_cell_angle_gamma   84.73880000
_symmetry_Int_Tables_number   1
_chemical_formula_structural   MnH24C24S2(N5O)2
_chemical_formula_sum   'Mn2 H48 C48 S4 N20 O4'
_cell_volume   1369.97128184
_cell_formula_units_Z   2
loop_
 _symmetry_equiv_pos_site_id
 _symmetry_equiv_pos_as_xyz
  1  'x, y, z'
loop_
 _atom_site_type_symbol
 _atom_site_label
 _atom_site_symmetry_multiplicity
 _atom_site_fract_x
 _atom_site_fract_y
 _atom_site_fract_z
 _atom_site_occupancy
  Mn  Mn0  1  0.00001000  0.00000000  0.00000000  1.0
  Mn  Mn1  1  0.00000000  0.50000000  0.50000000  1.0
  H  H2  1  0.85887000  0.92388000  0.15171000  1.0
  H  H3  1  0.14113000  0.57613000  0.65169000  1.0
  H  H4  1  0.14114000  0.07613000  0.84829000  1.0
  H  H5  1  0.85888000  0.42386000  0.34831000  1.0
  H  H6  1  0.67560000  0.79484000  0.03878000  1.0
  H  H7  1  0.32444000  0.70515000  0.53880000  1.0
  H  H8  1  0.32440000  0.20516000  0.96122000  1.0
  H  H9  1  0.67557000  0.29484000  0.46120000  1.0
  H  H10  1  0.53335000  0.92631000  0.06092000  1.0
  H  H11  1  0.46667000  0.57367000  0.56094000  1.0
  H  H12  1  0.46666000  0.07370000  0.93908000  1.0
  H  H13  1  0.53333000  0.42631000  0.43907000  1.0
  H  H14  1  0.60592000  0.82877000  0.13821000  1.0
  H  H15  1  0.39413000  0.67122000  0.63823000  1.0
  H  H16  1  0.39409000  0.17124000  0.86179000  1.0
  H  H17  1  0.60588000  0.32877000  0.36177000  1.0
  H  H18  1  0.74019000  0.11621000  0.12092000  1.0
  H  H19  1  0.25982000  0.38379000  0.62093000  1.0
  H  H20  1  0.25982000  0.88379000  0.87908000  1.0
  H  H21  1  0.74018000  0.61622000  0.37907000  1.0
  H  H22  1  0.54233000  0.30461000  0.13672000  1.0
  H  H23  1  0.45769000  0.19539000  0.63671000  1.0
  H  H24  1  0.45767000  0.69539000  0.86328000  1.0
  H  H25  1  0.54231000  0.80462000  0.36329000  1.0
  H  H26  1  0.67621000  0.37817000  0.89449000  1.0
  H  H27  1  0.32371000  0.12182000  0.39448000  1.0
  H  H28  1  0.32378000  0.62183000  0.10551000  1.0
  H  H29  1  0.67628000  0.87818000  0.60552000  1.0
  H  H30  1  0.86781000  0.18697000  0.88912000  1.0
  H  H31  1  0.13213000  0.31302000  0.38911000  1.0
  H  H32  1  0.13218000  0.81304000  0.11088000  1.0
  H  H33  1  0.86787000  0.68698000  0.61089000  1.0
  H  H34  1  0.15288000  0.78732000  0.38983000  1.0
  H  H35  1  0.84710000  0.71267000  0.88981000  1.0
  H  H36  1  0.84710000  0.21268000  0.61018000  1.0
  H  H37  1  0.15291000  0.28733000  0.11020000  1.0
  H  H38  1  0.07221000  0.77200000  0.24677000  1.0
  H  H39  1  0.92776000  0.72802000  0.74678000  1.0
  H  H40  1  0.92779000  0.22800000  0.75323000  1.0
  H  H41  1  0.07225000  0.27198000  0.25323000  1.0
  H  H42  1  0.75601000  0.09140000  0.24894000  1.0
  H  H43  1  0.24402000  0.40862000  0.74894000  1.0
  H  H44  1  0.24399000  0.90860000  0.75106000  1.0
  H  H45  1  0.75596000  0.59137000  0.25106000  1.0
  H  H46  1  0.82359000  0.11882000  0.39261000  1.0
  H  H47  1  0.17642000  0.38119000  0.89259000  1.0
  H  H48  1  0.17640000  0.88119000  0.60738000  1.0
  H  H49  1  0.82357000  0.61880000  0.10741000  1.0
  C  C50  1  0.75847000  0.93484000  0.85568000  1.0
  C  C51  1  0.24145000  0.56515000  0.35568000  1.0
  C  C52  1  0.24154000  0.06516000  0.14432000  1.0
  C  C53  1  0.75854000  0.43485000  0.64432000  1.0
  C  C54  1  0.65130000  0.86447000  0.08203000  1.0
  C  C55  1  0.34871000  0.63552000  0.58204000  1.0
  C  C56  1  0.34870000  0.13553000  0.91797000  1.0
  C  C57  1  0.65129000  0.36447000  0.41796000  1.0
  C  C58  1  0.72393000  0.17783000  0.07309000  1.0
  C  C59  1  0.27607000  0.32217000  0.57309000  1.0
  C  C60  1  0.27609000  0.82217000  0.92691000  1.0
  C  C61  1  0.72392000  0.67783000  0.42691000  1.0
  C  C62  1  0.61348000  0.28152000  0.08105000  1.0
  C  C63  1  0.38651000  0.21847000  0.58104000  1.0
  C  C64  1  0.38653000  0.71848000  0.91895000  1.0
  C  C65  1  0.61348000  0.78153000  0.41896000  1.0
  C  C66  1  0.59753000  0.35942000  0.01747000  1.0
  C  C67  1  0.40245000  0.14059000  0.51748000  1.0
  C  C68  1  0.40246000  0.64058000  0.98253000  1.0
  C  C69  1  0.59754000  0.85941000  0.48252000  1.0
  C  C70  1  0.68806000  0.32257000  0.94587000  1.0
  C  C71  1  0.31189000  0.17744000  0.44587000  1.0
  C  C72  1  0.31193000  0.67744000  0.05413000  1.0
  C  C73  1  0.68810000  0.82256000  0.55413000  1.0
  C  C74  1  0.79444000  0.21736000  0.94262000  1.0
  C  C75  1  0.20552000  0.28265000  0.44262000  1.0
  C  C76  1  0.20556000  0.78264000  0.05738000  1.0
  C  C77  1  0.79448000  0.71736000  0.55738000  1.0
  C  C78  1  0.99372000  0.95414000  0.40133000  1.0
  C  C79  1  0.00627000  0.54587000  0.90132000  1.0
  C  C80  1  0.00627000  0.04587000  0.59868000  1.0
  C  C81  1  0.99373000  0.45413000  0.09868000  1.0
  C  C82  1  0.06577000  0.85618000  0.35974000  1.0
  C  C83  1  0.93424000  0.64381000  0.85973000  1.0
  C  C84  1  0.93422000  0.14383000  0.64026000  1.0
  C  C85  1  0.06577000  0.35618000  0.14027000  1.0
  C  C86  1  0.01949000  0.84806000  0.28048000  1.0
  C  C87  1  0.98051000  0.65196000  0.78048000  1.0
  C  C88  1  0.98051000  0.15195000  0.71953000  1.0
  C  C89  1  0.01949000  0.34804000  0.21952000  1.0
  C  C90  1  0.84446000  0.02632000  0.28227000  1.0
  C  C91  1  0.15558000  0.47371000  0.78227000  1.0
  C  C92  1  0.15555000  0.97369000  0.71773000  1.0
  C  C93  1  0.84440000  0.52628000  0.21773000  1.0
  C  C94  1  0.88157000  0.04203000  0.36136000  1.0
  C  C95  1  0.11844000  0.45798000  0.86135000  1.0
  C  C96  1  0.11843000  0.95798000  0.63864000  1.0
  C  C97  1  0.88155000  0.54201000  0.13865000  1.0
  S  S98  1  0.64155000  0.91798000  0.77580000  1.0
  S  S99  1  0.35840000  0.58204000  0.27583000  1.0
  S  S100  1  0.35846000  0.08203000  0.22419000  1.0
  S  S101  1  0.64160000  0.41796000  0.72417000  1.0
  N  N102  1  0.84602000  0.94641000  0.91512000  1.0
  N  N103  1  0.15390000  0.55355000  0.41511000  1.0
  N  N104  1  0.15399000  0.05360000  0.08487000  1.0
  N  N105  1  0.84610000  0.44645000  0.58489000  1.0
  N  N106  1  0.81810000  0.14565000  0.00552000  1.0
  N  N107  1  0.18189000  0.35435000  0.50552000  1.0
  N  N108  1  0.18191000  0.85435000  0.99448000  1.0
  N  N109  1  0.81811000  0.64565000  0.49448000  1.0
  N  N110  1  0.49838000  0.46541000  0.03005000  1.0
  N  N111  1  0.50161000  0.03460000  0.53005000  1.0
  N  N112  1  0.50161000  0.53459000  0.96995000  1.0
  N  N113  1  0.49838000  0.96540000  0.46995000  1.0
  N  N114  1  0.03510000  0.95480000  0.48256000  1.0
  N  N115  1  0.96488000  0.54519000  0.98256000  1.0
  N  N116  1  0.96489000  0.04521000  0.51744000  1.0
  N  N117  1  0.03512000  0.45481000  0.01744000  1.0
  N  N118  1  0.90935000  0.93087000  0.24234000  1.0
  N  N119  1  0.09067000  0.56917000  0.74234000  1.0
  N  N120  1  0.09065000  0.06914000  0.75766000  1.0
  N  N121  1  0.90933000  0.43082000  0.25766000  1.0
  O  O122  1  0.82575000  0.91936000  0.09247000  1.0
  O  O123  1  0.17423000  0.58063000  0.59246000  1.0
  O  O124  1  0.17425000  0.08064000  0.90753000  1.0
  O  O125  1  0.82577000  0.41937000  0.40754000  1.0
