# generated using pymatgen
data_MgH9C11N2ClO6
_symmetry_space_group_name_H-M   'P 1'
_cell_length_a   6.22101000
_cell_length_b   12.35320000
_cell_length_c   16.98800000
_cell_angle_alpha   104.65400000
_cell_angle_beta   90.00000000
_cell_angle_gamma   90.00000000
_symmetry_Int_Tables_number   1
_chemical_formula_structural   MgH9C11N2ClO6
_chemical_formula_sum   'Mg4 H36 C44 N8 Cl4 O24'
_cell_volume   1263.05033146
_cell_formula_units_Z   4
loop_
 _symmetry_equiv_pos_site_id
 _symmetry_equiv_pos_as_xyz
  1  'x, y, z'
loop_
 _atom_site_type_symbol
 _atom_site_label
 _atom_site_symmetry_multiplicity
 _atom_site_fract_x
 _atom_site_fract_y
 _atom_site_fract_z
 _atom_site_occupancy
  Mg  Mg0  1  0.30156000  0.60433000  0.90613000  1.0
  Mg  Mg1  1  0.80156000  0.89567000  0.09387000  1.0
  Mg  Mg2  1  0.69844000  0.39567000  0.09387000  1.0
  Mg  Mg3  1  0.19844000  0.10433000  0.90613000  1.0
  H  H4  1  0.39032000  0.32365000  0.65407000  1.0
  H  H5  1  0.89032000  0.17635000  0.34593000  1.0
  H  H6  1  0.60968000  0.67635000  0.34593000  1.0
  H  H7  1  0.10968000  0.82365000  0.65407000  1.0
  H  H8  1  0.24117000  0.97867000  0.53972000  1.0
  H  H9  1  0.74117000  0.52133000  0.46028000  1.0
  H  H10  1  0.75883000  0.02132000  0.46028000  1.0
  H  H11  1  0.25883000  0.47867000  0.53972000  1.0
  H  H12  1  0.98511000  0.18796000  0.77434000  1.0
  H  H13  1  0.48512000  0.31204000  0.22566000  1.0
  H  H14  1  0.01489000  0.81204000  0.22566000  1.0
  H  H15  1  0.51488000  0.68796000  0.77434000  1.0
  H  H16  1  0.54969000  0.91878000  0.61302000  1.0
  H  H17  1  0.04969000  0.58122000  0.38698000  1.0
  H  H18  1  0.45031000  0.08122000  0.38698000  1.0
  H  H19  1  0.95031000  0.41878000  0.61302000  1.0
  H  H20  1  0.77323000  0.05839000  0.70672000  1.0
  H  H21  1  0.27323000  0.44161000  0.29328000  1.0
  H  H22  1  0.22677000  0.94161000  0.29328000  1.0
  H  H23  1  0.72677000  0.55839000  0.70672000  1.0
  H  H24  1  0.48015000  0.62385000  0.04736000  1.0
  H  H25  1  0.98014000  0.87615000  0.95264000  1.0
  H  H26  1  0.51985000  0.37615000  0.95264000  1.0
  H  H27  1  0.01985000  0.12385000  0.04736000  1.0
  H  H28  1  0.38884000  0.74232000  0.04865000  1.0
  H  H29  1  0.88884000  0.75768000  0.95135000  1.0
  H  H30  1  0.61116000  0.25768000  0.95135000  1.0
  H  H31  1  0.11116000  0.24232000  0.04865000  1.0
  H  H32  1  0.44581000  0.47888000  0.76695000  1.0
  H  H33  1  0.94581000  0.02112000  0.23305000  1.0
  H  H34  1  0.55419000  0.52112000  0.23305000  1.0
  H  H35  1  0.05419000  0.97888000  0.76695000  1.0
  H  H36  1  0.22122000  0.51699000  0.73349000  1.0
  H  H37  1  0.72122000  0.98301000  0.26651000  1.0
  H  H38  1  0.77878000  0.48301000  0.26651000  1.0
  H  H39  1  0.27878000  0.01699000  0.73349000  1.0
  C  C40  1  0.17794000  0.35458000  0.88157000  1.0
  C  C41  1  0.67794000  0.14543000  0.11843000  1.0
  C  C42  1  0.82206000  0.64543000  0.11843000  1.0
  C  C43  1  0.32206000  0.85458000  0.88157000  1.0
  C  C44  1  0.80891000  0.55874000  0.87871000  1.0
  C  C45  1  0.30891000  0.94126000  0.12129000  1.0
  C  C46  1  0.19109000  0.44126000  0.12129000  1.0
  C  C47  1  0.69109000  0.05874000  0.87871000  1.0
  C  C48  1  0.72193000  0.28547000  0.74569000  1.0
  C  C49  1  0.22194000  0.21453000  0.25431000  1.0
  C  C50  1  0.27807000  0.71453000  0.25431000  1.0
  C  C51  1  0.77806000  0.78547000  0.74569000  1.0
  C  C52  1  0.59625000  0.20165000  0.68819000  1.0
  C  C53  1  0.09625000  0.29835000  0.31181000  1.0
  C  C54  1  0.40375000  0.79835000  0.31181000  1.0
  C  C55  1  0.90375000  0.70165000  0.68819000  1.0
  C  C56  1  0.98360000  0.36073000  0.83159000  1.0
  C  C57  1  0.48360000  0.13927000  0.16841000  1.0
  C  C58  1  0.01640000  0.63927000  0.16841000  1.0
  C  C59  1  0.51640000  0.86073000  0.83159000  1.0
  C  C60  1  0.82986000  0.44168000  0.82787000  1.0
  C  C61  1  0.32986000  0.05832000  0.17213000  1.0
  C  C62  1  0.17014000  0.55832000  0.17213000  1.0
  C  C63  1  0.67014000  0.94168000  0.82787000  1.0
  C  C64  1  0.51362000  0.00752000  0.62251000  1.0
  C  C65  1  0.01362000  0.49248000  0.37749000  1.0
  C  C66  1  0.48638000  0.99248000  0.37749000  1.0
  C  C67  1  0.98638000  0.50752000  0.62251000  1.0
  C  C68  1  0.34044000  0.04018000  0.58127000  1.0
  C  C69  1  0.84044000  0.45982000  0.41873000  1.0
  C  C70  1  0.65956000  0.95982000  0.41873000  1.0
  C  C71  1  0.15956000  0.54018000  0.58127000  1.0
  C  C72  1  0.64090000  0.08683000  0.67512000  1.0
  C  C73  1  0.14089000  0.41317000  0.32488000  1.0
  C  C74  1  0.35911000  0.91317000  0.32488000  1.0
  C  C75  1  0.85911000  0.58683000  0.67512000  1.0
  C  C76  1  0.29975000  0.15443000  0.59351000  1.0
  C  C77  1  0.79976000  0.34557000  0.40649000  1.0
  C  C78  1  0.70025000  0.84557000  0.40649000  1.0
  C  C79  1  0.20025000  0.65443000  0.59351000  1.0
  C  C80  1  0.42428000  0.23510000  0.64604000  1.0
  C  C81  1  0.92428000  0.26490000  0.35396000  1.0
  C  C82  1  0.57572000  0.76490000  0.35396000  1.0
  C  C83  1  0.07572000  0.73510000  0.64604000  1.0
  N  N84  1  0.66957000  0.39366000  0.77432000  1.0
  N  N85  1  0.16957000  0.10634000  0.22568000  1.0
  N  N86  1  0.33043000  0.60634000  0.22568000  1.0
  N  N87  1  0.83043000  0.89366000  0.77432000  1.0
  N  N88  1  0.91020000  0.26373000  0.77982000  1.0
  N  N89  1  0.41020000  0.23627000  0.22018000  1.0
  N  N90  1  0.08980000  0.73627000  0.22019000  1.0
  N  N91  1  0.58980000  0.76373000  0.77982000  1.0
  Cl  Cl92  1  0.09010000  0.19710000  0.54057000  1.0
  Cl  Cl93  1  0.59010000  0.30290000  0.45943000  1.0
  Cl  Cl94  1  0.90990000  0.80290000  0.45943000  1.0
  Cl  Cl95  1  0.40990000  0.69710000  0.54057000  1.0
  O  O96  1  0.28654000  0.44166000  0.91398000  1.0
  O  O97  1  0.78655000  0.05834000  0.08602000  1.0
  O  O98  1  0.71345000  0.55834000  0.08602000  1.0
  O  O99  1  0.21346000  0.94166000  0.91398000  1.0
  O  O100  1  0.97596000  0.61189000  0.90967000  1.0
  O  O101  1  0.47596000  0.88811000  0.09033000  1.0
  O  O102  1  0.02404000  0.38811000  0.09034000  1.0
  O  O103  1  0.52404000  0.11189000  0.90966000  1.0
  O  O104  1  0.22795000  0.25795000  0.88683000  1.0
  O  O105  1  0.72794000  0.24204000  0.11316000  1.0
  O  O106  1  0.77206000  0.74204000  0.11317000  1.0
  O  O107  1  0.27206000  0.75796000  0.88683000  1.0
  O  O108  1  0.33968000  0.54224000  0.77119000  1.0
  O  O109  1  0.83968000  0.95776000  0.22881000  1.0
  O  O110  1  0.66031000  0.45776000  0.22881000  1.0
  O  O111  1  0.16031000  0.04224000  0.77119000  1.0
  O  O112  1  0.35582000  0.66129000  0.02902000  1.0
  O  O113  1  0.85582000  0.83871000  0.97098000  1.0
  O  O114  1  0.64418000  0.33871000  0.97098000  1.0
  O  O115  1  0.14418000  0.16129000  0.02902000  1.0
  O  O116  1  0.62362000  0.60090000  0.88832000  1.0
  O  O117  1  0.12361000  0.89910000  0.11168000  1.0
  O  O118  1  0.37638000  0.39910000  0.11168000  1.0
  O  O119  1  0.87639000  0.10090000  0.88832000  1.0
