# generated using pymatgen
data_ZnSiH16C20S4(N2F3)2
_symmetry_space_group_name_H-M   'P 1'
_cell_length_a   10.53830000
_cell_length_b   10.53820000
_cell_length_c   15.49230000
_cell_angle_alpha   97.02340000
_cell_angle_beta   97.02390000
_cell_angle_gamma   111.96000000
_symmetry_Int_Tables_number   1
_chemical_formula_structural   ZnSiH16C20S4(N2F3)2
_chemical_formula_sum   'Zn2 Si2 H32 C40 S8 N8 F12'
_cell_volume   1557.08621121
_cell_formula_units_Z   2
loop_
 _symmetry_equiv_pos_site_id
 _symmetry_equiv_pos_as_xyz
  1  'x, y, z'
loop_
 _atom_site_type_symbol
 _atom_site_label
 _atom_site_symmetry_multiplicity
 _atom_site_fract_x
 _atom_site_fract_y
 _atom_site_fract_z
 _atom_site_occupancy
  Zn  Zn0  1  0.50000000  0.50000000  0.00000000  1.0
  Zn  Zn1  1  0.50000000  0.50000000  0.50000000  1.0
  Si  Si2  1  0.49661000  0.50339000  0.25000000  1.0
  Si  Si3  1  0.50339000  0.49661000  0.75000000  1.0
  H  H4  1  0.71620000  0.67323000  0.16177000  1.0
  H  H5  1  0.89828000  0.90958000  0.21166000  1.0
  H  H6  1  0.79259000  0.00066000  0.95364000  1.0
  H  H7  1  0.62129000  0.75521000  0.91130000  1.0
  H  H8  1  0.71171000  0.46410000  0.88911000  1.0
  H  H9  1  0.89901000  0.37478000  0.89658000  1.0
  H  H10  1  0.79851000  0.25524000  0.14572000  1.0
  H  H11  1  0.61968000  0.35538000  0.13034000  1.0
  H  H12  1  0.32677000  0.28380000  0.33824000  1.0
  H  H13  1  0.09043000  0.10173000  0.28835000  1.0
  H  H14  1  0.99935000  0.20742000  0.54637000  1.0
  H  H15  1  0.24480000  0.37871000  0.58871000  1.0
  H  H16  1  0.53589000  0.28828000  0.61089000  1.0
  H  H17  1  0.62522000  0.10098000  0.60342000  1.0
  H  H18  1  0.74475000  0.20148000  0.35427000  1.0
  H  H19  1  0.64461000  0.38032000  0.36965000  1.0
  H  H20  1  0.28380000  0.32677000  0.83824000  1.0
  H  H21  1  0.10173000  0.09042000  0.78835000  1.0
  H  H22  1  0.20741000  0.99935000  0.04637000  1.0
  H  H23  1  0.37870000  0.24480000  0.08871000  1.0
  H  H24  1  0.28828000  0.53589000  0.11089000  1.0
  H  H25  1  0.10099000  0.62522000  0.10342000  1.0
  H  H26  1  0.20149000  0.74476000  0.85427000  1.0
  H  H27  1  0.38032000  0.64462000  0.86965000  1.0
  H  H28  1  0.67323000  0.71621000  0.66176000  1.0
  H  H29  1  0.90958000  0.89828000  0.71165000  1.0
  H  H30  1  0.00065000  0.79258000  0.45363000  1.0
  H  H31  1  0.75520000  0.62129000  0.41130000  1.0
  H  H32  1  0.46411000  0.71171000  0.38911000  1.0
  H  H33  1  0.37478000  0.89901000  0.39658000  1.0
  H  H34  1  0.25524000  0.79851000  0.64572000  1.0
  H  H35  1  0.35539000  0.61968000  0.63035000  1.0
  C  C36  1  0.73679000  0.74775000  0.11688000  1.0
  C  C37  1  0.83810000  0.88152000  0.14483000  1.0
  C  C38  1  0.85926000  0.97660000  0.08677000  1.0
  C  C39  1  0.77893000  0.93164000  0.00172000  1.0
  C  C40  1  0.68189000  0.79482000  0.97824000  1.0
  C  C41  1  0.73464000  0.41844000  0.94552000  1.0
  C  C42  1  0.83901000  0.36746000  0.94972000  1.0
  C  C43  1  0.86404000  0.30736000  0.02245000  1.0
  C  C44  1  0.78302000  0.30094000  0.08802000  1.0
  C  C45  1  0.68191000  0.35570000  0.07907000  1.0
  C  C46  1  0.25225000  0.26321000  0.38312000  1.0
  C  C47  1  0.11849000  0.16190000  0.35518000  1.0
  C  C48  1  0.02340000  0.14074000  0.41324000  1.0
  C  C49  1  0.06837000  0.22108000  0.49829000  1.0
  C  C50  1  0.20519000  0.31811000  0.52176000  1.0
  C  C51  1  0.58156000  0.26535000  0.55448000  1.0
  C  C52  1  0.63254000  0.16098000  0.55028000  1.0
  C  C53  1  0.69264000  0.13595000  0.47755000  1.0
  C  C54  1  0.69906000  0.21697000  0.41197000  1.0
  C  C55  1  0.64429000  0.31809000  0.42093000  1.0
  C  C56  1  0.26321000  0.25225000  0.88312000  1.0
  C  C57  1  0.16190000  0.11849000  0.85517000  1.0
  C  C58  1  0.14074000  0.02340000  0.91324000  1.0
  C  C59  1  0.22107000  0.06837000  0.99829000  1.0
  C  C60  1  0.31811000  0.20519000  0.02176000  1.0
  C  C61  1  0.26535000  0.58156000  0.05447000  1.0
  C  C62  1  0.16099000  0.63254000  0.05028000  1.0
  C  C63  1  0.13595000  0.69264000  0.97755000  1.0
  C  C64  1  0.21698000  0.69907000  0.91197000  1.0
  C  C65  1  0.31809000  0.64430000  0.92093000  1.0
  C  C66  1  0.74775000  0.73680000  0.61688000  1.0
  C  C67  1  0.88151000  0.83811000  0.64483000  1.0
  C  C68  1  0.97660000  0.85926000  0.58676000  1.0
  C  C69  1  0.93163000  0.77892000  0.50172000  1.0
  C  C70  1  0.79481000  0.68189000  0.47824000  1.0
  C  C71  1  0.41844000  0.73464000  0.44552000  1.0
  C  C72  1  0.36746000  0.83901000  0.44971000  1.0
  C  C73  1  0.30736000  0.86404000  0.52245000  1.0
  C  C74  1  0.30093000  0.78302000  0.58802000  1.0
  C  C75  1  0.35570000  0.68191000  0.57907000  1.0
  S  S76  1  0.98808000  0.14590000  0.12813000  1.0
  S  S77  1  0.99968000  0.24676000  0.02421000  1.0
  S  S78  1  0.85410000  0.01193000  0.37188000  1.0
  S  S79  1  0.75325000  0.00032000  0.47579000  1.0
  S  S80  1  0.01192000  0.85410000  0.87188000  1.0
  S  S81  1  0.00032000  0.75324000  0.97579000  1.0
  S  S82  1  0.14590000  0.98808000  0.62812000  1.0
  S  S83  1  0.24675000  0.99967000  0.52421000  1.0
  N  N84  1  0.65954000  0.70458000  0.03480000  1.0
  N  N85  1  0.65733000  0.41339000  0.00926000  1.0
  N  N86  1  0.29543000  0.34047000  0.46520000  1.0
  N  N87  1  0.58661000  0.34267000  0.49074000  1.0
  N  N88  1  0.34047000  0.29543000  0.96520000  1.0
  N  N89  1  0.34267000  0.58661000  0.99073000  1.0
  N  N90  1  0.70457000  0.65954000  0.53480000  1.0
  N  N91  1  0.41339000  0.65732000  0.50926000  1.0
  F  F92  1  0.48950000  0.49333000  0.13544000  1.0
  F  F93  1  0.46247000  0.32887000  0.23633000  1.0
  F  F94  1  0.32382000  0.46635000  0.23648000  1.0
  F  F95  1  0.50666000  0.51049000  0.36456000  1.0
  F  F96  1  0.67112000  0.53752000  0.26366000  1.0
  F  F97  1  0.53366000  0.67617000  0.26352000  1.0
  F  F98  1  0.51050000  0.50666000  0.86456000  1.0
  F  F99  1  0.53752000  0.67113000  0.76366000  1.0
  F  F100  1  0.67618000  0.53366000  0.76352000  1.0
  F  F101  1  0.49334000  0.48950000  0.63544000  1.0
  F  F102  1  0.32888000  0.46248000  0.73634000  1.0
  F  F103  1  0.46635000  0.32383000  0.73648000  1.0
