# generated using pymatgen
data_ZnPH19C26N2O7
_symmetry_space_group_name_H-M   'P 1'
_cell_length_a   10.74970000
_cell_length_b   10.75430000
_cell_length_c   11.47350000
_cell_angle_alpha   106.15600000
_cell_angle_beta   97.44980000
_cell_angle_gamma   103.57500000
_symmetry_Int_Tables_number   1
_chemical_formula_structural   ZnPH19C26N2O7
_chemical_formula_sum   'Zn2 P2 H38 C52 N4 O14'
_cell_volume   1211.12363785
_cell_formula_units_Z   2
loop_
 _symmetry_equiv_pos_site_id
 _symmetry_equiv_pos_as_xyz
  1  'x, y, z'
loop_
 _atom_site_type_symbol
 _atom_site_label
 _atom_site_symmetry_multiplicity
 _atom_site_fract_x
 _atom_site_fract_y
 _atom_site_fract_z
 _atom_site_occupancy
  Zn  Zn0  1  0.43653000  0.87530000  0.27677000  1.0
  Zn  Zn1  1  0.56346000  0.12470000  0.72323000  1.0
  P  P2  1  0.20793000  0.76941000  0.42791000  1.0
  P  P3  1  0.79207000  0.23059000  0.57209000  1.0
  H  H4  1  0.96357000  0.05238000  0.93334000  1.0
  H  H5  1  0.03642000  0.94761000  0.06667000  1.0
  H  H6  1  0.44474000  0.10992000  0.43519000  1.0
  H  H7  1  0.55526000  0.89009000  0.56481000  1.0
  H  H8  1  0.57880000  0.13515000  0.38925000  1.0
  H  H9  1  0.42120000  0.86485000  0.61075000  1.0
  H  H10  1  0.99117000  0.39408000  0.03648000  1.0
  H  H11  1  0.00882000  0.60592000  0.96352000  1.0
  H  H12  1  0.05737000  0.63402000  0.17414000  1.0
  H  H13  1  0.94263000  0.36598000  0.82586000  1.0
  H  H14  1  0.25176000  0.52433000  0.46609000  1.0
  H  H15  1  0.74823000  0.47568000  0.53391000  1.0
  H  H16  1  0.18709000  0.28260000  0.32464000  1.0
  H  H17  1  0.81290000  0.71740000  0.67537000  1.0
  H  H18  1  0.76124000  0.74050000  0.50958000  1.0
  H  H19  1  0.23876000  0.25950000  0.49042000  1.0
  H  H20  1  0.98546000  0.70617000  0.54532000  1.0
  H  H21  1  0.01454000  0.29383000  0.45468000  1.0
  H  H22  1  0.09552000  0.91964000  0.29096000  1.0
  H  H23  1  0.90448000  0.08036000  0.70904000  1.0
  H  H24  1  0.87186000  0.95090000  0.25546000  1.0
  H  H25  1  0.12814000  0.04910000  0.74454000  1.0
  H  H26  1  0.44435000  0.56924000  0.27909000  1.0
  H  H27  1  0.55564000  0.43076000  0.72091000  1.0
  H  H28  1  0.39051000  0.33982000  0.11916000  1.0
  H  H29  1  0.60949000  0.66018000  0.88085000  1.0
  H  H30  1  0.30287000  0.31224000  0.89639000  1.0
  H  H31  1  0.69714000  0.68776000  0.10361000  1.0
  H  H32  1  0.24045000  0.42267000  0.73818000  1.0
  H  H33  1  0.75956000  0.57733000  0.26182000  1.0
  H  H34  1  0.22924000  0.63226000  0.68941000  1.0
  H  H35  1  0.77076000  0.36774000  0.31059000  1.0
  H  H36  1  0.25865000  0.88089000  0.76256000  1.0
  H  H37  1  0.74136000  0.11911000  0.23744000  1.0
  H  H38  1  0.31271000  0.09428000  0.94034000  1.0
  H  H39  1  0.68729000  0.90572000  0.05966000  1.0
  H  H40  1  0.37772000  0.08752000  0.15953000  1.0
  H  H41  1  0.62228000  0.91249000  0.84047000  1.0
  C  C42  1  0.04828000  0.18205000  0.09602000  1.0
  C  C43  1  0.95171000  0.81795000  0.90398000  1.0
  C  C44  1  0.08571000  0.32521000  0.17390000  1.0
  C  C45  1  0.91429000  0.67478000  0.82610000  1.0
  C  C46  1  0.04913000  0.42368000  0.13008000  1.0
  C  C47  1  0.95087000  0.57632000  0.86992000  1.0
  C  C48  1  0.08614000  0.55692000  0.20715000  1.0
  C  C49  1  0.91386000  0.44308000  0.79284000  1.0
  C  C50  1  0.15941000  0.59361000  0.32835000  1.0
  C  C51  1  0.84060000  0.40640000  0.67164000  1.0
  C  C52  1  0.19531000  0.49479000  0.37165000  1.0
  C  C53  1  0.80470000  0.50521000  0.62834000  1.0
  C  C54  1  0.15935000  0.36142000  0.29433000  1.0
  C  C55  1  0.84065000  0.63858000  0.70567000  1.0
  C  C56  1  0.66704000  0.85416000  0.35218000  1.0
  C  C57  1  0.33296000  0.14584000  0.64781000  1.0
  C  C58  1  0.80344000  0.84491000  0.37948000  1.0
  C  C59  1  0.19656000  0.15508000  0.62052000  1.0
  C  C60  1  0.83642000  0.77845000  0.46285000  1.0
  C  C61  1  0.16358000  0.22155000  0.53715000  1.0
  C  C62  1  0.96021000  0.75963000  0.48181000  1.0
  C  C63  1  0.03979000  0.24037000  0.51819000  1.0
  C  C64  1  0.05297000  0.80880000  0.41805000  1.0
  C  C65  1  0.94703000  0.19119000  0.58194000  1.0
  C  C66  1  0.02159000  0.87934000  0.33778000  1.0
  C  C67  1  0.97841000  0.12066000  0.66222000  1.0
  C  C68  1  0.89732000  0.89700000  0.31829000  1.0
  C  C69  1  0.10268000  0.10300000  0.68170000  1.0
  C  C70  1  0.40485000  0.55278000  0.18178000  1.0
  C  C71  1  0.59515000  0.44722000  0.81823000  1.0
  C  C72  1  0.37431000  0.42474000  0.09139000  1.0
  C  C73  1  0.62569000  0.57526000  0.90861000  1.0
  C  C74  1  0.32580000  0.40964000  0.96901000  1.0
  C  C75  1  0.67420000  0.59037000  0.03099000  1.0
  C  C76  1  0.30926000  0.52340000  0.93680000  1.0
  C  C77  1  0.69074000  0.47660000  0.06320000  1.0
  C  C78  1  0.26634000  0.51937000  0.81184000  1.0
  C  C79  1  0.73366000  0.48063000  0.18816000  1.0
  C  C80  1  0.25874000  0.63369000  0.78460000  1.0
  C  C81  1  0.74126000  0.36630000  0.21540000  1.0
  C  C82  1  0.28993000  0.76075000  0.88121000  1.0
  C  C83  1  0.71008000  0.23925000  0.11879000  1.0
  C  C84  1  0.28412000  0.88188000  0.85812000  1.0
  C  C85  1  0.71588000  0.11812000  0.14188000  1.0
  C  C86  1  0.31447000  0.99991000  0.95711000  1.0
  C  C87  1  0.68553000  0.00010000  0.04289000  1.0
  C  C88  1  0.35175000  0.99745000  0.07815000  1.0
  C  C89  1  0.64825000  0.00256000  0.92185000  1.0
  C  C90  1  0.32977000  0.76777000  0.00635000  1.0
  C  C91  1  0.67023000  0.23223000  0.99365000  1.0
  C  C92  1  0.34204000  0.64801000  0.03456000  1.0
  C  C93  1  0.65796000  0.35199000  0.96544000  1.0
  N  N94  1  0.38810000  0.66068000  0.15422000  1.0
  N  N95  1  0.61190000  0.33932000  0.84578000  1.0
  N  N96  1  0.36019000  0.88486000  0.10165000  1.0
  N  N97  1  0.63981000  0.11514000  0.89835000  1.0
  O  O98  1  0.07369000  0.09408000  0.13971000  1.0
  O  O99  1  0.92630000  0.90591000  0.86031000  1.0
  O  O100  1  0.98837000  0.15583000  0.98043000  1.0
  O  O101  1  0.01162000  0.84417000  0.01958000  1.0
  O  O102  1  0.58586000  0.82142000  0.41763000  1.0
  O  O103  1  0.41414000  0.17859000  0.58236000  1.0
  O  O104  1  0.63354000  0.89032000  0.25831000  1.0
  O  O105  1  0.36646000  0.10968000  0.74169000  1.0
  O  O106  1  0.28930000  0.85514000  0.36405000  1.0
  O  O107  1  0.71070000  0.14486000  0.63596000  1.0
  O  O108  1  0.26430000  0.77594000  0.55810000  1.0
  O  O109  1  0.73570000  0.22406000  0.44190000  1.0
  O  O110  1  0.48295000  0.08548000  0.36071000  1.0
  O  O111  1  0.51705000  0.91453000  0.63929000  1.0
