# generated using pymatgen
data_CuH11C14N5O2
_symmetry_space_group_name_H-M   'P 1'
_cell_length_a   8.54654000
_cell_length_b   12.72490000
_cell_length_c   13.13300000
_cell_angle_alpha   102.08800000
_cell_angle_beta   90.00000000
_cell_angle_gamma   90.00000000
_symmetry_Int_Tables_number   1
_chemical_formula_structural   CuH11C14N5O2
_chemical_formula_sum   'Cu4 H44 C56 N20 O8'
_cell_volume   1396.59579193
_cell_formula_units_Z   4
loop_
 _symmetry_equiv_pos_site_id
 _symmetry_equiv_pos_as_xyz
  1  'x, y, z'
loop_
 _atom_site_type_symbol
 _atom_site_label
 _atom_site_symmetry_multiplicity
 _atom_site_fract_x
 _atom_site_fract_y
 _atom_site_fract_z
 _atom_site_occupancy
  Cu  Cu0  1  0.99163000  0.65085000  0.75588000  1.0
  Cu  Cu1  1  0.49163000  0.84916000  0.74412000  1.0
  Cu  Cu2  1  0.00838000  0.34915000  0.24412000  1.0
  Cu  Cu3  1  0.50838000  0.15084000  0.25588000  1.0
  H  H4  1  0.79498000  0.60971000  0.55607000  1.0
  H  H5  1  0.29498000  0.89030000  0.94394000  1.0
  H  H6  1  0.20502000  0.39030000  0.44395000  1.0
  H  H7  1  0.70501000  0.10970000  0.05606000  1.0
  H  H8  1  0.72473000  0.44247000  0.42556000  1.0
  H  H9  1  0.22474000  0.05754000  0.07444000  1.0
  H  H10  1  0.27527000  0.55754000  0.57446000  1.0
  H  H11  1  0.77525000  0.94246000  0.92555000  1.0
  H  H12  1  0.80312000  0.26268000  0.46436000  1.0
  H  H13  1  0.30312000  0.23733000  0.03563000  1.0
  H  H14  1  0.19688000  0.73733000  0.53564000  1.0
  H  H15  1  0.69689000  0.76267000  0.96437000  1.0
  H  H16  1  0.94092000  0.25789000  0.62895000  1.0
  H  H17  1  0.44093000  0.24211000  0.87104000  1.0
  H  H18  1  0.05909000  0.74212000  0.37105000  1.0
  H  H19  1  0.55909000  0.75788000  0.12896000  1.0
  H  H20  1  0.95475000  0.71586000  0.93234000  1.0
  H  H21  1  0.45476000  0.78414000  0.56765000  1.0
  H  H22  1  0.04524000  0.28415000  0.06766000  1.0
  H  H23  1  0.54526000  0.21583000  0.43236000  1.0
  H  H24  1  0.98982000  0.87678000  0.07206000  1.0
  H  H25  1  0.48983000  0.62323000  0.42793000  1.0
  H  H26  1  0.01020000  0.12325000  0.92793000  1.0
  H  H27  1  0.51020000  0.37675000  0.57207000  1.0
  H  H28  1  0.18228000  0.87351000  0.21647000  1.0
  H  H29  1  0.68229000  0.62649000  0.28352000  1.0
  H  H30  1  0.81774000  0.12651000  0.78351000  1.0
  H  H31  1  0.31773000  0.37349000  0.71648000  1.0
  H  H32  1  0.33383000  0.70996000  0.21674000  1.0
  H  H33  1  0.83385000  0.79004000  0.28325000  1.0
  H  H34  1  0.66618000  0.29006000  0.78325000  1.0
  H  H35  1  0.16617000  0.20995000  0.71675000  1.0
  H  H36  1  0.54935000  0.46461000  0.26076000  1.0
  H  H37  1  0.04939000  0.03539000  0.23924000  1.0
  H  H38  1  0.45058000  0.53539000  0.73927000  1.0
  H  H39  1  0.95059000  0.96461000  0.76075000  1.0
  H  H40  1  0.57924000  0.42097000  0.12290000  1.0
  H  H41  1  0.07926000  0.07904000  0.37709000  1.0
  H  H42  1  0.42074000  0.57906000  0.87713000  1.0
  H  H43  1  0.92075000  0.92095000  0.62290000  1.0
  H  H44  1  0.41731000  0.37020000  0.18510000  1.0
  H  H45  1  0.91733000  0.12979000  0.31488000  1.0
  H  H46  1  0.58265000  0.62980000  0.81489000  1.0
  H  H47  1  0.08266000  0.87020000  0.68512000  1.0
  C  C48  1  0.82574000  0.53004000  0.56826000  1.0
  C  C49  1  0.32575000  0.96997000  0.93174000  1.0
  C  C50  1  0.17426000  0.46997000  0.43175000  1.0
  C  C51  1  0.67425000  0.03002000  0.06826000  1.0
  C  C52  1  0.78645000  0.43726000  0.49680000  1.0
  C  C53  1  0.28645000  0.06275000  0.00320000  1.0
  C  C54  1  0.21355000  0.56275000  0.50321000  1.0
  C  C55  1  0.71354000  0.93725000  0.99679000  1.0
  C  C56  1  0.83076000  0.33777000  0.51813000  1.0
  C  C57  1  0.33077000  0.16223000  0.98186000  1.0
  C  C58  1  0.16924000  0.66224000  0.48187000  1.0
  C  C59  1  0.66924000  0.83776000  0.01813000  1.0
  C  C60  1  0.90943000  0.33399000  0.60931000  1.0
  C  C61  1  0.40944000  0.16601000  0.89068000  1.0
  C  C62  1  0.09058000  0.66601000  0.39069000  1.0
  C  C63  1  0.59057000  0.83398000  0.10931000  1.0
  C  C64  1  0.94790000  0.43112000  0.67851000  1.0
  C  C65  1  0.44791000  0.06888000  0.82148000  1.0
  C  C66  1  0.05212000  0.56889000  0.32149000  1.0
  C  C67  1  0.55210000  0.93111000  0.17851000  1.0
  C  C68  1  0.13192000  0.62187000  0.98968000  1.0
  C  C69  1  0.63192000  0.87813000  0.51031000  1.0
  C  C70  1  0.86807000  0.37813000  0.01032000  1.0
  C  C71  1  0.36807000  0.12186000  0.48969000  1.0
  C  C72  1  0.04372000  0.71608000  0.99201000  1.0
  C  C73  1  0.54372000  0.78393000  0.50798000  1.0
  C  C74  1  0.95628000  0.28394000  0.00799000  1.0
  C  C75  1  0.45629000  0.21606000  0.49202000  1.0
  C  C76  1  0.06188000  0.80593000  0.07179000  1.0
  C  C77  1  0.56189000  0.69407000  0.42820000  1.0
  C  C78  1  0.93814000  0.19409000  0.92820000  1.0
  C  C79  1  0.43814000  0.30591000  0.57180000  1.0
  C  C80  1  0.16755000  0.80435000  0.15264000  1.0
  C  C81  1  0.66756000  0.69565000  0.34736000  1.0
  C  C82  1  0.83246000  0.19567000  0.84736000  1.0
  C  C83  1  0.33245000  0.30433000  0.65264000  1.0
  C  C84  1  0.25350000  0.71171000  0.15286000  1.0
  C  C85  1  0.75351000  0.78829000  0.34713000  1.0
  C  C86  1  0.74652000  0.28831000  0.84713000  1.0
  C  C87  1  0.24650000  0.21169000  0.65287000  1.0
  C  C88  1  0.23775000  0.61994000  0.07316000  1.0
  C  C89  1  0.73776000  0.88006000  0.42683000  1.0
  C  C90  1  0.76224000  0.38007000  0.92684000  1.0
  C  C91  1  0.26223000  0.11993000  0.57317000  1.0
  C  C92  1  0.32669000  0.52115000  0.07901000  1.0
  C  C93  1  0.82669000  0.97886000  0.42098000  1.0
  C  C94  1  0.67329000  0.47886000  0.92100000  1.0
  C  C95  1  0.17328000  0.02114000  0.57900000  1.0
  C  C96  1  0.49195000  0.44017000  0.18508000  1.0
  C  C97  1  0.99198000  0.05982000  0.31492000  1.0
  C  C98  1  0.50800000  0.55983000  0.81494000  1.0
  C  C99  1  0.00801000  0.94017000  0.68508000  1.0
  C  C100  1  0.82053000  0.74901000  0.75340000  1.0
  C  C101  1  0.32054000  0.75100000  0.74659000  1.0
  C  C102  1  0.17947000  0.25099000  0.24660000  1.0
  C  C103  1  0.67946000  0.24900000  0.25340000  1.0
  N  N104  1  0.04987000  0.52423000  0.82779000  1.0
  N  N105  1  0.54988000  0.97576000  0.67221000  1.0
  N  N106  1  0.95013000  0.47577000  0.17222000  1.0
  N  N107  1  0.45013000  0.02422000  0.32779000  1.0
  N  N108  1  0.02592000  0.42874000  0.76855000  1.0
  N  N109  1  0.52592000  0.07125000  0.73144000  1.0
  N  N110  1  0.97409000  0.57126000  0.23145000  1.0
  N  N111  1  0.47409000  0.92874000  0.26856000  1.0
  N  N112  1  0.10990000  0.52771000  0.91691000  1.0
  N  N113  1  0.60991000  0.97228000  0.58309000  1.0
  N  N114  1  0.89009000  0.47229000  0.08311000  1.0
  N  N115  1  0.39009000  0.02770000  0.41690000  1.0
  N  N116  1  0.90652000  0.52717000  0.65559000  1.0
  N  N117  1  0.40652000  0.97283000  0.84441000  1.0
  N  N118  1  0.09349000  0.47283000  0.34442000  1.0
  N  N119  1  0.59348000  0.02717000  0.15559000  1.0
  N  N120  1  0.69935000  0.78931000  0.74351000  1.0
  N  N121  1  0.19935000  0.71069000  0.75648000  1.0
  N  N122  1  0.30067000  0.21068000  0.25649000  1.0
  N  N123  1  0.80067000  0.28931000  0.24351000  1.0
  O  O124  1  0.33529000  0.43884000  0.01096000  1.0
  O  O125  1  0.83526000  0.06117000  0.48901000  1.0
  O  O126  1  0.66469000  0.56117000  0.98904000  1.0
  O  O127  1  0.16468000  0.93883000  0.51097000  1.0
  O  O128  1  0.39899000  0.53119000  0.17278000  1.0
  O  O129  1  0.89903000  0.96880000  0.32722000  1.0
  O  O130  1  0.60097000  0.46881000  0.82723000  1.0
  O  O131  1  0.10098000  0.03119000  0.67278000  1.0
