# generated using pymatgen
data_CuH4C7IN2
_symmetry_space_group_name_H-M   'P 1'
_cell_length_a   9.52125000
_cell_length_b   11.35030000
_cell_length_c   13.81160000
_cell_angle_alpha   90.00020000
_cell_angle_beta   89.99930000
_cell_angle_gamma   89.99960000
_symmetry_Int_Tables_number   1
_chemical_formula_structural   CuH4C7IN2
_chemical_formula_sum   'Cu8 H32 C56 I8 N16'
_cell_volume   1492.60640623
_cell_formula_units_Z   8
loop_
 _symmetry_equiv_pos_site_id
 _symmetry_equiv_pos_as_xyz
  1  'x, y, z'
loop_
 _atom_site_type_symbol
 _atom_site_label
 _atom_site_symmetry_multiplicity
 _atom_site_fract_x
 _atom_site_fract_y
 _atom_site_fract_z
 _atom_site_occupancy
  Cu  Cu0  1  0.26546000  0.34761000  0.49368000  1.0
  Cu  Cu1  1  0.73454000  0.15239000  0.99368000  1.0
  Cu  Cu2  1  0.76546000  0.65239000  0.00631000  1.0
  Cu  Cu3  1  0.23454000  0.84761000  0.50631000  1.0
  Cu  Cu4  1  0.73454000  0.65239000  0.50632000  1.0
  Cu  Cu5  1  0.26546000  0.84761000  0.00631000  1.0
  Cu  Cu6  1  0.23454000  0.34761000  0.99369000  1.0
  Cu  Cu7  1  0.76546000  0.15239000  0.49369000  1.0
  H  H8  1  0.01312000  0.37016000  0.33420000  1.0
  H  H9  1  0.98688000  0.12983000  0.83420000  1.0
  H  H10  1  0.51312000  0.62984000  0.16580000  1.0
  H  H11  1  0.48688000  0.87016000  0.66580000  1.0
  H  H12  1  0.98689000  0.62984000  0.66580000  1.0
  H  H13  1  0.01312000  0.87017000  0.16580000  1.0
  H  H14  1  0.48689000  0.37016000  0.83420000  1.0
  H  H15  1  0.51312000  0.12984000  0.33421000  1.0
  H  H16  1  0.82937000  0.47926000  0.23985000  1.0
  H  H17  1  0.17064000  0.02074000  0.73984000  1.0
  H  H18  1  0.32936000  0.52074000  0.26016000  1.0
  H  H19  1  0.67063000  0.97926000  0.76015000  1.0
  H  H20  1  0.17064000  0.52074000  0.76016000  1.0
  H  H21  1  0.82936000  0.97926000  0.26016000  1.0
  H  H22  1  0.67064000  0.47926000  0.73984000  1.0
  H  H23  1  0.32937000  0.02075000  0.23985000  1.0
  H  H24  1  0.80891000  0.69558000  0.24989000  1.0
  H  H25  1  0.19110000  0.80442000  0.74988000  1.0
  H  H26  1  0.30890000  0.30442000  0.25011000  1.0
  H  H27  1  0.69108000  0.19557000  0.75011000  1.0
  H  H28  1  0.19109000  0.30442000  0.75012000  1.0
  H  H29  1  0.80890000  0.19558000  0.25012000  1.0
  H  H30  1  0.69109000  0.69557000  0.74988000  1.0
  H  H31  1  0.30892000  0.80443000  0.24989000  1.0
  H  H32  1  0.97238000  0.81309000  0.35510000  1.0
  H  H33  1  0.02763000  0.68691000  0.85510000  1.0
  H  H34  1  0.47237000  0.18690000  0.14490000  1.0
  H  H35  1  0.52762000  0.31309000  0.64490000  1.0
  H  H36  1  0.02762000  0.18691000  0.64490000  1.0
  H  H37  1  0.97237000  0.31309000  0.14490000  1.0
  H  H38  1  0.52762000  0.81309000  0.85510000  1.0
  H  H39  1  0.47238000  0.68691000  0.35510000  1.0
  C  C40  1  0.09429000  0.53148000  0.39718000  1.0
  C  C41  1  0.90571000  0.96852000  0.89718000  1.0
  C  C42  1  0.59429000  0.46852000  0.10281000  1.0
  C  C43  1  0.40571000  0.03148000  0.60281000  1.0
  C  C44  1  0.90571000  0.46852000  0.60282000  1.0
  C  C45  1  0.09429000  0.03148000  0.10282000  1.0
  C  C46  1  0.40571000  0.53148000  0.89718000  1.0
  C  C47  1  0.59429000  0.96852000  0.39719000  1.0
  C  C48  1  0.00437000  0.46583000  0.33820000  1.0
  C  C49  1  0.99564000  0.03417000  0.83819000  1.0
  C  C50  1  0.50436000  0.53417000  0.16180000  1.0
  C  C51  1  0.49564000  0.96583000  0.66180000  1.0
  C  C52  1  0.99564000  0.53417000  0.66180000  1.0
  C  C53  1  0.00436000  0.96583000  0.16181000  1.0
  C  C54  1  0.49564000  0.46582000  0.83819000  1.0
  C  C55  1  0.50436000  0.03417000  0.33820000  1.0
  C  C56  1  0.90273000  0.52736000  0.28575000  1.0
  C  C57  1  0.09727000  0.97264000  0.78575000  1.0
  C  C58  1  0.40273000  0.47264000  0.21425000  1.0
  C  C59  1  0.59727000  0.02736000  0.71425000  1.0
  C  C60  1  0.09727000  0.47264000  0.71425000  1.0
  C  C61  1  0.90273000  0.02736000  0.21425000  1.0
  C  C62  1  0.59727000  0.52736000  0.78574000  1.0
  C  C63  1  0.40273000  0.97265000  0.28576000  1.0
  C  C64  1  0.89082000  0.65128000  0.29155000  1.0
  C  C65  1  0.10918000  0.84872000  0.79154000  1.0
  C  C66  1  0.39081000  0.34872000  0.20845000  1.0
  C  C67  1  0.60918000  0.15128000  0.70845000  1.0
  C  C68  1  0.10918000  0.34872000  0.70845000  1.0
  C  C69  1  0.89081000  0.15128000  0.20846000  1.0
  C  C70  1  0.60918000  0.65128000  0.79154000  1.0
  C  C71  1  0.39082000  0.84873000  0.29155000  1.0
  C  C72  1  0.98076000  0.71752000  0.35009000  1.0
  C  C73  1  0.01925000  0.78248000  0.85008000  1.0
  C  C74  1  0.48075000  0.28248000  0.14991000  1.0
  C  C75  1  0.51924000  0.21751000  0.64991000  1.0
  C  C76  1  0.01924000  0.28248000  0.64991000  1.0
  C  C77  1  0.98075000  0.21752000  0.14991000  1.0
  C  C78  1  0.51925000  0.71752000  0.85008000  1.0
  C  C79  1  0.48076000  0.78249000  0.35009000  1.0
  C  C80  1  0.08230000  0.65641000  0.40322000  1.0
  C  C81  1  0.91771000  0.84359000  0.90322000  1.0
  C  C82  1  0.58229000  0.34359000  0.09678000  1.0
  C  C83  1  0.41771000  0.15640000  0.59678000  1.0
  C  C84  1  0.91770000  0.34359000  0.59678000  1.0
  C  C85  1  0.08229000  0.15641000  0.09678000  1.0
  C  C86  1  0.41770000  0.65641000  0.90322000  1.0
  C  C87  1  0.58229000  0.84360000  0.40322000  1.0
  C  C88  1  0.25032000  0.59805000  0.49810000  1.0
  C  C89  1  0.74969000  0.90194000  0.99809000  1.0
  C  C90  1  0.75032000  0.40195000  0.00190000  1.0
  C  C91  1  0.24968000  0.09805000  0.50190000  1.0
  C  C92  1  0.74969000  0.40195000  0.50190000  1.0
  C  C93  1  0.25031000  0.09806000  0.00191000  1.0
  C  C94  1  0.24968000  0.59805000  0.99809000  1.0
  C  C95  1  0.75032000  0.90195000  0.49810000  1.0
  I  I96  1  0.40741000  0.60337000  0.60157000  1.0
  I  I97  1  0.59259000  0.89662000  0.10158000  1.0
  I  I98  1  0.90741000  0.39662000  0.89842000  1.0
  I  I99  1  0.09259000  0.10338000  0.39842000  1.0
  I  I100  1  0.59260000  0.39662000  0.39842000  1.0
  I  I101  1  0.40740000  0.10338000  0.89842000  1.0
  I  I102  1  0.09259000  0.60338000  0.10158000  1.0
  I  I103  1  0.90741000  0.89662000  0.60158000  1.0
  N  N104  1  0.20319000  0.49671000  0.45834000  1.0
  N  N105  1  0.79681000  0.00329000  0.95834000  1.0
  N  N106  1  0.70319000  0.50329000  0.04166000  1.0
  N  N107  1  0.29681000  0.99670000  0.54165000  1.0
  N  N108  1  0.79681000  0.50329000  0.54166000  1.0
  N  N109  1  0.20319000  0.99671000  0.04166000  1.0
  N  N110  1  0.29681000  0.49671000  0.95834000  1.0
  N  N111  1  0.70319000  0.00330000  0.45835000  1.0
  N  N112  1  0.18316000  0.69629000  0.46832000  1.0
  N  N113  1  0.81685000  0.80371000  0.96832000  1.0
  N  N114  1  0.68315000  0.30371000  0.03168000  1.0
  N  N115  1  0.31685000  0.19628000  0.53168000  1.0
  N  N116  1  0.81685000  0.30371000  0.53168000  1.0
  N  N117  1  0.18315000  0.19629000  0.03168000  1.0
  N  N118  1  0.31684000  0.69629000  0.96832000  1.0
  N  N119  1  0.68316000  0.80372000  0.46832000  1.0
