# generated using pymatgen
data_Al6H29C84Cl21(O7F3)4
_symmetry_space_group_name_H-M   'P 1'
_cell_length_a   13.98890000
_cell_length_b   14.09130000
_cell_length_c   27.20600000
_cell_angle_alpha   89.66310000
_cell_angle_beta   89.43670000
_cell_angle_gamma   60.91750000
_symmetry_Int_Tables_number   1
_chemical_formula_structural   Al6H29C84Cl21(O7F3)4
_chemical_formula_sum   'Al6 H29 C84 Cl21 O28 F12'
_cell_volume   4686.51514705
_cell_formula_units_Z   1
loop_
 _symmetry_equiv_pos_site_id
 _symmetry_equiv_pos_as_xyz
  1  'x, y, z'
loop_
 _atom_site_type_symbol
 _atom_site_label
 _atom_site_symmetry_multiplicity
 _atom_site_fract_x
 _atom_site_fract_y
 _atom_site_fract_z
 _atom_site_occupancy
  Al  Al0  1  0.39690000  0.43437000  0.50681000  1.0
  Al  Al1  1  0.19100000  0.39179000  0.50371000  1.0
  Al  Al2  1  0.41628000  0.19787000  0.50377000  1.0
  Al  Al3  1  0.90677000  0.93459000  0.01495000  1.0
  Al  Al4  1  0.14504000  0.91398000  0.01779000  1.0
  Al  Al5  1  0.95079000  0.13776000  0.01859000  1.0
  H  H6  1  0.28099000  0.26358000  0.73231000  1.0
  H  H7  1  0.45971000  0.25172000  0.75288000  1.0
  H  H8  1  0.27141000  0.44370000  0.73625000  1.0
  H  H9  1  0.20971000  0.27822000  0.80944000  1.0
  H  H10  1  0.50184000  0.26688000  0.83099000  1.0
  H  H11  1  0.30118000  0.50987000  0.80759000  1.0
  H  H12  1  0.03091000  0.17132000  0.78660000  1.0
  H  H13  1  0.75788000  0.03116000  0.80527000  1.0
  H  H14  1  0.16420000  0.78988000  0.77954000  1.0
  H  H15  1  0.06387000  0.30763000  0.38368000  1.0
  H  H16  1  0.47711000  0.40911000  0.36626000  1.0
  H  H17  1  0.09572000  0.48330000  0.36626000  1.0
  H  H18  1  0.04056000  0.28180000  0.29466000  1.0
  H  H19  1  0.52654000  0.38581000  0.27686000  1.0
  H  H20  1  0.07747000  0.52978000  0.27680000  1.0
  H  H21  1  0.39019000  0.08512000  0.27856000  1.0
  H  H22  1  0.68386000  0.03833000  0.29487000  1.0
  H  H23  1  0.28264000  0.67650000  0.29509000  1.0
  H  H24  1  0.41225000  0.10785000  0.36782000  1.0
  H  H25  1  0.62915000  0.06283000  0.38377000  1.0
  H  H26  1  0.30369000  0.62568000  0.38430000  1.0
  H  H27  1  0.09540000  0.32280000  0.73537000  1.0
  H  H28  1  0.58227000  0.08435000  0.73706000  1.0
  H  H29  1  0.32051000  0.57830000  0.73006000  1.0
  H  H30  1  0.03567000  0.28523000  0.81042000  1.0
  H  H31  1  0.61760000  0.08648000  0.81915000  1.0
  H  H32  1  0.29002000  0.68517000  0.80160000  1.0
  H  H33  1  0.45379000  0.55846000  0.48098000  1.0
  H  H34  1  0.78712000  0.87891000  0.98293000  1.0
  C  C35  1  0.52148000  0.24726000  0.57597000  1.0
  C  C36  1  0.20240000  0.52323000  0.57527000  1.0
  C  C37  1  0.25038000  0.21714000  0.57121000  1.0
  C  C38  1  0.07988000  0.21268000  0.78748000  1.0
  C  C39  1  0.67686000  0.09838000  0.79690000  1.0
  C  C40  1  0.21442000  0.70185000  0.78283000  1.0
  C  C41  1  0.09637000  0.24452000  0.73523000  1.0
  C  C42  1  0.65149000  0.09938000  0.74181000  1.0
  C  C43  1  0.23941000  0.65063000  0.73157000  1.0
  C  C44  1  0.17830000  0.12394000  0.86363000  1.0
  C  C45  1  0.70559000  0.19639000  0.86409000  1.0
  C  C46  1  0.14908000  0.68761000  0.86547000  1.0
  C  C47  1  0.22518000  0.17146000  0.66329000  1.0
  C  C48  1  0.58441000  0.22182000  0.66888000  1.0
  C  C49  1  0.15749000  0.58502000  0.66816000  1.0
  C  C50  1  0.23463000  0.18694000  0.62006000  1.0
  C  C51  1  0.56120000  0.22863000  0.62575000  1.0
  C  C52  1  0.16966000  0.56236000  0.62482000  1.0
  C  C53  1  0.10475000  0.79370000  0.94962000  1.0
  C  C54  1  0.12657000  0.08406000  0.95195000  1.0
  C  C55  1  0.80752000  0.13261000  0.94913000  1.0
  C  C56  1  0.23923000  0.20687000  0.38130000  1.0
  C  C57  1  0.55218000  0.23745000  0.38025000  1.0
  C  C58  1  0.19907000  0.55368000  0.38053000  1.0
  C  C59  1  0.13471000  0.25849000  0.36040000  1.0
  C  C60  1  0.52181000  0.32850000  0.35003000  1.0
  C  C61  1  0.13639000  0.52540000  0.35023000  1.0
  C  C62  1  0.12207000  0.24498000  0.31063000  1.0
  C  C63  1  0.54917000  0.31522000  0.30038000  1.0
  C  C64  1  0.12678000  0.55095000  0.30043000  1.0
  C  C65  1  0.21391000  0.18089000  0.28116000  1.0
  C  C66  1  0.60925000  0.21059000  0.28069000  1.0
  C  C67  1  0.17814000  0.60683000  0.28065000  1.0
  C  C68  1  0.51948000  0.25539000  0.43297000  1.0
  C  C69  1  0.21360000  0.52177000  0.43325000  1.0
  C  C70  1  0.25545000  0.22276000  0.43383000  1.0
  C  C71  1  0.31872000  0.13341000  0.30167000  1.0
  C  C72  1  0.63682000  0.11950000  0.31049000  1.0
  C  C73  1  0.24317000  0.63266000  0.31067000  1.0
  C  C74  1  0.33126000  0.14541000  0.35146000  1.0
  C  C75  1  0.60755000  0.13290000  0.36008000  1.0
  C  C76  1  0.25407000  0.60566000  0.36034000  1.0
  C  C77  1  0.17864000  0.22342000  0.19032000  1.0
  C  C78  1  0.60358000  0.18038000  0.18951000  1.0
  C  C79  1  0.22737000  0.60191000  0.19071000  1.0
  C  C80  1  0.16221000  0.19795000  0.14253000  1.0
  C  C81  1  0.64834000  0.16310000  0.14202000  1.0
  C  C82  1  0.20673000  0.64555000  0.14314000  1.0
  C  C83  1  0.19358000  0.02280000  0.17273000  1.0
  C  C84  1  0.79916000  0.18210000  0.17456000  1.0
  C  C85  1  0.03139000  0.78934000  0.17228000  1.0
  C  C86  1  0.20815000  0.05146000  0.22040000  1.0
  C  C87  1  0.75291000  0.19784000  0.22186000  1.0
  C  C88  1  0.05500000  0.74404000  0.21968000  1.0
  C  C89  1  0.20027000  0.15292000  0.23001000  1.0
  C  C90  1  0.65433000  0.19636000  0.22999000  1.0
  C  C91  1  0.15404000  0.64959000  0.22964000  1.0
  C  C92  1  0.16805000  0.09685000  0.13329000  1.0
  C  C93  1  0.74844000  0.16235000  0.13434000  1.0
  C  C94  1  0.10819000  0.74138000  0.13362000  1.0
  C  C95  1  0.08649000  0.79853000  0.08471000  1.0
  C  C96  1  0.13390000  0.07301000  0.08459000  1.0
  C  C97  1  0.80694000  0.12850000  0.08551000  1.0
  C  C98  1  0.29129000  0.18500000  0.74509000  1.0
  C  C99  1  0.51349000  0.28833000  0.75264000  1.0
  C  C100  1  0.19457000  0.50752000  0.75203000  1.0
  C  C101  1  0.23500000  0.04144000  0.72746000  1.0
  C  C102  1  0.70257000  0.25141000  0.72566000  1.0
  C  C103  1  0.03755000  0.69828000  0.73619000  1.0
  C  C104  1  0.23956000  0.02221000  0.78546000  1.0
  C  C105  1  0.74966000  0.22962000  0.77966000  1.0
  C  C106  1  0.03048000  0.71248000  0.79439000  1.0
  C  C107  1  0.16071000  0.10965000  0.90605000  1.0
  C  C108  1  0.74499000  0.17535000  0.90484000  1.0
  C  C109  1  0.13699000  0.72725000  0.90606000  1.0
  C  C110  1  0.21208000  0.15912000  0.71542000  1.0
  C  C111  1  0.61472000  0.21440000  0.72001000  1.0
  C  C112  1  0.15475000  0.61113000  0.71966000  1.0
  C  C113  1  0.26259000  0.19211000  0.80058000  1.0
  C  C114  1  0.54779000  0.29288000  0.80670000  1.0
  C  C115  1  0.21421000  0.53321000  0.80502000  1.0
  C  C116  1  0.19274000  0.13563000  0.81148000  1.0
  C  C117  1  0.67059000  0.20738000  0.81341000  1.0
  C  C118  1  0.15085000  0.65780000  0.81448000  1.0
  Cl  Cl119  1  0.37895000  0.15315000  0.83838000  1.0
  Cl  Cl120  1  0.50889000  0.42698000  0.82664000  1.0
  Cl  Cl121  1  0.19755000  0.45035000  0.85006000  1.0
  Cl  Cl122  1  0.13846000  0.29105000  0.09686000  1.0
  Cl  Cl123  1  0.57819000  0.14537000  0.09495000  1.0
  Cl  Cl124  1  0.30226000  0.57758000  0.09805000  1.0
  Cl  Cl125  1  0.23117000  0.96332000  0.26847000  1.0
  Cl  Cl126  1  0.81877000  0.21567000  0.27113000  1.0
  Cl  Cl127  1  0.96396000  0.80727000  0.26713000  1.0
  Cl  Cl128  1  0.19891000  0.89995000  0.16517000  1.0
  Cl  Cl129  1  0.92220000  0.17985000  0.16807000  1.0
  Cl  Cl130  1  0.91147000  0.90754000  0.16395000  1.0
  Cl  Cl131  1  0.37446000  0.93156000  0.80434000  1.0
  Cl  Cl132  1  0.76534000  0.34000000  0.80082000  1.0
  Cl  Cl133  1  0.95510000  0.65459000  0.82134000  1.0
  Cl  Cl134  1  0.15543000  0.96415000  0.80247000  1.0
  Cl  Cl135  1  0.88185000  0.11210000  0.78029000  1.0
  Cl  Cl136  1  0.96239000  0.85349000  0.80959000  1.0
  Cl  Cl137  1  0.98673000  0.26569000  0.69620000  1.0
  Cl  Cl138  1  0.76056000  0.99365000  0.70810000  1.0
  Cl  Cl139  1  0.24648000  0.74043000  0.68745000  1.0
  O  O140  1  0.29464000  0.50932000  0.56179000  1.0
  O  O141  1  0.17474000  0.30762000  0.55501000  1.0
  O  O142  1  0.51185000  0.16979000  0.55578000  1.0
  O  O143  1  0.82530000  0.03934000  0.96219000  1.0
  O  O144  1  0.17930000  0.80786000  0.97070000  1.0
  O  O145  1  0.03825000  0.15882000  0.97120000  1.0
  O  O146  1  0.49606000  0.33844000  0.55746000  1.0
  O  O147  1  0.13720000  0.50205000  0.55017000  1.0
  O  O148  1  0.34044000  0.15461000  0.54937000  1.0
  O  O149  1  0.28979000  0.52482000  0.45653000  1.0
  O  O150  1  0.17616000  0.29942000  0.45755000  1.0
  O  O151  1  0.52364000  0.17432000  0.45748000  1.0
  O  O152  1  0.48588000  0.34928000  0.45021000  1.0
  O  O153  1  0.14938000  0.48843000  0.45135000  1.0
  O  O154  1  0.35037000  0.16208000  0.45184000  1.0
  O  O155  1  0.33364000  0.34023000  0.50525000  1.0
  O  O156  1  0.00169000  0.99618000  0.01735000  1.0
  O  O157  1  0.00546000  0.83578000  0.96215000  1.0
  O  O158  1  0.18349000  0.98764000  0.96841000  1.0
  O  O159  1  0.84300000  0.19083000  0.97025000  1.0
  O  O160  1  0.81996000  0.04103000  0.06759000  1.0
  O  O161  1  0.16365000  0.81380000  0.06717000  1.0
  O  O162  1  0.04374000  0.14655000  0.06731000  1.0
  O  O163  1  0.99420000  0.83123000  0.06577000  1.0
  O  O164  1  0.19287000  0.98000000  0.06507000  1.0
  O  O165  1  0.84291000  0.18952000  0.06686000  1.0
  O  O166  1  0.45806000  0.51670000  0.50996000  1.0
  O  O167  1  0.81829000  0.87997000  0.01432000  1.0
  F  F168  1  0.17283000  0.32071000  0.19857000  1.0
  F  F169  1  0.50747000  0.18067000  0.19675000  1.0
  F  F170  1  0.32262000  0.50992000  0.19952000  1.0
  F  F171  1  0.39989000  0.10759000  0.73540000  1.0
  F  F172  1  0.45260000  0.39157000  0.73217000  1.0
  F  F173  1  0.11927000  0.46877000  0.75054000  1.0
  F  F174  1  0.15300000  0.02794000  0.70739000  1.0
  F  F175  1  0.78420000  0.20164000  0.69169000  1.0
  F  F176  1  0.01444000  0.79443000  0.71373000  1.0
  F  F177  1  0.32973000  0.96692000  0.70543000  1.0
  F  F178  1  0.65335000  0.36053000  0.71571000  1.0
  F  F179  1  0.96147000  0.67197000  0.71994000  1.0
