# generated using pymatgen
data_NiH14C16(NO2)2
_symmetry_space_group_name_H-M   'P 1'
_cell_length_a   8.18647000
_cell_length_b   8.80788000
_cell_length_c   11.25320000
_cell_angle_alpha   93.09410000
_cell_angle_beta   109.71400000
_cell_angle_gamma   94.65950000
_symmetry_Int_Tables_number   1
_chemical_formula_structural   NiH14C16(NO2)2
_chemical_formula_sum   'Ni2 H28 C32 N4 O8'
_cell_volume   758.46491299
_cell_formula_units_Z   2
loop_
 _symmetry_equiv_pos_site_id
 _symmetry_equiv_pos_as_xyz
  1  'x, y, z'
loop_
 _atom_site_type_symbol
 _atom_site_label
 _atom_site_symmetry_multiplicity
 _atom_site_fract_x
 _atom_site_fract_y
 _atom_site_fract_z
 _atom_site_occupancy
  Ni  Ni0  1  0.51877000  0.64742000  0.75726000  1.0
  Ni  Ni1  1  0.48123000  0.35257000  0.24274000  1.0
  H  H2  1  0.14443000  0.70223000  0.67465000  1.0
  H  H3  1  0.85557000  0.29777000  0.32535000  1.0
  H  H4  1  0.94186000  0.80572000  0.77742000  1.0
  H  H5  1  0.05814000  0.19428000  0.22258000  1.0
  H  H6  1  0.38359000  0.90456000  0.12182000  1.0
  H  H7  1  0.61640000  0.09544000  0.87818000  1.0
  H  H8  1  0.56750000  0.79625000  0.00569000  1.0
  H  H9  1  0.43250000  0.20375000  0.99431000  1.0
  H  H10  1  0.91018000  0.84018000  0.99901000  1.0
  H  H11  1  0.08982000  0.15982000  0.00098000  1.0
  H  H12  1  0.09489000  0.93372000  0.12531000  1.0
  H  H13  1  0.90510000  0.06629000  0.87468000  1.0
  H  H14  1  0.36098000  0.47090000  0.51170000  1.0
  H  H15  1  0.63902000  0.52910000  0.48830000  1.0
  H  H16  1  0.15262000  0.24328000  0.41895000  1.0
  H  H17  1  0.84738000  0.75672000  0.58105000  1.0
  H  H18  1  0.13236000  0.18055000  0.79216000  1.0
  H  H19  1  0.86764000  0.81945000  0.20784000  1.0
  H  H20  1  0.34641000  0.41258000  0.87195000  1.0
  H  H21  1  0.65359000  0.58742000  0.12805000  1.0
  H  H22  1  0.95631000  0.00445000  0.62315000  1.0
  H  H23  1  0.04369000  0.99556000  0.37685000  1.0
  H  H24  1  0.85668000  0.10600000  0.49191000  1.0
  H  H25  1  0.14332000  0.89400000  0.50810000  1.0
  H  H26  1  0.03729000  0.44335000  0.88033000  1.0
  H  H27  1  0.96271000  0.55665000  0.11966000  1.0
  H  H28  1  0.62440000  0.10730000  0.61262000  1.0
  H  H29  1  0.37560000  0.89270000  0.38738000  1.0
  C  C30  1  0.19158000  0.74948000  0.77324000  1.0
  C  C31  1  0.80842000  0.25052000  0.22675000  1.0
  C  C32  1  0.08092000  0.80747000  0.83016000  1.0
  C  C33  1  0.91908000  0.19253000  0.16984000  1.0
  C  C34  1  0.14680000  0.86240000  0.95839000  1.0
  C  C35  1  0.85320000  0.13760000  0.04160000  1.0
  C  C36  1  0.32537000  0.85976000  0.02280000  1.0
  C  C37  1  0.67463000  0.14024000  0.97720000  1.0
  C  C38  1  0.42823000  0.80105000  0.95900000  1.0
  C  C39  1  0.57177000  0.19895000  0.04100000  1.0
  C  C40  1  0.02795000  0.92180000  0.02223000  1.0
  C  C41  1  0.97205000  0.07821000  0.97777000  1.0
  C  C42  1  0.30921000  0.40272000  0.57142000  1.0
  C  C43  1  0.69079000  0.59727000  0.42859000  1.0
  C  C44  1  0.18989000  0.27484000  0.52005000  1.0
  C  C45  1  0.81010000  0.72516000  0.47995000  1.0
  C  C46  1  0.11949000  0.19143000  0.59724000  1.0
  C  C47  1  0.88051000  0.80857000  0.40276000  1.0
  C  C48  1  0.18050000  0.24114000  0.72657000  1.0
  C  C49  1  0.81951000  0.75886000  0.27343000  1.0
  C  C50  1  0.30058000  0.37016000  0.77209000  1.0
  C  C51  1  0.69942000  0.62984000  0.22791000  1.0
  C  C52  1  0.97947000  0.05946000  0.54414000  1.0
  C  C53  1  0.02053000  0.94054000  0.45587000  1.0
  C  C54  1  0.79271000  0.53881000  0.86524000  1.0
  C  C55  1  0.20730000  0.46119000  0.13476000  1.0
  C  C56  1  0.96497000  0.49069000  0.93651000  1.0
  C  C57  1  0.03503000  0.50932000  0.06349000  1.0
  C  C58  1  0.54357000  0.00308000  0.56256000  1.0
  C  C59  1  0.45643000  0.99692000  0.43744000  1.0
  C  C60  1  0.53880000  0.87082000  0.63703000  1.0
  C  C61  1  0.46120000  0.12918000  0.36297000  1.0
  N  N62  1  0.36302000  0.74525000  0.83671000  1.0
  N  N63  1  0.63698000  0.25475000  0.16329000  1.0
  N  N64  1  0.36304000  0.45103000  0.69555000  1.0
  N  N65  1  0.63696000  0.54897000  0.30445000  1.0
  O  O66  1  0.69260000  0.58343000  0.92431000  1.0
  O  O67  1  0.30741000  0.41657000  0.07569000  1.0
  O  O68  1  0.74615000  0.54146000  0.74511000  1.0
  O  O69  1  0.25385000  0.45854000  0.25489000  1.0
  O  O70  1  0.42551000  0.75465000  0.58993000  1.0
  O  O71  1  0.57449000  0.24535000  0.41007000  1.0
  O  O72  1  0.64992000  0.87335000  0.74923000  1.0
  O  O73  1  0.35008000  0.12665000  0.25077000  1.0
