# generated using pymatgen
data_Ag2H12C17O11
_symmetry_space_group_name_H-M   'P 1'
_cell_length_a   8.54372000
_cell_length_b   9.78125000
_cell_length_c   11.46320000
_cell_angle_alpha   67.14890000
_cell_angle_beta   82.45870000
_cell_angle_gamma   71.77530000
_symmetry_Int_Tables_number   1
_chemical_formula_structural   Ag2H12C17O11
_chemical_formula_sum   'Ag4 H24 C34 O22'
_cell_volume   838.44142634
_cell_formula_units_Z   2
loop_
 _symmetry_equiv_pos_site_id
 _symmetry_equiv_pos_as_xyz
  1  'x, y, z'
loop_
 _atom_site_type_symbol
 _atom_site_label
 _atom_site_symmetry_multiplicity
 _atom_site_fract_x
 _atom_site_fract_y
 _atom_site_fract_z
 _atom_site_occupancy
  Ag  Ag0  1  0.07611000  0.11027000  0.91775000  1.0
  Ag  Ag1  1  0.92389000  0.88973000  0.08225000  1.0
  Ag  Ag2  1  0.38835000  0.94574000  0.09017000  1.0
  Ag  Ag3  1  0.61165000  0.05426000  0.90983000  1.0
  H  H4  1  0.12622000  0.30580000  0.02736000  1.0
  H  H5  1  0.87379000  0.69420000  0.97264000  1.0
  H  H6  1  0.29125000  0.59364000  0.96347000  1.0
  H  H7  1  0.70875000  0.40636000  0.03653000  1.0
  H  H8  1  0.61482000  0.78487000  0.66624000  1.0
  H  H9  1  0.38518000  0.21513000  0.33376000  1.0
  H  H10  1  0.44330000  0.41624000  0.66370000  1.0
  H  H11  1  0.55670000  0.58377000  0.33629000  1.0
  H  H12  1  0.70803000  0.78673000  0.48695000  1.0
  H  H13  1  0.29197000  0.21328000  0.51305000  1.0
  H  H14  1  0.80101000  0.64322000  0.41598000  1.0
  H  H15  1  0.19899000  0.35679000  0.58402000  1.0
  H  H16  1  0.09052000  0.68484000  0.42169000  1.0
  H  H17  1  0.90948000  0.31516000  0.57831000  1.0
  H  H18  1  0.42316000  0.99899000  0.31595000  1.0
  H  H19  1  0.57684000  0.00101000  0.68405000  1.0
  H  H20  1  0.22502000  0.94385000  0.60218000  1.0
  H  H21  1  0.77498000  0.05615000  0.39782000  1.0
  H  H22  1  0.86959000  0.69238000  0.78007000  1.0
  H  H23  1  0.13041000  0.30762000  0.21993000  1.0
  H  H24  1  0.74325000  0.32318000  0.88704000  1.0
  H  H25  1  0.25675000  0.67682000  0.11296000  1.0
  H  H26  1  0.83122000  0.42135000  0.76838000  1.0
  H  H27  1  0.16878000  0.57865000  0.23162000  1.0
  C  C28  1  0.25768000  0.38338000  0.87681000  1.0
  C  C29  1  0.74233000  0.61662000  0.12319000  1.0
  C  C30  1  0.35468000  0.49650000  0.81831000  1.0
  C  C31  1  0.64532000  0.50350000  0.18169000  1.0
  C  C32  1  0.36029000  0.59715000  0.87623000  1.0
  C  C33  1  0.63971000  0.40285000  0.12377000  1.0
  C  C34  1  0.45317000  0.70162000  0.82077000  1.0
  C  C35  1  0.54683000  0.29838000  0.17923000  1.0
  C  C36  1  0.45881000  0.80919000  0.88273000  1.0
  C  C37  1  0.54119000  0.19081000  0.11727000  1.0
  C  C38  1  0.54267000  0.70342000  0.70861000  1.0
  C  C39  1  0.45733000  0.29658000  0.29139000  1.0
  C  C40  1  0.53873000  0.59996000  0.65341000  1.0
  C  C41  1  0.46127000  0.40004000  0.34659000  1.0
  C  C42  1  0.44410000  0.49690000  0.70725000  1.0
  C  C43  1  0.55590000  0.50310000  0.29275000  1.0
  C  C44  1  0.75186000  0.66198000  0.50374000  1.0
  C  C45  1  0.24813000  0.33802000  0.49626000  1.0
  C  C46  1  0.97079000  0.67933000  0.60141000  1.0
  C  C47  1  0.02921000  0.32067000  0.39859000  1.0
  C  C48  1  0.07859000  0.72228000  0.50109000  1.0
  C  C49  1  0.92141000  0.27772000  0.49891000  1.0
  C  C50  1  0.17242000  0.81616000  0.50253000  1.0
  C  C51  1  0.82758000  0.18384000  0.49748000  1.0
  C  C52  1  0.28319000  0.86361000  0.39302000  1.0
  C  C53  1  0.71681000  0.13639000  0.60698000  1.0
  C  C54  1  0.15544000  0.86812000  0.60211000  1.0
  C  C55  1  0.84456000  0.13188000  0.39789000  1.0
  C  C56  1  0.04696000  0.82437000  0.70261000  1.0
  C  C57  1  0.95304000  0.17562000  0.29739000  1.0
  C  C58  1  0.02824000  0.88758000  0.80540000  1.0
  C  C59  1  0.97177000  0.11242000  0.19460000  1.0
  C  C60  1  0.95500000  0.72807000  0.70300000  1.0
  C  C61  1  0.04500000  0.27193000  0.29700000  1.0
  O  O62  1  0.18308000  0.39069000  0.98409000  1.0
  O  O63  1  0.81692000  0.60931000  0.01591000  1.0
  O  O64  1  0.25135000  0.29092000  0.82892000  1.0
  O  O65  1  0.74866000  0.70907000  0.17108000  1.0
  O  O66  1  0.39838000  0.78650000  0.99376000  1.0
  O  O67  1  0.60162000  0.21350000  0.00624000  1.0
  O  O68  1  0.52725000  0.91718000  0.82269000  1.0
  O  O69  1  0.47275000  0.08282000  0.17731000  1.0
  O  O70  1  0.62579000  0.58989000  0.54485000  1.0
  O  O71  1  0.37421000  0.41011000  0.45515000  1.0
  O  O72  1  0.87565000  0.58659000  0.60152000  1.0
  O  O73  1  0.12434000  0.41341000  0.39848000  1.0
  O  O74  1  0.37020000  0.95101000  0.40192000  1.0
  O  O75  1  0.62980000  0.04899000  0.59808000  1.0
  O  O76  1  0.28980000  0.82538000  0.30092000  1.0
  O  O77  1  0.71020000  0.17462000  0.69908000  1.0
  O  O78  1  0.93349000  0.84188000  0.90017000  1.0
  O  O79  1  0.06651000  0.15812000  0.09983000  1.0
  O  O80  1  0.10542000  0.98445000  0.79039000  1.0
  O  O81  1  0.89458000  0.01556000  0.20961000  1.0
  O  O82  1  0.84514000  0.35305000  0.85740000  1.0
  O  O83  1  0.15486000  0.64695000  0.14260000  1.0
