# generated using pymatgen
data_KH17C12O
_symmetry_space_group_name_H-M   'P 1'
_cell_length_a   6.46281000
_cell_length_b   9.80279000
_cell_length_c   9.83268000
_cell_angle_alpha   101.57200000
_cell_angle_beta   89.99900000
_cell_angle_gamma   90.00000000
_symmetry_Int_Tables_number   1
_chemical_formula_structural   KH17C12O
_chemical_formula_sum   'K2 H34 C24 O2'
_cell_volume   610.27321359
_cell_formula_units_Z   2
loop_
 _symmetry_equiv_pos_site_id
 _symmetry_equiv_pos_as_xyz
  1  'x, y, z'
loop_
 _atom_site_type_symbol
 _atom_site_label
 _atom_site_symmetry_multiplicity
 _atom_site_fract_x
 _atom_site_fract_y
 _atom_site_fract_z
 _atom_site_occupancy
  K  K0  1  0.35827000  0.64268000  0.98910000  1.0
  K  K1  1  0.85826000  0.35733000  0.01092000  1.0
  H  H2  1  0.04297000  0.02884000  0.79765000  1.0
  H  H3  1  0.54297000  0.97116000  0.20236000  1.0
  H  H4  1  0.96348000  0.99850000  0.03640000  1.0
  H  H5  1  0.46348000  0.00149000  0.96361000  1.0
  H  H6  1  0.12950000  0.15409000  0.23757000  1.0
  H  H7  1  0.62949000  0.84590000  0.76244000  1.0
  H  H8  1  0.38799000  0.31563000  0.72483000  1.0
  H  H9  1  0.88800000  0.68437000  0.27516000  1.0
  H  H10  1  0.01624000  0.29874000  0.65931000  1.0
  H  H11  1  0.51625000  0.70126000  0.34070000  1.0
  H  H12  1  0.03411000  0.11480000  0.60851000  1.0
  H  H13  1  0.53413000  0.88520000  0.39150000  1.0
  H  H14  1  0.17118000  0.22233000  0.51503000  1.0
  H  H15  1  0.67119000  0.77768000  0.48498000  1.0
  H  H16  1  0.39764000  0.99691000  0.64056000  1.0
  H  H17  1  0.89766000  0.00309000  0.35943000  1.0
  H  H18  1  0.60125000  0.10322000  0.72445000  1.0
  H  H19  1  0.10127000  0.89678000  0.27554000  1.0
  H  H20  1  0.52611000  0.11518000  0.55324000  1.0
  H  H21  1  0.02612000  0.88482000  0.44675000  1.0
  H  H22  1  0.49634000  0.44220000  0.19678000  1.0
  H  H23  1  0.99634000  0.55780000  0.80321000  1.0
  H  H24  1  0.66002000  0.22770000  0.25157000  1.0
  H  H25  1  0.16000000  0.77230000  0.74841000  1.0
  H  H26  1  0.45024000  0.20819000  0.36123000  1.0
  H  H27  1  0.95020000  0.79181000  0.63876000  1.0
  H  H28  1  0.61580000  0.35466000  0.40635000  1.0
  H  H29  1  0.11576000  0.64534000  0.59363000  1.0
  H  H30  1  0.12814000  0.38437000  0.37459000  1.0
  H  H31  1  0.62813000  0.61562000  0.62542000  1.0
  H  H32  1  0.14694000  0.51926000  0.27810000  1.0
  H  H33  1  0.64692000  0.48074000  0.72191000  1.0
  H  H34  1  0.31152000  0.52001000  0.42350000  1.0
  H  H35  1  0.81150000  0.47999000  0.57650000  1.0
  C  C36  1  0.34993000  0.29269000  0.97617000  1.0
  C  C37  1  0.84993000  0.70731000  0.02383000  1.0
  C  C38  1  0.25165000  0.20131000  0.86130000  1.0
  C  C39  1  0.75165000  0.79868000  0.13870000  1.0
  C  C40  1  0.11520000  0.09826000  0.88564000  1.0
  C  C41  1  0.61520000  0.90175000  0.11437000  1.0
  C  C42  1  0.06964000  0.07987000  0.02008000  1.0
  C  C43  1  0.56964000  0.92013000  0.97993000  1.0
  C  C44  1  0.16382000  0.16817000  0.13234000  1.0
  C  C45  1  0.66380000  0.83183000  0.86767000  1.0
  C  C46  1  0.30018000  0.27377000  0.11385000  1.0
  C  C47  1  0.80018000  0.72622000  0.88615000  1.0
  C  C48  1  0.30996000  0.21432000  0.71522000  1.0
  C  C49  1  0.80997000  0.78568000  0.28479000  1.0
  C  C50  1  0.12238000  0.21221000  0.61963000  1.0
  C  C51  1  0.62240000  0.78780000  0.38037000  1.0
  C  C52  1  0.46787000  0.10113000  0.65462000  1.0
  C  C53  1  0.96788000  0.89887000  0.34537000  1.0
  C  C54  1  0.39906000  0.36769000  0.23835000  1.0
  C  C55  1  0.89905000  0.63231000  0.76165000  1.0
  C  C56  1  0.53979000  0.28547000  0.31880000  1.0
  C  C57  1  0.03976000  0.71453000  0.68118000  1.0
  C  C58  1  0.23707000  0.45261000  0.33391000  1.0
  C  C59  1  0.73705000  0.54738000  0.66610000  1.0
  O  O60  1  0.47950000  0.38945000  0.95548000  1.0
  O  O61  1  0.97950000  0.61056000  0.04452000  1.0
