# generated using pymatgen
data_BaH21C30O7
_symmetry_space_group_name_H-M   'P 1'
_cell_length_a   5.12083000
_cell_length_b   14.23300000
_cell_length_c   17.64900000
_cell_angle_alpha   70.30100000
_cell_angle_beta   84.18190000
_cell_angle_gamma   88.09700000
_symmetry_Int_Tables_number   1
_chemical_formula_structural   BaH21C30O7
_chemical_formula_sum   'Ba2 H42 C60 O14'
_cell_volume   1204.82282010
_cell_formula_units_Z   2
loop_
 _symmetry_equiv_pos_site_id
 _symmetry_equiv_pos_as_xyz
  1  'x, y, z'
loop_
 _atom_site_type_symbol
 _atom_site_label
 _atom_site_symmetry_multiplicity
 _atom_site_fract_x
 _atom_site_fract_y
 _atom_site_fract_z
 _atom_site_occupancy
  Ba  Ba0  1  0.76889000  0.39764000  0.61880000  1.0
  Ba  Ba1  1  0.23111000  0.60236000  0.38121000  1.0
  H  H2  1  0.95456000  0.15756000  0.00113000  1.0
  H  H3  1  0.04544000  0.84244000  0.99887000  1.0
  H  H4  1  0.89525000  0.52538000  0.77210000  1.0
  H  H5  1  0.10474000  0.47462000  0.22790000  1.0
  H  H6  1  0.49651000  0.05568000  0.79007000  1.0
  H  H7  1  0.50349000  0.94432000  0.20993000  1.0
  H  H8  1  0.01211000  0.72868000  0.51348000  1.0
  H  H9  1  0.98789000  0.27132000  0.48652000  1.0
  H  H10  1  0.84620000  0.14147000  0.14295000  1.0
  H  H11  1  0.15380000  0.85853000  0.85705000  1.0
  H  H12  1  0.48961000  0.84249000  0.49021000  1.0
  H  H13  1  0.51039000  0.15751000  0.50979000  1.0
  H  H14  1  0.52353000  0.21692000  0.79927000  1.0
  H  H15  1  0.47647000  0.78308000  0.20073000  1.0
  H  H16  1  0.98874000  0.13654000  0.88950000  1.0
  H  H17  1  0.01126000  0.86346000  0.11050000  1.0
  H  H18  1  0.54572000  0.95773000  0.37715000  1.0
  H  H19  1  0.45428000  0.04227000  0.62285000  1.0
  H  H20  1  0.51681000  0.11748000  0.26745000  1.0
  H  H21  1  0.48319000  0.88252000  0.73255000  1.0
  H  H22  1  0.44190000  0.51156000  0.83313000  1.0
  H  H23  1  0.55810000  0.48844000  0.16687000  1.0
  H  H24  1  0.87020000  0.96150000  0.75189000  1.0
  H  H25  1  0.12980000  0.03850000  0.24811000  1.0
  H  H26  1  0.87859000  0.36759000  0.86888000  1.0
  H  H27  1  0.12141000  0.63240000  0.13112000  1.0
  H  H28  1  0.51295000  0.25717000  0.93939000  1.0
  H  H29  1  0.48705000  0.74283000  0.06061000  1.0
  H  H30  1  0.49931000  0.63907000  0.85831000  1.0
  H  H31  1  0.50069000  0.36093000  0.14169000  1.0
  H  H32  1  0.80107000  0.26125000  0.25890000  1.0
  H  H33  1  0.19893000  0.73874000  0.74110000  1.0
  H  H34  1  0.09413000  0.24627000  0.36387000  1.0
  H  H35  1  0.90587000  0.75372000  0.63613000  1.0
  H  H36  1  0.67904000  0.74643000  0.92362000  1.0
  H  H37  1  0.32096000  0.25357000  0.07638000  1.0
  H  H38  1  0.94716000  0.16091000  0.62150000  1.0
  H  H39  1  0.05284000  0.83909000  0.37850000  1.0
  H  H40  1  0.83773000  0.15406000  0.70851000  1.0
  H  H41  1  0.16226000  0.84594000  0.29149000  1.0
  H  H42  1  0.24396000  0.59189000  0.58119000  1.0
  H  H43  1  0.75604000  0.40811000  0.41881000  1.0
  C  C44  1  0.65573000  0.65599000  0.50245000  1.0
  C  C45  1  0.34427000  0.34401000  0.49755000  1.0
  C  C46  1  0.14914000  0.27849000  0.75276000  1.0
  C  C47  1  0.85086000  0.72151000  0.24724000  1.0
  C  C48  1  0.26750000  0.53695000  0.69705000  1.0
  C  C49  1  0.73250000  0.46306000  0.30295000  1.0
  C  C50  1  0.28436000  0.05415000  0.02200000  1.0
  C  C51  1  0.71564000  0.94585000  0.97800000  1.0
  C  C52  1  0.56378000  0.01118000  0.91680000  1.0
  C  C53  1  0.43622000  0.98882000  0.08321000  1.0
  C  C54  1  0.35191000  0.06642000  0.93919000  1.0
  C  C55  1  0.64809000  0.93358000  0.06081000  1.0
  C  C56  1  0.21172000  0.56552000  0.95918000  1.0
  C  C57  1  0.78828000  0.43448000  0.04082000  1.0
  C  C58  1  0.82815000  0.00936000  0.43927000  1.0
  C  C59  1  0.17185000  0.99064000  0.56073000  1.0
  C  C60  1  0.84847000  0.91624000  0.50198000  1.0
  C  C61  1  0.15153000  0.08376000  0.49802000  1.0
  C  C62  1  0.10670000  0.50370000  0.92106000  1.0
  C  C63  1  0.89330000  0.49630000  0.07894000  1.0
  C  C64  1  0.07096000  0.10795000  0.04655000  1.0
  C  C65  1  0.92904000  0.89205000  0.95345000  1.0
  C  C66  1  0.10751000  0.52086000  0.77414000  1.0
  C  C67  1  0.89249000  0.47914000  0.22586000  1.0
  C  C68  1  0.62306000  0.01279000  0.83546000  1.0
  C  C69  1  0.37694000  0.98721000  0.16454000  1.0
  C  C70  1  0.80321000  0.74142000  0.50685000  1.0
  C  C71  1  0.19679000  0.25858000  0.49315000  1.0
  C  C72  1  0.01711000  0.90621000  0.56351000  1.0
  C  C73  1  0.98289000  0.09379000  0.43649000  1.0
  C  C74  1  0.01147000  0.09997000  0.12612000  1.0
  C  C75  1  0.98853000  0.90003000  0.87388000  1.0
  C  C76  1  0.69708000  0.83135000  0.50041000  1.0
  C  C77  1  0.30292000  0.16865000  0.49959000  1.0
  C  C78  1  0.31118000  0.20813000  0.81193000  1.0
  C  C79  1  0.68882000  0.79187000  0.18807000  1.0
  C  C80  1  0.20273000  0.13769000  0.87872000  1.0
  C  C81  1  0.79727000  0.86231000  0.12128000  1.0
  C  C82  1  0.89603000  0.43755000  0.96117000  1.0
  C  C83  1  0.10397000  0.56245000  0.03884000  1.0
  C  C84  1  0.66207000  0.02094000  0.37625000  1.0
  C  C85  1  0.33793000  0.97906000  0.62375000  1.0
  C  C86  1  0.64732000  0.11012000  0.31424000  1.0
  C  C87  1  0.35268000  0.88988000  0.68576000  1.0
  C  C88  1  0.22741000  0.51027000  0.84108000  1.0
  C  C89  1  0.77259000  0.48973000  0.15892000  1.0
  C  C90  1  0.82980000  0.95954000  0.81431000  1.0
  C  C91  1  0.17020000  0.04045000  0.18569000  1.0
  C  C92  1  0.79337000  0.37029000  0.92714000  1.0
  C  C93  1  0.20663000  0.62971000  0.07286000  1.0
  C  C94  1  0.58966000  0.30672000  0.96735000  1.0
  C  C95  1  0.41034000  0.69328000  0.03265000  1.0
  C  C96  1  0.41870000  0.63449000  0.91896000  1.0
  C  C97  1  0.58130000  0.36551000  0.08104000  1.0
  C  C98  1  0.80617000  0.19182000  0.30986000  1.0
  C  C99  1  0.19383000  0.80818000  0.69014000  1.0
  C  C100  1  0.97001000  0.18353000  0.36883000  1.0
  C  C101  1  0.02999000  0.81647000  0.63117000  1.0
  C  C102  1  0.51860000  0.69543000  0.95498000  1.0
  C  C103  1  0.48140000  0.30457000  0.04502000  1.0
  O  O104  1  0.78919000  0.58141000  0.49592000  1.0
  O  O105  1  0.21081000  0.41859000  0.50408000  1.0
  O  O106  1  0.40417000  0.66004000  0.50461000  1.0
  O  O107  1  0.59583000  0.33996000  0.49539000  1.0
  O  O108  1  0.26655000  0.33230000  0.68480000  1.0
  O  O109  1  0.73345000  0.66770000  0.31520000  1.0
  O  O110  1  0.51081000  0.53093000  0.68925000  1.0
  O  O111  1  0.48919000  0.46907000  0.31075000  1.0
  O  O112  1  0.12333000  0.56211000  0.63391000  1.0
  O  O113  1  0.87667000  0.43789000  0.36609000  1.0
  O  O114  1  0.90188000  0.28232000  0.76992000  1.0
  O  O115  1  0.09812000  0.71768000  0.23008000  1.0
  O  O116  1  0.79550000  0.17814000  0.65240000  1.0
  O  O117  1  0.20450000  0.82186000  0.34760000  1.0
