# generated using pymatgen
data_ZnH24C36NO4
_symmetry_space_group_name_H-M   'P 1'
_cell_length_a   10.27630000
_cell_length_b   14.32900000
_cell_length_c   14.35720000
_cell_angle_alpha   87.09890000
_cell_angle_beta   73.62210000
_cell_angle_gamma   77.11640000
_symmetry_Int_Tables_number   1
_chemical_formula_structural   ZnH24C36NO4
_chemical_formula_sum   'Zn2 H48 C72 N2 O8'
_cell_volume   1977.06895405
_cell_formula_units_Z   2
loop_
 _symmetry_equiv_pos_site_id
 _symmetry_equiv_pos_as_xyz
  1  'x, y, z'
loop_
 _atom_site_type_symbol
 _atom_site_label
 _atom_site_symmetry_multiplicity
 _atom_site_fract_x
 _atom_site_fract_y
 _atom_site_fract_z
 _atom_site_occupancy
  Zn  Zn0  1  0.86357000  0.98233000  0.00848000  1.0
  Zn  Zn1  1  0.10887000  0.01873000  0.02652000  1.0
  H  H2  1  0.77561000  0.23594000  0.82867000  1.0
  H  H3  1  0.04460000  0.79922000  0.75850000  1.0
  H  H4  1  0.55765000  0.18232000  0.24139000  1.0
  H  H5  1  0.42264000  0.77915000  0.83706000  1.0
  H  H6  1  0.22045000  0.17889000  0.75147000  1.0
  H  H7  1  0.94167000  0.27212000  0.19683000  1.0
  H  H8  1  0.15699000  0.81582000  0.24844000  1.0
  H  H9  1  0.78194000  0.74954000  0.22234000  1.0
  H  H10  1  0.86237000  0.65706000  0.81490000  1.0
  H  H11  1  0.44814000  0.81210000  0.33289000  1.0
  H  H12  1  0.54909000  0.21802000  0.66342000  1.0
  H  H13  1  0.43654000  0.34203000  0.79714000  1.0
  H  H14  1  0.17124000  0.20028000  0.32785000  1.0
  H  H15  1  0.53541000  0.68436000  0.20271000  1.0
  H  H16  1  0.86117000  0.78515000  0.69015000  1.0
  H  H17  1  0.18025000  0.33118000  0.20270000  1.0
  H  H18  1  0.77434000  0.36205000  0.70220000  1.0
  H  H19  1  0.16845000  0.68144000  0.62448000  1.0
  H  H20  1  0.43660000  0.31545000  0.36157000  1.0
  H  H21  1  0.54847000  0.65918000  0.70367000  1.0
  H  H22  1  0.22181000  0.30409000  0.62453000  1.0
  H  H23  1  0.82344000  0.40415000  0.31853000  1.0
  H  H24  1  0.17720000  0.68543000  0.36875000  1.0
  H  H25  1  0.79604000  0.62273000  0.34585000  1.0
  H  H26  1  0.92247000  0.48700000  0.76443000  1.0
  H  H27  1  0.40058000  0.76770000  0.50513000  1.0
  H  H28  1  0.60526000  0.26548000  0.49397000  1.0
  H  H29  1  0.38561000  0.51303000  0.75642000  1.0
  H  H30  1  0.08606000  0.24136000  0.50112000  1.0
  H  H31  1  0.58714000  0.51485000  0.24605000  1.0
  H  H32  1  0.91622000  0.74460000  0.51760000  1.0
  H  H33  1  0.09642000  0.49966000  0.25468000  1.0
  H  H34  1  0.62388000  0.83752000  0.02222000  1.0
  H  H35  1  0.58680000  0.95294000  0.19845000  1.0
  H  H36  1  0.85134000  0.94936000  0.81979000  1.0
  H  H37  1  0.41699000  0.04593000  0.77652000  1.0
  H  H38  1  0.34750000  0.93123000  0.26406000  1.0
  H  H39  1  0.36505000  0.86538000  0.05880000  1.0
  H  H40  1  0.67502000  0.13530000  0.75289000  1.0
  H  H41  1  0.40846000  0.04978000  0.94803000  1.0
  H  H42  1  0.65249000  0.82113000  0.87512000  1.0
  H  H43  1  0.61835000  0.79312000  0.13986000  1.0
  H  H44  1  0.48676000  0.14801000  0.92782000  1.0
  H  H45  1  0.40442000  0.17014000  0.79543000  1.0
  H  H46  1  0.26412000  0.18988000  0.18013000  1.0
  H  H47  1  0.36857000  0.78917000  0.15978000  1.0
  H  H48  1  0.56576000  0.87844000  0.70353000  1.0
  H  H49  1  0.51235000  0.18323000  0.06262000  1.0
  C  C50  1  0.99833000  0.41884000  0.58071000  1.0
  C  C51  1  0.43641000  0.58792000  0.57602000  1.0
  C  C52  1  0.55497000  0.44403000  0.42569000  1.0
  C  C53  1  0.99623000  0.56712000  0.43870000  1.0
  C  C54  1  0.87295000  0.25106000  0.78308000  1.0
  C  C55  1  0.15533000  0.76914000  0.74552000  1.0
  C  C56  1  0.61494000  0.23173000  0.25820000  1.0
  C  C57  1  0.36776000  0.75746000  0.78987000  1.0
  C  C58  1  0.12330000  0.21922000  0.73993000  1.0
  C  C59  1  0.83101000  0.28260000  0.23339000  1.0
  C  C60  1  0.07937000  0.77224000  0.26955000  1.0
  C  C61  1  0.86808000  0.73560000  0.25487000  1.0
  C  C62  1  0.88679000  0.63771000  0.73840000  1.0
  C  C63  1  0.46668000  0.73679000  0.35255000  1.0
  C  C64  1  0.52505000  0.29363000  0.64637000  1.0
  C  C65  1  0.46242000  0.36381000  0.72136000  1.0
  C  C66  1  0.13688000  0.27534000  0.35035000  1.0
  C  C67  1  0.51814000  0.66482000  0.27875000  1.0
  C  C68  1  0.88629000  0.71057000  0.66767000  1.0
  C  C69  1  0.14095000  0.34887000  0.28007000  1.0
  C  C70  1  0.87261000  0.32176000  0.71264000  1.0
  C  C71  1  0.22519000  0.70300000  0.67046000  1.0
  C  C72  1  0.54761000  0.30613000  0.32554000  1.0
  C  C73  1  0.43789000  0.69034000  0.71514000  1.0
  C  C74  1  0.12349000  0.28914000  0.66885000  1.0
  C  C75  1  0.76424000  0.35644000  0.30098000  1.0
  C  C76  1  0.08968000  0.69968000  0.33730000  1.0
  C  C77  1  0.87688000  0.66396000  0.32372000  1.0
  C  C78  1  0.99822000  0.19939000  0.79813000  1.0
  C  C79  1  0.22534000  0.79752000  0.80629000  1.0
  C  C80  1  0.75757000  0.21887000  0.21193000  1.0
  C  C81  1  0.96940000  0.79060000  0.22668000  1.0
  C  C82  1  0.92058000  0.54315000  0.71046000  1.0
  C  C83  1  0.44070000  0.71223000  0.44876000  1.0
  C  C84  1  0.55660000  0.31983000  0.55095000  1.0
  C  C85  1  0.43382000  0.45919000  0.69887000  1.0
  C  C86  1  0.08905000  0.29805000  0.44754000  1.0
  C  C87  1  0.54677000  0.57009000  0.30265000  1.0
  C  C88  1  0.91758000  0.68797000  0.57112000  1.0
  C  C89  1  0.09413000  0.44328000  0.30862000  1.0
  C  C90  1  0.99803000  0.34200000  0.65461000  1.0
  C  C91  1  0.36731000  0.66199000  0.65430000  1.0
  C  C92  1  0.62187000  0.36868000  0.34877000  1.0
  C  C93  1  0.98833000  0.64436000  0.36544000  1.0
  C  C94  1  0.95738000  0.51597000  0.61037000  1.0
  C  C95  1  0.46584000  0.61431000  0.47726000  1.0
  C  C96  1  0.52631000  0.41776000  0.52417000  1.0
  C  C97  1  0.46534000  0.49006000  0.60030000  1.0
  C  C98  1  0.04321000  0.39526000  0.48074000  1.0
  C  C99  1  0.52394000  0.54139000  0.40152000  1.0
  C  C100  1  0.95633000  0.59069000  0.53847000  1.0
  C  C101  1  0.04316000  0.47013000  0.40899000  1.0
  C  C102  1  0.99872000  0.12532000  0.87615000  1.0
  C  C103  1  0.14740000  0.86947000  0.88691000  1.0
  C  C104  1  0.83413000  0.13794000  0.14126000  1.0
  C  C105  1  0.96236000  0.86676000  0.15097000  1.0
  C  C106  1  0.67473000  0.87456000  0.81977000  1.0
  C  C107  1  0.53435000  0.94734000  0.14248000  1.0
  C  C108  1  0.63636000  0.01776000  0.90580000  1.0
  C  C109  1  0.46962000  0.09814000  0.79483000  1.0
  C  C110  1  0.29616000  0.03307000  0.15755000  1.0
  C  C111  1  0.40554000  0.85071000  0.12228000  1.0
  C  C112  1  0.68766000  0.99031000  0.73060000  1.0
  C  C113  1  0.47770000  0.12062000  0.09851000  1.0
  C  C114  1  0.34126000  0.12460000  0.15598000  1.0
  C  C115  1  0.61856000  0.08379000  0.73786000  1.0
  C  C116  1  0.37578000  0.94194000  0.18521000  1.0
  C  C117  1  0.56376000  0.84624000  0.09855000  1.0
  C  C118  1  0.74231000  0.96060000  0.81992000  1.0
  C  C119  1  0.49373000  0.07748000  0.89824000  1.0
  C  C120  1  0.55848000  0.02926000  0.07524000  1.0
  C  C121  1  0.62881000  0.90521000  0.74104000  1.0
  N  N122  1  0.66415000  0.00469000  0.98941000  1.0
  N  N123  1  0.23152000  0.05614000  0.09504000  1.0
  O  O124  1  0.88516000  0.09826000  0.91399000  1.0
  O  O125  1  0.01581000  0.89554000  0.90068000  1.0
  O  O126  1  0.76855000  0.07621000  0.12786000  1.0
  O  O127  1  0.21650000  0.90002000  0.93526000  1.0
  O  O128  1  0.11168000  0.09496000  0.89929000  1.0
  O  O129  1  0.96118000  0.13575000  0.09898000  1.0
  O  O130  1  0.04846000  0.92108000  0.13733000  1.0
  O  O131  1  0.87112000  0.87154000  0.10492000  1.0
