# generated using pymatgen
data_MnH8(C5N7)2
_symmetry_space_group_name_H-M   'P 1'
_cell_length_a   8.32950000
_cell_length_b   11.60900000
_cell_length_c   11.63200000
_cell_angle_alpha   90.49580000
_cell_angle_beta   92.11190000
_cell_angle_gamma   98.74970000
_symmetry_Int_Tables_number   1
_chemical_formula_structural   MnH8(C5N7)2
_chemical_formula_sum   'Mn3 H24 C30 N42'
_cell_volume   1110.82068890
_cell_formula_units_Z   3
loop_
 _symmetry_equiv_pos_site_id
 _symmetry_equiv_pos_as_xyz
  1  'x, y, z'
loop_
 _atom_site_type_symbol
 _atom_site_label
 _atom_site_symmetry_multiplicity
 _atom_site_fract_x
 _atom_site_fract_y
 _atom_site_fract_z
 _atom_site_occupancy
  Mn  Mn0  1  0.50649000  0.52011000  0.85593000  1.0
  Mn  Mn1  1  0.49272000  0.47994000  0.14663000  1.0
  Mn  Mn2  1  0.99968000  0.49979000  0.49780000  1.0
  H  H3  1  0.13138000  0.46044000  0.89898000  1.0
  H  H4  1  0.86847000  0.53968000  0.10089000  1.0
  H  H5  1  0.88751000  0.32050000  0.83079000  1.0
  H  H6  1  0.11248000  0.67963000  0.16894000  1.0
  H  H7  1  0.21670000  0.11000000  0.68517000  1.0
  H  H8  1  0.78361000  0.89016000  0.31479000  1.0
  H  H9  1  0.44571000  0.25896000  0.75911000  1.0
  H  H10  1  0.55448000  0.74124000  0.24097000  1.0
  H  H11  1  0.55541000  0.79446000  0.88139000  1.0
  H  H12  1  0.44459000  0.20549000  0.11874000  1.0
  H  H13  1  0.77629000  0.96503000  0.89536000  1.0
  H  H14  1  0.22374000  0.03496000  0.10452000  1.0
  H  H15  1  0.12066000  0.72493000  0.85612000  1.0
  H  H16  1  0.87936000  0.27499000  0.14353000  1.0
  H  H17  1  0.88528000  0.56447000  0.84329000  1.0
  H  H18  1  0.11455000  0.43547000  0.15644000  1.0
  H  H19  1  0.95345000  0.23790000  0.44447000  1.0
  H  H20  1  0.04666000  0.76185000  0.55529000  1.0
  H  H21  1  0.11265000  0.07964000  0.39345000  1.0
  H  H22  1  0.88756000  0.92004000  0.60675000  1.0
  H  H23  1  0.54863000  0.31704000  0.49310000  1.0
  H  H24  1  0.45140000  0.68279000  0.50733000  1.0
  H  H25  1  0.37062000  0.46300000  0.54352000  1.0
  H  H26  1  0.62920000  0.53687000  0.45658000  1.0
  C  C27  1  0.14460000  0.38207000  0.84995000  1.0
  C  C28  1  0.85537000  0.61808000  0.14990000  1.0
  C  C29  1  0.00922000  0.30453000  0.81182000  1.0
  C  C30  1  0.99082000  0.69558000  0.18798000  1.0
  C  C31  1  0.03380000  0.20531000  0.74955000  1.0
  C  C32  1  0.96639000  0.79480000  0.25031000  1.0
  C  C33  1  0.19334000  0.18665000  0.73243000  1.0
  C  C34  1  0.80689000  0.81353000  0.26747000  1.0
  C  C35  1  0.32053000  0.26967000  0.77323000  1.0
  C  C36  1  0.67963000  0.73054000  0.22676000  1.0
  C  C37  1  0.68212000  0.78201000  0.87759000  1.0
  C  C38  1  0.31789000  0.21793000  0.12252000  1.0
  C  C39  1  0.80495000  0.87723000  0.88526000  1.0
  C  C40  1  0.19506000  0.12272000  0.11472000  1.0
  C  C41  1  0.96664000  0.85827000  0.87792000  1.0
  C  C42  1  0.03336000  0.14165000  0.12200000  1.0
  C  C43  1  0.99733000  0.74382000  0.86272000  1.0
  C  C44  1  0.00267000  0.25610000  0.13713000  1.0
  C  C45  1  0.86615000  0.65436000  0.85649000  1.0
  C  C46  1  0.13376000  0.34557000  0.14342000  1.0
  C  C47  1  0.08536000  0.25180000  0.45418000  1.0
  C  C48  1  0.91474000  0.74793000  0.54566000  1.0
  C  C49  1  0.17326000  0.16414000  0.42566000  1.0
  C  C50  1  0.82690000  0.83560000  0.57441000  1.0
  C  C51  1  0.34299000  0.18758000  0.43749000  1.0
  C  C52  1  0.65717000  0.81227000  0.56266000  1.0
  C  C53  1  0.41711000  0.29632000  0.48109000  1.0
  C  C54  1  0.58293000  0.70352000  0.51912000  1.0
  C  C55  1  0.31796000  0.37760000  0.50842000  1.0
  C  C56  1  0.68199000  0.62226000  0.49158000  1.0
  N  N57  1  0.61562000  0.42137000  0.99549000  1.0
  N  N58  1  0.38332000  0.57873000  0.00556000  1.0
  N  N59  1  0.64669000  0.32494000  0.97628000  1.0
  N  N60  1  0.35286000  0.67536000  0.02460000  1.0
  N  N61  1  0.67791000  0.23213000  0.95642000  1.0
  N  N62  1  0.32218000  0.76832000  0.04446000  1.0
  N  N63  1  0.37486000  0.62411000  0.74071000  1.0
  N  N64  1  0.62372000  0.37757000  0.26012000  1.0
  N  N65  1  0.24117000  0.59509000  0.70080000  1.0
  N  N66  1  0.75807000  0.40561000  0.29925000  1.0
  N  N67  1  0.10676000  0.56688000  0.66365000  1.0
  N  N68  1  0.89318000  0.43325000  0.33558000  1.0
  N  N69  1  0.64365000  0.43509000  0.73350000  1.0
  N  N70  1  0.35866000  0.56519000  0.26636000  1.0
  N  N71  1  0.72592000  0.41326000  0.65847000  1.0
  N  N72  1  0.27482000  0.58618000  0.34086000  1.0
  N  N73  1  0.80587000  0.38711000  0.58278000  1.0
  N  N74  1  0.19330000  0.61157000  0.41600000  1.0
  N  N75  1  0.29866000  0.36766000  0.82993000  1.0
  N  N76  1  0.70140000  0.63253000  0.17007000  1.0
  N  N77  1  0.90873000  0.12197000  0.70184000  1.0
  N  N78  1  0.09150000  0.87806000  0.29804000  1.0
  N  N79  1  0.76609000  0.13990000  0.70082000  1.0
  N  N80  1  0.23409000  0.86003000  0.29925000  1.0
  N  N81  1  0.62900000  0.14065000  0.69078000  1.0
  N  N82  1  0.37113000  0.85914000  0.30946000  1.0
  N  N83  1  0.71053000  0.67142000  0.86405000  1.0
  N  N84  1  0.28940000  0.32850000  0.13608000  1.0
  N  N85  1  0.08693000  0.95671000  0.88508000  1.0
  N  N86  1  0.91309000  0.04324000  0.11487000  1.0
  N  N87  1  0.23126000  0.94867000  0.87101000  1.0
  N  N88  1  0.76876000  0.05125000  0.12894000  1.0
  N  N89  1  0.36866000  0.95921000  0.85906000  1.0
  N  N90  1  0.63137000  0.04079000  0.14092000  1.0
  N  N91  1  0.15497000  0.35763000  0.49390000  1.0
  N  N92  1  0.84501000  0.64220000  0.50576000  1.0
  N  N93  1  0.42808000  0.09810000  0.40470000  1.0
  N  N94  1  0.57214000  0.90179000  0.59541000  1.0
  N  N95  1  0.57770000  0.11200000  0.40640000  1.0
  N  N96  1  0.42250000  0.88795000  0.59362000  1.0
  N  N97  1  0.71412000  0.10795000  0.40208000  1.0
  N  N98  1  0.28608000  0.89203000  0.59776000  1.0
