# generated using pymatgen
data_CuPH17C20BrNO3
_symmetry_space_group_name_H-M   'P 1'
_cell_length_a   8.34934000
_cell_length_b   9.90242000
_cell_length_c   13.69690000
_cell_angle_alpha   95.84310000
_cell_angle_beta   103.78200000
_cell_angle_gamma   111.41400000
_symmetry_Int_Tables_number   1
_chemical_formula_structural   CuPH17C20BrNO3
_chemical_formula_sum   'Cu2 P2 H34 C40 Br2 N2 O6'
_cell_volume   1001.34493518
_cell_formula_units_Z   2
loop_
 _symmetry_equiv_pos_site_id
 _symmetry_equiv_pos_as_xyz
  1  'x, y, z'
loop_
 _atom_site_type_symbol
 _atom_site_label
 _atom_site_symmetry_multiplicity
 _atom_site_fract_x
 _atom_site_fract_y
 _atom_site_fract_z
 _atom_site_occupancy
  Cu  Cu0  1  0.15720000  0.53443000  0.57848000  1.0
  Cu  Cu1  1  0.84278000  0.46555000  0.42152000  1.0
  P  P2  1  0.22688000  0.61872000  0.74034000  1.0
  P  P3  1  0.77310000  0.38128000  0.25965000  1.0
  H  H4  1  0.37198000  0.67252000  0.44070000  1.0
  H  H5  1  0.62804000  0.32748000  0.55931000  1.0
  H  H6  1  0.63701000  0.65368000  0.39005000  1.0
  H  H7  1  0.36300000  0.34632000  0.60996000  1.0
  H  H8  1  0.92131000  0.54852000  0.88547000  1.0
  H  H9  1  0.07870000  0.45149000  0.11452000  1.0
  H  H10  1  0.91997000  0.64721000  0.06116000  1.0
  H  H11  1  0.08003000  0.35278000  0.93884000  1.0
  H  H12  1  0.11837000  0.91021000  0.14796000  1.0
  H  H13  1  0.88163000  0.08979000  0.85204000  1.0
  H  H14  1  0.32311000  0.07069000  0.06114000  1.0
  H  H15  1  0.67688000  0.92931000  0.93885000  1.0
  H  H16  1  0.32450000  0.97012000  0.88764000  1.0
  H  H17  1  0.67550000  0.02989000  0.11236000  1.0
  H  H18  1  0.55381000  0.56794000  0.92311000  1.0
  H  H19  1  0.44619000  0.43207000  0.07690000  1.0
  H  H20  1  0.69868000  0.38557000  0.92171000  1.0
  H  H21  1  0.30132000  0.61443000  0.07829000  1.0
  H  H22  1  0.53041000  0.13584000  0.81087000  1.0
  H  H23  1  0.46959000  0.86416000  0.18913000  1.0
  H  H24  1  0.20841000  0.05863000  0.70632000  1.0
  H  H25  1  0.79158000  0.94137000  0.29368000  1.0
  H  H26  1  0.06267000  0.23818000  0.71245000  1.0
  H  H27  1  0.93733000  0.76183000  0.28755000  1.0
  H  H28  1  0.39655000  0.92669000  0.67593000  1.0
  H  H29  1  0.60346000  0.07330000  0.32407000  1.0
  H  H30  1  0.60896000  0.05082000  0.57930000  1.0
  H  H31  1  0.39104000  0.94918000  0.42070000  1.0
  H  H32  1  0.86869000  0.98603000  0.57901000  1.0
  H  H33  1  0.13132000  0.01397000  0.42099000  1.0
  H  H34  1  0.92273000  0.80115000  0.67901000  1.0
  H  H35  1  0.07728000  0.19885000  0.32099000  1.0
  H  H36  1  0.71821000  0.68650000  0.78158000  1.0
  H  H37  1  0.28179000  0.31350000  0.21843000  1.0
  C  C38  1  0.56982000  0.40450000  0.53315000  1.0
  C  C39  1  0.43019000  0.59550000  0.46685000  1.0
  C  C40  1  0.42470000  0.41513000  0.56070000  1.0
  C  C41  1  0.57530000  0.58486000  0.43930000  1.0
  C  C42  1  0.12170000  0.75479000  0.87828000  1.0
  C  C43  1  0.87830000  0.24522000  0.12171000  1.0
  C  C44  1  0.00798000  0.66236000  0.92562000  1.0
  C  C45  1  0.99202000  0.33764000  0.07438000  1.0
  C  C46  1  0.00806000  0.71873000  0.02335000  1.0
  C  C47  1  0.99194000  0.28127000  0.97665000  1.0
  C  C48  1  0.12033000  0.86581000  0.07234000  1.0
  C  C49  1  0.87967000  0.13419000  0.92765000  1.0
  C  C50  1  0.23458000  0.95605000  0.02377000  1.0
  C  C51  1  0.76542000  0.04395000  0.97623000  1.0
  C  C52  1  0.23658000  0.90070000  0.92634000  1.0
  C  C53  1  0.76342000  0.09930000  0.07366000  1.0
  C  C54  1  0.30152000  0.41108000  0.81815000  1.0
  C  C55  1  0.69849000  0.58893000  0.18185000  1.0
  C  C56  1  0.48079000  0.45609000  0.87635000  1.0
  C  C57  1  0.51921000  0.54391000  0.12365000  1.0
  C  C58  1  0.56090000  0.35469000  0.87410000  1.0
  C  C59  1  0.43910000  0.64531000  0.12590000  1.0
  C  C60  1  0.46455000  0.21253000  0.81240000  1.0
  C  C61  1  0.53545000  0.78747000  0.18760000  1.0
  C  C62  1  0.28535000  0.16975000  0.75421000  1.0
  C  C63  1  0.71464000  0.83025000  0.24579000  1.0
  C  C64  1  0.20199000  0.26874000  0.75741000  1.0
  C  C65  1  0.79801000  0.73126000  0.24259000  1.0
  C  C66  1  0.54823000  0.80186000  0.73466000  1.0
  C  C67  1  0.45177000  0.19814000  0.26533000  1.0
  C  C68  1  0.51450000  0.90283000  0.67785000  1.0
  C  C69  1  0.48550000  0.09717000  0.32215000  1.0
  C  C70  1  0.63204000  0.97003000  0.62283000  1.0
  C  C71  1  0.36796000  0.02997000  0.37717000  1.0
  C  C72  1  0.77900000  0.93406000  0.62314000  1.0
  C  C73  1  0.22100000  0.06594000  0.37687000  1.0
  C  C74  1  0.81006000  0.83155000  0.67964000  1.0
  C  C75  1  0.18995000  0.16845000  0.32037000  1.0
  C  C76  1  0.69528000  0.76569000  0.73636000  1.0
  C  C77  1  0.30472000  0.23431000  0.26364000  1.0
  Br  Br78  1  0.91772000  0.27994000  0.51338000  1.0
  Br  Br79  1  0.08227000  0.72004000  0.48661000  1.0
  N  N80  1  0.64583000  0.48911000  0.47212000  1.0
  N  N81  1  0.35418000  0.51089000  0.52788000  1.0
  O  O82  1  0.10993000  0.70166000  0.77647000  1.0
  O  O83  1  0.89008000  0.29834000  0.22353000  1.0
  O  O84  1  0.21649000  0.50931000  0.82329000  1.0
  O  O85  1  0.78350000  0.49069000  0.17671000  1.0
  O  O86  1  0.43808000  0.73763000  0.79461000  1.0
  O  O87  1  0.56192000  0.26237000  0.20539000  1.0
