# generated using pymatgen
data_Cu3H24C20N8O5
_symmetry_space_group_name_H-M   'P 1'
_cell_length_a   11.14410000
_cell_length_b   11.22640000
_cell_length_c   12.08900000
_cell_angle_alpha   63.23930000
_cell_angle_beta   89.75460000
_cell_angle_gamma   67.24630000
_symmetry_Int_Tables_number   1
_chemical_formula_structural   Cu3H24C20N8O5
_chemical_formula_sum   'Cu6 H48 C40 N16 O10'
_cell_volume   1218.55788072
_cell_formula_units_Z   2
loop_
 _symmetry_equiv_pos_site_id
 _symmetry_equiv_pos_as_xyz
  1  'x, y, z'
loop_
 _atom_site_type_symbol
 _atom_site_label
 _atom_site_symmetry_multiplicity
 _atom_site_fract_x
 _atom_site_fract_y
 _atom_site_fract_z
 _atom_site_occupancy
  Cu  Cu0  1  0.06898000  0.53365000  0.60725000  1.0
  Cu  Cu1  1  0.93097000  0.46503000  0.39406000  1.0
  Cu  Cu2  1  0.92434000  0.54975000  0.84964000  1.0
  Cu  Cu3  1  0.07413000  0.44986000  0.14842000  1.0
  Cu  Cu4  1  0.85983000  0.86039000  0.57189000  1.0
  Cu  Cu5  1  0.14063000  0.14118000  0.42942000  1.0
  H  H6  1  0.60799000  0.95950000  0.42755000  1.0
  H  H7  1  0.39411000  0.03861000  0.57436000  1.0
  H  H8  1  0.63214000  0.27793000  0.13114000  1.0
  H  H9  1  0.36881000  0.71983000  0.86980000  1.0
  H  H10  1  0.93337000  0.07312000  0.32357000  1.0
  H  H11  1  0.06641000  0.92719000  0.67837000  1.0
  H  H12  1  0.12876000  0.94790000  0.21723000  1.0
  H  H13  1  0.87098000  0.05344000  0.78400000  1.0
  H  H14  1  0.20550000  0.64824000  0.36745000  1.0
  H  H15  1  0.79284000  0.35261000  0.63248000  1.0
  H  H16  1  0.51332000  0.41349000  0.29537000  1.0
  H  H17  1  0.48866000  0.58516000  0.70523000  1.0
  H  H18  1  0.77201000  0.22621000  0.42945000  1.0
  H  H19  1  0.22987000  0.77288000  0.57117000  1.0
  H  H20  1  0.72433000  0.69675000  0.99119000  1.0
  H  H21  1  0.27005000  0.30323000  0.00601000  1.0
  H  H22  1  0.40988000  0.22358000  0.30020000  1.0
  H  H23  1  0.59202000  0.77459000  0.70139000  1.0
  H  H24  1  0.17700000  0.18172000  0.71272000  1.0
  H  H25  1  0.82607000  0.81721000  0.28803000  1.0
  H  H26  1  0.56922000  0.99814000  0.86944000  1.0
  H  H27  1  0.43006000  0.00301000  0.12957000  1.0
  H  H28  1  0.00418000  0.20627000  0.02681000  1.0
  H  H29  1  0.99225000  0.79245000  0.97123000  1.0
  H  H30  1  0.62562000  0.52960000  0.96047000  1.0
  H  H31  1  0.37407000  0.46911000  0.04047000  1.0
  H  H32  1  0.73778000  0.43195000  0.89440000  1.0
  H  H33  1  0.26228000  0.56730000  0.10643000  1.0
  H  H34  1  0.14130000  0.00821000  0.94499000  1.0
  H  H35  1  0.85917000  0.99101000  0.05405000  1.0
  H  H36  1  0.64163000  0.09356000  0.63638000  1.0
  H  H37  1  0.36222000  0.90803000  0.36498000  1.0
  H  H38  1  0.34010000  0.52918000  0.57898000  1.0
  H  H39  1  0.65940000  0.47211000  0.42049000  1.0
  H  H40  1  0.42084000  0.19537000  0.68591000  1.0
  H  H41  1  0.57959000  0.80585000  0.31288000  1.0
  H  H42  1  0.45341000  0.30997000  0.54391000  1.0
  H  H43  1  0.54606000  0.69193000  0.45465000  1.0
  H  H44  1  0.37844000  0.27352000  0.84442000  1.0
  H  H45  1  0.62262000  0.72682000  0.15501000  1.0
  H  H46  1  0.34502000  0.46659000  0.80131000  1.0
  H  H47  1  0.65582000  0.53368000  0.19849000  1.0
  H  H48  1  0.65844000  0.25957000  0.88382000  1.0
  H  H49  1  0.34106000  0.74037000  0.11611000  1.0
  H  H50  1  0.59811000  0.15289000  0.02077000  1.0
  H  H51  1  0.40219000  0.84600000  0.97931000  1.0
  H  H52  1  0.05965000  0.66230000  0.73381000  1.0
  H  H53  1  0.94006000  0.33947000  0.26502000  1.0
  C  C54  1  0.65434000  0.30508000  0.03696000  1.0
  C  C55  1  0.34610000  0.69346000  0.96373000  1.0
  C  C56  1  0.25939000  0.32410000  0.52932000  1.0
  C  C57  1  0.74028000  0.67690000  0.47016000  1.0
  C  C58  1  0.99551000  0.95735000  0.35431000  1.0
  C  C59  1  0.00394000  0.04312000  0.64683000  1.0
  C  C60  1  0.81783000  0.39603000  0.07441000  1.0
  C  C61  1  0.18205000  0.60340000  0.92639000  1.0
  C  C62  1  0.09362000  0.89244000  0.30045000  1.0
  C  C63  1  0.90574000  0.10851000  0.70036000  1.0
  C  C64  1  0.13497000  0.74047000  0.37660000  1.0
  C  C65  1  0.86369000  0.26039000  0.62348000  1.0
  C  C66  1  0.56213000  0.29393000  0.34001000  1.0
  C  C67  1  0.43975000  0.70470000  0.66094000  1.0
  C  C68  1  0.69434000  0.20010000  0.40738000  1.0
  C  C69  1  0.30752000  0.79884000  0.59352000  1.0
  C  C70  1  0.71627000  0.78003000  0.89612000  1.0
  C  C71  1  0.28062000  0.22039000  0.10208000  1.0
  C  C72  1  0.50823000  0.20098000  0.33960000  1.0
  C  C73  1  0.49365000  0.79748000  0.66175000  1.0
  C  C74  1  0.13091000  0.21374000  0.78010000  1.0
  C  C75  1  0.87071000  0.78548000  0.22002000  1.0
  C  C76  1  0.63857000  0.93284000  0.83311000  1.0
  C  C77  1  0.36069000  0.06811000  0.16604000  1.0
  C  C78  1  0.03932000  0.22605000  0.93930000  1.0
  C  C79  1  0.95861000  0.77313000  0.05933000  1.0
  C  C80  1  0.70571000  0.42032000  0.98341000  1.0
  C  C81  1  0.29431000  0.57860000  0.01746000  1.0
  C  C82  1  0.11074000  0.12648000  0.89803000  1.0
  C  C83  1  0.88949000  0.87278000  0.10126000  1.0
  C  C84  1  0.67435000  0.98277000  0.71510000  1.0
  C  C85  1  0.32718000  0.01848000  0.28520000  1.0
  C  C86  1  0.35834000  0.41718000  0.65032000  1.0
  C  C87  1  0.64157000  0.58390000  0.34899000  1.0
  C  C88  1  0.37978000  0.30819000  0.60518000  1.0
  C  C89  1  0.62008000  0.69318000  0.39380000  1.0
  C  C90  1  0.36174000  0.38424000  0.77157000  1.0
  C  C91  1  0.63882000  0.61631000  0.22793000  1.0
  C  C92  1  0.63605000  0.23609000  0.97751000  1.0
  C  C93  1  0.36405000  0.76303000  0.02275000  1.0
  N  N94  1  0.98162000  0.84887000  0.45721000  1.0
  N  N95  1  0.01786000  0.15067000  0.54325000  1.0
  N  N96  1  0.07500000  0.35670000  0.75284000  1.0
  N  N97  1  0.92537000  0.64266000  0.24669000  1.0
  N  N98  1  0.60507000  0.06181000  0.40342000  1.0
  N  N99  1  0.39673000  0.93668000  0.59811000  1.0
  N  N100  1  0.06679000  0.71650000  0.47104000  1.0
  N  N101  1  0.93151000  0.28434000  0.52876000  1.0
  N  N102  1  0.71893000  0.05920000  0.44535000  1.0
  N  N103  1  0.28281000  0.93965000  0.55585000  1.0
  N  N104  1  0.76762000  0.86628000  0.70933000  1.0
  N  N105  1  0.23307000  0.13434000  0.29103000  1.0
  N  N106  1  0.01793000  0.36442000  0.85089000  1.0
  N  N107  1  0.97976000  0.63503000  0.14853000  1.0
  N  N108  1  0.79255000  0.74228000  0.81959000  1.0
  N  N109  1  0.20540000  0.25778000  0.17943000  1.0
  O  O110  1  0.14321000  0.42582000  0.50773000  1.0
  O  O111  1  0.85654000  0.57558000  0.49138000  1.0
  O  O112  1  0.82694000  0.32700000  0.19235000  1.0
  O  O113  1  0.17335000  0.67190000  0.80857000  1.0
  O  O114  1  0.89828000  0.45324000  0.02696000  1.0
  O  O115  1  0.10055000  0.54738000  0.97332000  1.0
  O  O116  1  0.28235000  0.23143000  0.49078000  1.0
  O  O117  1  0.71726000  0.76880000  0.50959000  1.0
  O  O118  1  0.98387000  0.65551000  0.69272000  1.0
  O  O119  1  0.01501000  0.35023000  0.30299000  1.0
