# generated using pymatgen
data_Mn3P2H8(C3O5)2
_symmetry_space_group_name_H-M   'P 1'
_cell_length_a   8.20598000
_cell_length_b   9.17297000
_cell_length_c   9.35977000
_cell_angle_alpha   90.00000000
_cell_angle_beta   90.00000000
_cell_angle_gamma   104.70800000
_symmetry_Int_Tables_number   1
_chemical_formula_structural   Mn3P2H8(C3O5)2
_chemical_formula_sum   'Mn6 P4 H16 C12 O20'
_cell_volume   681.45377326
_cell_formula_units_Z   2
loop_
 _symmetry_equiv_pos_site_id
 _symmetry_equiv_pos_as_xyz
  1  'x, y, z'
loop_
 _atom_site_type_symbol
 _atom_site_label
 _atom_site_symmetry_multiplicity
 _atom_site_fract_x
 _atom_site_fract_y
 _atom_site_fract_z
 _atom_site_occupancy
  Mn  Mn0  1  0.00000000  0.00000000  0.00000000  1.0
  Mn  Mn1  1  0.00000000  0.50000000  0.50000000  1.0
  Mn  Mn2  1  0.92732000  0.88709000  0.63410000  1.0
  Mn  Mn3  1  0.92732000  0.38709000  0.86590000  1.0
  Mn  Mn4  1  0.07268000  0.11291000  0.36590000  1.0
  Mn  Mn5  1  0.07268000  0.61291000  0.13410000  1.0
  P  P6  1  0.12190000  0.73187000  0.78636000  1.0
  P  P7  1  0.12191000  0.23188000  0.71364000  1.0
  P  P8  1  0.87810000  0.26812000  0.21364000  1.0
  P  P9  1  0.87810000  0.76813000  0.28636000  1.0
  H  H10  1  0.35826000  0.64703000  0.71045000  1.0
  H  H11  1  0.35826000  0.14703000  0.78955000  1.0
  H  H12  1  0.64174000  0.35297000  0.28955000  1.0
  H  H13  1  0.64174000  0.85297000  0.21045000  1.0
  H  H14  1  0.36704000  0.83078000  0.65074000  1.0
  H  H15  1  0.36704000  0.33078000  0.84926000  1.0
  H  H16  1  0.63296000  0.16922000  0.34926000  1.0
  H  H17  1  0.63296000  0.66922000  0.15075000  1.0
  H  H18  1  0.43666000  0.74784000  0.96195000  1.0
  H  H19  1  0.43666000  0.24784000  0.53805000  1.0
  H  H20  1  0.56334000  0.25216000  0.03805000  1.0
  H  H21  1  0.56334000  0.75216000  0.46195000  1.0
  H  H22  1  0.42576000  0.92760000  0.90791000  1.0
  H  H23  1  0.42576000  0.42760000  0.59209000  1.0
  H  H24  1  0.57424000  0.07240000  0.09209000  1.0
  H  H25  1  0.57424000  0.57240000  0.40791000  1.0
  C  C26  1  0.34134000  0.75673000  0.74486000  1.0
  C  C27  1  0.34134000  0.25673000  0.75514000  1.0
  C  C28  1  0.65866000  0.24327000  0.25514000  1.0
  C  C29  1  0.65866000  0.74327000  0.24486000  1.0
  C  C30  1  0.45594000  0.82393000  0.86905000  1.0
  C  C31  1  0.45594000  0.32393000  0.63095000  1.0
  C  C32  1  0.54406000  0.17607000  0.13095000  1.0
  C  C33  1  0.54406000  0.67607000  0.36905000  1.0
  C  C34  1  0.64320000  0.86535000  0.83557000  1.0
  C  C35  1  0.64320000  0.36534000  0.66443000  1.0
  C  C36  1  0.35680000  0.13465000  0.16443000  1.0
  C  C37  1  0.35680000  0.63466000  0.33557000  1.0
  O  O38  1  0.09106000  0.88554000  0.82764000  1.0
  O  O39  1  0.09106000  0.38554000  0.67236000  1.0
  O  O40  1  0.90894000  0.11446000  0.17236000  1.0
  O  O41  1  0.90894000  0.61446000  0.32764000  1.0
  O  O42  1  0.01349000  0.68288000  0.65030000  1.0
  O  O43  1  0.01349000  0.18288000  0.84970000  1.0
  O  O44  1  0.98651000  0.31712000  0.34970000  1.0
  O  O45  1  0.98651000  0.81712000  0.15030000  1.0
  O  O46  1  0.07157000  0.61212000  0.90724000  1.0
  O  O47  1  0.07157000  0.11212000  0.59276000  1.0
  O  O48  1  0.92843000  0.38787000  0.09276000  1.0
  O  O49  1  0.92843000  0.88787000  0.40724000  1.0
  O  O50  1  0.74148000  0.90542000  0.93997000  1.0
  O  O51  1  0.74148000  0.40542000  0.56003000  1.0
  O  O52  1  0.25852000  0.09458000  0.06003000  1.0
  O  O53  1  0.25852000  0.59458000  0.43997000  1.0
  O  O54  1  0.68903000  0.85806000  0.70470000  1.0
  O  O55  1  0.68903000  0.35806000  0.79529000  1.0
  O  O56  1  0.31097000  0.14194000  0.29529000  1.0
  O  O57  1  0.31097000  0.64194000  0.20471000  1.0
