# generated using pymatgen
data_Cd2H24C32N2O13
_symmetry_space_group_name_H-M   'P 1'
_cell_length_a   13.11900000
_cell_length_b   15.37330000
_cell_length_c   19.17390000
_cell_angle_alpha   101.44900000
_cell_angle_beta   89.99960000
_cell_angle_gamma   89.99970000
_symmetry_Int_Tables_number   1
_chemical_formula_structural   Cd2H24C32N2O13
_chemical_formula_sum   'Cd8 H96 C128 N8 O52'
_cell_volume   3790.08953010
_cell_formula_units_Z   4
loop_
 _symmetry_equiv_pos_site_id
 _symmetry_equiv_pos_as_xyz
  1  'x, y, z'
loop_
 _atom_site_type_symbol
 _atom_site_label
 _atom_site_symmetry_multiplicity
 _atom_site_fract_x
 _atom_site_fract_y
 _atom_site_fract_z
 _atom_site_occupancy
  Cd  Cd0  1  0.66050000  0.77789000  0.60384000  1.0
  Cd  Cd1  1  0.16050000  0.22211000  0.89616000  1.0
  Cd  Cd2  1  0.33950000  0.22211000  0.39616000  1.0
  Cd  Cd3  1  0.83950000  0.77789000  0.10384000  1.0
  Cd  Cd4  1  0.79772000  0.74710000  0.75715000  1.0
  Cd  Cd5  1  0.29771000  0.25290000  0.74284000  1.0
  Cd  Cd6  1  0.20228000  0.25290000  0.24284000  1.0
  Cd  Cd7  1  0.70228000  0.74710000  0.25716000  1.0
  H  H8  1  0.73097000  0.85906000  0.45333000  1.0
  H  H9  1  0.23097000  0.14093000  0.04667000  1.0
  H  H10  1  0.26902000  0.14093000  0.54667000  1.0
  H  H11  1  0.76904000  0.85907000  0.95334000  1.0
  H  H12  1  0.66418000  0.77344000  0.42448000  1.0
  H  H13  1  0.16419000  0.22656000  0.07552000  1.0
  H  H14  1  0.33581000  0.22655000  0.57552000  1.0
  H  H15  1  0.83582000  0.77344000  0.92449000  1.0
  H  H16  1  0.54695000  0.49026000  0.74862000  1.0
  H  H17  1  0.04696000  0.50974000  0.75139000  1.0
  H  H18  1  0.45304000  0.50973000  0.25138000  1.0
  H  H19  1  0.95304000  0.49026000  0.24862000  1.0
  H  H20  1  0.67646000  0.54954000  0.55753000  1.0
  H  H21  1  0.17648000  0.45046000  0.94248000  1.0
  H  H22  1  0.32353000  0.45046000  0.44247000  1.0
  H  H23  1  0.82354000  0.54955000  0.05752000  1.0
  H  H24  1  0.49253000  0.31340000  0.54892000  1.0
  H  H25  1  0.99253000  0.68660000  0.95109000  1.0
  H  H26  1  0.50747000  0.68659000  0.45108000  1.0
  H  H27  1  0.00747000  0.31340000  0.04891000  1.0
  H  H28  1  0.75140000  0.45463000  0.45482000  1.0
  H  H29  1  0.25141000  0.54538000  0.04519000  1.0
  H  H30  1  0.24860000  0.54537000  0.54518000  1.0
  H  H31  1  0.74861000  0.45463000  0.95482000  1.0
  H  H32  1  0.65079000  0.52785000  0.44350000  1.0
  H  H33  1  0.15079000  0.47215000  0.05650000  1.0
  H  H34  1  0.34921000  0.47215000  0.55650000  1.0
  H  H35  1  0.84922000  0.52786000  0.94350000  1.0
  H  H36  1  0.51698000  0.23809000  0.27977000  1.0
  H  H37  1  0.01697000  0.76190000  0.22024000  1.0
  H  H38  1  0.48302000  0.76190000  0.72023000  1.0
  H  H39  1  0.98303000  0.23810000  0.77977000  1.0
  H  H40  1  0.59949000  0.27477000  0.17132000  1.0
  H  H41  1  0.09948000  0.72523000  0.32868000  1.0
  H  H42  1  0.40051000  0.72523000  0.82867000  1.0
  H  H43  1  0.90050000  0.27476000  0.67132000  1.0
  H  H44  1  0.72246000  0.39992000  0.18322000  1.0
  H  H45  1  0.22245000  0.60008000  0.31679000  1.0
  H  H46  1  0.27755000  0.60007000  0.81678000  1.0
  H  H47  1  0.77754000  0.39992000  0.68321000  1.0
  H  H48  1  0.76476000  0.49129000  0.30109000  1.0
  H  H49  1  0.26475000  0.50872000  0.19891000  1.0
  H  H50  1  0.23524000  0.50871000  0.69891000  1.0
  H  H51  1  0.73525000  0.49129000  0.80109000  1.0
  H  H52  1  0.00407000  0.99401000  0.74984000  1.0
  H  H53  1  0.50406000  0.00598000  0.75015000  1.0
  H  H54  1  0.99594000  0.00599000  0.25015000  1.0
  H  H55  1  0.49594000  0.99401000  0.24985000  1.0
  H  H56  1  0.82163000  0.94092000  0.56062000  1.0
  H  H57  1  0.32163000  0.05908000  0.93937000  1.0
  H  H58  1  0.17837000  0.05907000  0.43938000  1.0
  H  H59  1  0.67837000  0.94092000  0.06062000  1.0
  H  H60  1  0.03187000  0.16223000  0.59725000  1.0
  H  H61  1  0.53186000  0.83777000  0.90274000  1.0
  H  H62  1  0.96812000  0.83777000  0.40275000  1.0
  H  H63  1  0.46813000  0.16223000  0.09725000  1.0
  H  H64  1  0.01298000  0.14589000  0.47587000  1.0
  H  H65  1  0.51298000  0.85411000  0.02412000  1.0
  H  H66  1  0.98702000  0.85411000  0.52414000  1.0
  H  H67  1  0.48702000  0.14589000  0.97587000  1.0
  H  H68  1  0.92093000  0.22090000  0.52247000  1.0
  H  H69  1  0.42094000  0.77909000  0.97752000  1.0
  H  H70  1  0.07907000  0.77909000  0.47753000  1.0
  H  H71  1  0.57906000  0.22091000  0.02248000  1.0
  H  H72  1  0.68566000  0.02154000  0.33494000  1.0
  H  H73  1  0.18566000  0.97846000  0.16506000  1.0
  H  H74  1  0.31434000  0.97846000  0.66506000  1.0
  H  H75  1  0.81434000  0.02155000  0.83494000  1.0
  H  H76  1  0.71269000  0.11585000  0.24387000  1.0
  H  H77  1  0.21269000  0.88415000  0.25613000  1.0
  H  H78  1  0.28731000  0.88416000  0.75614000  1.0
  H  H79  1  0.78731000  0.11585000  0.74386000  1.0
  H  H80  1  0.84357000  0.23486000  0.26284000  1.0
  H  H81  1  0.34357000  0.76515000  0.23716000  1.0
  H  H82  1  0.15643000  0.76515000  0.73717000  1.0
  H  H83  1  0.65643000  0.23486000  0.76284000  1.0
  H  H84  1  0.95121000  0.26233000  0.37110000  1.0
  H  H85  1  0.45120000  0.73767000  0.12890000  1.0
  H  H86  1  0.04880000  0.73768000  0.62891000  1.0
  H  H87  1  0.54879000  0.26233000  0.87110000  1.0
  H  H88  1  0.82304000  0.68268000  0.55247000  1.0
  H  H89  1  0.32304000  0.31731000  0.94753000  1.0
  H  H90  1  0.17696000  0.31730000  0.44753000  1.0
  H  H91  1  0.67696000  0.68269000  0.05248000  1.0
  H  H92  1  0.76686000  0.71678000  0.49018000  1.0
  H  H93  1  0.26685000  0.28322000  0.00981000  1.0
  H  H94  1  0.23315000  0.28321000  0.50982000  1.0
  H  H95  1  0.73314000  0.71678000  0.99019000  1.0
  H  H96  1  0.61222000  0.95345000  0.63387000  1.0
  H  H97  1  0.11222000  0.04655000  0.86614000  1.0
  H  H98  1  0.38777000  0.04655000  0.36614000  1.0
  H  H99  1  0.88777000  0.95344000  0.13387000  1.0
  H  H100  1  0.64974000  0.94709000  0.55415000  1.0
  H  H101  1  0.14975000  0.05291000  0.94585000  1.0
  H  H102  1  0.35025000  0.05291000  0.44585000  1.0
  H  H103  1  0.85025000  0.94710000  0.05416000  1.0
  C  C104  1  0.66898000  0.60616000  0.69937000  1.0
  C  C105  1  0.16899000  0.39384000  0.80064000  1.0
  C  C106  1  0.33101000  0.39383000  0.30063000  1.0
  C  C107  1  0.83101000  0.60617000  0.19936000  1.0
  C  C108  1  0.44529000  0.34158000  0.68779000  1.0
  C  C109  1  0.94530000  0.65842000  0.81222000  1.0
  C  C110  1  0.55470000  0.65841000  0.31221000  1.0
  C  C111  1  0.05470000  0.34158000  0.18779000  1.0
  C  C112  1  0.55846000  0.47291000  0.69135000  1.0
  C  C113  1  0.05846000  0.52709000  0.80866000  1.0
  C  C114  1  0.44154000  0.52708000  0.30865000  1.0
  C  C115  1  0.94154000  0.47292000  0.19135000  1.0
  C  C116  1  0.61718000  0.52680000  0.65642000  1.0
  C  C117  1  0.11718000  0.47320000  0.84358000  1.0
  C  C118  1  0.38282000  0.47320000  0.34358000  1.0
  C  C119  1  0.88282000  0.52681000  0.15642000  1.0
  C  C120  1  0.63088000  0.50510000  0.58261000  1.0
  C  C121  1  0.13090000  0.49491000  0.91740000  1.0
  C  C122  1  0.36911000  0.49490000  0.41740000  1.0
  C  C123  1  0.86911000  0.50510000  0.08260000  1.0
  C  C124  1  0.58676000  0.42745000  0.54298000  1.0
  C  C125  1  0.08677000  0.57255000  0.95703000  1.0
  C  C126  1  0.41324000  0.57254000  0.45702000  1.0
  C  C127  1  0.91324000  0.42745000  0.04298000  1.0
  C  C128  1  0.52751000  0.37349000  0.57820000  1.0
  C  C129  1  0.02751000  0.62651000  0.92180000  1.0
  C  C130  1  0.47249000  0.62651000  0.42180000  1.0
  C  C131  1  0.97250000  0.37349000  0.07820000  1.0
  C  C132  1  0.51304000  0.39703000  0.65173000  1.0
  C  C133  1  0.01304000  0.60298000  0.84827000  1.0
  C  C134  1  0.48696000  0.60296000  0.34826000  1.0
  C  C135  1  0.98697000  0.39703000  0.15174000  1.0
  C  C136  1  0.55537000  0.33985000  0.42028000  1.0
  C  C137  1  0.05537000  0.66015000  0.07973000  1.0
  C  C138  1  0.44463000  0.66015000  0.57972000  1.0
  C  C139  1  0.94464000  0.33985000  0.92028000  1.0
  C  C140  1  0.67372000  0.45761000  0.43366000  1.0
  C  C141  1  0.17373000  0.54239000  0.06635000  1.0
  C  C142  1  0.32627000  0.54239000  0.56635000  1.0
  C  C143  1  0.82629000  0.45762000  0.93365000  1.0
  C  C144  1  0.66509000  0.41452000  0.35671000  1.0
  C  C145  1  0.16508000  0.58548000  0.14330000  1.0
  C  C146  1  0.33491000  0.58547000  0.64330000  1.0
  C  C147  1  0.83492000  0.41452000  0.85670000  1.0
  C  C148  1  0.59518000  0.34459000  0.34972000  1.0
  C  C149  1  0.09518000  0.65541000  0.15028000  1.0
  C  C150  1  0.40482000  0.65541000  0.65027000  1.0
  C  C151  1  0.90482000  0.34459000  0.84973000  1.0
  C  C152  1  0.57061000  0.29280000  0.28364000  1.0
  C  C153  1  0.07060000  0.70720000  0.21636000  1.0
  C  C154  1  0.42939000  0.70720000  0.71636000  1.0
  C  C155  1  0.92939000  0.29280000  0.78364000  1.0
  C  C156  1  0.61749000  0.31370000  0.22383000  1.0
  C  C157  1  0.11749000  0.68629000  0.27617000  1.0
  C  C158  1  0.38251000  0.68629000  0.77617000  1.0
  C  C159  1  0.88251000  0.31371000  0.72383000  1.0
  C  C160  1  0.68705000  0.38421000  0.23067000  1.0
  C  C161  1  0.18704000  0.61579000  0.26933000  1.0
  C  C162  1  0.31296000  0.61579000  0.76933000  1.0
  C  C163  1  0.81296000  0.38421000  0.73067000  1.0
  C  C164  1  0.71213000  0.43557000  0.29726000  1.0
  C  C165  1  0.21212000  0.56443000  0.20274000  1.0
  C  C166  1  0.28787000  0.56443000  0.70274000  1.0
  C  C167  1  0.78787000  0.43557000  0.79727000  1.0
  C  C168  1  0.86799000  0.87832000  0.67728000  1.0
  C  C169  1  0.36799000  0.12167000  0.82271000  1.0
  C  C170  1  0.13201000  0.12167000  0.32272000  1.0
  C  C171  1  0.63201000  0.87832000  0.17728000  1.0
  C  C172  1  0.11046000  0.13398000  0.71863000  1.0
  C  C173  1  0.61046000  0.86601000  0.78137000  1.0
  C  C174  1  0.88953000  0.86602000  0.28138000  1.0
  C  C175  1  0.38954000  0.13399000  0.21862000  1.0
  C  C176  1  0.02524000  0.08311000  0.67684000  1.0
  C  C177  1  0.52524000  0.91688000  0.82314000  1.0
  C  C178  1  0.97476000  0.91689000  0.32315000  1.0
  C  C179  1  0.47476000  0.08312000  0.17685000  1.0
  C  C180  1  0.98060000  0.01188000  0.70018000  1.0
  C  C181  1  0.48059000  0.98811000  0.79981000  1.0
  C  C182  1  0.01941000  0.98812000  0.29982000  1.0
  C  C183  1  0.51941000  0.01188000  0.20018000  1.0
  C  C184  1  0.90875000  0.96041000  0.65684000  1.0
  C  C185  1  0.40875000  0.03959000  0.84316000  1.0
  C  C186  1  0.09125000  0.03960000  0.34317000  1.0
  C  C187  1  0.59126000  0.96040000  0.15684000  1.0
  C  C188  1  0.87645000  0.98305000  0.59348000  1.0
  C  C189  1  0.37644000  0.01695000  0.90651000  1.0
  C  C190  1  0.12355000  0.01695000  0.40652000  1.0
  C  C191  1  0.62355000  0.98304000  0.09348000  1.0
  C  C192  1  0.91571000  0.05876000  0.57220000  1.0
  C  C193  1  0.41570000  0.94123000  0.92779000  1.0
  C  C194  1  0.08429000  0.94123000  0.42780000  1.0
  C  C195  1  0.58430000  0.05877000  0.07220000  1.0
  C  C196  1  0.99335000  0.10672000  0.61341000  1.0
  C  C197  1  0.49335000  0.89327000  0.88659000  1.0
  C  C198  1  0.00665000  0.89327000  0.38659000  1.0
  C  C199  1  0.50666000  0.10673000  0.11341000  1.0
  C  C200  1  0.93069000  0.15810000  0.48371000  1.0
  C  C201  1  0.43068000  0.84190000  0.01629000  1.0
  C  C202  1  0.06931000  0.84190000  0.51629000  1.0
  C  C203  1  0.56932000  0.15810000  0.98371000  1.0
  C  C204  1  0.87673000  0.15848000  0.41484000  1.0
  C  C205  1  0.37673000  0.84152000  0.08515000  1.0
  C  C206  1  0.12327000  0.84152000  0.58516000  1.0
  C  C207  1  0.62327000  0.15849000  0.91485000  1.0
  C  C208  1  0.80293000  0.04669000  0.46515000  1.0
  C  C209  1  0.30292000  0.95331000  0.03484000  1.0
  C  C210  1  0.19707000  0.95331000  0.53484000  1.0
  C  C211  1  0.69708000  0.04669000  0.96515000  1.0
  C  C212  1  0.80217000  0.09203000  0.40430000  1.0
  C  C213  1  0.30217000  0.90797000  0.09569000  1.0
  C  C214  1  0.19783000  0.90797000  0.59570000  1.0
  C  C215  1  0.69783000  0.09203000  0.90430000  1.0
  C  C216  1  0.74202000  0.07479000  0.34302000  1.0
  C  C217  1  0.24201000  0.92521000  0.15698000  1.0
  C  C218  1  0.25799000  0.92521000  0.65698000  1.0
  C  C219  1  0.75799000  0.07480000  0.84302000  1.0
  C  C220  1  0.75839000  0.12713000  0.29229000  1.0
  C  C221  1  0.25839000  0.87286000  0.20771000  1.0
  C  C222  1  0.24162000  0.87287000  0.70771000  1.0
  C  C223  1  0.74161000  0.12714000  0.79228000  1.0
  C  C224  1  0.83237000  0.19444000  0.30297000  1.0
  C  C225  1  0.33237000  0.80556000  0.19703000  1.0
  C  C226  1  0.16763000  0.80556000  0.69704000  1.0
  C  C227  1  0.66762000  0.19445000  0.80297000  1.0
  C  C228  1  0.89270000  0.21088000  0.36441000  1.0
  C  C229  1  0.39270000  0.78912000  0.13558000  1.0
  C  C230  1  0.10730000  0.78912000  0.63559000  1.0
  C  C231  1  0.60729000  0.21088000  0.86442000  1.0
  N  N232  1  0.60315000  0.40567000  0.46887000  1.0
  N  N233  1  0.10315000  0.59433000  0.03113000  1.0
  N  N234  1  0.39685000  0.59433000  0.53113000  1.0
  N  N235  1  0.89686000  0.40568000  0.96887000  1.0
  N  N236  1  0.88183000  0.08478000  0.50983000  1.0
  N  N237  1  0.38182000  0.91523000  0.99016000  1.0
  N  N238  1  0.11817000  0.91522000  0.49016000  1.0
  N  N239  1  0.61818000  0.08477000  0.00984000  1.0
  O  O240  1  0.70370000  0.66580000  0.66567000  1.0
  O  O241  1  0.20371000  0.33419000  0.83433000  1.0
  O  O242  1  0.29629000  0.33419000  0.33433000  1.0
  O  O243  1  0.79629000  0.66581000  0.16567000  1.0
  O  O244  1  0.76362000  0.67175000  0.52135000  1.0
  O  O245  1  0.26362000  0.32824000  0.97864000  1.0
  O  O246  1  0.23638000  0.32824000  0.47865000  1.0
  O  O247  1  0.73638000  0.67176000  0.02136000  1.0
  O  O248  1  0.68243000  0.61173000  0.76474000  1.0
  O  O249  1  0.18243000  0.38827000  0.73527000  1.0
  O  O250  1  0.31757000  0.38826000  0.23526000  1.0
  O  O251  1  0.81757000  0.61173000  0.26473000  1.0
  O  O252  1  0.70779000  0.80291000  0.46483000  1.0
  O  O253  1  0.20781000  0.19708000  0.03517000  1.0
  O  O254  1  0.29218000  0.19708000  0.53517000  1.0
  O  O255  1  0.79220000  0.80292000  0.96483000  1.0
  O  O256  1  0.43862000  0.35745000  0.75495000  1.0
  O  O257  1  0.93862000  0.64255000  0.74506000  1.0
  O  O258  1  0.56138000  0.64255000  0.24505000  1.0
  O  O259  1  0.06138000  0.35745000  0.25495000  1.0
  O  O260  1  0.60883000  0.91790000  0.58570000  1.0
  O  O261  1  0.10884000  0.08210000  0.91430000  1.0
  O  O262  1  0.39116000  0.08210000  0.41430000  1.0
  O  O263  1  0.89117000  0.91791000  0.08570000  1.0
  O  O264  1  0.39282000  0.27984000  0.64836000  1.0
  O  O265  1  0.89283000  0.72016000  0.85164000  1.0
  O  O266  1  0.60717000  0.72015000  0.35164000  1.0
  O  O267  1  0.10717000  0.27984000  0.14836000  1.0
  O  O268  1  0.49013000  0.28731000  0.43607000  1.0
  O  O269  1  0.99013000  0.71269000  0.06394000  1.0
  O  O270  1  0.50987000  0.71268000  0.56393000  1.0
  O  O271  1  0.00988000  0.28731000  0.93606000  1.0
  O  O272  1  0.82894000  0.81857000  0.62837000  1.0
  O  O273  1  0.32894000  0.18143000  0.87162000  1.0
  O  O274  1  0.17106000  0.18142000  0.37164000  1.0
  O  O275  1  0.67106000  0.81857000  0.12837000  1.0
  O  O276  1  0.87668000  0.87213000  0.74198000  1.0
  O  O277  1  0.37669000  0.12786000  0.75801000  1.0
  O  O278  1  0.12332000  0.12787000  0.25801000  1.0
  O  O279  1  0.62331000  0.87213000  0.24198000  1.0
  O  O280  1  0.11762000  0.13089000  0.78455000  1.0
  O  O281  1  0.61762000  0.86911000  0.71544000  1.0
  O  O282  1  0.88237000  0.86911000  0.21545000  1.0
  O  O283  1  0.38239000  0.13089000  0.28455000  1.0
  O  O284  1  0.16802000  0.17640000  0.68402000  1.0
  O  O285  1  0.66801000  0.82360000  0.81597000  1.0
  O  O286  1  0.83197000  0.82361000  0.31599000  1.0
  O  O287  1  0.33198000  0.17639000  0.18402000  1.0
  O  O288  1  0.74482000  0.98662000  0.47578000  1.0
  O  O289  1  0.24480000  0.01338000  0.02421000  1.0
  O  O290  1  0.25518000  0.01338000  0.52422000  1.0
  O  O291  1  0.75519000  0.98662000  0.97578000  1.0
