# generated using pymatgen
data_CuH12C10SO5
_symmetry_space_group_name_H-M   'P 1'
_cell_length_a   7.28302000
_cell_length_b   12.03520000
_cell_length_c   13.65500000
_cell_angle_alpha   76.64800000
_cell_angle_beta   89.99990000
_cell_angle_gamma   89.99990000
_symmetry_Int_Tables_number   1
_chemical_formula_structural   CuH12C10SO5
_chemical_formula_sum   'Cu4 H48 C40 S4 O20'
_cell_volume   1164.54380145
_cell_formula_units_Z   4
loop_
 _symmetry_equiv_pos_site_id
 _symmetry_equiv_pos_as_xyz
  1  'x, y, z'
loop_
 _atom_site_type_symbol
 _atom_site_label
 _atom_site_symmetry_multiplicity
 _atom_site_fract_x
 _atom_site_fract_y
 _atom_site_fract_z
 _atom_site_occupancy
  Cu  Cu0  1  0.03590000  0.85274000  0.54804000  1.0
  Cu  Cu1  1  0.53590000  0.64726000  0.45196000  1.0
  Cu  Cu2  1  0.96409000  0.14726000  0.45196000  1.0
  Cu  Cu3  1  0.46410000  0.35274000  0.54804000  1.0
  H  H4  1  0.62467000  0.52510000  0.76017000  1.0
  H  H5  1  0.12466000  0.97490000  0.23983000  1.0
  H  H6  1  0.37534000  0.47490000  0.23984000  1.0
  H  H7  1  0.87533000  0.02510000  0.76017000  1.0
  H  H8  1  0.68468000  0.49636000  0.94493000  1.0
  H  H9  1  0.18469000  0.00363000  0.05506000  1.0
  H  H10  1  0.31532000  0.50364000  0.05507000  1.0
  H  H11  1  0.81532000  0.99637000  0.94494000  1.0
  H  H12  1  0.05474000  0.78496000  0.87932000  1.0
  H  H13  1  0.55475000  0.71504000  0.12068000  1.0
  H  H14  1  0.94526000  0.21504000  0.12068000  1.0
  H  H15  1  0.44525000  0.28496000  0.87932000  1.0
  H  H16  1  0.15168000  0.69026000  0.03246000  1.0
  H  H17  1  0.65169000  0.80974000  0.96754000  1.0
  H  H18  1  0.84832000  0.30974000  0.96754000  1.0
  H  H19  1  0.34832000  0.19026000  0.03247000  1.0
  H  H20  1  0.01507000  0.66475000  0.14388000  1.0
  H  H21  1  0.51507000  0.83526000  0.85611000  1.0
  H  H22  1  0.98493000  0.33526000  0.85612000  1.0
  H  H23  1  0.48493000  0.16474000  0.14389000  1.0
  H  H24  1  0.96613000  0.78480000  0.04235000  1.0
  H  H25  1  0.46613000  0.71520000  0.95764000  1.0
  H  H26  1  0.03387000  0.21520000  0.95764000  1.0
  H  H27  1  0.53387000  0.28480000  0.04236000  1.0
  H  H28  1  0.59569000  0.89964000  0.69181000  1.0
  H  H29  1  0.09569000  0.60036000  0.30819000  1.0
  H  H30  1  0.40431000  0.10035000  0.30819000  1.0
  H  H31  1  0.90430000  0.39965000  0.69181000  1.0
  H  H32  1  0.51008000  0.85044000  0.58583000  1.0
  H  H33  1  0.01007000  0.64957000  0.41417000  1.0
  H  H34  1  0.48992000  0.14956000  0.41417000  1.0
  H  H35  1  0.98991000  0.35044000  0.58583000  1.0
  H  H36  1  0.37705000  0.82380000  0.69984000  1.0
  H  H37  1  0.87704000  0.67620000  0.30016000  1.0
  H  H38  1  0.62295000  0.17620000  0.30016000  1.0
  H  H39  1  0.12294000  0.32380000  0.69984000  1.0
  H  H40  1  0.37071000  0.04273000  0.76990000  1.0
  H  H41  1  0.87071000  0.45727000  0.23010000  1.0
  H  H42  1  0.62930000  0.95727000  0.23009000  1.0
  H  H43  1  0.12929000  0.54273000  0.76990000  1.0
  H  H44  1  0.16759000  0.96397000  0.74716000  1.0
  H  H45  1  0.66760000  0.53603000  0.25284000  1.0
  H  H46  1  0.83241000  0.03604000  0.25283000  1.0
  H  H47  1  0.33241000  0.46396000  0.74717000  1.0
  H  H48  1  0.18089000  0.11661000  0.69805000  1.0
  H  H49  1  0.68089000  0.38339000  0.30195000  1.0
  H  H50  1  0.81911000  0.88339000  0.30194000  1.0
  H  H51  1  0.31912000  0.61661000  0.69805000  1.0
  C  C52  1  0.74653000  0.68615000  0.61054000  1.0
  C  C53  1  0.24652000  0.81385000  0.38946000  1.0
  C  C54  1  0.25348000  0.31385000  0.38946000  1.0
  C  C55  1  0.75347000  0.18615000  0.61054000  1.0
  C  C56  1  0.80268000  0.67005000  0.71606000  1.0
  C  C57  1  0.30267000  0.82994000  0.28394000  1.0
  C  C58  1  0.19733000  0.32994000  0.28394000  1.0
  C  C59  1  0.69732000  0.17005000  0.71606000  1.0
  C  C60  1  0.71799000  0.58145000  0.78811000  1.0
  C  C61  1  0.21798000  0.91855000  0.21188000  1.0
  C  C62  1  0.28202000  0.41855000  0.21188000  1.0
  C  C63  1  0.78202000  0.08145000  0.78812000  1.0
  C  C64  1  0.74999000  0.56500000  0.88997000  1.0
  C  C65  1  0.25000000  0.93500000  0.11003000  1.0
  C  C66  1  0.25000000  0.43500000  0.11003000  1.0
  C  C67  1  0.75000000  0.06500000  0.88997000  1.0
  C  C68  1  0.87068000  0.64021000  0.92359000  1.0
  C  C69  1  0.37068000  0.85979000  0.07641000  1.0
  C  C70  1  0.12932000  0.35979000  0.07641000  1.0
  C  C71  1  0.62931000  0.14021000  0.92359000  1.0
  C  C72  1  0.96000000  0.72676000  0.85502000  1.0
  C  C73  1  0.46000000  0.77324000  0.14498000  1.0
  C  C74  1  0.04000000  0.27324000  0.14498000  1.0
  C  C75  1  0.54000000  0.22676000  0.85502000  1.0
  C  C76  1  0.93017000  0.74341000  0.74965000  1.0
  C  C77  1  0.43018000  0.75658000  0.25035000  1.0
  C  C78  1  0.06983000  0.25659000  0.25035000  1.0
  C  C79  1  0.56983000  0.24342000  0.74965000  1.0
  C  C80  1  0.01269000  0.69536000  0.06218000  1.0
  C  C81  1  0.51270000  0.80464000  0.93782000  1.0
  C  C82  1  0.98730000  0.30464000  0.93782000  1.0
  C  C83  1  0.48730000  0.19536000  0.06219000  1.0
  C  C84  1  0.47208000  0.88289000  0.65163000  1.0
  C  C85  1  0.97208000  0.61711000  0.34837000  1.0
  C  C86  1  0.52792000  0.11711000  0.34837000  1.0
  C  C87  1  0.02791000  0.38289000  0.65163000  1.0
  C  C88  1  0.25829000  0.03663000  0.71790000  1.0
  C  C89  1  0.75829000  0.46337000  0.28210000  1.0
  C  C90  1  0.74171000  0.96337000  0.28210000  1.0
  C  C91  1  0.24171000  0.53663000  0.71790000  1.0
  S  S92  1  0.35850000  0.01628000  0.60316000  1.0
  S  S93  1  0.85850000  0.48373000  0.39683000  1.0
  S  S94  1  0.64150000  0.98372000  0.39683000  1.0
  S  S95  1  0.14150000  0.51628000  0.60317000  1.0
  O  O96  1  0.83455000  0.75013000  0.53665000  1.0
  O  O97  1  0.33454000  0.74986000  0.46335000  1.0
  O  O98  1  0.16545000  0.24987000  0.46335000  1.0
  O  O99  1  0.66546000  0.25014000  0.53665000  1.0
  O  O100  1  0.59969000  0.63505000  0.59330000  1.0
  O  O101  1  0.09969000  0.86494000  0.40670000  1.0
  O  O102  1  0.40031000  0.36494000  0.40670000  1.0
  O  O103  1  0.90030000  0.13505000  0.59330000  1.0
  O  O104  1  0.02107000  0.82739000  0.69053000  1.0
  O  O105  1  0.52109000  0.67261000  0.30946000  1.0
  O  O106  1  0.97891000  0.17261000  0.30947000  1.0
  O  O107  1  0.47892000  0.32739000  0.69053000  1.0
  O  O108  1  0.88909000  0.62204000  0.02553000  1.0
  O  O109  1  0.38910000  0.87796000  0.97447000  1.0
  O  O110  1  0.11091000  0.37796000  0.97448000  1.0
  O  O111  1  0.61090000  0.12204000  0.02553000  1.0
  O  O112  1  0.20401000  0.98869000  0.53575000  1.0
  O  O113  1  0.70401000  0.51131000  0.46425000  1.0
  O  O114  1  0.79599000  0.01131000  0.46424000  1.0
  O  O115  1  0.29599000  0.48869000  0.53575000  1.0
