# generated using pymatgen
data_KCuH13C17SN2O3
_symmetry_space_group_name_H-M   'P 1'
_cell_length_a   8.25671000
_cell_length_b   9.45452000
_cell_length_c   11.89330000
_cell_angle_alpha   74.89850000
_cell_angle_beta   83.20560000
_cell_angle_gamma   71.15830000
_symmetry_Int_Tables_number   1
_chemical_formula_structural   KCuH13C17SN2O3
_chemical_formula_sum   'K2 Cu2 H26 C34 S2 N4 O6'
_cell_volume   847.74124482
_cell_formula_units_Z   2
loop_
 _symmetry_equiv_pos_site_id
 _symmetry_equiv_pos_as_xyz
  1  'x, y, z'
loop_
 _atom_site_type_symbol
 _atom_site_label
 _atom_site_symmetry_multiplicity
 _atom_site_fract_x
 _atom_site_fract_y
 _atom_site_fract_z
 _atom_site_occupancy
  K  K0  1  0.60494000  0.68836000  0.93136000  1.0
  K  K1  1  0.39505000  0.31163000  0.06864000  1.0
  Cu  Cu2  1  0.18585000  0.04297000  0.05925000  1.0
  Cu  Cu3  1  0.81416000  0.95703000  0.94075000  1.0
  H  H4  1  0.98745000  0.74126000  0.16836000  1.0
  H  H5  1  0.01255000  0.25874000  0.83165000  1.0
  H  H6  1  0.82613000  0.94471000  0.27292000  1.0
  H  H7  1  0.17386000  0.05530000  0.72708000  1.0
  H  H8  1  0.92599000  0.51943000  0.11367000  1.0
  H  H9  1  0.07402000  0.48057000  0.88633000  1.0
  H  H10  1  0.65902000  0.60407000  0.23100000  1.0
  H  H11  1  0.34099000  0.39593000  0.76900000  1.0
  H  H12  1  0.51385000  0.41461000  0.34540000  1.0
  H  H13  1  0.48615000  0.58539000  0.65460000  1.0
  H  H14  1  0.63862000  0.13803000  0.33777000  1.0
  H  H15  1  0.36138000  0.86197000  0.66223000  1.0
  H  H16  1  0.20908000  0.56315000  0.30514000  1.0
  H  H17  1  0.79092000  0.43685000  0.69487000  1.0
  H  H18  1  0.26975000  0.71939000  0.32472000  1.0
  H  H19  1  0.73025000  0.28061000  0.67528000  1.0
  H  H20  1  0.13290000  0.83446000  0.48273000  1.0
  H  H21  1  0.86709000  0.16554000  0.51728000  1.0
  H  H22  1  0.89186000  0.88637000  0.62706000  1.0
  H  H23  1  0.10813000  0.11363000  0.37294000  1.0
  H  H24  1  0.64128000  0.79566000  0.62616000  1.0
  H  H25  1  0.35871000  0.20434000  0.37384000  1.0
  H  H26  1  0.63768000  0.64387000  0.48292000  1.0
  H  H27  1  0.36231000  0.35613000  0.51708000  1.0
  H  H28  1  0.88211000  0.58611000  0.34327000  1.0
  H  H29  1  0.11789000  0.41390000  0.65673000  1.0
  C  C30  1  0.41561000  0.09401000  0.85144000  1.0
  C  C31  1  0.58439000  0.90599000  0.14854000  1.0
  C  C32  1  0.24008000  0.72878000  0.09478000  1.0
  C  C33  1  0.75992000  0.27122000  0.90523000  1.0
  C  C34  1  0.09688000  0.77503000  0.18474000  1.0
  C  C35  1  0.90312000  0.22497000  0.81526000  1.0
  C  C36  1  0.90752000  0.01214000  0.22212000  1.0
  C  C37  1  0.09248000  0.98786000  0.77789000  1.0
  C  C38  1  0.84919000  0.17272000  0.22067000  1.0
  C  C39  1  0.15081000  0.82728000  0.77933000  1.0
  C  C40  1  0.93528000  0.28073000  0.15634000  1.0
  C  C41  1  0.06472000  0.71927000  0.84366000  1.0
  C  C42  1  0.86209000  0.43671000  0.16357000  1.0
  C  C43  1  0.13791000  0.56329000  0.83643000  1.0
  C  C44  1  0.71318000  0.48294000  0.22939000  1.0
  C  C45  1  0.28683000  0.51706000  0.77060000  1.0
  C  C46  1  0.63030000  0.37651000  0.29361000  1.0
  C  C47  1  0.36970000  0.62349000  0.70639000  1.0
  C  C48  1  0.69899000  0.22397000  0.28884000  1.0
  C  C49  1  0.30101000  0.77603000  0.71116000  1.0
  C  C50  1  0.16123000  0.68494000  0.30831000  1.0
  C  C51  1  0.83877000  0.31506000  0.69169000  1.0
  C  C52  1  0.02265000  0.70909000  0.40163000  1.0
  C  C53  1  0.97735000  0.29091000  0.59838000  1.0
  C  C54  1  0.02453000  0.79222000  0.48288000  1.0
  C  C55  1  0.97547000  0.20778000  0.51713000  1.0
  C  C56  1  0.88844000  0.82186000  0.56410000  1.0
  C  C57  1  0.11156000  0.17814000  0.43590000  1.0
  C  C58  1  0.74847000  0.76970000  0.56410000  1.0
  C  C59  1  0.25152000  0.23030000  0.43591000  1.0
  C  C60  1  0.74640000  0.68512000  0.48403000  1.0
  C  C61  1  0.25359000  0.31488000  0.51597000  1.0
  C  C62  1  0.88321000  0.65398000  0.40443000  1.0
  C  C63  1  0.11679000  0.34602000  0.59557000  1.0
  S  S64  1  0.55173000  0.04598000  0.74868000  1.0
  S  S65  1  0.44828000  0.95400000  0.25130000  1.0
  N  N66  1  0.31551000  0.13179000  0.92717000  1.0
  N  N67  1  0.68450000  0.86820000  0.07281000  1.0
  N  N68  1  0.04591000  0.94171000  0.17000000  1.0
  N  N69  1  0.95409000  0.05829000  0.83000000  1.0
  O  O70  1  0.29392000  0.83735000  0.02713000  1.0
  O  O71  1  0.70608000  0.16265000  0.97287000  1.0
  O  O72  1  0.30234000  0.59110000  0.09061000  1.0
  O  O73  1  0.69767000  0.40889000  0.90939000  1.0
  O  O74  1  0.07522000  0.24486000  0.09104000  1.0
  O  O75  1  0.92479000  0.75514000  0.90896000  1.0
