# generated using pymatgen
data_Tb2ZnH20C32(NO5)4
_symmetry_space_group_name_H-M   'P 1'
_cell_length_a   12.56950000
_cell_length_b   13.28670000
_cell_length_c   15.30418239
_cell_angle_alpha   115.70512178
_cell_angle_beta   114.19756106
_cell_angle_gamma   90.04330000
_symmetry_Int_Tables_number   1
_chemical_formula_structural   Tb2ZnH20C32(NO5)4
_chemical_formula_sum   'Tb4 Zn2 H40 C64 N8 O40'
_cell_volume   2050.46231950
_cell_formula_units_Z   2
loop_
 _symmetry_equiv_pos_site_id
 _symmetry_equiv_pos_as_xyz
  1  'x, y, z'
loop_
 _atom_site_type_symbol
 _atom_site_label
 _atom_site_symmetry_multiplicity
 _atom_site_fract_x
 _atom_site_fract_y
 _atom_site_fract_z
 _atom_site_occupancy
  Tb  Tb0  1  0.26420000  0.71937000  0.30687000  1.0
  Tb  Tb1  1  0.95738000  0.28047000  0.69295000  1.0
  Tb  Tb2  1  0.76396000  0.58744000  0.30675000  1.0
  Tb  Tb3  1  0.45788000  0.41285000  0.69324000  1.0
  Zn  Zn4  1  0.12016000  0.49971000  0.99985000  1.0
  Zn  Zn5  1  0.62024000  0.50015000  0.00021000  1.0
  H  H6  1  0.07733000  0.19883000  0.02101000  1.0
  H  H7  1  0.05671000  0.80070000  0.97906000  1.0
  H  H8  1  0.57712000  0.82204000  0.02084000  1.0
  H  H9  1  0.55641000  0.17830000  0.97909000  1.0
  H  H10  1  0.28970000  0.43505000  0.36283000  1.0
  H  H11  1  0.92712000  0.56481000  0.63710000  1.0
  H  H12  1  0.78951000  0.92783000  0.36271000  1.0
  H  H13  1  0.42716000  0.07243000  0.63719000  1.0
  H  H14  1  0.15481000  0.57818000  0.35279000  1.0
  H  H15  1  0.80228000  0.42197000  0.64702000  1.0
  H  H16  1  0.65457000  0.77445000  0.35268000  1.0
  H  H17  1  0.30247000  0.22579000  0.64749000  1.0
  H  H18  1  0.24637000  0.68105000  0.46638000  1.0
  H  H19  1  0.78055000  0.31910000  0.53352000  1.0
  H  H20  1  0.74624000  0.78509000  0.46619000  1.0
  H  H21  1  0.28064000  0.21476000  0.53383000  1.0
  H  H22  1  0.46056000  0.68236000  0.45340000  1.0
  H  H23  1  0.00777000  0.31725000  0.54646000  1.0
  H  H24  1  0.96079000  0.77093000  0.45319000  1.0
  H  H25  1  0.50778000  0.22942000  0.54670000  1.0
  H  H26  1  0.53483000  0.70064000  0.39552000  1.0
  H  H27  1  0.13982000  0.29904000  0.60443000  1.0
  H  H28  1  0.03482000  0.69452000  0.39533000  1.0
  H  H29  1  0.63983000  0.30556000  0.60431000  1.0
  H  H30  1  0.31295000  0.92136000  0.12149000  1.0
  H  H31  1  0.19103000  0.07807000  0.87822000  1.0
  H  H32  1  0.81350000  0.20037000  0.12201000  1.0
  H  H33  1  0.69223000  0.80017000  0.87874000  1.0
  H  H34  1  0.33165000  0.56579000  0.97231000  1.0
  H  H35  1  0.35864000  0.43372000  0.02713000  1.0
  H  H36  1  0.83114000  0.40646000  0.97219000  1.0
  H  H37  1  0.85924000  0.59384000  0.02821000  1.0
  H  H38  1  0.22223000  0.07330000  0.25359000  1.0
  H  H39  1  0.96809000  0.92657000  0.74661000  1.0
  H  H40  1  0.72182000  0.18019000  0.25336000  1.0
  H  H41  1  0.46795000  0.82010000  0.74661000  1.0
  H  H42  1  0.31522000  0.76394000  0.80950000  1.0
  H  H43  1  0.50506000  0.23588000  0.19013000  1.0
  H  H44  1  0.81529000  0.04570000  0.80977000  1.0
  H  H45  1  0.00576000  0.95474000  0.19110000  1.0
  C  C46  1  0.35321000  0.55843000  0.80446000  1.0
  C  C47  1  0.54810000  0.44133000  0.19497000  1.0
  C  C48  1  0.85286000  0.24612000  0.80441000  1.0
  C  C49  1  0.04855000  0.75411000  0.19595000  1.0
  C  C50  1  0.32558000  0.27664000  0.43482000  1.0
  C  C51  1  0.89006000  0.72332000  0.56517000  1.0
  C  C52  1  0.82526000  0.15813000  0.43465000  1.0
  C  C53  1  0.39025000  0.84196000  0.56526000  1.0
  C  C54  1  0.26057000  0.25696000  0.32029000  1.0
  C  C55  1  0.94002000  0.74289000  0.67971000  1.0
  C  C56  1  0.76021000  0.06330000  0.32014000  1.0
  C  C57  1  0.43996000  0.93694000  0.67978000  1.0
  C  C58  1  0.12857000  0.21555000  0.10471000  1.0
  C  C59  1  0.02421000  0.78407000  0.89535000  1.0
  C  C60  1  0.62836000  0.88898000  0.10454000  1.0
  C  C61  1  0.52389000  0.11129000  0.89539000  1.0
  C  C62  1  0.18100000  0.32723000  0.18871000  1.0
  C  C63  1  0.99270000  0.67247000  0.81125000  1.0
  C  C64  1  0.68084000  0.86141000  0.18859000  1.0
  C  C65  1  0.49246000  0.13883000  0.81131000  1.0
  C  C66  1  0.24723000  0.34806000  0.29677000  1.0
  C  C67  1  0.95064000  0.65174000  0.70321000  1.0
  C  C68  1  0.74699000  0.94867000  0.29663000  1.0
  C  C69  1  0.45055000  0.05155000  0.70326000  1.0
  C  C70  1  0.17166000  0.42530000  0.16434000  1.0
  C  C71  1  0.00774000  0.57434000  0.83554000  1.0
  C  C72  1  0.67155000  0.73901000  0.16432000  1.0
  C  C73  1  0.50764000  0.26126000  0.83562000  1.0
  C  C74  1  0.14484000  0.12403000  0.12827000  1.0
  C  C75  1  0.01661000  0.87560000  0.87184000  1.0
  C  C76  1  0.64454000  0.00410000  0.12813000  1.0
  C  C77  1  0.51632000  0.99622000  0.87185000  1.0
  C  C78  1  0.31605000  0.84632000  0.05493000  1.0
  C  C79  1  0.26059000  0.15317000  0.94473000  1.0
  C  C80  1  0.81637000  0.20874000  0.05531000  1.0
  C  C81  1  0.76168000  0.79174000  0.94538000  1.0
  C  C82  1  0.32529000  0.64669000  0.97079000  1.0
  C  C83  1  0.35394000  0.35287000  0.02875000  1.0
  C  C84  1  0.82512000  0.32411000  0.97085000  1.0
  C  C85  1  0.85454000  0.67623000  0.02964000  1.0
  C  C86  1  0.21002000  0.14465000  0.23565000  1.0
  C  C87  1  0.97408000  0.85513000  0.76445000  1.0
  C  C88  1  0.70964000  0.09092000  0.23548000  1.0
  C  C89  1  0.47388000  0.90936000  0.76446000  1.0
  C  C90  1  0.31722000  0.74105000  0.05510000  1.0
  C  C91  1  0.26161000  0.25839000  0.94450000  1.0
  C  C92  1  0.81736000  0.31412000  0.05534000  1.0
  C  C93  1  0.76252000  0.68629000  0.94520000  1.0
  C  C94  1  0.32784000  0.65542000  0.88405000  1.0
  C  C95  1  0.44317000  0.34428000  0.11545000  1.0
  C  C96  1  0.82769000  0.22869000  0.88416000  1.0
  C  C97  1  0.94373000  0.77169000  0.11645000  1.0
  C  C98  1  0.31380000  0.85327000  0.96521000  1.0
  C  C99  1  0.34808000  0.14641000  0.03451000  1.0
  C  C100  1  0.81408000  0.11209000  0.96558000  1.0
  C  C101  1  0.84899000  0.88842000  0.03523000  1.0
  C  C102  1  0.31649000  0.75719000  0.87836000  1.0
  C  C103  1  0.43751000  0.24256000  0.12129000  1.0
  C  C104  1  0.81654000  0.12128000  0.87862000  1.0
  C  C105  1  0.93821000  0.87916000  0.12216000  1.0
  C  C106  1  0.31045000  0.72761000  0.14399000  1.0
  C  C107  1  0.16610000  0.27183000  0.85562000  1.0
  C  C108  1  0.81059000  0.41642000  0.14421000  1.0
  C  C109  1  0.66691000  0.58401000  0.85622000  1.0
  N  N110  1  0.30889000  0.95420000  0.95496000  1.0
  N  N111  1  0.35361000  0.04546000  0.04476000  1.0
  N  N112  1  0.80944000  0.00096000  0.95553000  1.0
  N  N113  1  0.85434000  0.99960000  0.04539000  1.0
  N  N114  1  0.10283000  0.00788000  0.04853000  1.0
  N  N115  1  0.05420000  0.99174000  0.95162000  1.0
  N  N116  1  0.60247000  0.04053000  0.04844000  1.0
  N  N117  1  0.55398000  0.95978000  0.95155000  1.0
  O  O118  1  0.39349000  0.48070000  0.82991000  1.0
  O  O119  1  0.56337000  0.51883000  0.16930000  1.0
  O  O120  1  0.89324000  0.34928000  0.82980000  1.0
  O  O121  1  0.06338000  0.65088000  0.17027000  1.0
  O  O122  1  0.34311000  0.55547000  0.71694000  1.0
  O  O123  1  0.62511000  0.44465000  0.28279000  1.0
  O  O124  1  0.84252000  0.16154000  0.71679000  1.0
  O  O125  1  0.12590000  0.83856000  0.28357000  1.0
  O  O126  1  0.11525000  0.40217000  0.06421000  1.0
  O  O127  1  0.05126000  0.59737000  0.93564000  1.0
  O  O128  1  0.61510000  0.66195000  0.06420000  1.0
  O  O129  1  0.55127000  0.33823000  0.93577000  1.0
  O  O130  1  0.36360000  0.37934000  0.51295000  1.0
  O  O131  1  0.84978000  0.62064000  0.48698000  1.0
  O  O132  1  0.86317000  0.13354000  0.51274000  1.0
  O  O133  1  0.35027000  0.86641000  0.48708000  1.0
  O  O134  1  0.33713000  0.18863000  0.44961000  1.0
  O  O135  1  0.88665000  0.81137000  0.55042000  1.0
  O  O136  1  0.83698000  0.26095000  0.44945000  1.0
  O  O137  1  0.38678000  0.73918000  0.55059000  1.0
  O  O138  1  0.27145000  0.62654000  0.12694000  1.0
  O  O139  1  0.14430000  0.37295000  0.87276000  1.0
  O  O140  1  0.77174000  0.50046000  0.12713000  1.0
  O  O141  1  0.64480000  0.50002000  0.87327000  1.0
  O  O142  1  0.16725000  0.66039000  0.39948000  1.0
  O  O143  1  0.76815000  0.33973000  0.60036000  1.0
  O  O144  1  0.66705000  0.73886000  0.39934000  1.0
  O  O145  1  0.26830000  0.26117000  0.60065000  1.0
  O  O146  1  0.45380000  0.67449000  0.38416000  1.0
  O  O147  1  0.07009000  0.32508000  0.61570000  1.0
  O  O148  1  0.95384000  0.70941000  0.38399000  1.0
  O  O149  1  0.57027000  0.29080000  0.61586000  1.0
  O  O150  1  0.34204000  0.81294000  0.23713000  1.0
  O  O151  1  0.10459000  0.18659000  0.76245000  1.0
  O  O152  1  0.84196000  0.42424000  0.23734000  1.0
  O  O153  1  0.60556000  0.57617000  0.76306000  1.0
  O  O154  1  0.22165000  0.52434000  0.24485000  1.0
  O  O155  1  0.97735000  0.47536000  0.75496000  1.0
  O  O156  1  0.72159000  0.72055000  0.24487000  1.0
  O  O157  1  0.47731000  0.27978000  0.75512000  1.0
