# generated using pymatgen
data_InH12C22O5
_symmetry_space_group_name_H-M   'P 1'
_cell_length_a   14.16320000
_cell_length_b   16.04330000
_cell_length_c   31.20120000
_cell_angle_alpha   89.96340000
_cell_angle_beta   89.02850000
_cell_angle_gamma   89.08050000
_symmetry_Int_Tables_number   1
_chemical_formula_structural   InH12C22O5
_chemical_formula_sum   'In8 H96 C176 O40'
_cell_volume   7087.74361170
_cell_formula_units_Z   8
loop_
 _symmetry_equiv_pos_site_id
 _symmetry_equiv_pos_as_xyz
  1  'x, y, z'
loop_
 _atom_site_type_symbol
 _atom_site_label
 _atom_site_symmetry_multiplicity
 _atom_site_fract_x
 _atom_site_fract_y
 _atom_site_fract_z
 _atom_site_occupancy
  In  In0  1  0.86861000  0.99885000  0.25074000  1.0
  In  In1  1  0.62697000  0.00463000  0.75115000  1.0
  In  In2  1  0.87614000  0.00096000  0.75029000  1.0
  In  In3  1  0.61861000  0.99611000  0.24984000  1.0
  In  In4  1  0.36947000  0.99780000  0.25110000  1.0
  In  In5  1  0.12522000  0.99539000  0.74928000  1.0
  In  In6  1  0.37592000  0.99836000  0.74857000  1.0
  In  In7  1  0.11957000  0.00033000  0.24808000  1.0
  H  H8  1  0.73646000  0.04667000  0.30681000  1.0
  H  H9  1  0.76147000  0.71312000  0.04100000  1.0
  H  H10  1  0.73883000  0.50087000  0.14906000  1.0
  H  H11  1  0.75359000  0.95578000  0.69417000  1.0
  H  H12  1  0.76574000  0.71362000  0.96255000  1.0
  H  H13  1  0.75400000  0.50283000  0.85364000  1.0
  H  H14  1  0.73078000  0.29042000  0.96189000  1.0
  H  H15  1  0.72695000  0.29025000  0.04040000  1.0
  H  H16  1  0.99918000  0.04842000  0.80575000  1.0
  H  H17  1  0.01280000  0.71120000  0.53868000  1.0
  H  H18  1  0.00275000  0.49832000  0.64674000  1.0
  H  H19  1  0.99046000  0.05138000  0.19303000  1.0
  H  H20  1  0.01081000  0.71209000  0.46022000  1.0
  H  H21  1  0.99093000  0.50176000  0.35149000  1.0
  H  H22  1  0.97676000  0.28892000  0.45966000  1.0
  H  H23  1  0.98072000  0.28793000  0.53804000  1.0
  H  H24  1  0.87017000  0.71073000  0.41063000  1.0
  H  H25  1  0.87345000  0.83625000  0.36318000  1.0
  H  H26  1  0.62556000  0.61323000  0.34670000  1.0
  H  H27  1  0.62596000  0.74075000  0.30065000  1.0
  H  H28  1  0.88588000  0.74770000  0.19275000  1.0
  H  H29  1  0.62040000  0.83243000  0.14287000  1.0
  H  H30  1  0.61531000  0.70664000  0.09555000  1.0
  H  H31  1  0.87891000  0.61926000  0.14739000  1.0
  H  H32  1  0.87731000  0.17836000  0.14304000  1.0
  H  H33  1  0.87743000  0.30570000  0.09694000  1.0
  H  H34  1  0.59884000  0.37121000  0.14442000  1.0
  H  H35  1  0.59776000  0.24173000  0.18900000  1.0
  H  H36  1  0.62656000  0.16757000  0.35961000  1.0
  H  H37  1  0.86180000  0.38445000  0.34923000  1.0
  H  H38  1  0.85748000  0.25572000  0.30434000  1.0
  H  H39  1  0.62991000  0.29455000  0.40568000  1.0
  H  H40  1  0.65192000  0.75555000  0.68877000  1.0
  H  H41  1  0.86771000  0.82550000  0.64173000  1.0
  H  H42  1  0.64901000  0.62668000  0.64389000  1.0
  H  H43  1  0.86734000  0.69996000  0.59452000  1.0
  H  H44  1  0.87222000  0.37942000  0.65082000  1.0
  H  H45  1  0.87195000  0.25083000  0.69597000  1.0
  H  H46  1  0.63528000  0.17723000  0.64646000  1.0
  H  H47  1  0.64226000  0.30263000  0.59886000  1.0
  H  H48  1  0.87394000  0.16762000  0.86492000  1.0
  H  H49  1  0.87433000  0.29357000  0.91172000  1.0
  H  H50  1  0.62182000  0.25794000  0.80468000  1.0
  H  H51  1  0.62440000  0.38656000  0.84974000  1.0
  H  H52  1  0.62377000  0.83498000  0.86608000  1.0
  H  H53  1  0.88143000  0.75029000  0.80465000  1.0
  H  H54  1  0.88046000  0.62167000  0.84979000  1.0
  H  H55  1  0.62466000  0.70887000  0.91288000  1.0
  H  H56  1  0.24003000  0.94787000  0.30532000  1.0
  H  H57  1  0.27268000  0.71098000  0.03650000  1.0
  H  H58  1  0.25583000  0.50185000  0.14659000  1.0
  H  H59  1  0.24814000  0.04375000  0.69178000  1.0
  H  H60  1  0.27150000  0.70900000  0.95809000  1.0
  H  H61  1  0.24870000  0.49475000  0.85129000  1.0
  H  H62  1  0.23913000  0.28576000  0.96133000  1.0
  H  H63  1  0.24195000  0.28766000  0.03976000  1.0
  H  H64  1  0.50103000  0.95039000  0.80575000  1.0
  H  H65  1  0.52357000  0.71246000  0.53698000  1.0
  H  H66  1  0.51216000  0.50453000  0.64779000  1.0
  H  H67  1  0.49275000  0.05157000  0.19511000  1.0
  H  H68  1  0.51812000  0.70980000  0.45862000  1.0
  H  H69  1  0.49307000  0.49426000  0.35268000  1.0
  H  H70  1  0.48999000  0.28625000  0.46329000  1.0
  H  H71  1  0.49470000  0.28900000  0.54178000  1.0
  H  H72  1  0.37171000  0.70248000  0.41057000  1.0
  H  H73  1  0.37009000  0.82751000  0.36288000  1.0
  H  H74  1  0.12249000  0.61589000  0.34757000  1.0
  H  H75  1  0.12823000  0.74398000  0.30207000  1.0
  H  H76  1  0.38443000  0.74796000  0.19389000  1.0
  H  H77  1  0.12708000  0.83273000  0.13617000  1.0
  H  H78  1  0.12924000  0.70727000  0.08869000  1.0
  H  H79  1  0.38437000  0.61990000  0.14840000  1.0
  H  H80  1  0.38237000  0.17174000  0.14074000  1.0
  H  H81  1  0.38737000  0.29732000  0.09357000  1.0
  H  H82  1  0.11880000  0.38002000  0.14613000  1.0
  H  H83  1  0.11215000  0.25181000  0.19155000  1.0
  H  H84  1  0.11562000  0.16800000  0.36027000  1.0
  H  H85  1  0.35823000  0.37115000  0.35823000  1.0
  H  H86  1  0.35363000  0.24172000  0.31370000  1.0
  H  H87  1  0.11734000  0.29393000  0.40740000  1.0
  H  H88  1  0.13821000  0.75058000  0.69005000  1.0
  H  H89  1  0.38238000  0.83196000  0.63995000  1.0
  H  H90  1  0.13661000  0.62262000  0.64439000  1.0
  H  H91  1  0.38115000  0.70552000  0.59313000  1.0
  H  H92  1  0.36519000  0.37906000  0.64397000  1.0
  H  H93  1  0.35660000  0.25095000  0.68949000  1.0
  H  H94  1  0.12884000  0.16628000  0.63385000  1.0
  H  H95  1  0.12725000  0.29239000  0.58707000  1.0
  H  H96  1  0.37289000  0.16252000  0.85975000  1.0
  H  H97  1  0.37758000  0.28870000  0.90658000  1.0
  H  H98  1  0.11033000  0.24897000  0.80758000  1.0
  H  H99  1  0.11682000  0.37743000  0.85246000  1.0
  H  H100  1  0.13113000  0.83053000  0.86164000  1.0
  H  H101  1  0.38332000  0.73673000  0.79889000  1.0
  H  H102  1  0.37856000  0.60910000  0.84470000  1.0
  H  H103  1  0.12939000  0.70585000  0.90964000  1.0
  C  C104  1  0.75595000  0.87204000  0.19840000  1.0
  C  C105  1  0.75520000  0.65476000  0.02351000  1.0
  C  C106  1  0.74431000  0.50182000  0.02419000  1.0
  C  C107  1  0.74335000  0.57749000  0.09264000  1.0
  C  C108  1  0.74613000  0.57892000  0.04725000  1.0
  C  C109  1  0.74027000  0.50106000  0.11408000  1.0
  C  C110  1  0.82669000  0.73739000  0.17162000  1.0
  C  C111  1  0.82247000  0.66625000  0.14633000  1.0
  C  C112  1  0.67452000  0.71559000  0.11690000  1.0
  C  C113  1  0.67716000  0.78574000  0.14301000  1.0
  C  C114  1  0.75311000  0.87510000  0.80417000  1.0
  C  C115  1  0.75744000  0.65501000  0.97975000  1.0
  C  C116  1  0.74696000  0.50199000  0.97833000  1.0
  C  C117  1  0.75166000  0.57892000  0.91020000  1.0
  C  C118  1  0.75079000  0.57955000  0.95563000  1.0
  C  C119  1  0.75217000  0.50260000  0.88861000  1.0
  C  C120  1  0.74671000  0.13018000  0.80384000  1.0
  C  C121  1  0.73685000  0.34891000  0.97924000  1.0
  C  C122  1  0.74992000  0.42599000  0.90993000  1.0
  C  C123  1  0.74583000  0.42467000  0.95537000  1.0
  C  C124  1  0.74779000  0.20534000  0.83198000  1.0
  C  C125  1  0.74926000  0.34881000  0.88392000  1.0
  C  C126  1  0.75244000  0.79998000  0.83244000  1.0
  C  C127  1  0.82505000  0.73993000  0.82816000  1.0
  C  C128  1  0.82426000  0.66854000  0.85346000  1.0
  C  C129  1  0.75259000  0.65649000  0.88447000  1.0
  C  C130  1  0.68101000  0.71783000  0.88913000  1.0
  C  C131  1  0.68019000  0.78824000  0.86302000  1.0
  C  C132  1  0.73666000  0.12686000  0.19681000  1.0
  C  C133  1  0.73452000  0.34876000  0.02301000  1.0
  C  C134  1  0.73962000  0.42505000  0.09233000  1.0
  C  C135  1  0.74053000  0.42440000  0.04697000  1.0
  C  C136  1  0.73741000  0.20241000  0.16876000  1.0
  C  C137  1  0.65882000  0.25667000  0.16887000  1.0
  C  C138  1  0.65972000  0.32865000  0.14397000  1.0
  C  C139  1  0.73817000  0.34696000  0.11773000  1.0
  C  C140  1  0.81612000  0.29159000  0.11716000  1.0
  C  C141  1  0.81624000  0.22054000  0.14279000  1.0
  C  C142  1  0.75352000  0.79713000  0.17033000  1.0
  C  C143  1  0.74672000  0.65461000  0.11854000  1.0
  C  C144  1  0.67728000  0.26702000  0.82794000  1.0
  C  C145  1  0.67897000  0.33840000  0.85318000  1.0
  C  C146  1  0.81893000  0.28598000  0.88823000  1.0
  C  C147  1  0.81902000  0.21561000  0.86213000  1.0
  C  C148  1  0.00369000  0.87015000  0.69720000  1.0
  C  C149  1  0.00582000  0.65284000  0.52125000  1.0
  C  C150  1  0.99675000  0.49969000  0.52202000  1.0
  C  C151  1  0.00046000  0.57529000  0.59046000  1.0
  C  C152  1  0.99972000  0.57682000  0.54506000  1.0
  C  C153  1  0.00107000  0.49867000  0.61179000  1.0
  C  C154  1  0.00301000  0.79539000  0.66874000  1.0
  C  C155  1  0.59276000  0.74358000  0.66787000  1.0
  C  C156  1  0.59071000  0.67187000  0.64285000  1.0
  C  C157  1  0.51474000  0.65730000  0.61559000  1.0
  C  C158  1  0.92678000  0.71099000  0.61548000  1.0
  C  C159  1  0.92676000  0.78108000  0.64176000  1.0
  C  C160  1  0.00403000  0.87279000  0.30196000  1.0
  C  C161  1  0.00451000  0.65336000  0.47750000  1.0
  C  C162  1  0.99481000  0.50025000  0.47618000  1.0
  C  C163  1  0.99390000  0.57743000  0.40810000  1.0
  C  C164  1  0.99638000  0.57795000  0.45349000  1.0
  C  C165  1  0.99186000  0.50128000  0.38645000  1.0
  C  C166  1  0.99629000  0.65481000  0.38228000  1.0
  C  C167  1  0.98317000  0.12803000  0.30243000  1.0
  C  C168  1  0.98485000  0.34720000  0.47701000  1.0
  C  C169  1  0.99129000  0.42460000  0.40771000  1.0
  C  C170  1  0.99157000  0.42311000  0.45314000  1.0
  C  C171  1  0.00153000  0.79778000  0.33016000  1.0
  C  C172  1  0.57001000  0.73103000  0.32446000  1.0
  C  C173  1  0.56947000  0.66024000  0.35022000  1.0
  C  C174  1  0.92684000  0.71798000  0.38686000  1.0
  C  C175  1  0.92851000  0.78816000  0.36061000  1.0
  C  C176  1  0.99944000  0.12578000  0.69607000  1.0
  C  C177  1  0.98697000  0.34666000  0.52075000  1.0
  C  C178  1  0.99947000  0.42245000  0.59011000  1.0
  C  C179  1  0.99581000  0.42203000  0.54474000  1.0
  C  C180  1  0.49523000  0.20647000  0.67044000  1.0
  C  C181  1  0.92807000  0.26126000  0.67234000  1.0
  C  C182  1  0.92849000  0.33264000  0.64704000  1.0
  C  C183  1  0.99971000  0.34479000  0.61584000  1.0
  C  C184  1  0.57974000  0.29148000  0.61884000  1.0
  C  C185  1  0.57600000  0.22132000  0.64509000  1.0
  C  C186  1  0.48992000  0.19726000  0.33382000  1.0
  C  C187  1  0.91438000  0.26516000  0.32683000  1.0
  C  C188  1  0.91707000  0.33669000  0.35194000  1.0
  C  C189  1  0.98936000  0.34759000  0.38164000  1.0
  C  C190  1  0.56929000  0.28301000  0.38552000  1.0
  C  C191  1  0.56763000  0.21210000  0.35987000  1.0
  C  C192  1  0.25540000  0.87282000  0.19613000  1.0
  C  C193  1  0.26527000  0.65204000  0.01965000  1.0
  C  C194  1  0.25587000  0.49906000  0.02182000  1.0
  C  C195  1  0.25678000  0.57718000  0.08967000  1.0
  C  C196  1  0.25799000  0.57701000  0.04421000  1.0
  C  C197  1  0.25631000  0.50115000  0.11162000  1.0
  C  C198  1  0.32843000  0.73783000  0.17102000  1.0
  C  C199  1  0.32816000  0.66676000  0.14551000  1.0
  C  C200  1  0.18529000  0.71610000  0.11173000  1.0
  C  C201  1  0.18384000  0.78621000  0.13808000  1.0
  C  C202  1  0.26063000  0.86698000  0.79991000  1.0
  C  C203  1  0.26456000  0.65090000  0.97588000  1.0
  C  C204  1  0.25467000  0.49787000  0.97594000  1.0
  C  C205  1  0.25294000  0.57255000  0.90712000  1.0
  C  C206  1  0.25606000  0.57473000  0.95252000  1.0
  C  C207  1  0.25062000  0.49556000  0.88623000  1.0
  C  C208  1  0.23789000  0.12247000  0.80330000  1.0
  C  C209  1  0.24594000  0.34474000  0.97819000  1.0
  C  C210  1  0.25065000  0.41964000  0.90821000  1.0
  C  C211  1  0.25173000  0.41987000  0.95364000  1.0
  C  C212  1  0.24087000  0.19786000  0.83128000  1.0
  C  C213  1  0.24725000  0.34171000  0.88280000  1.0
  C  C214  1  0.25805000  0.79148000  0.82785000  1.0
  C  C215  1  0.32769000  0.72895000  0.82306000  1.0
  C  C216  1  0.32480000  0.65804000  0.84870000  1.0
  C  C217  1  0.25428000  0.64909000  0.88057000  1.0
  C  C218  1  0.18512000  0.71249000  0.88536000  1.0
  C  C219  1  0.18596000  0.78226000  0.85880000  1.0
  C  C220  1  0.24269000  0.12891000  0.19697000  1.0
  C  C221  1  0.24744000  0.34584000  0.02192000  1.0
  C  C222  1  0.25589000  0.42434000  0.09058000  1.0
  C  C223  1  0.25450000  0.42222000  0.04520000  1.0
  C  C224  1  0.24673000  0.20413000  0.16885000  1.0
  C  C225  1  0.17236000  0.26282000  0.17019000  1.0
  C  C226  1  0.17639000  0.33408000  0.14485000  1.0
  C  C227  1  0.25332000  0.34726000  0.11677000  1.0
  C  C228  1  0.32709000  0.28755000  0.11513000  1.0
  C  C229  1  0.32448000  0.21733000  0.14136000  1.0
  C  C230  1  0.25574000  0.79776000  0.16776000  1.0
  C  C231  1  0.25702000  0.65491000  0.11530000  1.0
  C  C232  1  0.16868000  0.25850000  0.82930000  1.0
  C  C233  1  0.17266000  0.33002000  0.85436000  1.0
  C  C234  1  0.31873000  0.27997000  0.88501000  1.0
  C  C235  1  0.31636000  0.20942000  0.85908000  1.0
  C  C236  1  0.51829000  0.87676000  0.69497000  1.0
  C  C237  1  0.51595000  0.65330000  0.52035000  1.0
  C  C238  1  0.50686000  0.50029000  0.52306000  1.0
  C  C239  1  0.51205000  0.57894000  0.59053000  1.0
  C  C240  1  0.51050000  0.57841000  0.54515000  1.0
  C  C241  1  0.51119000  0.50330000  0.61284000  1.0
  C  C242  1  0.51752000  0.80137000  0.66690000  1.0
  C  C243  1  0.07898000  0.73829000  0.66925000  1.0
  C  C244  1  0.07773000  0.66726000  0.64372000  1.0
  C  C245  1  0.00189000  0.65263000  0.61639000  1.0
  C  C246  1  0.44049000  0.71646000  0.61415000  1.0
  C  C247  1  0.44107000  0.78716000  0.63999000  1.0
  C  C248  1  0.49805000  0.86676000  0.30092000  1.0
  C  C249  1  0.51282000  0.65183000  0.47665000  1.0
  C  C250  1  0.50372000  0.49871000  0.47725000  1.0
  C  C251  1  0.49908000  0.57266000  0.40829000  1.0
  C  C252  1  0.50397000  0.57531000  0.45360000  1.0
  C  C253  1  0.49625000  0.49552000  0.38759000  1.0
  C  C254  1  0.49864000  0.64918000  0.38171000  1.0
  C  C255  1  0.48782000  0.12221000  0.30558000  1.0
  C  C256  1  0.49621000  0.34548000  0.47999000  1.0
  C  C257  1  0.49747000  0.41995000  0.40987000  1.0
  C  C258  1  0.50026000  0.42051000  0.45524000  1.0
  C  C259  1  0.49780000  0.79137000  0.32890000  1.0
  C  C260  1  0.07180000  0.73570000  0.32580000  1.0
  C  C261  1  0.06827000  0.66452000  0.35118000  1.0
  C  C262  1  0.42728000  0.71062000  0.38636000  1.0
  C  C263  1  0.42610000  0.78039000  0.35984000  1.0
  C  C264  1  0.49099000  0.13120000  0.69850000  1.0
  C  C265  1  0.49872000  0.34701000  0.52371000  1.0
  C  C266  1  0.50812000  0.42634000  0.59204000  1.0
  C  C267  1  0.50576000  0.42373000  0.54671000  1.0
  C  C268  1  0.00053000  0.20114000  0.66787000  1.0
  C  C269  1  0.41903000  0.26324000  0.66970000  1.0
  C  C270  1  0.42415000  0.33450000  0.64434000  1.0
  C  C271  1  0.50419000  0.34936000  0.61840000  1.0
  C  C272  1  0.07126000  0.28350000  0.61101000  1.0
  C  C273  1  0.07243000  0.21301000  0.63712000  1.0
  C  C274  1  0.98587000  0.20412000  0.32991000  1.0
  C  C275  1  0.41404000  0.25447000  0.33372000  1.0
  C  C276  1  0.41690000  0.32627000  0.35861000  1.0
  C  C277  1  0.49437000  0.34155000  0.38488000  1.0
  C  C278  1  0.06032000  0.28560000  0.38480000  1.0
  C  C279  1  0.05956000  0.21524000  0.35871000  1.0
  O  O280  1  0.74152000  0.99825000  0.28804000  1.0
  O  O281  1  0.83105000  0.88325000  0.21966000  1.0
  O  O282  1  0.75236000  0.00469000  0.71271000  1.0
  O  O283  1  0.67828000  0.92065000  0.80304000  1.0
  O  O284  1  0.82182000  0.08521000  0.80136000  1.0
  O  O285  1  0.82934000  0.88776000  0.78295000  1.0
  O  O286  1  0.65820000  0.11073000  0.21567000  1.0
  O  O287  1  0.68299000  0.91960000  0.19920000  1.0
  O  O288  1  0.81334000  0.08473000  0.20009000  1.0
  O  O289  1  0.67023000  0.11685000  0.78409000  1.0
  O  O290  1  0.99998000  0.99853000  0.78791000  1.0
  O  O291  1  0.59535000  0.89128000  0.71433000  1.0
  O  O292  1  0.99392000  0.00298000  0.21182000  1.0
  O  O293  1  0.93017000  0.91880000  0.30065000  1.0
  O  O294  1  0.56285000  0.07712000  0.30256000  1.0
  O  O295  1  0.57325000  0.87977000  0.27896000  1.0
  O  O296  1  0.92317000  0.11388000  0.71743000  1.0
  O  O297  1  0.92876000  0.91542000  0.69949000  1.0
  O  O298  1  0.56721000  0.08957000  0.70327000  1.0
  O  O299  1  0.90384000  0.11275000  0.28513000  1.0
  O  O300  1  0.24108000  0.99771000  0.28745000  1.0
  O  O301  1  0.33028000  0.88441000  0.21751000  1.0
  O  O302  1  0.25136000  0.99655000  0.71139000  1.0
  O  O303  1  0.18540000  0.91099000  0.79756000  1.0
  O  O304  1  0.31219000  0.07709000  0.80027000  1.0
  O  O305  1  0.33901000  0.88177000  0.78047000  1.0
  O  O306  1  0.16279000  0.11351000  0.21473000  1.0
  O  O307  1  0.18156000  0.91939000  0.19696000  1.0
  O  O308  1  0.31831000  0.08592000  0.20140000  1.0
  O  O309  1  0.15993000  0.10938000  0.78434000  1.0
  O  O310  1  0.49856000  0.99908000  0.78710000  1.0
  O  O311  1  0.07970000  0.88303000  0.71736000  1.0
  O  O312  1  0.49469000  0.00119000  0.21253000  1.0
  O  O313  1  0.42361000  0.91281000  0.30089000  1.0
  O  O314  1  0.05860000  0.08450000  0.29837000  1.0
  O  O315  1  0.08111000  0.88534000  0.28102000  1.0
  O  O316  1  0.41069000  0.11422000  0.71560000  1.0
  O  O317  1  0.44279000  0.92071000  0.69760000  1.0
  O  O318  1  0.07353000  0.07933000  0.69699000  1.0
  O  O319  1  0.41068000  0.10921000  0.28631000  1.0
