# generated using pymatgen
data_AgH5C4S2N2O3
_symmetry_space_group_name_H-M   'P 1'
_cell_length_a   7.80404000
_cell_length_b   10.25570000
_cell_length_c   10.67690000
_cell_angle_alpha   107.43600000
_cell_angle_beta   89.99990000
_cell_angle_gamma   89.99990000
_symmetry_Int_Tables_number   1
_chemical_formula_structural   AgH5C4S2N2O3
_chemical_formula_sum   'Ag4 H20 C16 S8 N8 O12'
_cell_volume   815.27125302
_cell_formula_units_Z   4
loop_
 _symmetry_equiv_pos_site_id
 _symmetry_equiv_pos_as_xyz
  1  'x, y, z'
loop_
 _atom_site_type_symbol
 _atom_site_label
 _atom_site_symmetry_multiplicity
 _atom_site_fract_x
 _atom_site_fract_y
 _atom_site_fract_z
 _atom_site_occupancy
  Ag  Ag0  1  0.43215000  0.08444000  0.62539000  1.0
  Ag  Ag1  1  0.93215000  0.91556000  0.87462000  1.0
  Ag  Ag2  1  0.56785000  0.91556000  0.37461000  1.0
  Ag  Ag3  1  0.06785000  0.08444000  0.12539000  1.0
  H  H4  1  0.54840000  0.09395000  0.13724000  1.0
  H  H5  1  0.04840000  0.90605000  0.36276000  1.0
  H  H6  1  0.45160000  0.90605000  0.86276000  1.0
  H  H7  1  0.95160000  0.09395000  0.63724000  1.0
  H  H8  1  0.58893000  0.27107000  0.22176000  1.0
  H  H9  1  0.08893000  0.72893000  0.27824000  1.0
  H  H10  1  0.41107000  0.72893000  0.77824000  1.0
  H  H11  1  0.91107000  0.27107000  0.72176000  1.0
  H  H12  1  0.41468000  0.18303000  0.27274000  1.0
  H  H13  1  0.91468000  0.81697000  0.22725000  1.0
  H  H14  1  0.58532000  0.81697000  0.72726000  1.0
  H  H15  1  0.08532000  0.18303000  0.77274000  1.0
  H  H16  1  0.51619000  0.39120000  0.77361000  1.0
  H  H17  1  0.01620000  0.60880000  0.72639000  1.0
  H  H18  1  0.48380000  0.60880000  0.22639000  1.0
  H  H19  1  0.98381000  0.39120000  0.27361000  1.0
  H  H20  1  0.70140000  0.58078000  0.70688000  1.0
  H  H21  1  0.20140000  0.41922000  0.79312000  1.0
  H  H22  1  0.29860000  0.41922000  0.29312000  1.0
  H  H23  1  0.79860000  0.58078000  0.20688000  1.0
  C  C24  1  0.54407000  0.17365000  0.23197000  1.0
  C  C25  1  0.04407000  0.82635000  0.26803000  1.0
  C  C26  1  0.45593000  0.82635000  0.76803000  1.0
  C  C27  1  0.95593000  0.17365000  0.73197000  1.0
  C  C28  1  0.66949000  0.25423000  0.48213000  1.0
  C  C29  1  0.16949000  0.74577000  0.01787000  1.0
  C  C30  1  0.33051000  0.74578000  0.51787000  1.0
  C  C31  1  0.83052000  0.25423000  0.98213000  1.0
  C  C32  1  0.58466000  0.37793000  0.68211000  1.0
  C  C33  1  0.08466000  0.62206000  0.81789000  1.0
  C  C34  1  0.41534000  0.62206000  0.31790000  1.0
  C  C35  1  0.91535000  0.37793000  0.18211000  1.0
  C  C36  1  0.67827000  0.47571000  0.64898000  1.0
  C  C37  1  0.17827000  0.52428000  0.85102000  1.0
  C  C38  1  0.32173000  0.52429000  0.35103000  1.0
  C  C39  1  0.82173000  0.47572000  0.14898000  1.0
  S  S40  1  0.69239000  0.11777000  0.33687000  1.0
  S  S41  1  0.19239000  0.88223000  0.16312000  1.0
  S  S42  1  0.30761000  0.88223000  0.66313000  1.0
  S  S43  1  0.80761000  0.11777000  0.83687000  1.0
  S  S44  1  0.76421000  0.40954000  0.49604000  1.0
  S  S45  1  0.26421000  0.59046000  0.00396000  1.0
  S  S46  1  0.23579000  0.59046000  0.50396000  1.0
  S  S47  1  0.73579000  0.40954000  0.99604000  1.0
  N  N48  1  0.32875000  0.22010000  0.95563000  1.0
  N  N49  1  0.82875000  0.77990000  0.54437000  1.0
  N  N50  1  0.67125000  0.77989000  0.04437000  1.0
  N  N51  1  0.17125000  0.22010000  0.45563000  1.0
  N  N52  1  0.57976000  0.25284000  0.58749000  1.0
  N  N53  1  0.07976000  0.74716000  0.91251000  1.0
  N  N54  1  0.42024000  0.74716000  0.41251000  1.0
  N  N55  1  0.92024000  0.25284000  0.08749000  1.0
  O  O56  1  0.36677000  0.25562000  0.85391000  1.0
  O  O57  1  0.86677000  0.74438000  0.64609000  1.0
  O  O58  1  0.63323000  0.74438000  0.14609000  1.0
  O  O59  1  0.13323000  0.25562000  0.35391000  1.0
  O  O60  1  0.29435000  0.09530000  0.94238000  1.0
  O  O61  1  0.79435000  0.90470000  0.55762000  1.0
  O  O62  1  0.70565000  0.90470000  0.05762000  1.0
  O  O63  1  0.20565000  0.09530000  0.44238000  1.0
  O  O64  1  0.32401000  0.30832000  0.06636000  1.0
  O  O65  1  0.82401000  0.69168000  0.43363000  1.0
  O  O66  1  0.67599000  0.69168000  0.93363000  1.0
  O  O67  1  0.17599000  0.30832000  0.56636000  1.0
