# generated using pymatgen
data_NiH18C22N3O5
_symmetry_space_group_name_H-M   'P 1'
_cell_length_a   9.57361000
_cell_length_b   14.22830000
_cell_length_c   15.45750000
_cell_angle_alpha   99.29420000
_cell_angle_beta   90.26310000
_cell_angle_gamma   108.38800000
_symmetry_Int_Tables_number   1
_chemical_formula_structural   NiH18C22N3O5
_chemical_formula_sum   'Ni4 H72 C88 N12 O20'
_cell_volume   1968.35531293
_cell_formula_units_Z   4
loop_
 _symmetry_equiv_pos_site_id
 _symmetry_equiv_pos_as_xyz
  1  'x, y, z'
loop_
 _atom_site_type_symbol
 _atom_site_label
 _atom_site_symmetry_multiplicity
 _atom_site_fract_x
 _atom_site_fract_y
 _atom_site_fract_z
 _atom_site_occupancy
  Ni  Ni0  1  0.07161000  0.78370000  0.59349000  1.0
  Ni  Ni1  1  0.30604000  0.21274000  0.90039000  1.0
  Ni  Ni2  1  0.94090000  0.22421000  0.40297000  1.0
  Ni  Ni3  1  0.70924000  0.78682000  0.09923000  1.0
  H  H4  1  0.23242000  0.87766000  0.43992000  1.0
  H  H5  1  0.36228000  0.10320000  0.04708000  1.0
  H  H6  1  0.75588000  0.12952000  0.53607000  1.0
  H  H7  1  0.63988000  0.88724000  0.94966000  1.0
  H  H8  1  0.16544000  0.95794000  0.32042000  1.0
  H  H9  1  0.22357000  0.03986000  0.17458000  1.0
  H  H10  1  0.81067000  0.05762000  0.66530000  1.0
  H  H11  1  0.77419000  0.95221000  0.82132000  1.0
  H  H12  1  0.90667000  0.96975000  0.31184000  1.0
  H  H13  1  0.96770000  0.05415000  0.19223000  1.0
  H  H14  1  0.07037000  0.05215000  0.69032000  1.0
  H  H15  1  0.03558000  0.94783000  0.80497000  1.0
  H  H16  1  0.73426000  0.90555000  0.42275000  1.0
  H  H17  1  0.86391000  0.12657000  0.08269000  1.0
  H  H18  1  0.25626000  0.11278000  0.58426000  1.0
  H  H19  1  0.14666000  0.88037000  0.91457000  1.0
  H  H20  1  0.59322000  0.83013000  0.51324000  1.0
  H  H21  1  0.78793000  0.18487000  0.98166000  1.0
  H  H22  1  0.40072000  0.16840000  0.47771000  1.0
  H  H23  1  0.22694000  0.82331000  0.01564000  1.0
  H  H24  1  0.45123000  0.75503000  0.63179000  1.0
  H  H25  1  0.72121000  0.26023000  0.86199000  1.0
  H  H26  1  0.53843000  0.23762000  0.35439000  1.0
  H  H27  1  0.30014000  0.75038000  0.13527000  1.0
  H  H28  1  0.58182000  0.69686000  0.74537000  1.0
  H  H29  1  0.90718000  0.31442000  0.74892000  1.0
  H  H30  1  0.40584000  0.29470000  0.24188000  1.0
  H  H31  1  0.11729000  0.69464000  0.24987000  1.0
  H  H32  1  0.84804000  0.71317000  0.72920000  1.0
  H  H33  1  0.15477000  0.29225000  0.76604000  1.0
  H  H34  1  0.14037000  0.27897000  0.25890000  1.0
  H  H35  1  0.86705000  0.71291000  0.23401000  1.0
  H  H36  1  0.37325000  0.78931000  0.90781000  1.0
  H  H37  1  0.60856000  0.22605000  0.58521000  1.0
  H  H38  1  0.63457000  0.20067000  0.10102000  1.0
  H  H39  1  0.40823000  0.78059000  0.40759000  1.0
  H  H40  1  0.47063000  0.51075000  0.87539000  1.0
  H  H41  1  0.96190000  0.50787000  0.63193000  1.0
  H  H42  1  0.54056000  0.47992000  0.12403000  1.0
  H  H43  1  0.04665000  0.50389000  0.37381000  1.0
  H  H44  1  0.22483000  0.57583000  0.66905000  1.0
  H  H45  1  0.65195000  0.42543000  0.83180000  1.0
  H  H46  1  0.78059000  0.42118000  0.33654000  1.0
  H  H47  1  0.35312000  0.56774000  0.16834000  1.0
  H  H48  1  0.18678000  0.41795000  0.61086000  1.0
  H  H49  1  0.76075000  0.58578000  0.89691000  1.0
  H  H50  1  0.82266000  0.58517000  0.39019000  1.0
  H  H51  1  0.24011000  0.40851000  0.10931000  1.0
  H  H52  1  0.27492000  0.32676000  0.60947000  1.0
  H  H53  1  0.93309000  0.67801000  0.90110000  1.0
  H  H54  1  0.72814000  0.67207000  0.38738000  1.0
  H  H55  1  0.06395000  0.32064000  0.10750000  1.0
  H  H56  1  0.59648000  0.48975000  0.64618000  1.0
  H  H57  1  0.11620000  0.52815000  0.86218000  1.0
  H  H58  1  0.41110000  0.50863000  0.35196000  1.0
  H  H59  1  0.88961000  0.47153000  0.14475000  1.0
  H  H60  1  0.23455000  0.43828000  0.45997000  1.0
  H  H61  1  0.77993000  0.54819000  0.04078000  1.0
  H  H62  1  0.77284000  0.56008000  0.53816000  1.0
  H  H63  1  0.22558000  0.45134000  0.96607000  1.0
  H  H64  1  0.39010000  0.39743000  0.74509000  1.0
  H  H65  1  0.98384000  0.61313000  0.76396000  1.0
  H  H66  1  0.62427000  0.59877000  0.25082000  1.0
  H  H67  1  0.02077000  0.39016000  0.24418000  1.0
  H  H68  1  0.23056000  0.90304000  0.71479000  1.0
  H  H69  1  0.34060000  0.10083000  0.76852000  1.0
  H  H70  1  0.62391000  0.07157000  0.35013000  1.0
  H  H71  1  0.67014000  0.89892000  0.22817000  1.0
  H  H72  1  0.27472000  0.95407000  0.62958000  1.0
  H  H73  1  0.31666000  0.03160000  0.84325000  1.0
  H  H74  1  0.54609000  0.95980000  0.35462000  1.0
  H  H75  1  0.70684000  0.97492000  0.15960000  1.0
  C  C76  1  0.12308000  0.88497000  0.43325000  1.0
  C  C77  1  0.25078000  0.10548000  0.05734000  1.0
  C  C78  1  0.86437000  0.12459000  0.55031000  1.0
  C  C79  1  0.75313000  0.88882000  0.93970000  1.0
  C  C80  1  0.08442000  0.92937000  0.36700000  1.0
  C  C81  1  0.17325000  0.07119000  0.12799000  1.0
  C  C82  1  0.89708000  0.08477000  0.62129000  1.0
  C  C83  1  0.82843000  0.92413000  0.86863000  1.0
  C  C84  1  0.94240000  0.93622000  0.36279000  1.0
  C  C85  1  0.03257000  0.07941000  0.13784000  1.0
  C  C86  1  0.03958000  0.08165000  0.63509000  1.0
  C  C87  1  0.97195000  0.92115000  0.85939000  1.0
  C  C88  1  0.84439000  0.89898000  0.42485000  1.0
  C  C89  1  0.97348000  0.11939000  0.07585000  1.0
  C  C90  1  0.14442000  0.11485000  0.57509000  1.0
  C  C91  1  0.03540000  0.88419000  0.92191000  1.0
  C  C92  1  0.89020000  0.85469000  0.48937000  1.0
  C  C93  1  0.05713000  0.15188000  0.00588000  1.0
  C  C94  1  0.10521000  0.15263000  0.50425000  1.0
  C  C95  1  0.95372000  0.85024000  0.99205000  1.0
  C  C96  1  0.79663000  0.81288000  0.55849000  1.0
  C  C97  1  0.00646000  0.19612000  0.93692000  1.0
  C  C98  1  0.19840000  0.18733000  0.43404000  1.0
  C  C99  1  0.00865000  0.80861000  0.06151000  1.0
  C  C100  1  0.64777000  0.80521000  0.56272000  1.0
  C  C101  1  0.86698000  0.20753000  0.93249000  1.0
  C  C102  1  0.34586000  0.19308000  0.42818000  1.0
  C  C103  1  0.14971000  0.79977000  0.06546000  1.0
  C  C104  1  0.56814000  0.76329000  0.63004000  1.0
  C  C105  1  0.82912000  0.25008000  0.86463000  1.0
  C  C106  1  0.42270000  0.23143000  0.35863000  1.0
  C  C107  1  0.19099000  0.75864000  0.13331000  1.0
  C  C108  1  0.63987000  0.73069000  0.69200000  1.0
  C  C109  1  0.93179000  0.28013000  0.80267000  1.0
  C  C110  1  0.34937000  0.26278000  0.29654000  1.0
  C  C111  1  0.09018000  0.72771000  0.19599000  1.0
  C  C112  1  0.78823000  0.74003000  0.68379000  1.0
  C  C113  1  0.06938000  0.26743000  0.81137000  1.0
  C  C114  1  0.20122000  0.25384000  0.30485000  1.0
  C  C115  1  0.95105000  0.73815000  0.18799000  1.0
  C  C116  1  0.22344000  0.75754000  0.75227000  1.0
  C  C117  1  0.48416000  0.24832000  0.74183000  1.0
  C  C118  1  0.77856000  0.23661000  0.26157000  1.0
  C  C119  1  0.52625000  0.74941000  0.25264000  1.0
  C  C120  1  0.28936000  0.68735000  0.78617000  1.0
  C  C121  1  0.61662000  0.32082000  0.71052000  1.0
  C  C122  1  0.71746000  0.30601000  0.22158000  1.0
  C  C123  1  0.39481000  0.67904000  0.28561000  1.0
  C  C124  1  0.36289000  0.71641000  0.86899000  1.0
  C  C125  1  0.66584000  0.29713000  0.62730000  1.0
  C  C126  1  0.64573000  0.27472000  0.13804000  1.0
  C  C127  1  0.34902000  0.70821000  0.36817000  1.0
  C  C128  1  0.42713000  0.65193000  0.90073000  1.0
  C  C129  1  0.79091000  0.36583000  0.60010000  1.0
  C  C130  1  0.58356000  0.33883000  0.10347000  1.0
  C  C131  1  0.22323000  0.64443000  0.39909000  1.0
  C  C132  1  0.41954000  0.55995000  0.84973000  1.0
  C  C133  1  0.86524000  0.45596000  0.65524000  1.0
  C  C134  1  0.59059000  0.43178000  0.15224000  1.0
  C  C135  1  0.14356000  0.55279000  0.34799000  1.0
  C  C136  1  0.34632000  0.52999000  0.76508000  1.0
  C  C137  1  0.81768000  0.48033000  0.73971000  1.0
  C  C138  1  0.66268000  0.46439000  0.23700000  1.0
  C  C139  1  0.18928000  0.52240000  0.26411000  1.0
  C  C140  1  0.28047000  0.59525000  0.73415000  1.0
  C  C141  1  0.69171000  0.41093000  0.76673000  1.0
  C  C142  1  0.72642000  0.39971000  0.27096000  1.0
  C  C143  1  0.31629000  0.58723000  0.23332000  1.0
  C  C144  1  0.51523000  0.68933000  0.98608000  1.0
  C  C145  1  0.85906000  0.34255000  0.51577000  1.0
  C  C146  1  0.49799000  0.30274000  0.01716000  1.0
  C  C147  1  0.16979000  0.68253000  0.48344000  1.0
  C  C148  1  0.29433000  0.40839000  0.62403000  1.0
  C  C149  1  0.87719000  0.59651000  0.88372000  1.0
  C  C150  1  0.71344000  0.59097000  0.37480000  1.0
  C  C151  1  0.12482000  0.40157000  0.12325000  1.0
  C  C152  1  0.40339000  0.45836000  0.56064000  1.0
  C  C153  1  0.94072000  0.54383000  0.94421000  1.0
  C  C154  1  0.60422000  0.54020000  0.43763000  1.0
  C  C155  1  0.06446000  0.45549000  0.06253000  1.0
  C  C156  1  0.55520000  0.49389000  0.58159000  1.0
  C  C157  1  0.06605000  0.51592000  0.92428000  1.0
  C  C158  1  0.45230000  0.50433000  0.41651000  1.0
  C  C159  1  0.93965000  0.48390000  0.08268000  1.0
  C  C160  1  0.35287000  0.46427000  0.47713000  1.0
  C  C161  1  0.87803000  0.52712000  0.02428000  1.0
  C  C162  1  0.65456000  0.53384000  0.52091000  1.0
  C  C163  1  0.12762000  0.47258000  0.98274000  1.0
  N  N164  1  0.02816000  0.84810000  0.49244000  1.0
  N  N165  1  0.19486000  0.14561000  0.99831000  1.0
  N  N166  1  0.96775000  0.16024000  0.49447000  1.0
  N  N167  1  0.81387000  0.85243000  0.99954000  1.0
  N  N168  1  0.86501000  0.77989000  0.61881000  1.0
  N  N169  1  0.10641000  0.22660000  0.87668000  1.0
  N  N170  1  0.12616000  0.21630000  0.37163000  1.0
  N  N171  1  0.91081000  0.77737000  0.12256000  1.0
  N  N172  1  0.34021000  0.43927000  0.71654000  1.0
  N  N173  1  0.89401000  0.57032000  0.79087000  1.0
  N  N174  1  0.67034000  0.55692000  0.28215000  1.0
  N  N175  1  0.11079000  0.43101000  0.21606000  1.0
  O  O176  1  0.18937000  0.92478000  0.66196000  1.0
  O  O177  1  0.27519000  0.07688000  0.81914000  1.0
  O  O178  1  0.57015000  0.02727000  0.38990000  1.0
  O  O179  1  0.74334000  0.92612000  0.18171000  1.0
  O  O180  1  0.11307000  0.71764000  0.69617000  1.0
  O  O181  1  0.41757000  0.28576000  0.80354000  1.0
  O  O182  1  0.90252000  0.28282000  0.30860000  1.0
  O  O183  1  0.59948000  0.71182000  0.19576000  1.0
  O  O184  1  0.28011000  0.85162000  0.78080000  1.0
  O  O185  1  0.44562000  0.15584000  0.70681000  1.0
  O  O186  1  0.71219000  0.14409000  0.25040000  1.0
  O  O187  1  0.55840000  0.84315000  0.28292000  1.0
  O  O188  1  0.50427000  0.76821000  0.03588000  1.0
  O  O189  1  0.78621000  0.25831000  0.46279000  1.0
  O  O190  1  0.50848000  0.22427000  0.96679000  1.0
  O  O191  1  0.25618000  0.76125000  0.53319000  1.0
  O  O192  1  0.61204000  0.65056000  0.00600000  1.0
  O  O193  1  0.98411000  0.39706000  0.50136000  1.0
  O  O194  1  0.40437000  0.34404000  0.99682000  1.0
  O  O195  1  0.03608000  0.64542000  0.50221000  1.0
