# generated using pymatgen
data_ZnH13C18N5O4
_symmetry_space_group_name_H-M   'P 1'
_cell_length_a   8.47642000
_cell_length_b   10.33200000
_cell_length_c   22.70640000
_cell_angle_alpha   90.00000000
_cell_angle_beta   89.99990000
_cell_angle_gamma   103.22000000
_symmetry_Int_Tables_number   1
_chemical_formula_structural   ZnH13C18N5O4
_chemical_formula_sum   'Zn4 H52 C72 N20 O16'
_cell_volume   1935.89018865
_cell_formula_units_Z   4
loop_
 _symmetry_equiv_pos_site_id
 _symmetry_equiv_pos_as_xyz
  1  'x, y, z'
loop_
 _atom_site_type_symbol
 _atom_site_label
 _atom_site_symmetry_multiplicity
 _atom_site_fract_x
 _atom_site_fract_y
 _atom_site_fract_z
 _atom_site_occupancy
  Zn  Zn0  1  0.92307000  0.43217000  0.40830000  1.0
  Zn  Zn1  1  0.07693000  0.06783000  0.90830000  1.0
  Zn  Zn2  1  0.07693000  0.56783000  0.59170000  1.0
  Zn  Zn3  1  0.92307000  0.93217000  0.09170000  1.0
  H  H4  1  0.71130000  0.10244000  0.52705000  1.0
  H  H5  1  0.28870000  0.39756000  0.02705000  1.0
  H  H6  1  0.28871000  0.89756000  0.47295000  1.0
  H  H7  1  0.71130000  0.60244000  0.97295000  1.0
  H  H8  1  0.15169000  0.34613000  0.32639000  1.0
  H  H9  1  0.84832000  0.15387000  0.82639000  1.0
  H  H10  1  0.84831000  0.65387000  0.67361000  1.0
  H  H11  1  0.15168000  0.84612000  0.17361000  1.0
  H  H12  1  0.20013000  0.62419000  0.46083000  1.0
  H  H13  1  0.79987000  0.87580000  0.96083000  1.0
  H  H14  1  0.79987000  0.37581000  0.53917000  1.0
  H  H15  1  0.20013000  0.12419000  0.03917000  1.0
  H  H16  1  0.62829000  0.58450000  0.36628000  1.0
  H  H17  1  0.37172000  0.91550000  0.86628000  1.0
  H  H18  1  0.37171000  0.41550000  0.63372000  1.0
  H  H19  1  0.62828000  0.08450000  0.13372000  1.0
  H  H20  1  0.49953000  0.69365000  0.44638000  1.0
  H  H21  1  0.50048000  0.80635000  0.94639000  1.0
  H  H22  1  0.50047000  0.30636000  0.55361000  1.0
  H  H23  1  0.49953000  0.19365000  0.05362000  1.0
  H  H24  1  0.44889000  0.41076000  0.30330000  1.0
  H  H25  1  0.55112000  0.08924000  0.80330000  1.0
  H  H26  1  0.55111000  0.58924000  0.69670000  1.0
  H  H27  1  0.44888000  0.91075000  0.19670000  1.0
  H  H28  1  0.95560000  0.57831000  0.29375000  1.0
  H  H29  1  0.04439000  0.92170000  0.79375000  1.0
  H  H30  1  0.04437000  0.42171000  0.70625000  1.0
  H  H31  1  0.95560000  0.07831000  0.20625000  1.0
  H  H32  1  0.86693000  0.52788000  0.18882000  1.0
  H  H33  1  0.13307000  0.97212000  0.68882000  1.0
  H  H34  1  0.13306000  0.47212000  0.81118000  1.0
  H  H35  1  0.86693000  0.02788000  0.31118000  1.0
  H  H36  1  0.66749000  0.22499000  0.35352000  1.0
  H  H37  1  0.33253000  0.27501000  0.85352000  1.0
  H  H38  1  0.33250000  0.77502000  0.64648000  1.0
  H  H39  1  0.66748000  0.72499000  0.14648000  1.0
  H  H40  1  0.66514000  0.31337000  0.16769000  1.0
  H  H41  1  0.33485000  0.18664000  0.66769000  1.0
  H  H42  1  0.33485000  0.68662000  0.83231000  1.0
  H  H43  1  0.66515000  0.81337000  0.33231000  1.0
  H  H44  1  0.56073000  0.15929000  0.25215000  1.0
  H  H45  1  0.43928000  0.34071000  0.75215000  1.0
  H  H46  1  0.43927000  0.84071000  0.74785000  1.0
  H  H47  1  0.56073000  0.65929000  0.24786000  1.0
  H  H48  1  0.71785000  0.68464000  0.53112000  1.0
  H  H49  1  0.28215000  0.81536000  0.03112000  1.0
  H  H50  1  0.28215000  0.31536000  0.46888000  1.0
  H  H51  1  0.71785000  0.18464000  0.96888000  1.0
  H  H52  1  0.95662000  0.93491000  0.39129000  1.0
  H  H53  1  0.04340000  0.56509000  0.89128000  1.0
  H  H54  1  0.04339000  0.06509000  0.60872000  1.0
  H  H55  1  0.95660000  0.43491000  0.10872000  1.0
  C  C56  1  0.70485000  0.89131000  0.53506000  1.0
  C  C57  1  0.29515000  0.60868000  0.03506000  1.0
  C  C58  1  0.29515000  0.10868000  0.46494000  1.0
  C  C59  1  0.70485000  0.39132000  0.96494000  1.0
  C  C60  1  0.88699000  0.16517000  0.42632000  1.0
  C  C61  1  0.11301000  0.33483000  0.92631000  1.0
  C  C62  1  0.11301000  0.83483000  0.57369000  1.0
  C  C63  1  0.88698000  0.66517000  0.07369000  1.0
  C  C64  1  0.74585000  0.01621000  0.50791000  1.0
  C  C65  1  0.25414000  0.48379000  0.00791000  1.0
  C  C66  1  0.25414000  0.98379000  0.49209000  1.0
  C  C67  1  0.74586000  0.51621000  0.99209000  1.0
  C  C68  1  0.83616000  0.03191000  0.45579000  1.0
  C  C69  1  0.16384000  0.46809000  0.95579000  1.0
  C  C70  1  0.16384000  0.96809000  0.54421000  1.0
  C  C71  1  0.83616000  0.53191000  0.04421000  1.0
  C  C72  1  0.23372000  0.42503000  0.35042000  1.0
  C  C73  1  0.76629000  0.07496000  0.85043000  1.0
  C  C74  1  0.76628000  0.57497000  0.64958000  1.0
  C  C75  1  0.23372000  0.92503000  0.14957000  1.0
  C  C76  1  0.26029000  0.57921000  0.42664000  1.0
  C  C77  1  0.73971000  0.92078000  0.92664000  1.0
  C  C78  1  0.73970000  0.42079000  0.57336000  1.0
  C  C79  1  0.26029000  0.07921000  0.07336000  1.0
  C  C80  1  0.49779000  0.55728000  0.37356000  1.0
  C  C81  1  0.50222000  0.94272000  0.87356000  1.0
  C  C82  1  0.50221000  0.44273000  0.62644000  1.0
  C  C83  1  0.49779000  0.05728000  0.12644000  1.0
  C  C84  1  0.42689000  0.61782000  0.41809000  1.0
  C  C85  1  0.57312000  0.88218000  0.91809000  1.0
  C  C86  1  0.57312000  0.38218000  0.58191000  1.0
  C  C87  1  0.42688000  0.11782000  0.08191000  1.0
  C  C88  1  0.39901000  0.46041000  0.33867000  1.0
  C  C89  1  0.60099000  0.03959000  0.83867000  1.0
  C  C90  1  0.60099000  0.53959000  0.66133000  1.0
  C  C91  1  0.39901000  0.96040000  0.16133000  1.0
  C  C92  1  0.87067000  0.48606000  0.28155000  1.0
  C  C93  1  0.12933000  0.01394000  0.78155000  1.0
  C  C94  1  0.12932000  0.51394000  0.71845000  1.0
  C  C95  1  0.87066000  0.98607000  0.21845000  1.0
  C  C96  1  0.81908000  0.45740000  0.22387000  1.0
  C  C97  1  0.18092000  0.04261000  0.72387000  1.0
  C  C98  1  0.18092000  0.54260000  0.77613000  1.0
  C  C99  1  0.81908000  0.95740000  0.27613000  1.0
  C  C100  1  0.70761000  0.28785000  0.31543000  1.0
  C  C101  1  0.29240000  0.21215000  0.81543000  1.0
  C  C102  1  0.29239000  0.71215000  0.68457000  1.0
  C  C103  1  0.70760000  0.78785000  0.18457000  1.0
  C  C104  1  0.70735000  0.33822000  0.21242000  1.0
  C  C105  1  0.29265000  0.16179000  0.71242000  1.0
  C  C106  1  0.29265000  0.66178000  0.78758000  1.0
  C  C107  1  0.70735000  0.83822000  0.28758000  1.0
  C  C108  1  0.64937000  0.25261000  0.25906000  1.0
  C  C109  1  0.35063000  0.24740000  0.75906000  1.0
  C  C110  1  0.35063000  0.74739000  0.74094000  1.0
  C  C111  1  0.64937000  0.75261000  0.24094000  1.0
  C  C112  1  0.75026000  0.78155000  0.50994000  1.0
  C  C113  1  0.24974000  0.71844000  0.00994000  1.0
  C  C114  1  0.24974000  0.21845000  0.49006000  1.0
  C  C115  1  0.75026000  0.28155000  0.99006000  1.0
  C  C116  1  0.88354000  0.92288000  0.43115000  1.0
  C  C117  1  0.11647000  0.57712000  0.93115000  1.0
  C  C118  1  0.11646000  0.07712000  0.56886000  1.0
  C  C119  1  0.88353000  0.42288000  0.06885000  1.0
  C  C120  1  0.83987000  0.79770000  0.45769000  1.0
  C  C121  1  0.16013000  0.70230000  0.95769000  1.0
  C  C122  1  0.16013000  0.20230000  0.54231000  1.0
  C  C123  1  0.83987000  0.29770000  0.04231000  1.0
  C  C124  1  0.89019000  0.68303000  0.42845000  1.0
  C  C125  1  0.10982000  0.81697000  0.92845000  1.0
  C  C126  1  0.10981000  0.31697000  0.57155000  1.0
  C  C127  1  0.89019000  0.18303000  0.07155000  1.0
  N  N128  1  0.59498000  0.96498000  0.61697000  1.0
  N  N129  1  0.40501000  0.53502000  0.11698000  1.0
  N  N130  1  0.40502000  0.03502000  0.38303000  1.0
  N  N131  1  0.59499000  0.46499000  0.88302000  1.0
  N  N132  1  0.61765000  0.86915000  0.58882000  1.0
  N  N133  1  0.38234000  0.63085000  0.08882000  1.0
  N  N134  1  0.38235000  0.13085000  0.41118000  1.0
  N  N135  1  0.61766000  0.36915000  0.91118000  1.0
  N  N136  1  0.56503000  0.04412000  0.64803000  1.0
  N  N137  1  0.43496000  0.45587000  0.14803000  1.0
  N  N138  1  0.43497000  0.95588000  0.35197000  1.0
  N  N139  1  0.56504000  0.54413000  0.85197000  1.0
  N  N140  1  0.16604000  0.48337000  0.39369000  1.0
  N  N141  1  0.83397000  0.01662000  0.89369000  1.0
  N  N142  1  0.83396000  0.51662000  0.60631000  1.0
  N  N143  1  0.16603000  0.98337000  0.10631000  1.0
  N  N144  1  0.81663000  0.40219000  0.32651000  1.0
  N  N145  1  0.18337000  0.09782000  0.82651000  1.0
  N  N146  1  0.18336000  0.59782000  0.67349000  1.0
  N  N147  1  0.81663000  0.90219000  0.17349000  1.0
  O  O148  1  0.84038000  0.26314000  0.45169000  1.0
  O  O149  1  0.15962000  0.23686000  0.95169000  1.0
  O  O150  1  0.15962000  0.73687000  0.54831000  1.0
  O  O151  1  0.84039000  0.76314000  0.04831000  1.0
  O  O152  1  0.96786000  0.17591000  0.37967000  1.0
  O  O153  1  0.03214000  0.32409000  0.87967000  1.0
  O  O154  1  0.03214000  0.82409000  0.62033000  1.0
  O  O155  1  0.96786000  0.67591000  0.12033000  1.0
  O  O156  1  0.95736000  0.69951000  0.37904000  1.0
  O  O157  1  0.04265000  0.80049000  0.87904000  1.0
  O  O158  1  0.04264000  0.30049000  0.62096000  1.0
  O  O159  1  0.95736000  0.19951000  0.12096000  1.0
  O  O160  1  0.85616000  0.57023000  0.45658000  1.0
  O  O161  1  0.14384000  0.92976000  0.95658000  1.0
  O  O162  1  0.14385000  0.42977000  0.54342000  1.0
  O  O163  1  0.85616000  0.07023000  0.04342000  1.0
