# generated using pymatgen
data_BaH12C8SO11
_symmetry_space_group_name_H-M   'P 1'
_cell_length_a   7.20186000
_cell_length_b   11.18940000
_cell_length_c   16.70440000
_cell_angle_alpha   90.00000000
_cell_angle_beta   90.00000000
_cell_angle_gamma   90.00000000
_symmetry_Int_Tables_number   1
_chemical_formula_structural   BaH12C8SO11
_chemical_formula_sum   'Ba4 H48 C32 S4 O44'
_cell_volume   1346.11559291
_cell_formula_units_Z   4
loop_
 _symmetry_equiv_pos_site_id
 _symmetry_equiv_pos_as_xyz
  1  'x, y, z'
loop_
 _atom_site_type_symbol
 _atom_site_label
 _atom_site_symmetry_multiplicity
 _atom_site_fract_x
 _atom_site_fract_y
 _atom_site_fract_z
 _atom_site_occupancy
  Ba  Ba0  1  0.11766000  0.34298000  0.89216000  1.0
  Ba  Ba1  1  0.88233000  0.84298000  0.10784000  1.0
  Ba  Ba2  1  0.61767000  0.34298000  0.60784000  1.0
  Ba  Ba3  1  0.38234000  0.84298000  0.39217000  1.0
  H  H4  1  0.34198000  0.86560000  0.91198000  1.0
  H  H5  1  0.65800000  0.36560000  0.08802000  1.0
  H  H6  1  0.84200000  0.86560000  0.58803000  1.0
  H  H7  1  0.15802000  0.36560000  0.41198000  1.0
  H  H8  1  0.46911000  0.66937000  0.69595000  1.0
  H  H9  1  0.53090000  0.16936000  0.30405000  1.0
  H  H10  1  0.96912000  0.66937000  0.80405000  1.0
  H  H11  1  0.03089000  0.16937000  0.19595000  1.0
  H  H12  1  0.28948000  0.03841000  0.68568000  1.0
  H  H13  1  0.71050000  0.53842000  0.31432000  1.0
  H  H14  1  0.78949000  0.03842000  0.81432000  1.0
  H  H15  1  0.21051000  0.53841000  0.18568000  1.0
  H  H16  1  0.31257000  0.02018000  0.57091000  1.0
  H  H17  1  0.68742000  0.52017000  0.42909000  1.0
  H  H18  1  0.81258000  0.02018000  0.92909000  1.0
  H  H19  1  0.18741000  0.52018000  0.07091000  1.0
  H  H20  1  0.84930000  0.17474000  0.98297000  1.0
  H  H21  1  0.15070000  0.67475000  0.01703000  1.0
  H  H22  1  0.34931000  0.17474000  0.51703000  1.0
  H  H23  1  0.65071000  0.67474000  0.48297000  1.0
  H  H24  1  0.69371000  0.20267000  0.91874000  1.0
  H  H25  1  0.30629000  0.70268000  0.08126000  1.0
  H  H26  1  0.19371000  0.20268000  0.58125000  1.0
  H  H27  1  0.80630000  0.70268000  0.41874000  1.0
  H  H28  1  0.74289000  0.50913000  0.90594000  1.0
  H  H29  1  0.25710000  0.00913000  0.09407000  1.0
  H  H30  1  0.24290000  0.50913000  0.59406000  1.0
  H  H31  1  0.75710000  0.00913000  0.40594000  1.0
  H  H32  1  0.78589000  0.50616000  0.99923000  1.0
  H  H33  1  0.21409000  0.00614000  0.00077000  1.0
  H  H34  1  0.28590000  0.50615000  0.50076000  1.0
  H  H35  1  0.71410000  0.00614000  0.49924000  1.0
  H  H36  1  0.48372000  0.25763000  0.97933000  1.0
  H  H37  1  0.51627000  0.75764000  0.02067000  1.0
  H  H38  1  0.98373000  0.25764000  0.52067000  1.0
  H  H39  1  0.01628000  0.75764000  0.47933000  1.0
  H  H40  1  0.59577000  0.36499000  0.93960000  1.0
  H  H41  1  0.40422000  0.86499000  0.06041000  1.0
  H  H42  1  0.09578000  0.36500000  0.56040000  1.0
  H  H43  1  0.90423000  0.86499000  0.43960000  1.0
  H  H44  1  0.88459000  0.28879000  0.73667000  1.0
  H  H45  1  0.11541000  0.78879000  0.26333000  1.0
  H  H46  1  0.38459000  0.28878000  0.76333000  1.0
  H  H47  1  0.61541000  0.78879000  0.23667000  1.0
  H  H48  1  0.97564000  0.41907000  0.72168000  1.0
  H  H49  1  0.02437000  0.91907000  0.27831000  1.0
  H  H50  1  0.47563000  0.41907000  0.77831000  1.0
  H  H51  1  0.52436000  0.91907000  0.22168000  1.0
  C  C52  1  0.42162000  0.75043000  0.72561000  1.0
  C  C53  1  0.57838000  0.25043000  0.27439000  1.0
  C  C54  1  0.92162000  0.75043000  0.77439000  1.0
  C  C55  1  0.07839000  0.25043000  0.22561000  1.0
  C  C56  1  0.40542000  0.75619000  0.80847000  1.0
  C  C57  1  0.59458000  0.25619000  0.19153000  1.0
  C  C58  1  0.90542000  0.75619000  0.69154000  1.0
  C  C59  1  0.09458000  0.25619000  0.30846000  1.0
  C  C60  1  0.35175000  0.86160000  0.84705000  1.0
  C  C61  1  0.64824000  0.36159000  0.15295000  1.0
  C  C62  1  0.85176000  0.86160000  0.65296000  1.0
  C  C63  1  0.14825000  0.36159000  0.34705000  1.0
  C  C64  1  0.31085000  0.96293000  0.80186000  1.0
  C  C65  1  0.68915000  0.46293000  0.19815000  1.0
  C  C66  1  0.81085000  0.96293000  0.69815000  1.0
  C  C67  1  0.18914000  0.46292000  0.30185000  1.0
  C  C68  1  0.32233000  0.95721000  0.71854000  1.0
  C  C69  1  0.67767000  0.45721000  0.28146000  1.0
  C  C70  1  0.82233000  0.95722000  0.78146000  1.0
  C  C71  1  0.17768000  0.45721000  0.21854000  1.0
  C  C72  1  0.37834000  0.85237000  0.68032000  1.0
  C  C73  1  0.62164000  0.35238000  0.31968000  1.0
  C  C74  1  0.87834000  0.85237000  0.81968000  1.0
  C  C75  1  0.12166000  0.35237000  0.18032000  1.0
  C  C76  1  0.39450000  0.84591000  0.59214000  1.0
  C  C77  1  0.60551000  0.34591000  0.40787000  1.0
  C  C78  1  0.89449000  0.84591000  0.90786000  1.0
  C  C79  1  0.10550000  0.34591000  0.09214000  1.0
  C  C80  1  0.25289000  0.07925000  0.83945000  1.0
  C  C81  1  0.74710000  0.57925000  0.16055000  1.0
  C  C82  1  0.75290000  0.07926000  0.66055000  1.0
  C  C83  1  0.24710000  0.57925000  0.33946000  1.0
  S  S84  1  0.45144000  0.62840000  0.86853000  1.0
  S  S85  1  0.54854000  0.12840000  0.13147000  1.0
  S  S86  1  0.95147000  0.62841000  0.63147000  1.0
  S  S87  1  0.04855000  0.12840000  0.36853000  1.0
  O  O88  1  0.32674000  0.93563000  0.54779000  1.0
  O  O89  1  0.67324000  0.43562000  0.45221000  1.0
  O  O90  1  0.82674000  0.93563000  0.95221000  1.0
  O  O91  1  0.17323000  0.43563000  0.04779000  1.0
  O  O92  1  0.46255000  0.75931000  0.55672000  1.0
  O  O93  1  0.53749000  0.25930000  0.44329000  1.0
  O  O94  1  0.96251000  0.75930000  0.94329000  1.0
  O  O95  1  0.03746000  0.25931000  0.05671000  1.0
  O  O96  1  0.27084000  0.57216000  0.88515000  1.0
  O  O97  1  0.72914000  0.07217000  0.11484000  1.0
  O  O98  1  0.77087000  0.57216000  0.61484000  1.0
  O  O99  1  0.22915000  0.07216000  0.38515000  1.0
  O  O100  1  0.81598000  0.16119000  0.92661000  1.0
  O  O101  1  0.18401000  0.66118000  0.07339000  1.0
  O  O102  1  0.31598000  0.16118000  0.57339000  1.0
  O  O103  1  0.68402000  0.66118000  0.42661000  1.0
  O  O104  1  0.79160000  0.45748000  0.94891000  1.0
  O  O105  1  0.20838000  0.95747000  0.05109000  1.0
  O  O106  1  0.29162000  0.45748000  0.55109000  1.0
  O  O107  1  0.70839000  0.95748000  0.44891000  1.0
  O  O108  1  0.50695000  0.29892000  0.92735000  1.0
  O  O109  1  0.49304000  0.79892000  0.07265000  1.0
  O  O110  1  0.00697000  0.29893000  0.57264000  1.0
  O  O111  1  0.99304000  0.79892000  0.42735000  1.0
  O  O112  1  0.23811000  0.16833000  0.79208000  1.0
  O  O113  1  0.76188000  0.66833000  0.20792000  1.0
  O  O114  1  0.73812000  0.16833000  0.70792000  1.0
  O  O115  1  0.26189000  0.66833000  0.29208000  1.0
  O  O116  1  0.21894000  0.08507000  0.91391000  1.0
  O  O117  1  0.78105000  0.58508000  0.08608000  1.0
  O  O118  1  0.71895000  0.08507000  0.58608000  1.0
  O  O119  1  0.28105000  0.58507000  0.41391000  1.0
  O  O120  1  0.89989000  0.37023000  0.75866000  1.0
  O  O121  1  0.10011000  0.87024000  0.24133000  1.0
  O  O122  1  0.39989000  0.37023000  0.74133000  1.0
  O  O123  1  0.60011000  0.87024000  0.25867000  1.0
  O  O124  1  0.54344000  0.67516000  0.94033000  1.0
  O  O125  1  0.45653000  0.17516000  0.05968000  1.0
  O  O126  1  0.04348000  0.67517000  0.55968000  1.0
  O  O127  1  0.95656000  0.17515000  0.44033000  1.0
  O  O128  1  0.57778000  0.55049000  0.82233000  1.0
  O  O129  1  0.42223000  0.05049000  0.17768000  1.0
  O  O130  1  0.07778000  0.55050000  0.67768000  1.0
  O  O131  1  0.92222000  0.05050000  0.32232000  1.0
