# generated using pymatgen
data_H14PbC13(BrN)2
_symmetry_space_group_name_H-M   'P 1'
_cell_length_a   4.37765000
_cell_length_b   10.99940000
_cell_length_c   15.40460000
_cell_angle_alpha   90.00320000
_cell_angle_beta   90.00610000
_cell_angle_gamma   96.83500000
_symmetry_Int_Tables_number   1
_chemical_formula_structural   H14PbC13(BrN)2
_chemical_formula_sum   'H28 Pb2 C26 Br4 N4'
_cell_volume   736.48329464
_cell_formula_units_Z   2
loop_
 _symmetry_equiv_pos_site_id
 _symmetry_equiv_pos_as_xyz
  1  'x, y, z'
loop_
 _atom_site_type_symbol
 _atom_site_label
 _atom_site_symmetry_multiplicity
 _atom_site_fract_x
 _atom_site_fract_y
 _atom_site_fract_z
 _atom_site_occupancy
  H  H0  1  0.37235000  0.55770000  0.57218000  1.0
  H  H1  1  0.62760000  0.44231000  0.07218000  1.0
  H  H2  1  0.62762000  0.44232000  0.42783000  1.0
  H  H3  1  0.37238000  0.55769000  0.92781000  1.0
  H  H4  1  0.14626000  0.59216000  0.42602000  1.0
  H  H5  1  0.85372000  0.40783000  0.92604000  1.0
  H  H6  1  0.85375000  0.40784000  0.57397000  1.0
  H  H7  1  0.14625000  0.59216000  0.07394000  1.0
  H  H8  1  0.65841000  0.95179000  0.42642000  1.0
  H  H9  1  0.34164000  0.04819000  0.92639000  1.0
  H  H10  1  0.34160000  0.04821000  0.57358000  1.0
  H  H11  1  0.65836000  0.95180000  0.07360000  1.0
  H  H12  1  0.87294000  0.90111000  0.57164000  1.0
  H  H13  1  0.12709000  0.09889000  0.07160000  1.0
  H  H14  1  0.12703000  0.09891000  0.42837000  1.0
  H  H15  1  0.87289000  0.90111000  0.92839000  1.0
  H  H16  1  0.18707000  0.90109000  0.33025000  1.0
  H  H17  1  0.81296000  0.09889000  0.83026000  1.0
  H  H18  1  0.81300000  0.09892000  0.66973000  1.0
  H  H19  1  0.18707000  0.90110000  0.16974000  1.0
  H  H20  1  0.00188000  0.74833000  0.32811000  1.0
  H  H21  1  0.99815000  0.25165000  0.82815000  1.0
  H  H22  1  0.99815000  0.25168000  0.67188000  1.0
  H  H23  1  0.00186000  0.74834000  0.17185000  1.0
  H  H24  1  0.63166000  0.83666000  0.25000000  1.0
  H  H25  1  0.36837000  0.16332000  0.74998000  1.0
  H  H26  1  0.45770000  0.68185000  0.24999000  1.0
  H  H27  1  0.54230000  0.31814000  0.75000000  1.0
  Pb  Pb28  1  0.69361000  0.70865000  0.75000000  1.0
  Pb  Pb29  1  0.30639000  0.29133000  0.25000000  1.0
  C  C30  1  0.43512000  0.64307000  0.53684000  1.0
  C  C31  1  0.56487000  0.35692000  0.03684000  1.0
  C  C32  1  0.56486000  0.35694000  0.46316000  1.0
  C  C33  1  0.43511000  0.64307000  0.96315000  1.0
  C  C34  1  0.30725000  0.66312000  0.45622000  1.0
  C  C35  1  0.69274000  0.33688000  0.95623000  1.0
  C  C36  1  0.69276000  0.33689000  0.54378000  1.0
  C  C37  1  0.30724000  0.66312000  0.04377000  1.0
  C  C38  1  0.37903000  0.77643000  0.41499000  1.0
  C  C39  1  0.62099000  0.22356000  0.91499000  1.0
  C  C40  1  0.62099000  0.22358000  0.58501000  1.0
  C  C41  1  0.37901000  0.77643000  0.08501000  1.0
  C  C42  1  0.59189000  0.86273000  0.45641000  1.0
  C  C43  1  0.40814000  0.13726000  0.95638000  1.0
  C  C44  1  0.40812000  0.13728000  0.54360000  1.0
  C  C45  1  0.59184000  0.86274000  0.04361000  1.0
  C  C46  1  0.71126000  0.83509000  0.53677000  1.0
  C  C47  1  0.28876000  0.16490000  0.03674000  1.0
  C  C48  1  0.28873000  0.16492000  0.46323000  1.0
  C  C49  1  0.71122000  0.83509000  0.96325000  1.0
  C  C50  1  0.22715000  0.80409000  0.33131000  1.0
  C  C51  1  0.77288000  0.19590000  0.83132000  1.0
  C  C52  1  0.77290000  0.19592000  0.66868000  1.0
  C  C53  1  0.22713000  0.80409000  0.16867000  1.0
  C  C54  1  0.41061000  0.77792000  0.25000000  1.0
  C  C55  1  0.58940000  0.22207000  0.75000000  1.0
  Br  Br56  1  0.12739000  0.51415000  0.75002000  1.0
  Br  Br57  1  0.87262000  0.48582000  0.25004000  1.0
  Br  Br58  1  0.23437000  0.90241000  0.75000000  1.0
  Br  Br59  1  0.76564000  0.09760000  0.25000000  1.0
  N  N60  1  0.63224000  0.72764000  0.57730000  1.0
  N  N61  1  0.36776000  0.27235000  0.07729000  1.0
  N  N62  1  0.36774000  0.27238000  0.42270000  1.0
  N  N63  1  0.63223000  0.72763000  0.92271000  1.0
