# generated using pymatgen
data_AgH8C8N2O2F3
_symmetry_space_group_name_H-M   'P 1'
_cell_length_a   9.32361000
_cell_length_b   10.66430000
_cell_length_c   11.57580000
_cell_angle_alpha   96.28010000
_cell_angle_beta   91.39850000
_cell_angle_gamma   114.68400000
_symmetry_Int_Tables_number   1
_chemical_formula_structural   AgH8C8N2O2F3
_chemical_formula_sum   'Ag4 H32 C32 N8 O8 F12'
_cell_volume   1036.39754839
_cell_formula_units_Z   4
loop_
 _symmetry_equiv_pos_site_id
 _symmetry_equiv_pos_as_xyz
  1  'x, y, z'
loop_
 _atom_site_type_symbol
 _atom_site_label
 _atom_site_symmetry_multiplicity
 _atom_site_fract_x
 _atom_site_fract_y
 _atom_site_fract_z
 _atom_site_occupancy
  Ag  Ag0  1  0.46672000  0.66740000  0.62217000  1.0
  Ag  Ag1  1  0.53328000  0.33260000  0.37783000  1.0
  Ag  Ag2  1  0.88318000  0.72203000  0.95292000  1.0
  Ag  Ag3  1  0.11682000  0.27797000  0.04708000  1.0
  H  H4  1  0.72055000  0.70962000  0.52022000  1.0
  H  H5  1  0.27945000  0.29038000  0.47978000  1.0
  H  H6  1  0.78053000  0.79299000  0.65947000  1.0
  H  H7  1  0.21947000  0.20701000  0.34053000  1.0
  H  H8  1  0.27644000  0.83084000  0.55138000  1.0
  H  H9  1  0.72356000  0.16916000  0.44862000  1.0
  H  H10  1  0.00180000  0.80788000  0.55562000  1.0
  H  H11  1  0.99820000  0.19212000  0.44438000  1.0
  H  H12  1  0.88294000  0.42724000  0.70730000  1.0
  H  H13  1  0.11706000  0.57276000  0.29270000  1.0
  H  H14  1  0.16513000  0.46564000  0.69634000  1.0
  H  H15  1  0.83488000  0.53436000  0.30366000  1.0
  H  H16  1  0.67227000  0.49278000  0.58108000  1.0
  H  H17  1  0.32773000  0.50722000  0.41892000  1.0
  H  H18  1  0.71335000  0.56931000  0.72779000  1.0
  H  H19  1  0.28664000  0.43069000  0.27221000  1.0
  H  H20  1  0.56506000  0.59056000  0.90067000  1.0
  H  H21  1  0.43494000  0.40944000  0.09933000  1.0
  H  H22  1  0.61075000  0.65711000  0.04048000  1.0
  H  H23  1  0.38925000  0.34289000  0.95951000  1.0
  H  H24  1  0.08932000  0.59031000  0.05540000  1.0
  H  H25  1  0.91068000  0.40969000  0.94461000  1.0
  H  H26  1  0.36295000  0.61113000  0.05014000  1.0
  H  H27  1  0.63705000  0.38887000  0.94986000  1.0
  H  H28  1  0.45789000  0.93809000  0.83372000  1.0
  H  H29  1  0.54211000  0.06191000  0.16628000  1.0
  H  H30  1  0.17668000  0.90250000  0.84638000  1.0
  H  H31  1  0.82332000  0.09750000  0.15362000  1.0
  H  H32  1  0.64331000  0.82454000  0.84668000  1.0
  H  H33  1  0.35669000  0.17547000  0.15332000  1.0
  H  H34  1  0.68064000  0.88759000  0.99593000  1.0
  H  H35  1  0.31937000  0.11241000  0.00407000  1.0
  C  C36  1  0.18597000  0.74287000  0.58578000  1.0
  C  C37  1  0.81403000  0.25713000  0.41422000  1.0
  C  C38  1  0.03107000  0.72885000  0.58822000  1.0
  C  C39  1  0.96893000  0.27115000  0.41178000  1.0
  C  C40  1  0.91719000  0.61476000  0.63247000  1.0
  C  C41  1  0.08281000  0.38524000  0.36753000  1.0
  C  C42  1  0.96653000  0.51888000  0.67269000  1.0
  C  C43  1  0.03347000  0.48112000  0.32731000  1.0
  C  C44  1  0.12296000  0.53909000  0.66774000  1.0
  C  C45  1  0.87704000  0.46091000  0.33226000  1.0
  C  C46  1  0.74613000  0.58941000  0.63877000  1.0
  C  C47  1  0.25387000  0.41059000  0.36123000  1.0
  C  C48  1  0.39907000  0.34492000  0.71824000  1.0
  C  C49  1  0.60093000  0.65507000  0.28176000  1.0
  C  C50  1  0.41118000  0.20276000  0.68974000  1.0
  C  C51  1  0.58883000  0.79724000  0.31025000  1.0
  C  C52  1  0.17358000  0.66478000  0.00526000  1.0
  C  C53  1  0.82642000  0.33522000  0.99474000  1.0
  C  C54  1  0.32745000  0.67694000  0.00179000  1.0
  C  C55  1  0.67256000  0.32306000  0.99821000  1.0
  C  C56  1  0.43485000  0.77580000  0.93932000  1.0
  C  C57  1  0.56515000  0.22420000  0.06068000  1.0
  C  C58  1  0.37963000  0.85875000  0.88318000  1.0
  C  C59  1  0.62037000  0.14125000  0.11682000  1.0
  C  C60  1  0.22340000  0.83982000  0.88934000  1.0
  C  C61  1  0.77660000  0.16018000  0.11066000  1.0
  C  C62  1  0.60461000  0.79730000  0.93297000  1.0
  C  C63  1  0.39539000  0.20270000  0.06703000  1.0
  C  C64  1  0.01663000  0.97342000  0.19801000  1.0
  C  C65  1  0.98337000  0.02658000  0.80199000  1.0
  C  C66  1  0.10026000  0.89996000  0.26596000  1.0
  C  C67  1  0.89974000  0.10004000  0.73404000  1.0
  N  N68  1  0.23233000  0.64990000  0.62492000  1.0
  N  N69  1  0.76768000  0.35010000  0.37508000  1.0
  N  N70  1  0.70638000  0.70158000  0.60767000  1.0
  N  N71  1  0.29362000  0.29842000  0.39233000  1.0
  N  N72  1  0.12018000  0.74317000  0.94910000  1.0
  N  N73  1  0.87982000  0.25683000  0.05090000  1.0
  N  N74  1  0.63643000  0.67819000  0.95661000  1.0
  N  N75  1  0.36357000  0.32181000  0.04339000  1.0
  O  O76  1  0.34002000  0.37984000  0.63579000  1.0
  O  O77  1  0.65996000  0.62014000  0.36422000  1.0
  O  O78  1  0.45725000  0.41082000  0.81745000  1.0
  O  O79  1  0.54275000  0.58917000  0.18255000  1.0
  O  O80  1  0.89355000  0.89685000  0.13528000  1.0
  O  O81  1  0.10645000  0.10315000  0.86472000  1.0
  O  O82  1  0.08704000  0.10476000  0.21636000  1.0
  O  O83  1  0.91296000  0.89524000  0.78364000  1.0
  F  F84  1  0.28512000  0.10557000  0.62004000  1.0
  F  F85  1  0.71489000  0.89442000  0.37996000  1.0
  F  F86  1  0.54411000  0.22353000  0.62984000  1.0
  F  F87  1  0.45590000  0.77648000  0.37016000  1.0
  F  F88  1  0.42629000  0.14486000  0.78540000  1.0
  F  F89  1  0.57371000  0.85513000  0.21460000  1.0
  F  F90  1  0.11952000  0.94484000  0.38350000  1.0
  F  F91  1  0.88047000  0.05516000  0.61650000  1.0
  F  F92  1  0.02022000  0.75869000  0.25283000  1.0
  F  F93  1  0.97978000  0.24132000  0.74717000  1.0
  F  F94  1  0.24908000  0.92892000  0.23041000  1.0
  F  F95  1  0.75092000  0.07108000  0.76960000  1.0
