# generated using pymatgen
data_SmAgH6C12(NO2)4
_symmetry_space_group_name_H-M   'P 1'
_cell_length_a   8.07362000
_cell_length_b   10.12030000
_cell_length_c   18.66610000
_cell_angle_alpha   89.99970000
_cell_angle_beta   90.00000000
_cell_angle_gamma   95.69870000
_symmetry_Int_Tables_number   1
_chemical_formula_structural   SmAgH6C12(NO2)4
_chemical_formula_sum   'Sm4 Ag4 H24 C48 N16 O32'
_cell_volume   1517.62194533
_cell_formula_units_Z   4
loop_
 _symmetry_equiv_pos_site_id
 _symmetry_equiv_pos_as_xyz
  1  'x, y, z'
loop_
 _atom_site_type_symbol
 _atom_site_label
 _atom_site_symmetry_multiplicity
 _atom_site_fract_x
 _atom_site_fract_y
 _atom_site_fract_z
 _atom_site_occupancy
  Sm  Sm0  1  0.25953000  0.64698000  0.10559000  1.0
  Sm  Sm1  1  0.24046000  0.35302000  0.60560000  1.0
  Sm  Sm2  1  0.74047000  0.35302000  0.89441000  1.0
  Sm  Sm3  1  0.75953000  0.64698000  0.39440000  1.0
  Ag  Ag4  1  0.60487000  0.15322000  0.07623000  1.0
  Ag  Ag5  1  0.89513000  0.84677000  0.57622000  1.0
  Ag  Ag6  1  0.39514000  0.84677000  0.92377000  1.0
  Ag  Ag7  1  0.10486000  0.15322000  0.42377000  1.0
  H  H8  1  0.01686000  0.14916000  0.08417000  1.0
  H  H9  1  0.48314000  0.85084000  0.58417000  1.0
  H  H10  1  0.98314000  0.85084000  0.91583000  1.0
  H  H11  1  0.51686000  0.14916000  0.41583000  1.0
  H  H12  1  0.61743000  0.85555000  0.08048000  1.0
  H  H13  1  0.88257000  0.14445000  0.58048000  1.0
  H  H14  1  0.38257000  0.14445000  0.91952000  1.0
  H  H15  1  0.11743000  0.85556000  0.41952000  1.0
  H  H16  1  0.81697000  0.67952000  0.09059000  1.0
  H  H17  1  0.68303000  0.32048000  0.59059000  1.0
  H  H18  1  0.18303000  0.32048000  0.90941000  1.0
  H  H19  1  0.31697000  0.67952000  0.40941000  1.0
  H  H20  1  0.11952000  0.45118000  0.38062000  1.0
  H  H21  1  0.38049000  0.54882000  0.88062000  1.0
  H  H22  1  0.88050000  0.54882000  0.61938000  1.0
  H  H23  1  0.61952000  0.45119000  0.11938000  1.0
  H  H24  1  0.30024000  0.29800000  0.14977000  1.0
  H  H25  1  0.19976000  0.70200000  0.64977000  1.0
  H  H26  1  0.69976000  0.70199000  0.85023000  1.0
  H  H27  1  0.80024000  0.29800000  0.35023000  1.0
  H  H28  1  0.26399000  0.14261000  0.25589000  1.0
  H  H29  1  0.23601000  0.85739000  0.75588000  1.0
  H  H30  1  0.73601000  0.85739000  0.74412000  1.0
  H  H31  1  0.76399000  0.14261000  0.24411000  1.0
  C  C32  1  0.10495000  0.63503000  0.27217000  1.0
  C  C33  1  0.39506000  0.36497000  0.77217000  1.0
  C  C34  1  0.89506000  0.36496000  0.72783000  1.0
  C  C35  1  0.60495000  0.63504000  0.22783000  1.0
  C  C36  1  0.97141000  0.04404000  0.08619000  1.0
  C  C37  1  0.52859000  0.95597000  0.58619000  1.0
  C  C38  1  0.02860000  0.95597000  0.91381000  1.0
  C  C39  1  0.47141000  0.04404000  0.41381000  1.0
  C  C40  1  0.16595000  0.49855000  0.26948000  1.0
  C  C41  1  0.33405000  0.50145000  0.76948000  1.0
  C  C42  1  0.83406000  0.50145000  0.73052000  1.0
  C  C43  1  0.66595000  0.49856000  0.23052000  1.0
  C  C44  1  0.08137000  0.94620000  0.09122000  1.0
  C  C45  1  0.41862000  0.05380000  0.59122000  1.0
  C  C46  1  0.91862000  0.05380000  0.90878000  1.0
  C  C47  1  0.58137000  0.94620000  0.40878000  1.0
  C  C48  1  0.26778000  0.97861000  0.09181000  1.0
  C  C49  1  0.23222000  0.02138000  0.59181000  1.0
  C  C50  1  0.73222000  0.02139000  0.90819000  1.0
  C  C51  1  0.76778000  0.97861000  0.40819000  1.0
  C  C52  1  0.75113000  0.88141000  0.08364000  1.0
  C  C53  1  0.74887000  0.11859000  0.58364000  1.0
  C  C54  1  0.24888000  0.11859000  0.91636000  1.0
  C  C55  1  0.25113000  0.88141000  0.41636000  1.0
  C  C56  1  0.86173000  0.78447000  0.08912000  1.0
  C  C57  1  0.63827000  0.21553000  0.58911000  1.0
  C  C58  1  0.13827000  0.21553000  0.91088000  1.0
  C  C59  1  0.36173000  0.78447000  0.41088000  1.0
  C  C60  1  0.15708000  0.41509000  0.32899000  1.0
  C  C61  1  0.34293000  0.58491000  0.82899000  1.0
  C  C62  1  0.84294000  0.58491000  0.67101000  1.0
  C  C63  1  0.65707000  0.41509000  0.17101000  1.0
  C  C64  1  0.25902000  0.33182000  0.20164000  1.0
  C  C65  1  0.24097000  0.66818000  0.70164000  1.0
  C  C66  1  0.74098000  0.66818000  0.79837000  1.0
  C  C67  1  0.75903000  0.33182000  0.29836000  1.0
  C  C68  1  0.23965000  0.24645000  0.26053000  1.0
  C  C69  1  0.26035000  0.75355000  0.76053000  1.0
  C  C70  1  0.76035000  0.75355000  0.73947000  1.0
  C  C71  1  0.73965000  0.24645000  0.23947000  1.0
  C  C72  1  0.45592000  0.43192000  0.01232000  1.0
  C  C73  1  0.04406000  0.56807000  0.51232000  1.0
  C  C74  1  0.54406000  0.56807000  0.98768000  1.0
  C  C75  1  0.95592000  0.43192000  0.48768000  1.0
  C  C76  1  0.95691000  0.46173000  0.03232000  1.0
  C  C77  1  0.54309000  0.53828000  0.53232000  1.0
  C  C78  1  0.04310000  0.53829000  0.96768000  1.0
  C  C79  1  0.45691000  0.46172000  0.46768000  1.0
  N  N80  1  0.22349000  0.45823000  0.20648000  1.0
  N  N81  1  0.27652000  0.54177000  0.70648000  1.0
  N  N82  1  0.77652000  0.54177000  0.79352000  1.0
  N  N83  1  0.72349000  0.45823000  0.29352000  1.0
  N  N84  1  0.02599000  0.81629000  0.09219000  1.0
  N  N85  1  0.47401000  0.18371000  0.59218000  1.0
  N  N86  1  0.97401000  0.18371000  0.90782000  1.0
  N  N87  1  0.52599000  0.81629000  0.40781000  1.0
  N  N88  1  0.80614000  0.01107000  0.08165000  1.0
  N  N89  1  0.69386000  0.98893000  0.58165000  1.0
  N  N90  1  0.19387000  0.98893000  0.91835000  1.0
  N  N91  1  0.30614000  0.01107000  0.41835000  1.0
  N  N92  1  0.19204000  0.28885000  0.32473000  1.0
  N  N93  1  0.30797000  0.71115000  0.82473000  1.0
  N  N94  1  0.80797000  0.71115000  0.67527000  1.0
  N  N95  1  0.69204000  0.28885000  0.17527000  1.0
  O  O96  1  0.14583000  0.71189000  0.22029000  1.0
  O  O97  1  0.35417000  0.28811000  0.72029000  1.0
  O  O98  1  0.85417000  0.28811000  0.77971000  1.0
  O  O99  1  0.64583000  0.71189000  0.27971000  1.0
  O  O100  1  0.35403000  0.87967000  0.09078000  1.0
  O  O101  1  0.14597000  0.12033000  0.59079000  1.0
  O  O102  1  0.64597000  0.12033000  0.90921000  1.0
  O  O103  1  0.85403000  0.87967000  0.40921000  1.0
  O  O104  1  0.01564000  0.65989000  0.32543000  1.0
  O  O105  1  0.48437000  0.34012000  0.82543000  1.0
  O  O106  1  0.98436000  0.34011000  0.67458000  1.0
  O  O107  1  0.51564000  0.65989000  0.17457000  1.0
  O  O108  1  0.32253000  0.09972000  0.09134000  1.0
  O  O109  1  0.17748000  0.90028000  0.59134000  1.0
  O  O110  1  0.67748000  0.90028000  0.90867000  1.0
  O  O111  1  0.82252000  0.09972000  0.40867000  1.0
  O  O112  1  0.99776000  0.50388000  0.09442000  1.0
  O  O113  1  0.50224000  0.49613000  0.59442000  1.0
  O  O114  1  0.00224000  0.49614000  0.90558000  1.0
  O  O115  1  0.49776000  0.50387000  0.40559000  1.0
  O  O116  1  0.33862000  0.43517000  0.05700000  1.0
  O  O117  1  0.16135000  0.56482000  0.55700000  1.0
  O  O118  1  0.66135000  0.56482000  0.94300000  1.0
  O  O119  1  0.83863000  0.43517000  0.44300000  1.0
  O  O120  1  0.51039000  0.32904000  0.98603000  1.0
  O  O121  1  0.98959000  0.67095000  0.48603000  1.0
  O  O122  1  0.48959000  0.67095000  0.01397000  1.0
  O  O123  1  0.01039000  0.32904000  0.51397000  1.0
  O  O124  1  0.85166000  0.36448000  0.01733000  1.0
  O  O125  1  0.64835000  0.63553000  0.51733000  1.0
  O  O126  1  0.14835000  0.63554000  0.98267000  1.0
  O  O127  1  0.35166000  0.36447000  0.48267000  1.0
