# generated using pymatgen
data_CuH15C16N3O2
_symmetry_space_group_name_H-M   'P 1'
_cell_length_a   8.98166000
_cell_length_b   9.37154000
_cell_length_c   18.36210000
_cell_angle_alpha   90.00150000
_cell_angle_beta   93.45970000
_cell_angle_gamma   89.99850000
_symmetry_Int_Tables_number   1
_chemical_formula_structural   CuH15C16N3O2
_chemical_formula_sum   'Cu4 H60 C64 N12 O8'
_cell_volume   1542.75759917
_cell_formula_units_Z   4
loop_
 _symmetry_equiv_pos_site_id
 _symmetry_equiv_pos_as_xyz
  1  'x, y, z'
loop_
 _atom_site_type_symbol
 _atom_site_label
 _atom_site_symmetry_multiplicity
 _atom_site_fract_x
 _atom_site_fract_y
 _atom_site_fract_z
 _atom_site_occupancy
  Cu  Cu0  1  0.38300000  0.96984000  0.83083000  1.0
  Cu  Cu1  1  0.61703000  0.46986000  0.66919000  1.0
  Cu  Cu2  1  0.61704000  0.03013000  0.16918000  1.0
  Cu  Cu3  1  0.38296000  0.53015000  0.33082000  1.0
  H  H4  1  0.85970000  0.37661000  0.72551000  1.0
  H  H5  1  0.14033000  0.87663000  0.77451000  1.0
  H  H6  1  0.14031000  0.62339000  0.27448000  1.0
  H  H7  1  0.85970000  0.12340000  0.22551000  1.0
  H  H8  1  0.71857000  0.29290000  0.76612000  1.0
  H  H9  1  0.28143000  0.79288000  0.73388000  1.0
  H  H10  1  0.28144000  0.70710000  0.23388000  1.0
  H  H11  1  0.71855000  0.20711000  0.26612000  1.0
  H  H12  1  0.83896000  0.85769000  0.55513000  1.0
  H  H13  1  0.16099000  0.35767000  0.94485000  1.0
  H  H14  1  0.16102000  0.14233000  0.44485000  1.0
  H  H15  1  0.83895000  0.64234000  0.05515000  1.0
  H  H16  1  0.62504000  0.43092000  0.86426000  1.0
  H  H17  1  0.37492000  0.93094000  0.63574000  1.0
  H  H18  1  0.37494000  0.56909000  0.13575000  1.0
  H  H19  1  0.62506000  0.06905000  0.36426000  1.0
  H  H20  1  0.78075000  0.47196000  0.92532000  1.0
  H  H21  1  0.21922000  0.97194000  0.57468000  1.0
  H  H22  1  0.21923000  0.52808000  0.07468000  1.0
  H  H23  1  0.78076000  0.02805000  0.42532000  1.0
  H  H24  1  0.59850000  0.46976000  0.95692000  1.0
  H  H25  1  0.40147000  0.96975000  0.54309000  1.0
  H  H26  1  0.40149000  0.53024000  0.04310000  1.0
  H  H27  1  0.59851000  0.03024000  0.45691000  1.0
  H  H28  1  0.93552000  0.29842000  0.60701000  1.0
  H  H29  1  0.06450000  0.79841000  0.89299000  1.0
  H  H30  1  0.06449000  0.70159000  0.39299000  1.0
  H  H31  1  0.93546000  0.20159000  0.10699000  1.0
  H  H32  1  0.56781000  0.30095000  0.05289000  1.0
  H  H33  1  0.43222000  0.80094000  0.44712000  1.0
  H  H34  1  0.43223000  0.69905000  0.94710000  1.0
  H  H35  1  0.56779000  0.19905000  0.55289000  1.0
  H  H36  1  0.77568000  0.21096000  0.90522000  1.0
  H  H37  1  0.22433000  0.71095000  0.59478000  1.0
  H  H38  1  0.22435000  0.78909000  0.09476000  1.0
  H  H39  1  0.77565000  0.28904000  0.40522000  1.0
  H  H40  1  0.73042000  0.24329000  0.99590000  1.0
  H  H41  1  0.26961000  0.74327000  0.50411000  1.0
  H  H42  1  0.26964000  0.75671000  0.00409000  1.0
  H  H43  1  0.73038000  0.25672000  0.49589000  1.0
  H  H44  1  0.97848000  0.08566000  0.53262000  1.0
  H  H45  1  0.02145000  0.58565000  0.96735000  1.0
  H  H46  1  0.02151000  0.91435000  0.46737000  1.0
  H  H47  1  0.97847000  0.41436000  0.03263000  1.0
  H  H48  1  0.39625000  0.29159000  0.15140000  1.0
  H  H49  1  0.60376000  0.79151000  0.34860000  1.0
  H  H50  1  0.60376000  0.70848000  0.84858000  1.0
  H  H51  1  0.39625000  0.20847000  0.65140000  1.0
  H  H52  1  0.66726000  0.84991000  0.65633000  1.0
  H  H53  1  0.33273000  0.34990000  0.84366000  1.0
  H  H54  1  0.33273000  0.15010000  0.34365000  1.0
  H  H55  1  0.66727000  0.65012000  0.15636000  1.0
  H  H56  1  0.10696000  0.01378000  0.01963000  1.0
  H  H57  1  0.89306000  0.51376000  0.48039000  1.0
  H  H58  1  0.89309000  0.98620000  0.98037000  1.0
  H  H59  1  0.10692000  0.48620000  0.51962000  1.0
  H  H60  1  0.16452000  0.14347000  0.13600000  1.0
  H  H61  1  0.83549000  0.64337000  0.36400000  1.0
  H  H62  1  0.83549000  0.85660000  0.86398000  1.0
  H  H63  1  0.16452000  0.35659000  0.63601000  1.0
  C  C64  1  0.54934000  0.17539000  0.92351000  1.0
  C  C65  1  0.45070000  0.67541000  0.57650000  1.0
  C  C66  1  0.45071000  0.82458000  0.07649000  1.0
  C  C67  1  0.54930000  0.32458000  0.42350000  1.0
  C  C68  1  0.82608000  0.95150000  0.58934000  1.0
  C  C69  1  0.17389000  0.45149000  0.91064000  1.0
  C  C70  1  0.17391000  0.04851000  0.41064000  1.0
  C  C71  1  0.82608000  0.54852000  0.08936000  1.0
  C  C72  1  0.30399000  0.08103000  0.96856000  1.0
  C  C73  1  0.69604000  0.58103000  0.53146000  1.0
  C  C74  1  0.69607000  0.91894000  0.03145000  1.0
  C  C75  1  0.30394000  0.41894000  0.46854000  1.0
  C  C76  1  0.78594000  0.19347000  0.67643000  1.0
  C  C77  1  0.21407000  0.69347000  0.82358000  1.0
  C  C78  1  0.21408000  0.80653000  0.32357000  1.0
  C  C79  1  0.78592000  0.30654000  0.17642000  1.0
  C  C80  1  0.67292000  0.41660000  0.92020000  1.0
  C  C81  1  0.32706000  0.91660000  0.57981000  1.0
  C  C82  1  0.32707000  0.58341000  0.07981000  1.0
  C  C83  1  0.67293000  0.08338000  0.42020000  1.0
  C  C84  1  0.88184000  0.19790000  0.61935000  1.0
  C  C85  1  0.11814000  0.69791000  0.88065000  1.0
  C  C86  1  0.11817000  0.80211000  0.38065000  1.0
  C  C87  1  0.88181000  0.30210000  0.11934000  1.0
  C  C88  1  0.46687000  0.23722000  0.04504000  1.0
  C  C89  1  0.53315000  0.73720000  0.45497000  1.0
  C  C90  1  0.53317000  0.76279000  0.95495000  1.0
  C  C91  1  0.46684000  0.26277000  0.54504000  1.0
  C  C92  1  0.70858000  0.06573000  0.69072000  1.0
  C  C93  1  0.29141000  0.56573000  0.80928000  1.0
  C  C94  1  0.29143000  0.93426000  0.30928000  1.0
  C  C95  1  0.70858000  0.43428000  0.19072000  1.0
  C  C96  1  0.60720000  0.05147000  0.75101000  1.0
  C  C97  1  0.39280000  0.55147000  0.74900000  1.0
  C  C98  1  0.39282000  0.94852000  0.24899000  1.0
  C  C99  1  0.60718000  0.44854000  0.25101000  1.0
  C  C100  1  0.69155000  0.25810000  0.93872000  1.0
  C  C101  1  0.30846000  0.75810000  0.56129000  1.0
  C  C102  1  0.30847000  0.74191000  0.06128000  1.0
  C  C103  1  0.69153000  0.24189000  0.43871000  1.0
  C  C104  1  0.90332000  0.07774000  0.57679000  1.0
  C  C105  1  0.09664000  0.57774000  0.92320000  1.0
  C  C106  1  0.09668000  0.92227000  0.42321000  1.0
  C  C107  1  0.90330000  0.42227000  0.07679000  1.0
  C  C108  1  0.43946000  0.16355000  0.97808000  1.0
  C  C109  1  0.56058000  0.66357000  0.52194000  1.0
  C  C110  1  0.56059000  0.83643000  0.02193000  1.0
  C  C111  1  0.43941000  0.33642000  0.47807000  1.0
  C  C112  1  0.37059000  0.23248000  0.10116000  1.0
  C  C113  1  0.62943000  0.73242000  0.39885000  1.0
  C  C114  1  0.62942000  0.76757000  0.89883000  1.0
  C  C115  1  0.37057000  0.26755000  0.60116000  1.0
  C  C116  1  0.72909000  0.94689000  0.64569000  1.0
  C  C117  1  0.27090000  0.44688000  0.85431000  1.0
  C  C118  1  0.27091000  0.05311000  0.35430000  1.0
  C  C119  1  0.72908000  0.55313000  0.14570000  1.0
  C  C120  1  0.20698000  0.07923000  0.02699000  1.0
  C  C121  1  0.79304000  0.57919000  0.47302000  1.0
  C  C122  1  0.79305000  0.92077000  0.97301000  1.0
  C  C123  1  0.20695000  0.42076000  0.52699000  1.0
  C  C124  1  0.23946000  0.15164000  0.09167000  1.0
  C  C125  1  0.76054000  0.65157000  0.40833000  1.0
  C  C126  1  0.76055000  0.84842000  0.90831000  1.0
  C  C127  1  0.23945000  0.34839000  0.59168000  1.0
  N  N128  1  0.62849000  0.13868000  0.80754000  1.0
  N  N129  1  0.37152000  0.63868000  0.69247000  1.0
  N  N130  1  0.37153000  0.86131000  0.19245000  1.0
  N  N131  1  0.62847000  0.36133000  0.30754000  1.0
  N  N132  1  0.76256000  0.32076000  0.71685000  1.0
  N  N133  1  0.23746000  0.82076000  0.78316000  1.0
  N  N134  1  0.23745000  0.67923000  0.28315000  1.0
  N  N135  1  0.76255000  0.17924000  0.21684000  1.0
  N  N136  1  0.52612000  0.11600000  0.85878000  1.0
  N  N137  1  0.47391000  0.61602000  0.64123000  1.0
  N  N138  1  0.47393000  0.88397000  0.14122000  1.0
  N  N139  1  0.52608000  0.38399000  0.35878000  1.0
  O  O140  1  0.50425000  0.95377000  0.74603000  1.0
  O  O141  1  0.49576000  0.45375000  0.75397000  1.0
  O  O142  1  0.49576000  0.04624000  0.25396000  1.0
  O  O143  1  0.50424000  0.54626000  0.24603000  1.0
  O  O144  1  0.26313000  0.00351000  0.91082000  1.0
  O  O145  1  0.73690000  0.50354000  0.58920000  1.0
  O  O146  1  0.73693000  0.99642000  0.08920000  1.0
  O  O147  1  0.26307000  0.49643000  0.41080000  1.0
