# generated using pymatgen
data_NiH21C27N7O5
_symmetry_space_group_name_H-M   'P 1'
_cell_length_a   9.65402000
_cell_length_b   13.66230000
_cell_length_c   13.66070000
_cell_angle_alpha   84.34000000
_cell_angle_beta   78.36690000
_cell_angle_gamma   78.30210000
_symmetry_Int_Tables_number   1
_chemical_formula_structural   NiH21C27N7O5
_chemical_formula_sum   'Ni2 H42 C54 N14 O10'
_cell_volume   1724.99387104
_cell_formula_units_Z   2
loop_
 _symmetry_equiv_pos_site_id
 _symmetry_equiv_pos_as_xyz
  1  'x, y, z'
loop_
 _atom_site_type_symbol
 _atom_site_label
 _atom_site_symmetry_multiplicity
 _atom_site_fract_x
 _atom_site_fract_y
 _atom_site_fract_z
 _atom_site_occupancy
  Ni  Ni0  1  0.13995000  0.78751000  0.78816000  1.0
  Ni  Ni1  1  0.86036000  0.21170000  0.21295000  1.0
  H  H2  1  0.91774000  0.78882000  0.66518000  1.0
  H  H3  1  0.08434000  0.33354000  0.21085000  1.0
  H  H4  1  0.08167000  0.20865000  0.33672000  1.0
  H  H5  1  0.91931000  0.66323000  0.79061000  1.0
  H  H6  1  0.77313000  0.90960000  0.55650000  1.0
  H  H7  1  0.22865000  0.44179000  0.08967000  1.0
  H  H8  1  0.22884000  0.08636000  0.44270000  1.0
  H  H9  1  0.77293000  0.55679000  0.91262000  1.0
  H  H10  1  0.79162000  0.09319000  0.54859000  1.0
  H  H11  1  0.20858000  0.45005000  0.90632000  1.0
  H  H12  1  0.21173000  0.90276000  0.44786000  1.0
  H  H13  1  0.78936000  0.55197000  0.09636000  1.0
  H  H14  1  0.94250000  0.14470000  0.65367000  1.0
  H  H15  1  0.05614000  0.34564000  0.85545000  1.0
  H  H16  1  0.05922000  0.85278000  0.34285000  1.0
  H  H17  1  0.94058000  0.65763000  0.14667000  1.0
  H  H18  1  0.31923000  0.93821000  0.17093000  1.0
  H  H19  1  0.68077000  0.82870000  0.06194000  1.0
  H  H20  1  0.68047000  0.06365000  0.82824000  1.0
  H  H21  1  0.31971000  0.17172000  0.93578000  1.0
  H  H22  1  0.46250000  0.02376000  0.25604000  1.0
  H  H23  1  0.53837000  0.74330000  0.97594000  1.0
  H  H24  1  0.53781000  0.97840000  0.74226000  1.0
  H  H25  1  0.46284000  0.25736000  0.02087000  1.0
  H  H26  1  0.53677000  0.18262000  0.18022000  1.0
  H  H27  1  0.46424000  0.81902000  0.81697000  1.0
  H  H28  1  0.51896000  0.83802000  0.42589000  1.0
  H  H29  1  0.48207000  0.57468000  0.16284000  1.0
  H  H30  1  0.47622000  0.16394000  0.57399000  1.0
  H  H31  1  0.52018000  0.42561000  0.83812000  1.0
  H  H32  1  0.33978000  0.03291000  0.66541000  1.0
  H  H33  1  0.65817000  0.33423000  0.96867000  1.0
  H  H34  1  0.65595000  0.96897000  0.33465000  1.0
  H  H35  1  0.34392000  0.66600000  0.03229000  1.0
  H  H36  1  0.21501000  0.62537000  0.71532000  1.0
  H  H37  1  0.78491000  0.28530000  0.37471000  1.0
  H  H38  1  0.09989000  0.09990000  0.76164000  1.0
  H  H39  1  0.89845000  0.23821000  0.90074000  1.0
  H  H40  1  0.89790000  0.89949000  0.23768000  1.0
  H  H41  1  0.10139000  0.76296000  0.10029000  1.0
  H  H42  1  0.21495000  0.71425000  0.62640000  1.0
  H  H43  1  0.78728000  0.37396000  0.28583000  1.0
  C  C44  1  0.91689000  0.86894000  0.66169000  1.0
  C  C45  1  0.08434000  0.33718000  0.13082000  1.0
  C  C46  1  0.08316000  0.12851000  0.33898000  1.0
  C  C47  1  0.91763000  0.66106000  0.87078000  1.0
  C  C48  1  0.83947000  0.93593000  0.60023000  1.0
  C  C49  1  0.16162000  0.39842000  0.06361000  1.0
  C  C50  1  0.16196000  0.06067000  0.39893000  1.0
  C  C51  1  0.83920000  0.60088000  0.93847000  1.0
  C  C52  1  0.84917000  0.03703000  0.59600000  1.0
  C  C53  1  0.15108000  0.40281000  0.96262000  1.0
  C  C54  1  0.15306000  0.95953000  0.40157000  1.0
  C  C55  1  0.84777000  0.59839000  0.03968000  1.0
  C  C56  1  0.93340000  0.06628000  0.65471000  1.0
  C  C57  1  0.06598000  0.34453000  0.93376000  1.0
  C  C58  1  0.06778000  0.93118000  0.34307000  1.0
  C  C59  1  0.93234000  0.65724000  0.06821000  1.0
  C  C60  1  0.00557000  0.99430000  0.71691000  1.0
  C  C61  1  0.99396000  0.28255000  0.00593000  1.0
  C  C62  1  0.99394000  0.00405000  0.28257000  1.0
  C  C63  1  0.00588000  0.71789000  0.99549000  1.0
  C  C64  1  0.13416000  0.98427000  0.86065000  1.0
  C  C65  1  0.86500000  0.13909000  0.01627000  1.0
  C  C66  1  0.86462000  0.01565000  0.13911000  1.0
  C  C67  1  0.13475000  0.86142000  0.98411000  1.0
  C  C68  1  0.22900000  0.99790000  0.99675000  1.0
  C  C69  1  0.77053000  0.00296000  0.00246000  1.0
  C  C70  1  0.30988000  0.04984000  0.04828000  1.0
  C  C71  1  0.69011000  0.95130000  0.95026000  1.0
  C  C72  1  0.35084000  0.00832000  0.13882000  1.0
  C  C73  1  0.64937000  0.86074000  0.99171000  1.0
  C  C74  1  0.64921000  0.99329000  0.85983000  1.0
  C  C75  1  0.35106000  0.14007000  0.00615000  1.0
  C  C76  1  0.43118000  0.05623000  0.18592000  1.0
  C  C77  1  0.56950000  0.81347000  0.94355000  1.0
  C  C78  1  0.56921000  0.94554000  0.81225000  1.0
  C  C79  1  0.43139000  0.18746000  0.05379000  1.0
  C  C80  1  0.47221000  0.14590000  0.14377000  1.0
  C  C81  1  0.52862000  0.85553000  0.85375000  1.0
  C  C82  1  0.33761000  0.85026000  0.60464000  1.0
  C  C83  1  0.66325000  0.39586000  0.15038000  1.0
  C  C84  1  0.65960000  0.15081000  0.39576000  1.0
  C  C85  1  0.33883000  0.60433000  0.85067000  1.0
  C  C86  1  0.42213000  0.92761000  0.55129000  1.0
  C  C87  1  0.57759000  0.44898000  0.07347000  1.0
  C  C88  1  0.57363000  0.07413000  0.44880000  1.0
  C  C89  1  0.42465000  0.55128000  0.92752000  1.0
  C  C90  1  0.51109000  0.90950000  0.45780000  1.0
  C  C91  1  0.48897000  0.54263000  0.09157000  1.0
  C  C92  1  0.48427000  0.09241000  0.54213000  1.0
  C  C93  1  0.51336000  0.45767000  0.90936000  1.0
  C  C94  1  0.40929000  0.01975000  0.59270000  1.0
  C  C95  1  0.58919000  0.40716000  0.98170000  1.0
  C  C96  1  0.58628000  0.98206000  0.40730000  1.0
  C  C97  1  0.41308000  0.59312000  0.01925000  1.0
  N  N98  1  0.99924000  0.89642000  0.71917000  1.0
  N  N99  1  0.00121000  0.28009000  0.10370000  1.0
  N  N100  1  0.99996000  0.10188000  0.28158000  1.0
  N  N101  1  0.00016000  0.71878000  0.89760000  1.0
  N  N102  1  0.08670000  0.02776000  0.77606000  1.0
  N  N103  1  0.91212000  0.22373000  0.97281000  1.0
  N  N104  1  0.91144000  0.97161000  0.22374000  1.0
  N  N105  1  0.08790000  0.77690000  0.02814000  1.0
  N  N106  1  0.11634000  0.89001000  0.88982000  1.0
  N  N107  1  0.88297000  0.10992000  0.11055000  1.0
  N  N108  1  0.19232000  0.04067000  0.90975000  1.0
  N  N109  1  0.80693000  0.09000000  0.95981000  1.0
  N  N110  1  0.80662000  0.95971000  0.08945000  1.0
  N  N111  1  0.19287000  0.91101000  0.04005000  1.0
  O  O112  1  0.29969000  0.85545000  0.69957000  1.0
  O  O113  1  0.70062000  0.30085000  0.14550000  1.0
  O  O114  1  0.69924000  0.14483000  0.30100000  1.0
  O  O115  1  0.30080000  0.69930000  0.85561000  1.0
  O  O116  1  0.30805000  0.78850000  0.55212000  1.0
  O  O117  1  0.69423000  0.44853000  0.21138000  1.0
  O  O118  1  0.68898000  0.21252000  0.44843000  1.0
  O  O119  1  0.30839000  0.55147000  0.78958000  1.0
  O  O120  1  0.15127000  0.68384000  0.68485000  1.0
  O  O121  1  0.84990000  0.31507000  0.31655000  1.0
