# generated using pymatgen
data_GdH6(C3O4)2
_symmetry_space_group_name_H-M   'P 1'
_cell_length_a   8.38879000
_cell_length_b   10.40400000
_cell_length_c   10.67890000
_cell_angle_alpha   115.77100000
_cell_angle_beta   89.96610000
_cell_angle_gamma   89.98950000
_symmetry_Int_Tables_number   1
_chemical_formula_structural   GdH6(C3O4)2
_chemical_formula_sum   'Gd4 H24 C24 O32'
_cell_volume   839.32190512
_cell_formula_units_Z   4
loop_
 _symmetry_equiv_pos_site_id
 _symmetry_equiv_pos_as_xyz
  1  'x, y, z'
loop_
 _atom_site_type_symbol
 _atom_site_label
 _atom_site_symmetry_multiplicity
 _atom_site_fract_x
 _atom_site_fract_y
 _atom_site_fract_z
 _atom_site_occupancy
  Gd  Gd0  1  0.02259000  0.12854000  0.30223000  1.0
  Gd  Gd1  1  0.52220000  0.37147000  0.69782000  1.0
  Gd  Gd2  1  0.97743000  0.87144000  0.69773000  1.0
  Gd  Gd3  1  0.47782000  0.62856000  0.30230000  1.0
  H  H4  1  0.90433000  0.58851000  0.19656000  1.0
  H  H5  1  0.40361000  0.91157000  0.80353000  1.0
  H  H6  1  0.09569000  0.41162000  0.80348000  1.0
  H  H7  1  0.59631000  0.08849000  0.19658000  1.0
  H  H8  1  0.10051000  0.58660000  0.13059000  1.0
  H  H9  1  0.59969000  0.91326000  0.86944000  1.0
  H  H10  1  0.89947000  0.41332000  0.86937000  1.0
  H  H11  1  0.40026000  0.08668000  0.13066000  1.0
  H  H12  1  0.99330000  0.67114000  0.96976000  1.0
  H  H13  1  0.49214000  0.82918000  0.03021000  1.0
  H  H14  1  0.00640000  0.32866000  0.03013000  1.0
  H  H15  1  0.50802000  0.17068000  0.96981000  1.0
  H  H16  1  0.79734000  0.68380000  0.03070000  1.0
  H  H17  1  0.29618000  0.81595000  0.96925000  1.0
  H  H18  1  0.20250000  0.31644000  0.96948000  1.0
  H  H19  1  0.70387000  0.18416000  0.03100000  1.0
  H  H20  1  0.15815000  0.42158000  0.48524000  1.0
  H  H21  1  0.65802000  0.07849000  0.51466000  1.0
  H  H22  1  0.84185000  0.57844000  0.51461000  1.0
  H  H23  1  0.34186000  0.92158000  0.48532000  1.0
  H  H24  1  0.18962000  0.39490000  0.33202000  1.0
  H  H25  1  0.68941000  0.10504000  0.66781000  1.0
  H  H26  1  0.81058000  0.60488000  0.66777000  1.0
  H  H27  1  0.31062000  0.89486000  0.33212000  1.0
  C  C28  1  0.08486000  0.68218000  0.35240000  1.0
  C  C29  1  0.58447000  0.81787000  0.64766000  1.0
  C  C30  1  0.91517000  0.31789000  0.64756000  1.0
  C  C31  1  0.41553000  0.18212000  0.35242000  1.0
  C  C32  1  0.97856000  0.78387000  0.19042000  1.0
  C  C33  1  0.47788000  0.71607000  0.80953000  1.0
  C  C34  1  0.02155000  0.21610000  0.80950000  1.0
  C  C35  1  0.52199000  0.28389000  0.19049000  1.0
  C  C36  1  0.01454000  0.65063000  0.21123000  1.0
  C  C37  1  0.51383000  0.84938000  0.78878000  1.0
  C  C38  1  0.98551000  0.34940000  0.78873000  1.0
  C  C39  1  0.48610000  0.15063000  0.21129000  1.0
  C  C40  1  0.79586000  0.86491000  0.30650000  1.0
  C  C41  1  0.29556000  0.63506000  0.69351000  1.0
  C  C42  1  0.20417000  0.13513000  0.69347000  1.0
  C  C43  1  0.70448000  0.36496000  0.30658000  1.0
  C  C44  1  0.90843000  0.74526000  0.04583000  1.0
  C  C45  1  0.40755000  0.75476000  0.95418000  1.0
  C  C46  1  0.09154000  0.25475000  0.95418000  1.0
  C  C47  1  0.59243000  0.24521000  0.04591000  1.0
  C  C48  1  0.87995000  0.86690000  0.00595000  1.0
  C  C49  1  0.37959000  0.63312000  0.99418000  1.0
  C  C50  1  0.12012000  0.13306000  0.99397000  1.0
  C  C51  1  0.62035000  0.36685000  0.00591000  1.0
  O  O52  1  0.21383000  0.61986000  0.35649000  1.0
  O  O53  1  0.71349000  0.88018000  0.64371000  1.0
  O  O54  1  0.78615000  0.38023000  0.64360000  1.0
  O  O55  1  0.28649000  0.11992000  0.35646000  1.0
  O  O56  1  0.00919000  0.76760000  0.45881000  1.0
  O  O57  1  0.50906000  0.73248000  0.54122000  1.0
  O  O58  1  0.99083000  0.23248000  0.54114000  1.0
  O  O59  1  0.49095000  0.26752000  0.45883000  1.0
  O  O60  1  0.70297000  0.77121000  0.29771000  1.0
  O  O61  1  0.20255000  0.72870000  0.70228000  1.0
  O  O62  1  0.29700000  0.22888000  0.70233000  1.0
  O  O63  1  0.79759000  0.27135000  0.29774000  1.0
  O  O64  1  0.86766000  0.83137000  0.87639000  1.0
  O  O65  1  0.36803000  0.66861000  0.12378000  1.0
  O  O66  1  0.13249000  0.16852000  0.12350000  1.0
  O  O67  1  0.63194000  0.33136000  0.87632000  1.0
  O  O68  1  0.80317000  0.99637000  0.36471000  1.0
  O  O69  1  0.30302000  0.50360000  0.63520000  1.0
  O  O70  1  0.19680000  0.00368000  0.63512000  1.0
  O  O71  1  0.69696000  0.49642000  0.36487000  1.0
  O  O72  1  0.08260000  0.88753000  0.23844000  1.0
  O  O73  1  0.58201000  0.61243000  0.76149000  1.0
  O  O74  1  0.91753000  0.11241000  0.76134000  1.0
  O  O75  1  0.41784000  0.38752000  0.23847000  1.0
  O  O76  1  0.86536000  0.99374000  0.09895000  1.0
  O  O77  1  0.36465000  0.50631000  0.90116000  1.0
  O  O78  1  0.13475000  0.00624000  0.90088000  1.0
  O  O79  1  0.63525000  0.49367000  0.09888000  1.0
  O  O80  1  0.11412000  0.37368000  0.39075000  1.0
  O  O81  1  0.61393000  0.12634000  0.60918000  1.0
  O  O82  1  0.88594000  0.62629000  0.60908000  1.0
  O  O83  1  0.38606000  0.87366000  0.39084000  1.0
