# generated using pymatgen
data_AgH10C11SN2O3
_symmetry_space_group_name_H-M   'P 1'
_cell_length_a   7.58969000
_cell_length_b   8.95838000
_cell_length_c   10.88850000
_cell_angle_alpha   68.50080000
_cell_angle_beta   73.44540000
_cell_angle_gamma   73.06850000
_symmetry_Int_Tables_number   1
_chemical_formula_structural   AgH10C11SN2O3
_chemical_formula_sum   'Ag2 H20 C22 S2 N4 O6'
_cell_volume   645.61560144
_cell_formula_units_Z   2
loop_
 _symmetry_equiv_pos_site_id
 _symmetry_equiv_pos_as_xyz
  1  'x, y, z'
loop_
 _atom_site_type_symbol
 _atom_site_label
 _atom_site_symmetry_multiplicity
 _atom_site_fract_x
 _atom_site_fract_y
 _atom_site_fract_z
 _atom_site_occupancy
  Ag  Ag0  1  0.30377000  0.03995000  0.92678000  1.0
  Ag  Ag1  1  0.69622000  0.96006000  0.07322000  1.0
  H  H2  1  0.61028000  0.79606000  0.81462000  1.0
  H  H3  1  0.38970000  0.20394000  0.18537000  1.0
  H  H4  1  0.96601000  0.76765000  0.41155000  1.0
  H  H5  1  0.03400000  0.23235000  0.58845000  1.0
  H  H6  1  0.02739000  0.28868000  0.05336000  1.0
  H  H7  1  0.97261000  0.71133000  0.94664000  1.0
  H  H8  1  0.37066000  0.28175000  0.64086000  1.0
  H  H9  1  0.62934000  0.71826000  0.35914000  1.0
  H  H10  1  0.81198000  0.29966000  0.26777000  1.0
  H  H11  1  0.18802000  0.70035000  0.73224000  1.0
  H  H12  1  0.83750000  0.78156000  0.60356000  1.0
  H  H13  1  0.16248000  0.21844000  0.39644000  1.0
  H  H14  1  0.57920000  0.28918000  0.41956000  1.0
  H  H15  1  0.42080000  0.71082000  0.58043000  1.0
  H  H16  1  0.18505000  0.78089000  0.19296000  1.0
  H  H17  1  0.81495000  0.21912000  0.80703000  1.0
  H  H18  1  0.70157000  0.52393000  0.92554000  1.0
  H  H19  1  0.29843000  0.47606000  0.07447000  1.0
  H  H20  1  0.64597000  0.35143000  0.06467000  1.0
  H  H21  1  0.35404000  0.64856000  0.93534000  1.0
  C  C22  1  0.60891000  0.90150000  0.72390000  1.0
  C  C23  1  0.39107000  0.09849000  0.27610000  1.0
  C  C24  1  0.97354000  0.88714000  0.33649000  1.0
  C  C25  1  0.02646000  0.11287000  0.66351000  1.0
  C  C26  1  0.73201000  0.03497000  0.49037000  1.0
  C  C27  1  0.26798000  0.96503000  0.50962000  1.0
  C  C28  1  0.00759000  0.17584000  0.13538000  1.0
  C  C29  1  0.99241000  0.82416000  0.86462000  1.0
  C  C30  1  0.47501000  0.17299000  0.62704000  1.0
  C  C31  1  0.52498000  0.82701000  0.37296000  1.0
  C  C32  1  0.88575000  0.17982000  0.25700000  1.0
  C  C33  1  0.11425000  0.82017000  0.74300000  1.0
  C  C34  1  0.86398000  0.03324000  0.36119000  1.0
  C  C35  1  0.13602000  0.96675000  0.63882000  1.0
  C  C36  1  0.73588000  0.89560000  0.60482000  1.0
  C  C37  1  0.26410000  0.10440000  0.39518000  1.0
  C  C38  1  0.59639000  0.17642000  0.50386000  1.0
  C  C39  1  0.40361000  0.82358000  0.49613000  1.0
  C  C40  1  0.09453000  0.89217000  0.21298000  1.0
  C  C41  1  0.90547000  0.10784000  0.78702000  1.0
  C  C42  1  0.59621000  0.48279000  0.01633000  1.0
  C  C43  1  0.40381000  0.51722000  0.98366000  1.0
  S  S44  1  0.58888000  0.58817000  0.13108000  1.0
  S  S45  1  0.41113000  0.41183000  0.86892000  1.0
  N  N46  1  0.47918000  0.03765000  0.73568000  1.0
  N  N47  1  0.52081000  0.96235000  0.26432000  1.0
  N  N48  1  0.11061000  0.03432000  0.11280000  1.0
  N  N49  1  0.88939000  0.96567000  0.88721000  1.0
  O  O50  1  0.50562000  0.76134000  0.06446000  1.0
  O  O51  1  0.49439000  0.23866000  0.93554000  1.0
  O  O52  1  0.78463000  0.56608000  0.14144000  1.0
  O  O53  1  0.21539000  0.43391000  0.85856000  1.0
  O  O54  1  0.46845000  0.51334000  0.25843000  1.0
  O  O55  1  0.53156000  0.48665000  0.74158000  1.0
