# generated using pymatgen
data_CaH22C12N2(ClO2)2
_symmetry_space_group_name_H-M   'P 1'
_cell_length_a   8.77053000
_cell_length_b   8.77054000
_cell_length_c   11.42150000
_cell_angle_alpha   78.83130000
_cell_angle_beta   78.83120000
_cell_angle_gamma   84.96170000
_symmetry_Int_Tables_number   1
_chemical_formula_structural   CaH22C12N2(ClO2)2
_chemical_formula_sum   'Ca2 H44 C24 N4 Cl4 O8'
_cell_volume   844.44886957
_cell_formula_units_Z   2
loop_
 _symmetry_equiv_pos_site_id
 _symmetry_equiv_pos_as_xyz
  1  'x, y, z'
loop_
 _atom_site_type_symbol
 _atom_site_label
 _atom_site_symmetry_multiplicity
 _atom_site_fract_x
 _atom_site_fract_y
 _atom_site_fract_z
 _atom_site_occupancy
  Ca  Ca0  1  0.56290000  0.43710000  0.75000000  1.0
  Ca  Ca1  1  0.43710000  0.56290000  0.25000000  1.0
  H  H2  1  0.38396000  0.62462000  0.55189000  1.0
  H  H3  1  0.37538000  0.61604000  0.94811000  1.0
  H  H4  1  0.61604000  0.37538000  0.44811000  1.0
  H  H5  1  0.62462000  0.38396000  0.05189000  1.0
  H  H6  1  0.19545000  0.96084000  0.67822000  1.0
  H  H7  1  0.03916000  0.80455000  0.82178000  1.0
  H  H8  1  0.80455000  0.03916000  0.32178000  1.0
  H  H9  1  0.96084000  0.19545000  0.17822000  1.0
  H  H10  1  0.04606000  0.03994000  0.59536000  1.0
  H  H11  1  0.96006000  0.95394000  0.90464000  1.0
  H  H12  1  0.95394000  0.96006000  0.40464000  1.0
  H  H13  1  0.03994000  0.04606000  0.09536000  1.0
  H  H14  1  0.39360000  0.10487000  0.52799000  1.0
  H  H15  1  0.89513000  0.60640000  0.97201000  1.0
  H  H16  1  0.60640000  0.89513000  0.47201000  1.0
  H  H17  1  0.10487000  0.39360000  0.02799000  1.0
  H  H18  1  0.27101000  0.06948000  0.43072000  1.0
  H  H19  1  0.93052000  0.72899000  0.06928000  1.0
  H  H20  1  0.72899000  0.93052000  0.56928000  1.0
  H  H21  1  0.06948000  0.27100000  0.93072000  1.0
  H  H22  1  0.16185000  0.67443000  0.69183000  1.0
  H  H23  1  0.32557000  0.83815000  0.80818000  1.0
  H  H24  1  0.83815000  0.32557000  0.30818000  1.0
  H  H25  1  0.67443000  0.16185000  0.19182000  1.0
  H  H26  1  0.19308000  0.48296000  0.77272000  1.0
  H  H27  1  0.51704000  0.80692000  0.72728000  1.0
  H  H28  1  0.80692000  0.51704000  0.22728000  1.0
  H  H29  1  0.48296000  0.19308000  0.27272000  1.0
  H  H30  1  0.00414000  0.21768000  0.73743000  1.0
  H  H31  1  0.78232000  0.99586000  0.76257000  1.0
  H  H32  1  0.99586000  0.78232000  0.26257000  1.0
  H  H33  1  0.21768000  0.00414000  0.23743000  1.0
  H  H34  1  0.20576000  0.20289000  0.74923000  1.0
  H  H35  1  0.79711000  0.79424000  0.75077000  1.0
  H  H36  1  0.79424000  0.79711000  0.25077000  1.0
  H  H37  1  0.20289000  0.20576000  0.24923000  1.0
  H  H38  1  0.98650000  0.50542000  0.64474000  1.0
  H  H39  1  0.49457000  0.01350000  0.85526000  1.0
  H  H40  1  0.01349000  0.49458000  0.35526000  1.0
  H  H41  1  0.50543000  0.98650000  0.14474000  1.0
  H  H42  1  0.12791000  0.57128000  0.51248000  1.0
  H  H43  1  0.42873000  0.87209000  0.98752000  1.0
  H  H44  1  0.87209000  0.42872000  0.48752000  1.0
  H  H45  1  0.57128000  0.12791000  0.01248000  1.0
  C  C46  1  0.15391000  0.06561000  0.62169000  1.0
  C  C47  1  0.93439000  0.84609000  0.87831000  1.0
  C  C48  1  0.84609000  0.93439000  0.37832000  1.0
  C  C49  1  0.06561000  0.15391000  0.12168000  1.0
  C  C50  1  0.27401000  0.12318000  0.50896000  1.0
  C  C51  1  0.87682000  0.72599000  0.99104000  1.0
  C  C52  1  0.72599000  0.87682000  0.49105000  1.0
  C  C53  1  0.12318000  0.27401000  0.00895000  1.0
  C  C54  1  0.20618000  0.55514000  0.68178000  1.0
  C  C55  1  0.44486000  0.79382000  0.81822000  1.0
  C  C56  1  0.79382000  0.44486000  0.31822000  1.0
  C  C57  1  0.55514000  0.20618000  0.18178000  1.0
  C  C58  1  0.12341000  0.20547000  0.68708000  1.0
  C  C59  1  0.79453000  0.87659000  0.81292000  1.0
  C  C60  1  0.87659000  0.79453000  0.31292000  1.0
  C  C61  1  0.20547000  0.12341000  0.18708000  1.0
  C  C62  1  0.23919000  0.29665000  0.48556000  1.0
  C  C63  1  0.70335000  0.76081000  0.01444000  1.0
  C  C64  1  0.76082000  0.70335000  0.51444000  1.0
  C  C65  1  0.29665000  0.23918000  0.98556000  1.0
  C  C66  1  0.11037000  0.49722000  0.60273000  1.0
  C  C67  1  0.50278000  0.88963000  0.89727000  1.0
  C  C68  1  0.88963000  0.50278000  0.39727000  1.0
  C  C69  1  0.49723000  0.11037000  0.10273000  1.0
  N  N70  1  0.15334000  0.33809000  0.58672000  1.0
  N  N71  1  0.66191000  0.84666000  0.91329000  1.0
  N  N72  1  0.84666000  0.66191000  0.41329000  1.0
  N  N73  1  0.33809000  0.15334000  0.08671000  1.0
  Cl  Cl74  1  0.63164000  0.21847000  0.60752000  1.0
  Cl  Cl75  1  0.78153000  0.36836000  0.89248000  1.0
  Cl  Cl76  1  0.36836000  0.78153000  0.39247000  1.0
  Cl  Cl77  1  0.21847000  0.63164000  0.10753000  1.0
  O  O78  1  0.28312000  0.38824000  0.38803000  1.0
  O  O79  1  0.61176000  0.71688000  0.11197000  1.0
  O  O80  1  0.71689000  0.61176000  0.61197000  1.0
  O  O81  1  0.38824000  0.28311000  0.88803000  1.0
  O  O82  1  0.36892000  0.55248000  0.63214000  1.0
  O  O83  1  0.44752000  0.63108000  0.86786000  1.0
  O  O84  1  0.63108000  0.44752000  0.36786000  1.0
  O  O85  1  0.55248000  0.36892000  0.13214000  1.0
