# generated using pymatgen
data_Zn2H19C31IN8O
_symmetry_space_group_name_H-M   'P 1'
_cell_length_a   14.82180000
_cell_length_b   14.89650000
_cell_length_c   14.95510000
_cell_angle_alpha   110.23000000
_cell_angle_beta   110.10800000
_cell_angle_gamma   106.97900000
_symmetry_Int_Tables_number   1
_chemical_formula_structural   Zn2H19C31IN8O
_chemical_formula_sum   'Zn4 H38 C62 I2 N16 O2'
_cell_volume   2573.70388478
_cell_formula_units_Z   2
loop_
 _symmetry_equiv_pos_site_id
 _symmetry_equiv_pos_as_xyz
  1  'x, y, z'
loop_
 _atom_site_type_symbol
 _atom_site_label
 _atom_site_symmetry_multiplicity
 _atom_site_fract_x
 _atom_site_fract_y
 _atom_site_fract_z
 _atom_site_occupancy
  Zn  Zn0  1  0.98462000  0.84847000  0.35641000  1.0
  Zn  Zn1  1  0.99758000  0.13176000  0.62869000  1.0
  Zn  Zn2  1  0.86084000  0.00267000  0.36476000  1.0
  Zn  Zn3  1  0.12697000  0.98811000  0.63003000  1.0
  H  H4  1  0.04565000  0.45630000  0.18295000  1.0
  H  H5  1  0.46986000  0.95336000  0.66733000  1.0
  H  H6  1  0.30507000  0.46879000  0.85412000  1.0
  H  H7  1  0.66836000  0.55564000  0.88697000  1.0
  H  H8  1  0.46377000  0.63869000  0.01003000  1.0
  H  H9  1  0.50884000  0.38559000  0.72986000  1.0
  H  H10  1  0.95045000  0.66996000  0.68377000  1.0
  H  H11  1  0.73233000  0.32194000  0.33352000  1.0
  H  H12  1  0.94667000  0.50513000  0.68384000  1.0
  H  H13  1  0.73674000  0.48736000  0.33333333  1.0
  H  H14  1  0.00003000  0.17693000  0.17129000  1.0
  H  H15  1  0.82646000  0.29659000  0.80532000  1.0
  H  H16  1  0.28657000  0.12914000  0.09237000  1.0
  H  H17  1  0.15624000  0.33398000  0.64638000  1.0
  H  H18  1  0.79036000  0.62926000  0.10001000  1.0
  H  H19  1  0.02092000  0.20625000  0.02629000  1.0
  H  H20  1  0.26675000  0.10103000  0.23851000  1.0
  H  H21  1  0.78606000  0.18601000  0.32601000  1.0
  H  H22  1  0.98608000  0.83067000  0.68040000  1.0
  H  H23  1  0.31719000  0.91319000  0.67022000  1.0
  H  H24  1  0.63282000  0.84783000  0.33083000  1.0
  H  H25  1  0.95746000  0.35104000  0.68133000  1.0
  H  H26  1  0.22397000  0.57462000  0.35477000  1.0
  H  H27  1  0.80678000  0.64688000  0.32498000  1.0
  H  H28  1  0.15331000  0.75667000  0.31612000  1.0
  H  H29  1  0.82552000  0.00391000  0.68485000  1.0
  H  H30  1  0.01222000  0.18410000  0.33662000  1.0
  H  H31  1  0.19972000  0.02754000  0.89001000  1.0
  H  H32  1  0.00082000  0.50250000  0.03376000  1.0
  H  H33  1  0.89386000  0.29463000  0.98128000  1.0
  H  H34  1  0.10009000  0.85070000  0.25584000  1.0
  H  H35  1  0.03326000  0.28561000  0.81527000  1.0
  H  H36  1  0.68266000  0.12755000  0.63117000  1.0
  H  H37  1  0.31774000  0.77976000  0.22481000  1.0
  H  H38  1  0.67152000  0.95368000  0.80802000  1.0
  H  H39  1  0.13870000  0.66382000  0.05437000  1.0
  H  H40  1  0.81571000  0.12234000  0.98246000  1.0
  H  H41  1  0.48993000  0.74061000  0.34586000  1.0
  C  C42  1  0.10214000  0.00434000  0.29512000  1.0
  C  C43  1  0.79245000  0.22152000  0.80628000  1.0
  C  C44  1  0.20565000  0.59282000  0.28792000  1.0
  C  C45  1  0.71194000  0.12682000  0.70846000  1.0
  C  C46  1  0.28320000  0.68450000  0.30084000  1.0
  C  C47  1  0.66736000  0.02943000  0.70824000  1.0
  C  C48  1  0.25889000  0.70737000  0.21447000  1.0
  C  C49  1  0.70549000  0.02919000  0.80781000  1.0
  C  C50  1  0.15741000  0.64277000  0.11916000  1.0
  C  C51  1  0.78634000  0.12421000  0.90581000  1.0
  C  C52  1  0.07988000  0.55334000  0.10830000  1.0
  C  C53  1  0.09638000  0.19211000  0.87333000  1.0
  C  C54  1  0.82979000  0.22064000  0.90538000  1.0
  C  C55  1  0.48608000  0.78837000  0.41733000  1.0
  C  C56  1  0.47345000  0.90317000  0.59691000  1.0
  C  C57  1  0.19163000  0.28035000  0.65215000  1.0
  C  C58  1  0.77090000  0.69584000  0.12198000  1.0
  C  C59  1  0.58321000  0.87324000  0.51271000  1.0
  C  C60  1  0.37599000  0.82472000  0.49926000  1.0
  C  C61  1  0.57535000  0.93075000  0.60507000  1.0
  C  C62  1  0.38361000  0.76428000  0.40790000  1.0
  C  C63  1  0.38439000  0.48880000  0.85950000  1.0
  C  C64  1  0.30148000  0.30525000  0.70336000  1.0
  C  C65  1  0.58848000  0.53644000  0.87995000  1.0
  C  C66  1  0.47410000  0.58469000  0.94779000  1.0
  C  C67  1  0.49848000  0.44042000  0.79133000  1.0
  C  C68  1  0.57869000  0.60843000  0.96189000  1.0
  C  C69  1  0.39516000  0.41281000  0.78166000  1.0
  C  C70  1  0.90151000  0.59381000  0.60620000  1.0
  C  C71  1  0.78104000  0.39831000  0.41097000  1.0
  C  C72  1  0.89947000  0.49996000  0.60622000  1.0
  C  C73  1  0.78329000  0.49227000  0.41092000  1.0
  C  C74  1  0.84410000  0.40080000  0.50772000  1.0
  C  C75  1  0.67539000  0.69889000  0.06368000  1.0
  C  C76  1  0.84887000  0.59360000  0.50770000  1.0
  C  C77  1  0.06471000  0.16836000  0.15596000  1.0
  C  C78  1  0.22347000  0.13998000  0.10956000  1.0
  C  C79  1  0.07555000  0.18418000  0.07334000  1.0
  C  C80  1  0.21318000  0.12492000  0.19300000  1.0
  C  C81  1  0.83140000  0.21276000  0.41273000  1.0
  C  C82  1  0.94924000  0.80061000  0.59263000  1.0
  C  C83  1  0.15129000  0.16416000  0.04428000  1.0
  C  C84  1  0.12917000  0.13257000  0.21362000  1.0
  C  C85  1  0.26318000  0.87823000  0.58321000  1.0
  C  C86  1  0.86004000  0.30779000  0.50500000  1.0
  C  C87  1  0.69538000  0.89230000  0.41659000  1.0
  C  C88  1  0.91892000  0.29693000  0.59363000  1.0
  C  C89  1  0.85734000  0.70704000  0.41159000  1.0
  C  C90  1  0.17968000  0.79883000  0.40285000  1.0
  C  C91  1  0.79328000  0.97308000  0.59743000  1.0
  C  C92  1  0.29622000  0.20313000  0.68153000  1.0
  C  C93  1  0.69607000  0.80349000  0.13310000  1.0
  C  C94  1  0.03621000  0.12070000  0.32822000  1.0
  C  C95  1  0.16528000  0.07885000  0.87332000  1.0
  C  C96  1  0.09833000  0.09349000  0.28131000  1.0
  C  C97  1  0.87607000  0.69468000  0.50446000  1.0
  C  C98  1  0.14335000  0.15190000  0.94019000  1.0
  C  C99  1  0.13626000  0.92503000  0.25123000  1.0
  C  C100  1  0.06631000  0.27858000  0.89118000  1.0
  C  C101  1  0.27533000  0.82520000  0.49342000  1.0
  C  C102  1  0.68529000  0.90681000  0.51032000  1.0
  C  C103  1  0.10499000  0.52758000  0.19219000  1.0
  I  I104  1  0.42503000  0.16905000  0.73350000  1.0
  I  I105  1  0.60557000  0.88598000  0.11481000  1.0
  N  N106  1  0.04436000  0.98298000  0.34599000  1.0
  N  N107  1  0.91734000  0.81123000  0.44297000  1.0
  N  N108  1  0.11824000  0.83596000  0.43671000  1.0
  N  N109  1  0.86031000  0.99747000  0.55775000  1.0
  N  N110  1  0.19175000  0.12499000  0.62406000  1.0
  N  N111  1  0.79451000  0.85721000  0.22380000  1.0
  N  N112  1  0.00445000  0.05306000  0.36539000  1.0
  N  N113  1  0.13264000  0.07419000  0.77472000  1.0
  N  N114  1  0.08984000  0.14243000  0.77416000  1.0
  N  N115  1  0.12720000  0.17339000  0.60603000  1.0
  N  N116  1  0.84080000  0.78949000  0.21688000  1.0
  N  N117  1  0.87036000  0.15136000  0.44423000  1.0
  N  N118  1  0.97396000  0.86883000  0.55451000  1.0
  N  N119  1  0.17045000  0.88544000  0.54946000  1.0
  N  N120  1  0.80015000  0.94762000  0.44655000  1.0
  N  N121  1  0.92470000  0.20369000  0.55673000  1.0
  O  O122  1  0.19434000  0.93008000  0.20921000  1.0
  O  O123  1  0.07602000  0.34175000  0.97652000  1.0
