# generated using pymatgen
data_ZnH5C8NO7
_symmetry_space_group_name_H-M   'P 1'
_cell_length_a   7.41609000
_cell_length_b   8.14898000
_cell_length_c   8.23415000
_cell_angle_alpha   106.36500000
_cell_angle_beta   105.33100000
_cell_angle_gamma   94.89380000
_symmetry_Int_Tables_number   1
_chemical_formula_structural   ZnH5C8NO7
_chemical_formula_sum   'Zn2 H10 C16 N2 O14'
_cell_volume   453.54953872
_cell_formula_units_Z   2
loop_
 _symmetry_equiv_pos_site_id
 _symmetry_equiv_pos_as_xyz
  1  'x, y, z'
loop_
 _atom_site_type_symbol
 _atom_site_label
 _atom_site_symmetry_multiplicity
 _atom_site_fract_x
 _atom_site_fract_y
 _atom_site_fract_z
 _atom_site_occupancy
  Zn  Zn0  1  0.32366000  0.63336000  0.60017000  1.0
  Zn  Zn1  1  0.67635000  0.36663000  0.39983000  1.0
  H  H2  1  0.16262000  0.34871000  0.61456000  1.0
  H  H3  1  0.83739000  0.65128000  0.38544000  1.0
  H  H4  1  0.36127000  0.40831000  0.77399000  1.0
  H  H5  1  0.63874000  0.59169000  0.22602000  1.0
  H  H6  1  0.32400000  0.11334000  0.01350000  1.0
  H  H7  1  0.67600000  0.88666000  0.98650000  1.0
  H  H8  1  0.88988000  0.41613000  0.10760000  1.0
  H  H9  1  0.11012000  0.58387000  0.89240000  1.0
  H  H10  1  0.77791000  0.99592000  0.61718000  1.0
  H  H11  1  0.22208000  0.00408000  0.38283000  1.0
  C  C12  1  0.05978000  0.04166000  0.80113000  1.0
  C  C13  1  0.94022000  0.95834000  0.19887000  1.0
  C  C14  1  0.18226000  0.14232000  0.96740000  1.0
  C  C15  1  0.81774000  0.85768000  0.03259000  1.0
  C  C16  1  0.12234000  0.27774000  0.07770000  1.0
  C  C17  1  0.87766000  0.72226000  0.92229000  1.0
  C  C18  1  0.93938000  0.31364000  0.02182000  1.0
  C  C19  1  0.06062000  0.68637000  0.97818000  1.0
  C  C20  1  0.81992000  0.21057000  0.85568000  1.0
  C  C21  1  0.18008000  0.78944000  0.14432000  1.0
  C  C22  1  0.87611000  0.07582000  0.74422000  1.0
  C  C23  1  0.12389000  0.92419000  0.25578000  1.0
  C  C24  1  0.11487000  0.88896000  0.68483000  1.0
  C  C25  1  0.88512000  0.11103000  0.31517000  1.0
  C  C26  1  0.25190000  0.37711000  0.25947000  1.0
  C  C27  1  0.74810000  0.62288000  0.74053000  1.0
  N  N28  1  0.62699000  0.24283000  0.79470000  1.0
  N  N29  1  0.37301000  0.75718000  0.20531000  1.0
  O  O30  1  0.28279000  0.85600000  0.74391000  1.0
  O  O31  1  0.71720000  0.14399000  0.25609000  1.0
  O  O32  1  0.99639000  0.79955000  0.54016000  1.0
  O  O33  1  0.00360000  0.20045000  0.45984000  1.0
  O  O34  1  0.39626000  0.31410000  0.31817000  1.0
  O  O35  1  0.60374000  0.68589000  0.68183000  1.0
  O  O36  1  0.20456000  0.51587000  0.34407000  1.0
  O  O37  1  0.79545000  0.48413000  0.65593000  1.0
  O  O38  1  0.57263000  0.35836000  0.89888000  1.0
  O  O39  1  0.42737000  0.64164000  0.10114000  1.0
  O  O40  1  0.52573000  0.15765000  0.64368000  1.0
  O  O41  1  0.47426000  0.84236000  0.35633000  1.0
  O  O42  1  0.25418000  0.45086000  0.70594000  1.0
  O  O43  1  0.74583000  0.54913000  0.29406000  1.0
