# generated using pymatgen
data_MnH6(C2O3)2
_symmetry_space_group_name_H-M   'P 1'
_cell_length_a   9.58812000
_cell_length_b   9.79094000
_cell_length_c   13.54450000
_cell_angle_alpha   70.99360000
_cell_angle_beta   69.33370000
_cell_angle_gamma   60.69460000
_symmetry_Int_Tables_number   1
_chemical_formula_structural   MnH6(C2O3)2
_chemical_formula_sum   'Mn6 H36 C24 O36'
_cell_volume   1019.05378859
_cell_formula_units_Z   6
loop_
 _symmetry_equiv_pos_site_id
 _symmetry_equiv_pos_as_xyz
  1  'x, y, z'
loop_
 _atom_site_type_symbol
 _atom_site_label
 _atom_site_symmetry_multiplicity
 _atom_site_fract_x
 _atom_site_fract_y
 _atom_site_fract_z
 _atom_site_occupancy
  Mn  Mn0  1  0.00444000  0.75000000  0.24995000  1.0
  Mn  Mn1  1  0.99555000  0.24999000  0.75005000  1.0
  Mn  Mn2  1  0.03942000  0.66041000  0.80006000  1.0
  Mn  Mn3  1  0.49995000  0.83956000  0.69988000  1.0
  Mn  Mn4  1  0.96059000  0.33960000  0.19995000  1.0
  Mn  Mn5  1  0.50003000  0.16044000  0.30014000  1.0
  H  H6  1  0.78623000  0.89392000  0.73097000  1.0
  H  H7  1  0.41112000  0.60619000  0.76896000  1.0
  H  H8  1  0.21377000  0.10609000  0.26903000  1.0
  H  H9  1  0.58890000  0.39380000  0.23104000  1.0
  H  H10  1  0.90289000  0.99122000  0.68985000  1.0
  H  H11  1  0.58404000  0.50877000  0.81011000  1.0
  H  H12  1  0.09710000  0.00878000  0.31015000  1.0
  H  H13  1  0.41596000  0.49122000  0.18989000  1.0
  H  H14  1  0.99656000  0.88611000  0.89945000  1.0
  H  H15  1  0.78218000  0.61393000  0.60056000  1.0
  H  H16  1  0.00346000  0.11389000  0.10055000  1.0
  H  H17  1  0.21781000  0.38607000  0.39943000  1.0
  H  H18  1  0.00552000  0.74413000  0.99423000  1.0
  H  H19  1  0.74394000  0.75595000  0.50579000  1.0
  H  H20  1  0.99449000  0.25587000  0.00577000  1.0
  H  H21  1  0.25604000  0.24406000  0.49421000  1.0
  H  H22  1  0.17529000  0.34784000  0.87590000  1.0
  H  H23  1  0.39903000  0.15219000  0.62404000  1.0
  H  H24  1  0.82471000  0.65216000  0.12409000  1.0
  H  H25  1  0.60096000  0.84781000  0.37597000  1.0
  H  H26  1  0.19166000  0.42110000  0.95772000  1.0
  H  H27  1  0.57038000  0.07895000  0.54232000  1.0
  H  H28  1  0.80834000  0.57890000  0.04228000  1.0
  H  H29  1  0.42963000  0.92105000  0.45768000  1.0
  H  H30  1  0.14837000  0.91983000  0.47896000  1.0
  H  H31  1  0.54727000  0.58016000  0.02101000  1.0
  H  H32  1  0.85163000  0.08017000  0.52104000  1.0
  H  H33  1  0.45274000  0.41983000  0.97899000  1.0
  H  H34  1  0.36267000  0.42965000  0.48582000  1.0
  H  H35  1  0.27836000  0.07032000  0.01424000  1.0
  H  H36  1  0.63732000  0.57037000  0.51417000  1.0
  H  H37  1  0.72165000  0.92967000  0.98576000  1.0
  H  H38  1  0.37635000  0.48935000  0.59174000  1.0
  H  H39  1  0.45745000  0.01059000  0.90837000  1.0
  H  H40  1  0.62365000  0.51065000  0.40825000  1.0
  H  H41  1  0.54255000  0.98941000  0.09163000  1.0
  C  C42  1  0.20345000  0.79927000  0.52386000  1.0
  C  C43  1  0.52664000  0.70077000  0.97620000  1.0
  C  C44  1  0.79655000  0.20073000  0.47614000  1.0
  C  C45  1  0.47337000  0.29923000  0.02381000  1.0
  C  C46  1  0.20947000  0.67549000  0.49643000  1.0
  C  C47  1  0.38150000  0.82448000  0.00363000  1.0
  C  C48  1  0.79053000  0.32452000  0.50356000  1.0
  C  C49  1  0.61851000  0.17552000  0.99637000  1.0
  C  C50  1  0.29170000  0.50360000  0.54783000  1.0
  C  C51  1  0.34325000  0.99635000  0.95223000  1.0
  C  C52  1  0.70829000  0.49640000  0.45216000  1.0
  C  C53  1  0.65675000  0.00365000  0.04777000  1.0
  C  C54  1  0.17306000  0.43632000  0.62993000  1.0
  C  C55  1  0.23931000  0.06366000  0.87009000  1.0
  C  C56  1  0.82694000  0.56369000  0.37007000  1.0
  C  C57  1  0.76069000  0.93634000  0.12991000  1.0
  C  C58  1  0.27762000  0.78094000  0.60954000  1.0
  C  C59  1  0.66797000  0.71906000  0.89054000  1.0
  C  C60  1  0.72239000  0.21905000  0.39046000  1.0
  C  C61  1  0.33204000  0.28094000  0.10947000  1.0
  C  C62  1  0.13226000  0.70567000  0.40843000  1.0
  C  C63  1  0.24658000  0.79430000  0.09159000  1.0
  C  C64  1  0.86774000  0.29434000  0.59156000  1.0
  C  C65  1  0.75342000  0.20570000  0.90841000  1.0
  O  O66  1  0.13801000  0.58745000  0.38364000  1.0
  O  O67  1  0.10942000  0.91251000  0.11626000  1.0
  O  O68  1  0.86198000  0.41256000  0.61636000  1.0
  O  O69  1  0.89058000  0.08748000  0.88375000  1.0
  O  O70  1  0.05843000  0.84694000  0.35820000  1.0
  O  O71  1  0.26388000  0.65307000  0.14187000  1.0
  O  O72  1  0.94155000  0.15307000  0.64180000  1.0
  O  O73  1  0.73611000  0.34693000  0.85813000  1.0
  O  O74  1  0.26047000  0.68387000  0.69753000  1.0
  O  O75  1  0.64162000  0.81619000  0.80254000  1.0
  O  O76  1  0.73954000  0.31611000  0.30246000  1.0
  O  O77  1  0.35838000  0.18381000  0.19746000  1.0
  O  O78  1  0.35951000  0.86195000  0.58975000  1.0
  O  O79  1  0.81115000  0.63788000  0.91025000  1.0
  O  O80  1  0.64049000  0.13804000  0.41025000  1.0
  O  O81  1  0.18886000  0.36212000  0.08975000  1.0
  O  O82  1  0.20114000  0.29317000  0.62950000  1.0
  O  O83  1  0.12378000  0.20677000  0.87059000  1.0
  O  O84  1  0.79886000  0.70683000  0.37050000  1.0
  O  O85  1  0.87623000  0.79322000  0.12941000  1.0
  O  O86  1  0.05493000  0.51520000  0.69752000  1.0
  O  O87  1  0.26753000  0.98490000  0.80240000  1.0
  O  O88  1  0.94506000  0.48480000  0.30248000  1.0
  O  O89  1  0.73248000  0.01510000  0.19760000  1.0
  O  O90  1  0.89907000  0.88523000  0.71435000  1.0
  O  O91  1  0.49886000  0.61480000  0.78546000  1.0
  O  O92  1  0.10093000  0.11477000  0.28565000  1.0
  O  O93  1  0.50114000  0.38520000  0.21454000  1.0
  O  O94  1  0.04742000  0.76752000  0.91594000  1.0
  O  O95  1  0.73092000  0.73252000  0.58411000  1.0
  O  O96  1  0.95259000  0.23247000  0.08406000  1.0
  O  O97  1  0.26908000  0.26749000  0.41589000  1.0
  O  O98  1  0.19504000  0.43601000  0.88038000  1.0
  O  O99  1  0.51135000  0.06397000  0.61960000  1.0
  O  O100  1  0.80495000  0.56400000  0.11962000  1.0
  O  O101  1  0.48864000  0.93602000  0.38040000  1.0
