# generated using pymatgen
data_SmH8C10N2Cl3
_symmetry_space_group_name_H-M   'P 1'
_cell_length_a   11.72540000
_cell_length_b   11.77600000
_cell_length_c   15.90810000
_cell_angle_alpha   90.00000000
_cell_angle_beta   90.00000000
_cell_angle_gamma   118.04800000
_symmetry_Int_Tables_number   1
_chemical_formula_structural   SmH8C10N2Cl3
_chemical_formula_sum   'Sm6 H48 C60 N12 Cl18'
_cell_volume   1938.58591961
_cell_formula_units_Z   6
loop_
 _symmetry_equiv_pos_site_id
 _symmetry_equiv_pos_as_xyz
  1  'x, y, z'
loop_
 _atom_site_type_symbol
 _atom_site_label
 _atom_site_symmetry_multiplicity
 _atom_site_fract_x
 _atom_site_fract_y
 _atom_site_fract_z
 _atom_site_occupancy
  Sm  Sm0  1  0.93696000  0.06299000  0.11781000  1.0
  Sm  Sm1  1  0.06304000  0.93701000  0.61781000  1.0
  Sm  Sm2  1  0.06304000  0.93701000  0.88219000  1.0
  Sm  Sm3  1  0.93696000  0.06299000  0.38219000  1.0
  Sm  Sm4  1  0.75176000  0.24852000  0.25000000  1.0
  Sm  Sm5  1  0.24824000  0.75148000  0.75000000  1.0
  H  H6  1  0.64523000  0.92823000  0.02209000  1.0
  H  H7  1  0.35477000  0.07177000  0.52209000  1.0
  H  H8  1  0.92934000  0.64579000  0.97815000  1.0
  H  H9  1  0.07066000  0.35421000  0.47815000  1.0
  H  H10  1  0.35477000  0.07177000  0.97791000  1.0
  H  H11  1  0.64523000  0.92823000  0.47791000  1.0
  H  H12  1  0.07066000  0.35421000  0.02185000  1.0
  H  H13  1  0.92934000  0.64579000  0.52185000  1.0
  H  H14  1  0.43455000  0.73088000  0.02058000  1.0
  H  H15  1  0.56545000  0.26912000  0.52058000  1.0
  H  H16  1  0.73159000  0.43540000  0.97939000  1.0
  H  H17  1  0.26841000  0.56460000  0.47939000  1.0
  H  H18  1  0.56545000  0.26912000  0.97942000  1.0
  H  H19  1  0.43455000  0.73088000  0.47942000  1.0
  H  H20  1  0.26841000  0.56460000  0.02061000  1.0
  H  H21  1  0.73159000  0.43540000  0.52061000  1.0
  H  H22  1  0.61838000  0.54402000  0.16005000  1.0
  H  H23  1  0.38162000  0.45598000  0.66005000  1.0
  H  H24  1  0.54318000  0.61761000  0.83985000  1.0
  H  H25  1  0.45682000  0.38239000  0.33985000  1.0
  H  H26  1  0.38162000  0.45598000  0.83995000  1.0
  H  H27  1  0.61838000  0.54402000  0.33995000  1.0
  H  H28  1  0.45682000  0.38239000  0.16015000  1.0
  H  H29  1  0.54318000  0.61761000  0.66015000  1.0
  H  H30  1  0.81980000  0.74863000  0.15410000  1.0
  H  H31  1  0.18020000  0.25137000  0.65410000  1.0
  H  H32  1  0.74798000  0.81857000  0.84612000  1.0
  H  H33  1  0.25202000  0.18143000  0.34612000  1.0
  H  H34  1  0.18020000  0.25137000  0.84590000  1.0
  H  H35  1  0.81980000  0.74863000  0.34590000  1.0
  H  H36  1  0.25202000  0.18143000  0.15388000  1.0
  H  H37  1  0.74798000  0.81857000  0.65388000  1.0
  H  H38  1  0.50566000  0.06619000  0.37991000  1.0
  H  H39  1  0.49434000  0.93381000  0.87991000  1.0
  H  H40  1  0.06613000  0.50563000  0.62010000  1.0
  H  H41  1  0.93388000  0.49437000  0.12010000  1.0
  H  H42  1  0.49434000  0.93381000  0.62009000  1.0
  H  H43  1  0.50566000  0.06619000  0.12009000  1.0
  H  H44  1  0.93387000  0.49437000  0.37990000  1.0
  H  H45  1  0.06613000  0.50563000  0.87990000  1.0
  H  H46  1  0.29312000  0.87102000  0.38646000  1.0
  H  H47  1  0.70688000  0.12898000  0.88646000  1.0
  H  H48  1  0.87111000  0.29318000  0.61355000  1.0
  H  H49  1  0.12889000  0.70682000  0.11355000  1.0
  H  H50  1  0.70688000  0.12898000  0.61354000  1.0
  H  H51  1  0.29312000  0.87102000  0.11354000  1.0
  H  H52  1  0.12889000  0.70682000  0.38645000  1.0
  H  H53  1  0.87111000  0.29318000  0.88645000  1.0
  C  C54  1  0.63386000  0.84051000  0.05258000  1.0
  C  C55  1  0.36614000  0.15949000  0.55258000  1.0
  C  C56  1  0.84117000  0.63414000  0.94765000  1.0
  C  C57  1  0.15883000  0.36586000  0.44765000  1.0
  C  C58  1  0.36614000  0.15949000  0.94742000  1.0
  C  C59  1  0.63386000  0.84051000  0.44742000  1.0
  C  C60  1  0.15883000  0.36586000  0.05235000  1.0
  C  C61  1  0.84117000  0.63414000  0.55235000  1.0
  C  C62  1  0.51543000  0.72965000  0.05338000  1.0
  C  C63  1  0.48457000  0.27035000  0.55338000  1.0
  C  C64  1  0.73022000  0.51594000  0.94669000  1.0
  C  C65  1  0.26978000  0.48406000  0.44669000  1.0
  C  C66  1  0.48457000  0.27035000  0.94662000  1.0
  C  C67  1  0.51542000  0.72965000  0.44662000  1.0
  C  C68  1  0.26978000  0.48406000  0.05331000  1.0
  C  C69  1  0.73022000  0.51594000  0.55331000  1.0
  C  C70  1  0.50437000  0.61805000  0.09285000  1.0
  C  C71  1  0.49563000  0.38195000  0.59285000  1.0
  C  C72  1  0.61804000  0.50437000  0.90714000  1.0
  C  C73  1  0.38196000  0.49563000  0.40714000  1.0
  C  C74  1  0.49563000  0.38195000  0.90715000  1.0
  C  C75  1  0.50437000  0.61805000  0.40715000  1.0
  C  C76  1  0.38196000  0.49563000  0.09286000  1.0
  C  C77  1  0.61804000  0.50437000  0.59286000  1.0
  C  C78  1  0.61670000  0.62646000  0.13021000  1.0
  C  C79  1  0.38330000  0.37354000  0.63021000  1.0
  C  C80  1  0.62596000  0.61609000  0.86980000  1.0
  C  C81  1  0.37404000  0.38392000  0.36980000  1.0
  C  C82  1  0.38330000  0.37354000  0.86979000  1.0
  C  C83  1  0.61670000  0.62646000  0.36979000  1.0
  C  C84  1  0.37404000  0.38392000  0.13020000  1.0
  C  C85  1  0.62596000  0.61608000  0.63020000  1.0
  C  C86  1  0.73137000  0.74095000  0.12628000  1.0
  C  C87  1  0.26863000  0.25905000  0.62628000  1.0
  C  C88  1  0.74058000  0.73060000  0.87391000  1.0
  C  C89  1  0.25942000  0.26940000  0.37391000  1.0
  C  C90  1  0.26863000  0.25905000  0.87372000  1.0
  C  C91  1  0.73137000  0.74095000  0.37372000  1.0
  C  C92  1  0.25942000  0.26940000  0.12609000  1.0
  C  C93  1  0.74058000  0.73060000  0.62609000  1.0
  C  C94  1  0.45502000  0.01836000  0.32244000  1.0
  C  C95  1  0.54498000  0.98164000  0.82244000  1.0
  C  C96  1  0.01825000  0.45506000  0.67757000  1.0
  C  C97  1  0.98175000  0.54494000  0.17757000  1.0
  C  C98  1  0.54498000  0.98164000  0.67756000  1.0
  C  C99  1  0.45502000  0.01836000  0.17756000  1.0
  C  C100  1  0.98174000  0.54494000  0.32243000  1.0
  C  C101  1  0.01825000  0.45506000  0.82243000  1.0
  C  C102  1  0.33584000  0.90845000  0.32525000  1.0
  C  C103  1  0.66416000  0.09154000  0.82525000  1.0
  C  C104  1  0.90850000  0.33588000  0.67475000  1.0
  C  C105  1  0.09150000  0.66412000  0.17475000  1.0
  C  C106  1  0.66416000  0.09154000  0.67475000  1.0
  C  C107  1  0.33584000  0.90846000  0.17475000  1.0
  C  C108  1  0.09150000  0.66412000  0.32525000  1.0
  C  C109  1  0.90850000  0.33588000  0.82525000  1.0
  C  C110  1  0.27361000  0.84871000  0.25000000  1.0
  C  C111  1  0.72639000  0.15129000  0.75000000  1.0
  C  C112  1  0.84877000  0.27366000  0.75000000  1.0
  C  C113  1  0.15123000  0.72634000  0.25000000  1.0
  N  N114  1  0.74096000  0.84741000  0.08848000  1.0
  N  N115  1  0.25904000  0.15260000  0.58848000  1.0
  N  N116  1  0.84760000  0.74066000  0.91184000  1.0
  N  N117  1  0.15240000  0.25934000  0.41184000  1.0
  N  N118  1  0.25904000  0.15260000  0.91152000  1.0
  N  N119  1  0.74096000  0.84741000  0.41152000  1.0
  N  N120  1  0.15240000  0.25934000  0.08816000  1.0
  N  N121  1  0.84760000  0.74066000  0.58816000  1.0
  N  N122  1  0.51552000  0.07240000  0.25000000  1.0
  N  N123  1  0.48448000  0.92760000  0.75000000  1.0
  N  N124  1  0.07217000  0.51558000  0.75000000  1.0
  N  N125  1  0.92783000  0.48441000  0.25000000  1.0
  Cl  Cl126  1  0.00565000  0.25940000  0.25000000  1.0
  Cl  Cl127  1  0.99435000  0.74060000  0.75000000  1.0
  Cl  Cl128  1  0.25962000  0.00535000  0.75000000  1.0
  Cl  Cl129  1  0.74038000  0.99465000  0.25000000  1.0
  Cl  Cl130  1  0.02547000  0.97505000  0.25000000  1.0
  Cl  Cl131  1  0.97453000  0.02495000  0.75000000  1.0
  Cl  Cl132  1  0.80416000  0.19546000  0.07935000  1.0
  Cl  Cl133  1  0.19584000  0.80454000  0.57935000  1.0
  Cl  Cl134  1  0.19584000  0.80454000  0.92065000  1.0
  Cl  Cl135  1  0.80416000  0.19546000  0.42065000  1.0
  Cl  Cl136  1  0.93103000  0.06849000  0.94360000  1.0
  Cl  Cl137  1  0.06897000  0.93151000  0.44360000  1.0
  Cl  Cl138  1  0.06897000  0.93151000  0.05640000  1.0
  Cl  Cl139  1  0.93103000  0.06849000  0.55640000  1.0
  Cl  Cl140  1  0.65054000  0.34944000  0.35957000  1.0
  Cl  Cl141  1  0.34946000  0.65056000  0.85957000  1.0
  Cl  Cl142  1  0.34946000  0.65056000  0.64043000  1.0
  Cl  Cl143  1  0.65054000  0.34944000  0.14043000  1.0
