# generated using pymatgen
data_Cd3P2H48C42S2(NCl)6
_symmetry_space_group_name_H-M   'P 1'
_cell_length_a   9.03276000
_cell_length_b   11.22810000
_cell_length_c   13.14730000
_cell_angle_alpha   99.86900000
_cell_angle_beta   109.93700000
_cell_angle_gamma   94.49950000
_symmetry_Int_Tables_number   1
_chemical_formula_structural   Cd3P2H48C42S2(NCl)6
_chemical_formula_sum   'Cd3 P2 H48 C42 S2 N6 Cl6'
_cell_volume   1221.38143807
_cell_formula_units_Z   1
loop_
 _symmetry_equiv_pos_site_id
 _symmetry_equiv_pos_as_xyz
  1  'x, y, z'
loop_
 _atom_site_type_symbol
 _atom_site_label
 _atom_site_symmetry_multiplicity
 _atom_site_fract_x
 _atom_site_fract_y
 _atom_site_fract_z
 _atom_site_occupancy
  Cd  Cd0  1  0.99161000  0.12196000  0.28979000  1.0
  Cd  Cd1  1  0.00839000  0.87804000  0.71021000  1.0
  Cd  Cd2  1  0.00000000  0.00000000  0.00000000  1.0
  P  P3  1  0.62830000  0.98809000  0.32635000  1.0
  P  P4  1  0.37170000  0.01192000  0.67365000  1.0
  H  H5  1  0.89291000  0.37806000  0.25931000  1.0
  H  H6  1  0.10709000  0.62194000  0.74069000  1.0
  H  H7  1  0.78971000  0.55980000  0.33828000  1.0
  H  H8  1  0.21029000  0.44020000  0.66171000  1.0
  H  H9  1  0.72079000  0.55440000  0.50598000  1.0
  H  H10  1  0.27921000  0.44560000  0.49401000  1.0
  H  H11  1  0.75053000  0.36553000  0.58592000  1.0
  H  H12  1  0.24947000  0.63447000  0.41408000  1.0
  H  H13  1  0.89455000  0.18534000  0.60185000  1.0
  H  H14  1  0.10545000  0.81466000  0.39815000  1.0
  H  H15  1  0.94793000  0.11339000  0.49251000  1.0
  H  H16  1  0.05207000  0.88661000  0.50749000  1.0
  H  H17  1  0.60041000  0.11502000  0.48149000  1.0
  H  H18  1  0.39958000  0.88498000  0.51851000  1.0
  H  H19  1  0.71639000  0.99707000  0.51977000  1.0
  H  H20  1  0.28361000  0.00294000  0.48023000  1.0
  H  H21  1  0.56147000  0.81105000  0.38602000  1.0
  H  H22  1  0.43853000  0.18895000  0.61399000  1.0
  H  H23  1  0.39088000  0.88506000  0.33121000  1.0
  H  H24  1  0.60912000  0.11494000  0.66879000  1.0
  H  H25  1  0.36844000  0.79741000  0.13923000  1.0
  H  H26  1  0.63156000  0.20259000  0.86077000  1.0
  H  H27  1  0.55332000  0.74221000  0.18882000  1.0
  H  H28  1  0.44668000  0.25779000  0.81118000  1.0
  H  H29  1  0.45285000  0.41408000  0.33677000  1.0
  H  H30  1  0.54714000  0.58592000  0.66322000  1.0
  H  H31  1  0.16395000  0.34061000  0.23960000  1.0
  H  H32  1  0.83605000  0.65939000  0.76040000  1.0
  H  H33  1  0.99610000  0.46801000  0.11900000  1.0
  H  H34  1  0.00390000  0.53199000  0.88099000  1.0
  H  H35  1  0.13143000  0.66732000  0.10466000  1.0
  H  H36  1  0.86857000  0.33268000  0.89534000  1.0
  H  H37  1  0.41626000  0.10606000  0.28114000  1.0
  H  H38  1  0.58375000  0.89394000  0.71886000  1.0
  H  H39  1  0.59256000  0.17753000  0.27224000  1.0
  H  H40  1  0.40744000  0.82247000  0.72776000  1.0
  H  H41  1  0.54180000  0.01512000  0.09568000  1.0
  H  H42  1  0.45820000  0.98487000  0.90432000  1.0
  H  H43  1  0.34917000  0.97015000  0.09691000  1.0
  H  H44  1  0.65083000  0.02985000  0.90309000  1.0
  H  H45  1  0.05211000  0.24748000  0.94719000  1.0
  H  H46  1  0.94789000  0.75252000  0.05281000  1.0
  H  H47  1  0.23592000  0.42191000  0.94223000  1.0
  H  H48  1  0.76408000  0.57809000  0.05778000  1.0
  H  H49  1  0.53320000  0.41560000  0.02146000  1.0
  H  H50  1  0.46680000  0.58440000  0.97854000  1.0
  H  H51  1  0.62459000  0.23645000  0.10086000  1.0
  H  H52  1  0.37541000  0.76355000  0.89914000  1.0
  C  C53  1  0.86008000  0.37991000  0.33207000  1.0
  C  C54  1  0.13993000  0.62009000  0.66794000  1.0
  C  C55  1  0.80404000  0.48038000  0.37613000  1.0
  C  C56  1  0.19596000  0.51962000  0.62387000  1.0
  C  C57  1  0.76358000  0.47622000  0.46901000  1.0
  C  C58  1  0.23642000  0.52378000  0.53099000  1.0
  C  C59  1  0.78087000  0.37182000  0.51334000  1.0
  C  C60  1  0.21913000  0.62819000  0.48666000  1.0
  C  C61  1  0.83819000  0.27372000  0.46490000  1.0
  C  C62  1  0.16181000  0.72628000  0.53510000  1.0
  C  C63  1  0.85438000  0.15961000  0.51106000  1.0
  C  C64  1  0.14562000  0.84039000  0.48894000  1.0
  C  C65  1  0.69923000  0.06896000  0.47100000  1.0
  C  C66  1  0.30077000  0.93104000  0.52900000  1.0
  C  C67  1  0.49587000  0.85308000  0.31730000  1.0
  C  C68  1  0.50413000  0.14692000  0.68270000  1.0
  C  C69  1  0.44611000  0.76045000  0.20696000  1.0
  C  C70  1  0.55389000  0.23955000  0.79304000  1.0
  C  C71  1  0.36142000  0.64233000  0.21284000  1.0
  C  C72  1  0.63858000  0.35767000  0.78716000  1.0
  C  C73  1  0.37785000  0.46851000  0.28457000  1.0
  C  C74  1  0.62214000  0.53149000  0.71543000  1.0
  C  C75  1  0.21522000  0.42730000  0.23061000  1.0
  C  C76  1  0.78478000  0.57270000  0.76938000  1.0
  C  C77  1  0.12318000  0.49865000  0.16427000  1.0
  C  C78  1  0.87682000  0.50136000  0.83572000  1.0
  C  C79  1  0.19729000  0.60801000  0.15540000  1.0
  C  C80  1  0.80271000  0.39199000  0.84459000  1.0
  C  C81  1  0.51248000  0.09046000  0.24879000  1.0
  C  C82  1  0.48752000  0.90954000  0.75121000  1.0
  C  C83  1  0.44610000  0.04658000  0.12259000  1.0
  C  C84  1  0.55390000  0.95342000  0.87741000  1.0
  C  C85  1  0.38698000  0.15032000  0.06895000  1.0
  C  C86  1  0.61302000  0.84968000  0.93105000  1.0
  C  C87  1  0.18038000  0.25014000  0.98205000  1.0
  C  C88  1  0.81962000  0.74986000  0.01795000  1.0
  C  C89  1  0.28365000  0.34662000  0.97883000  1.0
  C  C90  1  0.71635000  0.65337000  0.02118000  1.0
  C  C91  1  0.44667000  0.34318000  0.02289000  1.0
  C  C92  1  0.55333000  0.65683000  0.97711000  1.0
  C  C93  1  0.49824000  0.24405000  0.06811000  1.0
  C  C94  1  0.50176000  0.75594000  0.93189000  1.0
  S  S95  1  0.80144000  0.93208000  0.27489000  1.0
  S  S96  1  0.19856000  0.06792000  0.72511000  1.0
  N  N97  1  0.87690000  0.27870000  0.37484000  1.0
  N  N98  1  0.12311000  0.72130000  0.62516000  1.0
  N  N99  1  0.45085000  0.57328000  0.27652000  1.0
  N  N100  1  0.54915000  0.42671000  0.72348000  1.0
  N  N101  1  0.22913000  0.15370000  0.02569000  1.0
  N  N102  1  0.77087000  0.84629000  0.97431000  1.0
  Cl  Cl103  1  0.12486000  0.94592000  0.19378000  1.0
  Cl  Cl104  1  0.87514000  0.05408000  0.80622000  1.0
  Cl  Cl105  1  0.88888000  0.18388000  0.09911000  1.0
  Cl  Cl106  1  0.11112000  0.81611000  0.90089000  1.0
  Cl  Cl107  1  0.26648000  0.21197000  0.41826000  1.0
  Cl  Cl108  1  0.73352000  0.78803000  0.58174000  1.0
