# generated using pymatgen
data_La2Mg3H30C42(NO5)6
_symmetry_space_group_name_H-M   'P 1'
_cell_length_a   15.22560000
_cell_length_b   15.70410000
_cell_length_c   15.70410000
_cell_angle_alpha   120.00000000
_cell_angle_beta   90.00000000
_cell_angle_gamma   90.00000000
_symmetry_Int_Tables_number   1
_chemical_formula_structural   La2Mg3H30C42(NO5)6
_chemical_formula_sum   'La4 Mg6 H60 C84 N12 O60'
_cell_volume   3251.85484797
_cell_formula_units_Z   2
loop_
 _symmetry_equiv_pos_site_id
 _symmetry_equiv_pos_as_xyz
  1  'x, y, z'
loop_
 _atom_site_type_symbol
 _atom_site_label
 _atom_site_symmetry_multiplicity
 _atom_site_fract_x
 _atom_site_fract_y
 _atom_site_fract_z
 _atom_site_occupancy
  La  La0  1  0.75000000  0.66666667  0.33333333  1.0
  La  La1  1  0.75000000  0.33333333  0.66666667  1.0
  La  La2  1  0.25000000  0.33333333  0.66666667  1.0
  La  La3  1  0.25000000  0.66666667  0.33333333  1.0
  Mg  Mg4  1  1.00000000  0.50000000  0.00000000  1.0
  Mg  Mg5  1  1.00000000  0.50000000  0.50000000  1.0
  Mg  Mg6  1  0.00000000  0.00000000  0.50000000  1.0
  Mg  Mg7  1  0.50000000  0.50000000  0.00000000  1.0
  Mg  Mg8  1  0.50000000  0.00000000  0.50000000  1.0
  Mg  Mg9  1  0.50000000  0.50000000  0.50000000  1.0
  H  H10  1  0.94782000  0.53523000  0.16673000  1.0
  H  H11  1  0.85028000  0.75964000  0.04271000  1.0
  H  H12  1  0.94782000  0.63151000  0.46477000  1.0
  H  H13  1  0.85028000  0.28307000  0.24036000  1.0
  H  H14  1  0.94782000  0.83326000  0.36849000  1.0
  H  H15  1  0.85028000  0.95729000  0.71693000  1.0
  H  H16  1  0.94782000  0.46477000  0.83326000  1.0
  H  H17  1  0.85028000  0.24036000  0.95729000  1.0
  H  H18  1  0.94782000  0.36849000  0.53523000  1.0
  H  H19  1  0.85028000  0.71693000  0.75964000  1.0
  H  H20  1  0.94782000  0.16674000  0.63151000  1.0
  H  H21  1  0.85028000  0.04271000  0.28308000  1.0
  H  H22  1  0.55218000  0.36849000  0.83326000  1.0
  H  H23  1  0.64972000  0.71693000  0.95729000  1.0
  H  H24  1  0.55218000  0.16674000  0.53523000  1.0
  H  H25  1  0.64971000  0.04271000  0.75964000  1.0
  H  H26  1  0.55218000  0.46477000  0.63151000  1.0
  H  H27  1  0.64972000  0.24036000  0.28307000  1.0
  H  H28  1  0.55218000  0.63151000  0.16674000  1.0
  H  H29  1  0.64972000  0.28307000  0.04270000  1.0
  H  H30  1  0.55218000  0.83326000  0.46477000  1.0
  H  H31  1  0.64972000  0.95729000  0.24036000  1.0
  H  H32  1  0.55218000  0.53523000  0.36849000  1.0
  H  H33  1  0.64972000  0.75964000  0.71693000  1.0
  H  H34  1  0.05218000  0.46477000  0.83326000  1.0
  H  H35  1  0.14972000  0.24036000  0.95729000  1.0
  H  H36  1  0.05218000  0.36849000  0.53523000  1.0
  H  H37  1  0.14972000  0.71693000  0.75964000  1.0
  H  H38  1  0.05218000  0.16674000  0.63151000  1.0
  H  H39  1  0.14972000  0.04271000  0.28308000  1.0
  H  H40  1  0.05218000  0.53523000  0.16673000  1.0
  H  H41  1  0.14972000  0.75964000  0.04271000  1.0
  H  H42  1  0.05218000  0.63151000  0.46477000  1.0
  H  H43  1  0.14971000  0.28307000  0.24036000  1.0
  H  H44  1  0.05218000  0.83326000  0.36849000  1.0
  H  H45  1  0.14972000  0.95729000  0.71693000  1.0
  H  H46  1  0.44782000  0.63151000  0.16674000  1.0
  H  H47  1  0.35028000  0.28307000  0.04271000  1.0
  H  H48  1  0.44782000  0.83326000  0.46477000  1.0
  H  H49  1  0.35028000  0.95729000  0.24036000  1.0
  H  H50  1  0.44782000  0.53523000  0.36849000  1.0
  H  H51  1  0.35028000  0.75963000  0.71692000  1.0
  H  H52  1  0.44782000  0.36849000  0.83326000  1.0
  H  H53  1  0.35028000  0.71693000  0.95729000  1.0
  H  H54  1  0.44782000  0.16674000  0.53523000  1.0
  H  H55  1  0.35029000  0.04271000  0.75964000  1.0
  H  H56  1  0.44782000  0.46477000  0.63151000  1.0
  H  H57  1  0.35028000  0.24037000  0.28307000  1.0
  H  H58  1  0.75000000  0.90619000  0.09381000  1.0
  H  H59  1  0.75000000  0.18762000  0.09381000  1.0
  H  H60  1  0.75000000  0.90619000  0.81238000  1.0
  H  H61  1  0.75000000  0.09381000  0.90619000  1.0
  H  H62  1  0.75000000  0.81238000  0.90619000  1.0
  H  H63  1  0.75000000  0.09381000  0.18762000  1.0
  H  H64  1  0.25000000  0.09381000  0.90619000  1.0
  H  H65  1  0.25000000  0.81238000  0.90619000  1.0
  H  H66  1  0.25000000  0.09381000  0.18762000  1.0
  H  H67  1  0.25000000  0.90619000  0.09381000  1.0
  H  H68  1  0.25000000  0.18762000  0.09381000  1.0
  H  H69  1  0.25000000  0.90619000  0.81238000  1.0
  C  C70  1  0.80575000  0.78571000  0.10505000  1.0
  C  C71  1  0.80343000  0.73631000  0.15830000  1.0
  C  C72  1  0.86059000  0.64798000  0.13324000  1.0
  C  C73  1  0.80575000  0.31934000  0.21429000  1.0
  C  C74  1  0.80343000  0.42199000  0.26368000  1.0
  C  C75  1  0.86059000  0.48526000  0.35202000  1.0
  C  C76  1  0.80575000  0.89495000  0.68066000  1.0
  C  C77  1  0.80343000  0.84170000  0.57801000  1.0
  C  C78  1  0.86059000  0.86676000  0.51474000  1.0
  C  C79  1  0.80575000  0.21429000  0.89495000  1.0
  C  C80  1  0.80343000  0.26369000  0.84170000  1.0
  C  C81  1  0.86059000  0.35202000  0.86675000  1.0
  C  C82  1  0.80575000  0.68066000  0.78571000  1.0
  C  C83  1  0.80343000  0.57801000  0.73632000  1.0
  C  C84  1  0.86059000  0.51474000  0.64798000  1.0
  C  C85  1  0.80575000  0.10505000  0.31934000  1.0
  C  C86  1  0.80343000  0.15830000  0.42199000  1.0
  C  C87  1  0.86059000  0.13324000  0.48526000  1.0
  C  C88  1  0.69425000  0.68066000  0.89495000  1.0
  C  C89  1  0.69657000  0.57801000  0.84170000  1.0
  C  C90  1  0.63941000  0.51474000  0.86676000  1.0
  C  C91  1  0.69425000  0.10505000  0.78571000  1.0
  C  C92  1  0.69657000  0.15831000  0.73632000  1.0
  C  C93  1  0.63941000  0.13324000  0.64798000  1.0
  C  C94  1  0.69425000  0.21429000  0.31934000  1.0
  C  C95  1  0.69657000  0.26369000  0.42199000  1.0
  C  C96  1  0.63941000  0.35202000  0.48526000  1.0
  C  C97  1  0.69425000  0.31934000  0.10504000  1.0
  C  C98  1  0.69657000  0.42199000  0.15830000  1.0
  C  C99  1  0.63941000  0.48527000  0.13325000  1.0
  C  C100  1  0.69425000  0.89495000  0.21429000  1.0
  C  C101  1  0.69657000  0.84169000  0.26368000  1.0
  C  C102  1  0.63941000  0.86676000  0.35202000  1.0
  C  C103  1  0.69425000  0.78571000  0.68066000  1.0
  C  C104  1  0.69657000  0.73631000  0.57801000  1.0
  C  C105  1  0.63941000  0.64798000  0.51474000  1.0
  C  C106  1  0.19425000  0.21429000  0.89495000  1.0
  C  C107  1  0.19657000  0.26369000  0.84170000  1.0
  C  C108  1  0.13941000  0.35202000  0.86675000  1.0
  C  C109  1  0.19425000  0.68066000  0.78571000  1.0
  C  C110  1  0.19657000  0.57801000  0.73632000  1.0
  C  C111  1  0.13941000  0.51474000  0.64798000  1.0
  C  C112  1  0.19425000  0.10505000  0.31934000  1.0
  C  C113  1  0.19657000  0.15830000  0.42199000  1.0
  C  C114  1  0.13941000  0.13324000  0.48526000  1.0
  C  C115  1  0.19425000  0.78571000  0.10505000  1.0
  C  C116  1  0.19657000  0.73631000  0.15830000  1.0
  C  C117  1  0.13941000  0.64798000  0.13325000  1.0
  C  C118  1  0.19425000  0.31934000  0.21429000  1.0
  C  C119  1  0.19657000  0.42199000  0.26368000  1.0
  C  C120  1  0.13941000  0.48526000  0.35202000  1.0
  C  C121  1  0.19425000  0.89495000  0.68066000  1.0
  C  C122  1  0.19657000  0.84170000  0.57801000  1.0
  C  C123  1  0.13941000  0.86676000  0.51474000  1.0
  C  C124  1  0.30575000  0.31934000  0.10505000  1.0
  C  C125  1  0.30343000  0.42199000  0.15831000  1.0
  C  C126  1  0.36059000  0.48526000  0.13324000  1.0
  C  C127  1  0.30575000  0.89495000  0.21429000  1.0
  C  C128  1  0.30343000  0.84169000  0.26368000  1.0
  C  C129  1  0.36059000  0.86676000  0.35202000  1.0
  C  C130  1  0.30575000  0.78571000  0.68066000  1.0
  C  C131  1  0.30343000  0.73631000  0.57801000  1.0
  C  C132  1  0.36059000  0.64798000  0.51474000  1.0
  C  C133  1  0.30575000  0.68066000  0.89496000  1.0
  C  C134  1  0.30343000  0.57801000  0.84170000  1.0
  C  C135  1  0.36059000  0.51474000  0.86676000  1.0
  C  C136  1  0.30575000  0.10505000  0.78571000  1.0
  C  C137  1  0.30343000  0.15831000  0.73632000  1.0
  C  C138  1  0.36059000  0.13324000  0.64798000  1.0
  C  C139  1  0.30575000  0.21429000  0.31934000  1.0
  C  C140  1  0.30343000  0.26369000  0.42199000  1.0
  C  C141  1  0.36059000  0.35202000  0.48526000  1.0
  C  C142  1  0.75000000  0.86606000  0.13395000  1.0
  C  C143  1  0.75000000  0.26789000  0.13395000  1.0
  C  C144  1  0.75000000  0.86606000  0.73212000  1.0
  C  C145  1  0.75000000  0.13394000  0.86605000  1.0
  C  C146  1  0.75000000  0.73211000  0.86605000  1.0
  C  C147  1  0.75000000  0.13394000  0.26788000  1.0
  C  C148  1  0.25000000  0.13394000  0.86605000  1.0
  C  C149  1  0.25000000  0.73211000  0.86605000  1.0
  C  C150  1  0.25000000  0.13394000  0.26788000  1.0
  C  C151  1  0.25000000  0.86606000  0.13395000  1.0
  C  C152  1  0.25000000  0.26789000  0.13395000  1.0
  C  C153  1  0.25000000  0.86606000  0.73211000  1.0
  N  N154  1  0.75000000  0.76444000  0.23555000  1.0
  N  N155  1  0.75000000  0.47111000  0.23555000  1.0
  N  N156  1  0.75000000  0.76444000  0.52888000  1.0
  N  N157  1  0.75000000  0.23556000  0.76445000  1.0
  N  N158  1  0.75000000  0.52889000  0.76445000  1.0
  N  N159  1  0.75000000  0.23556000  0.47112000  1.0
  N  N160  1  0.25000000  0.23556000  0.76445000  1.0
  N  N161  1  0.25000000  0.52889000  0.76445000  1.0
  N  N162  1  0.25000000  0.23556000  0.47112000  1.0
  N  N163  1  0.25000000  0.76444000  0.23555000  1.0
  N  N164  1  0.25000000  0.47111000  0.23555000  1.0
  N  N165  1  0.25000000  0.76445000  0.52889000  1.0
  O  O166  1  0.90490000  0.61209000  0.05545000  1.0
  O  O167  1  0.85887000  0.61680000  0.19485000  1.0
  O  O168  1  0.90490000  0.44336000  0.38791000  1.0
  O  O169  1  0.85887000  0.57805000  0.38320000  1.0
  O  O170  1  0.90490000  0.94456000  0.55665000  1.0
  O  O171  1  0.85887000  0.80515000  0.42195000  1.0
  O  O172  1  0.90490000  0.38791000  0.94455000  1.0
  O  O173  1  0.85887000  0.38320000  0.80515000  1.0
  O  O174  1  0.90490000  0.55664000  0.61209000  1.0
  O  O175  1  0.85887000  0.42195000  0.61680000  1.0
  O  O176  1  0.90490000  0.05544000  0.44335000  1.0
  O  O177  1  0.85887000  0.19485000  0.57805000  1.0
  O  O178  1  0.59510000  0.55664000  0.94455000  1.0
  O  O179  1  0.64113000  0.42195000  0.80515000  1.0
  O  O180  1  0.59510000  0.05545000  0.61209000  1.0
  O  O181  1  0.64113000  0.19485000  0.61680000  1.0
  O  O182  1  0.59510000  0.38791000  0.44335000  1.0
  O  O183  1  0.64113000  0.38320000  0.57805000  1.0
  O  O184  1  0.59510000  0.44336000  0.05545000  1.0
  O  O185  1  0.64113000  0.57805000  0.19485000  1.0
  O  O186  1  0.59510000  0.94455000  0.38791000  1.0
  O  O187  1  0.64113000  0.80515000  0.38320000  1.0
  O  O188  1  0.59510000  0.61209000  0.55665000  1.0
  O  O189  1  0.64113000  0.61680000  0.42195000  1.0
  O  O190  1  0.09510000  0.38791000  0.94455000  1.0
  O  O191  1  0.14113000  0.38320000  0.80515000  1.0
  O  O192  1  0.09510000  0.55664000  0.61209000  1.0
  O  O193  1  0.14113000  0.42195000  0.61680000  1.0
  O  O194  1  0.09510000  0.05544000  0.44335000  1.0
  O  O195  1  0.14113000  0.19485000  0.57804000  1.0
  O  O196  1  0.09510000  0.61209000  0.05545000  1.0
  O  O197  1  0.14113000  0.61680000  0.19485000  1.0
  O  O198  1  0.09510000  0.44336000  0.38791000  1.0
  O  O199  1  0.14113000  0.57805000  0.38320000  1.0
  O  O200  1  0.09510000  0.94456000  0.55665000  1.0
  O  O201  1  0.14113000  0.80515000  0.42195000  1.0
  O  O202  1  0.40490000  0.44336000  0.05545000  1.0
  O  O203  1  0.35887000  0.57805000  0.19485000  1.0
  O  O204  1  0.40490000  0.94455000  0.38791000  1.0
  O  O205  1  0.35887000  0.80515000  0.38320000  1.0
  O  O206  1  0.40490000  0.61209000  0.55665000  1.0
  O  O207  1  0.35887000  0.61680000  0.42195000  1.0
  O  O208  1  0.40490000  0.55664000  0.94455000  1.0
  O  O209  1  0.35887000  0.42195000  0.80515000  1.0
  O  O210  1  0.40490000  0.05545000  0.61209000  1.0
  O  O211  1  0.35887000  0.19485000  0.61680000  1.0
  O  O212  1  0.40490000  0.38791000  0.44335000  1.0
  O  O213  1  0.35887000  0.38320000  0.57805000  1.0
  O  O214  1  1.00000000  0.49492000  0.13150000  1.0
  O  O215  1  1.00000000  0.63658000  0.50508000  1.0
  O  O216  1  1.00000000  0.86850000  0.36342000  1.0
  O  O217  1  0.00000000  0.50508000  0.86850000  1.0
  O  O218  1  0.00000000  0.36342000  0.49492000  1.0
  O  O219  1  0.00000000  0.13150000  0.63658000  1.0
  O  O220  1  0.50000000  0.36342000  0.86850000  1.0
  O  O221  1  0.50000000  0.13150000  0.49492000  1.0
  O  O222  1  0.50000000  0.50508000  0.63658000  1.0
  O  O223  1  0.50000000  0.63658000  0.13150000  1.0
  O  O224  1  0.50000000  0.86850000  0.50508000  1.0
  O  O225  1  0.50000000  0.49492000  0.36342000  1.0
