# generated using pymatgen
data_AlH7C9NO6
_symmetry_space_group_name_H-M   'P 1'
_cell_length_a   6.67430000
_cell_length_b   8.88254000
_cell_length_c   15.23050405
_cell_angle_alpha   106.80628368
_cell_angle_beta   93.18387544
_cell_angle_gamma   105.09860000
_symmetry_Int_Tables_number   1
_chemical_formula_structural   AlH7C9NO6
_chemical_formula_sum   'Al2 H14 C18 N2 O12'
_cell_volume   826.12457461
_cell_formula_units_Z   2
loop_
 _symmetry_equiv_pos_site_id
 _symmetry_equiv_pos_as_xyz
  1  'x, y, z'
loop_
 _atom_site_type_symbol
 _atom_site_label
 _atom_site_symmetry_multiplicity
 _atom_site_fract_x
 _atom_site_fract_y
 _atom_site_fract_z
 _atom_site_occupancy
  Al  Al0  1  0.50417000  0.00410000  0.50163000  1.0
  Al  Al1  1  0.00253000  0.99914000  0.50148000  1.0
  H  H2  1  0.26295000  0.06630000  0.40056000  1.0
  H  H3  1  0.71160000  0.87821000  0.57485000  1.0
  H  H4  1  0.14159000  0.39194000  0.95341000  1.0
  H  H5  1  0.81389000  0.50644000  0.06401000  1.0
  H  H6  1  0.34812000  0.81890000  0.21953000  1.0
  H  H7  1  0.25118000  0.65712000  0.05255000  1.0
  H  H8  1  0.69876000  0.34686000  0.75428000  1.0
  H  H9  1  0.79424000  0.52721000  0.91825000  1.0
  H  H10  1  0.22610000  0.37973000  0.51693000  1.0
  H  H11  1  0.79206000  0.61906000  0.48228000  1.0
  H  H12  1  0.95824000  0.14212000  0.71543000  1.0
  H  H13  1  0.89117000  0.22807000  0.82438000  1.0
  H  H14  1  0.00514000  0.74921000  0.30249000  1.0
  H  H15  1  0.04818000  0.61057000  0.20297000  1.0
  C  C16  1  0.67564000  0.85445000  0.33554000  1.0
  C  C17  1  0.85113000  0.27924000  0.49356000  1.0
  C  C18  1  0.33143000  0.15617000  0.66452000  1.0
  C  C19  1  0.16103000  0.72133000  0.50948000  1.0
  C  C20  1  0.11027000  0.54870000  0.50798000  1.0
  C  C21  1  0.90464000  0.45131000  0.49383000  1.0
  C  C22  1  0.37057000  0.26504000  0.76072000  1.0
  C  C23  1  0.63314000  0.75673000  0.23677000  1.0
  C  C24  1  0.20715000  0.28222000  0.81635000  1.0
  C  C25  1  0.26546000  0.38386000  0.90988000  1.0
  C  C26  1  0.77107000  0.66979000  0.19229000  1.0
  C  C27  1  0.71157000  0.57659000  0.09756000  1.0
  C  C28  1  0.44723000  0.74749000  0.18449000  1.0
  C  C29  1  0.39223000  0.65612000  0.09172000  1.0
  C  C30  1  0.57902000  0.35565000  0.79977000  1.0
  C  C31  1  0.63215000  0.45493000  0.89105000  1.0
  C  C32  1  0.47300000  0.46785000  0.94811000  1.0
  C  C33  1  0.52631000  0.56801000  0.04694000  1.0
  N  N34  1  0.00137000  0.20186000  0.78440000  1.0
  N  N35  1  0.95055000  0.66759000  0.23824000  1.0
  O  O36  1  0.52170000  0.88642000  0.37571000  1.0
  O  O37  1  0.00409000  0.21824000  0.50295000  1.0
  O  O38  1  0.13964000  0.08941000  0.62514000  1.0
  O  O39  1  0.35232000  0.80223000  0.51999000  1.0
  O  O40  1  0.48807000  0.13023000  0.62453000  1.0
  O  O41  1  0.00481000  0.77953000  0.49983000  1.0
  O  O42  1  0.86666000  0.90367000  0.37609000  1.0
  O  O43  1  0.65903000  0.20232000  0.48404000  1.0
  O  O44  1  0.25682000  0.03285000  0.45569000  1.0
  O  O45  1  0.74667000  0.96541000  0.54697000  1.0
  O  O46  1  0.28000000  0.49725000  0.52070000  1.0
  O  O47  1  0.73529000  0.50243000  0.48013000  1.0
