# generated using pymatgen
data_CsPH4(CO3)2
_symmetry_space_group_name_H-M   'P 1'
_cell_length_a   5.12499000
_cell_length_b   9.03373000
_cell_length_c   15.13950000
_cell_angle_alpha   89.99960000
_cell_angle_beta   90.00000000
_cell_angle_gamma   89.99990000
_symmetry_Int_Tables_number   1
_chemical_formula_structural   CsPH4(CO3)2
_chemical_formula_sum   'Cs4 P4 H16 C8 O24'
_cell_volume   700.92517841
_cell_formula_units_Z   4
loop_
 _symmetry_equiv_pos_site_id
 _symmetry_equiv_pos_as_xyz
  1  'x, y, z'
loop_
 _atom_site_type_symbol
 _atom_site_label
 _atom_site_symmetry_multiplicity
 _atom_site_fract_x
 _atom_site_fract_y
 _atom_site_fract_z
 _atom_site_occupancy
  Cs  Cs0  1  0.21946000  0.10633000  0.41407000  1.0
  Cs  Cs1  1  0.28054000  0.89367000  0.91407000  1.0
  Cs  Cs2  1  0.78054000  0.60633000  0.08593000  1.0
  Cs  Cs3  1  0.71946000  0.39367000  0.58593000  1.0
  P  P4  1  0.71324000  0.68842000  0.36513000  1.0
  P  P5  1  0.78676000  0.31157000  0.86513000  1.0
  P  P6  1  0.28676000  0.18843000  0.13487000  1.0
  P  P7  1  0.21324000  0.81157000  0.63487000  1.0
  H  H8  1  0.48728000  0.80401000  0.47453000  1.0
  H  H9  1  0.01272000  0.19599000  0.97453000  1.0
  H  H10  1  0.51272000  0.30401000  0.02547000  1.0
  H  H11  1  0.98728000  0.69599000  0.52547000  1.0
  H  H12  1  0.39518000  0.53733000  0.28712000  1.0
  H  H13  1  0.10482000  0.46266000  0.78712000  1.0
  H  H14  1  0.60482000  0.03734000  0.21288000  1.0
  H  H15  1  0.89519000  0.96267000  0.71288000  1.0
  H  H16  1  0.20081000  0.54984000  0.42012000  1.0
  H  H17  1  0.29919000  0.45016000  0.92012000  1.0
  H  H18  1  0.79919000  0.04984000  0.07988000  1.0
  H  H19  1  0.70080000  0.95016000  0.57988000  1.0
  H  H20  1  0.98539000  0.33244000  0.24354000  1.0
  H  H21  1  0.51461000  0.66755000  0.74354000  1.0
  H  H22  1  0.01461000  0.83245000  0.25646000  1.0
  H  H23  1  0.48539000  0.16756000  0.75646000  1.0
  C  C24  1  0.51373000  0.51804000  0.34696000  1.0
  C  C25  1  0.98627000  0.48195000  0.84696000  1.0
  C  C26  1  0.48627000  0.01805000  0.15304000  1.0
  C  C27  1  0.01373000  0.98196000  0.65304000  1.0
  C  C28  1  0.70040000  0.39126000  0.32800000  1.0
  C  C29  1  0.79960000  0.60873000  0.82800000  1.0
  C  C30  1  0.29960000  0.89127000  0.17200000  1.0
  C  C31  1  0.20040000  0.10874000  0.67200000  1.0
  O  O32  1  0.79500000  0.74572000  0.27512000  1.0
  O  O33  1  0.70500000  0.25428000  0.77512000  1.0
  O  O34  1  0.20500000  0.24572000  0.22488000  1.0
  O  O35  1  0.29500000  0.75428000  0.72488000  1.0
  O  O36  1  0.51928000  0.80452000  0.40750000  1.0
  O  O37  1  0.98072000  0.19548000  0.90750000  1.0
  O  O38  1  0.48072000  0.30452000  0.09250000  1.0
  O  O39  1  0.01928000  0.69548000  0.59250000  1.0
  O  O40  1  0.93078000  0.65029000  0.43054000  1.0
  O  O41  1  0.56922000  0.34971000  0.93054000  1.0
  O  O42  1  0.06922000  0.15029000  0.06946000  1.0
  O  O43  1  0.43078000  0.84971000  0.56946000  1.0
  O  O44  1  0.35739000  0.48352000  0.42126000  1.0
  O  O45  1  0.14261000  0.51648000  0.92126000  1.0
  O  O46  1  0.64261000  0.98352000  0.07874000  1.0
  O  O47  1  0.85739000  0.01648000  0.57874000  1.0
  O  O48  1  0.72691000  0.28472000  0.37876000  1.0
  O  O49  1  0.77309000  0.71527000  0.87876000  1.0
  O  O50  1  0.27309000  0.78473000  0.12124000  1.0
  O  O51  1  0.22691000  0.21528000  0.62124000  1.0
  O  O52  1  0.83401000  0.41195000  0.25503000  1.0
  O  O53  1  0.66599000  0.58804000  0.75502000  1.0
  O  O54  1  0.16598000  0.91196000  0.24498000  1.0
  O  O55  1  0.33401000  0.08804000  0.74498000  1.0
