# generated using pymatgen
data_ZnPH6C3NO6
_symmetry_space_group_name_H-M   'P 1'
_cell_length_a   5.08127000
_cell_length_b   7.72963000
_cell_length_c   17.86920000
_cell_angle_alpha   90.00030000
_cell_angle_beta   89.99960000
_cell_angle_gamma   90.00000000
_symmetry_Int_Tables_number   1
_chemical_formula_structural   ZnPH6C3NO6
_chemical_formula_sum   'Zn4 P4 H24 C12 N4 O24'
_cell_volume   701.83672163
_cell_formula_units_Z   4
loop_
 _symmetry_equiv_pos_site_id
 _symmetry_equiv_pos_as_xyz
  1  'x, y, z'
loop_
 _atom_site_type_symbol
 _atom_site_label
 _atom_site_symmetry_multiplicity
 _atom_site_fract_x
 _atom_site_fract_y
 _atom_site_fract_z
 _atom_site_occupancy
  Zn  Zn0  1  0.67088000  0.02271000  0.32675000  1.0
  Zn  Zn1  1  0.82914000  0.97730000  0.82675000  1.0
  Zn  Zn2  1  0.17085000  0.47730000  0.67325000  1.0
  Zn  Zn3  1  0.32914000  0.52270000  0.17325000  1.0
  P  P4  1  0.17020000  0.82860000  0.27301000  1.0
  P  P5  1  0.32981000  0.17141000  0.77301000  1.0
  P  P6  1  0.67018000  0.67140000  0.72699000  1.0
  P  P7  1  0.82982000  0.32860000  0.22698000  1.0
  H  H8  1  0.32668000  0.33797000  0.33806000  1.0
  H  H9  1  0.17331000  0.66203000  0.83805000  1.0
  H  H10  1  0.82666000  0.16201000  0.66194000  1.0
  H  H11  1  0.67331000  0.83798000  0.16194000  1.0
  H  H12  1  0.02266000  0.31631000  0.37098000  1.0
  H  H13  1  0.47733000  0.68369000  0.87098000  1.0
  H  H14  1  0.52266000  0.18367000  0.62902000  1.0
  H  H15  1  0.97733000  0.81630000  0.12902000  1.0
  H  H16  1  0.27957000  0.22190000  0.41771000  1.0
  H  H17  1  0.22043000  0.77809000  0.91771000  1.0
  H  H18  1  0.77957000  0.27810000  0.58230000  1.0
  H  H19  1  0.72042000  0.72191000  0.08229000  1.0
  H  H20  1  0.47356000  0.50350000  0.44144000  1.0
  H  H21  1  0.02639000  0.49649000  0.94143000  1.0
  H  H22  1  0.97360000  0.99649000  0.55857000  1.0
  H  H23  1  0.52640000  0.00352000  0.05857000  1.0
  H  H24  1  0.92586000  0.62980000  0.39077000  1.0
  H  H25  1  0.57413000  0.37020000  0.89078000  1.0
  H  H26  1  0.42587000  0.87020000  0.60922000  1.0
  H  H27  1  0.07413000  0.12980000  0.10922000  1.0
  H  H28  1  0.17593000  0.76229000  0.43150000  1.0
  H  H29  1  0.32405000  0.23770000  0.93150000  1.0
  H  H30  1  0.67596000  0.73770000  0.56850000  1.0
  H  H31  1  0.82407000  0.26229000  0.06851000  1.0
  C  C32  1  0.13070000  0.45978000  0.51055000  1.0
  C  C33  1  0.36929000  0.54019000  0.01056000  1.0
  C  C34  1  0.63072000  0.04023000  0.48945000  1.0
  C  C35  1  0.86930000  0.95981000  0.98944000  1.0
  C  C36  1  0.26052000  0.48829000  0.43395000  1.0
  C  C37  1  0.23945000  0.51171000  0.93395000  1.0
  C  C38  1  0.76055000  0.01170000  0.56606000  1.0
  C  C39  1  0.73945000  0.98829000  0.06605000  1.0
  C  C40  1  0.13998000  0.64663000  0.39699000  1.0
  C  C41  1  0.36001000  0.35336000  0.89699000  1.0
  C  C42  1  0.64000000  0.85336000  0.60300000  1.0
  C  C43  1  0.86001000  0.14663000  0.10301000  1.0
  N  N44  1  0.21819000  0.33163000  0.38693000  1.0
  N  N45  1  0.28181000  0.66837000  0.88692000  1.0
  N  N46  1  0.71819000  0.16836000  0.61308000  1.0
  N  N47  1  0.78181000  0.83163000  0.11308000  1.0
  O  O48  1  0.26780000  0.50995000  0.56657000  1.0
  O  O49  1  0.23218000  0.49006000  0.06656000  1.0
  O  O50  1  0.76783000  0.99006000  0.43343000  1.0
  O  O51  1  0.73219000  0.00995000  0.93344000  1.0
  O  O52  1  0.90437000  0.39482000  0.51116000  1.0
  O  O53  1  0.59562000  0.60517000  0.01116000  1.0
  O  O54  1  0.40440000  0.10517000  0.48884000  1.0
  O  O55  1  0.09562000  0.89484000  0.98884000  1.0
  O  O56  1  0.25760000  0.66488000  0.32440000  1.0
  O  O57  1  0.24241000  0.33510000  0.82440000  1.0
  O  O58  1  0.75759000  0.83511000  0.67560000  1.0
  O  O59  1  0.74242000  0.16490000  0.17560000  1.0
  O  O60  1  0.87049000  0.84466000  0.27528000  1.0
  O  O61  1  0.62955000  0.15534000  0.77528000  1.0
  O  O62  1  0.37047000  0.65534000  0.72472000  1.0
  O  O63  1  0.12955000  0.34466000  0.22472000  1.0
  O  O64  1  0.26855000  0.77384000  0.19452000  1.0
  O  O65  1  0.23147000  0.22615000  0.69452000  1.0
  O  O66  1  0.76854000  0.72616000  0.80548000  1.0
  O  O67  1  0.73145000  0.27386000  0.30548000  1.0
  O  O68  1  0.30060000  0.99147000  0.30383000  1.0
  O  O69  1  0.19941000  0.00851000  0.80384000  1.0
  O  O70  1  0.80059000  0.50853000  0.69617000  1.0
  O  O71  1  0.69941000  0.49150000  0.19615000  1.0
