# generated using pymatgen
data_YH5(C3O4)2
_symmetry_space_group_name_H-M   'P 1'
_cell_length_a   6.24189000
_cell_length_b   8.64275000
_cell_length_c   8.76710000
_cell_angle_alpha   111.34800000
_cell_angle_beta   109.78300000
_cell_angle_gamma   91.49440000
_symmetry_Int_Tables_number   1
_chemical_formula_structural   YH5(C3O4)2
_chemical_formula_sum   'Y2 H10 C12 O16'
_cell_volume   408.45203242
_cell_formula_units_Z   2
loop_
 _symmetry_equiv_pos_site_id
 _symmetry_equiv_pos_as_xyz
  1  'x, y, z'
loop_
 _atom_site_type_symbol
 _atom_site_label
 _atom_site_symmetry_multiplicity
 _atom_site_fract_x
 _atom_site_fract_y
 _atom_site_fract_z
 _atom_site_occupancy
  Y  Y0  1  0.82019000  0.35024000  0.18065000  1.0
  Y  Y1  1  0.17981000  0.64976000  0.81935000  1.0
  H  H2  1  0.75826000  0.96750000  0.33260000  1.0
  H  H3  1  0.24173000  0.03249000  0.66741000  1.0
  H  H4  1  0.98796000  0.33059000  0.89073000  1.0
  H  H5  1  0.01205000  0.66941000  0.10928000  1.0
  H  H6  1  0.18212000  0.27282000  0.02644000  1.0
  H  H7  1  0.81789000  0.72718000  0.97355000  1.0
  H  H8  1  0.27166000  0.35594000  0.46710000  1.0
  H  H9  1  0.72835000  0.64406000  0.53290000  1.0
  H  H10  1  0.30992000  0.28319000  0.28203000  1.0
  H  H11  1  0.69009000  0.71682000  0.71798000  1.0
  C  C12  1  0.64250000  0.98110000  0.40441000  1.0
  C  C13  1  0.35750000  0.01890000  0.59560000  1.0
  C  C14  1  0.49480000  0.83995000  0.37478000  1.0
  C  C15  1  0.50520000  0.16005000  0.62522000  1.0
  C  C16  1  0.35042000  0.85935000  0.47148000  1.0
  C  C17  1  0.64957000  0.14065000  0.52853000  1.0
  C  C18  1  0.18528000  0.71189000  0.44184000  1.0
  C  C19  1  0.81471000  0.28811000  0.55816000  1.0
  C  C20  1  0.50202000  0.67036000  0.24305000  1.0
  C  C21  1  0.49798000  0.32964000  0.75695000  1.0
  C  C22  1  0.60601000  0.96038000  0.99004000  1.0
  C  C23  1  0.39401000  0.03961000  0.00995000  1.0
  O  O24  1  0.18301000  0.68463000  0.57318000  1.0
  O  O25  1  0.81697000  0.31535000  0.42682000  1.0
  O  O26  1  0.05381000  0.62035000  0.28291000  1.0
  O  O27  1  0.94618000  0.37965000  0.71708000  1.0
  O  O28  1  0.40842000  0.64095000  0.08163000  1.0
  O  O29  1  0.59160000  0.35906000  0.91838000  1.0
  O  O30  1  0.61200000  0.57007000  0.30501000  1.0
  O  O31  1  0.38799000  0.42993000  0.69499000  1.0
  O  O32  1  0.79654000  0.05646000  0.05847000  1.0
  O  O33  1  0.20344000  0.94353000  0.94152000  1.0
  O  O34  1  0.56817000  0.80019000  0.90544000  1.0
  O  O35  1  0.43183000  0.19983000  0.09456000  1.0
  O  O36  1  0.19481000  0.31319000  0.33620000  1.0
  O  O37  1  0.80519000  0.68682000  0.66381000  1.0
  O  O38  1  0.03038000  0.31084000  0.00121000  1.0
  O  O39  1  0.96962000  0.68917000  0.99879000  1.0
