# generated using pymatgen
data_ZnH7C7NO6
_symmetry_space_group_name_H-M   'P 1'
_cell_length_a   7.21169000
_cell_length_b   7.82542000
_cell_length_c   7.82550000
_cell_angle_alpha   98.74270000
_cell_angle_beta   100.37700000
_cell_angle_gamma   100.37800000
_symmetry_Int_Tables_number   1
_chemical_formula_structural   ZnH7C7NO6
_chemical_formula_sum   'Zn2 H14 C14 N2 O12'
_cell_volume   419.46242957
_cell_formula_units_Z   2
loop_
 _symmetry_equiv_pos_site_id
 _symmetry_equiv_pos_as_xyz
  1  'x, y, z'
loop_
 _atom_site_type_symbol
 _atom_site_label
 _atom_site_symmetry_multiplicity
 _atom_site_fract_x
 _atom_site_fract_y
 _atom_site_fract_z
 _atom_site_occupancy
  Zn  Zn0  1  0.25000000  0.84669000  0.15332000  1.0
  Zn  Zn1  1  0.75000000  0.15331000  0.84668000  1.0
  H  H2  1  0.90128000  0.66465000  0.11638000  1.0
  H  H3  1  0.59872000  0.88363000  0.33536000  1.0
  H  H4  1  0.09872000  0.33535000  0.88362000  1.0
  H  H5  1  0.40128000  0.11637000  0.66464000  1.0
  H  H6  1  0.88121000  0.82491000  0.01563000  1.0
  H  H7  1  0.61880000  0.98438000  0.17510000  1.0
  H  H8  1  0.11879000  0.17509000  0.98438000  1.0
  H  H9  1  0.38120000  0.01562000  0.82490000  1.0
  H  H10  1  0.28404000  0.45889000  0.15204000  1.0
  H  H11  1  0.21596000  0.84797000  0.54111000  1.0
  H  H12  1  0.71596000  0.54111000  0.84796000  1.0
  H  H13  1  0.78404000  0.15204000  0.45889000  1.0
  H  H14  1  0.25000000  0.33440000  0.66560000  1.0
  H  H15  1  0.75000000  0.66560000  0.33440000  1.0
  C  C16  1  0.27087000  0.18137000  0.33546000  1.0
  C  C17  1  0.22913000  0.66454000  0.81863000  1.0
  C  C18  1  0.72913000  0.81863000  0.66454000  1.0
  C  C19  1  0.77087000  0.33545000  0.18137000  1.0
  C  C20  1  0.26213000  0.36984000  0.39894000  1.0
  C  C21  1  0.23786000  0.60106000  0.63016000  1.0
  C  C22  1  0.73787000  0.63017000  0.60106000  1.0
  C  C23  1  0.76214000  0.39894000  0.36984000  1.0
  C  C24  1  0.26655000  0.49328000  0.28722000  1.0
  C  C25  1  0.23345000  0.71279000  0.50673000  1.0
  C  C26  1  0.73345000  0.50672000  0.71279000  1.0
  C  C27  1  0.76654000  0.28721000  0.49327000  1.0
  C  C28  1  0.25000000  0.42613000  0.57387000  1.0
  C  C29  1  0.75000000  0.57387000  0.42612000  1.0
  N  N30  1  0.25000000  0.66088000  0.33913000  1.0
  N  N31  1  0.75000000  0.33913000  0.66086000  1.0
  O  O32  1  0.95463000  0.79289000  0.12243000  1.0
  O  O33  1  0.54536000  0.87758000  0.20711000  1.0
  O  O34  1  0.04537000  0.20710000  0.87757000  1.0
  O  O35  1  0.45463000  0.12242000  0.79289000  1.0
  O  O36  1  0.24606000  0.12309000  0.16877000  1.0
  O  O37  1  0.25394000  0.83122000  0.87692000  1.0
  O  O38  1  0.75394000  0.87691000  0.83122000  1.0
  O  O39  1  0.74607000  0.16877000  0.12308000  1.0
  O  O40  1  0.30141000  0.08415000  0.44769000  1.0
  O  O41  1  0.19858000  0.55231000  0.91585000  1.0
  O  O42  1  0.69858000  0.91585000  0.55231000  1.0
  O  O43  1  0.80141000  0.44768000  0.08414000  1.0
