# generated using pymatgen
data_FeAg2H8(C2N)8
_symmetry_space_group_name_H-M   'P 1'
_cell_length_a   8.58615000
_cell_length_b   15.36890000
_cell_length_c   15.36883024
_cell_angle_alpha   117.08789322
_cell_angle_beta   100.05877581
_cell_angle_gamma   100.06000000
_symmetry_Int_Tables_number   1
_chemical_formula_structural   FeAg2H8(C2N)8
_chemical_formula_sum   'Fe3 Ag6 H24 C48 N24'
_cell_volume   1701.45742406
_cell_formula_units_Z   3
loop_
 _symmetry_equiv_pos_site_id
 _symmetry_equiv_pos_as_xyz
  1  'x, y, z'
loop_
 _atom_site_type_symbol
 _atom_site_label
 _atom_site_symmetry_multiplicity
 _atom_site_fract_x
 _atom_site_fract_y
 _atom_site_fract_z
 _atom_site_occupancy
  Fe  Fe0  1  0.50000000  0.50000000  1.00000000  1.0
  Fe  Fe1  1  0.50000000  0.00000000  0.50000000  1.0
  Fe  Fe2  1  0.00000000  0.50000000  0.50000000  1.0
  Ag  Ag3  1  0.69245000  0.38183000  0.69033000  1.0
  Ag  Ag4  1  0.00010000  0.30348000  0.69651000  1.0
  Ag  Ag5  1  0.30752000  0.30953000  0.61776000  1.0
  Ag  Ag6  1  0.30754000  0.61818000  0.30967000  1.0
  Ag  Ag7  1  0.99991000  0.69653000  0.30350000  1.0
  Ag  Ag8  1  0.69247000  0.69047000  0.38224000  1.0
  H  H9  1  0.52237000  0.44262000  0.15917000  1.0
  H  H10  1  0.36694000  0.84212000  0.28338000  1.0
  H  H11  1  0.07606000  0.71670000  0.55846000  1.0
  H  H12  1  0.63368000  0.71655000  0.15784000  1.0
  H  H13  1  0.92408000  0.44158000  0.28324000  1.0
  H  H14  1  0.47714000  0.84092000  0.55746000  1.0
  H  H15  1  0.47764000  0.55738000  0.84083000  1.0
  H  H16  1  0.63307000  0.15788000  0.71663000  1.0
  H  H17  1  0.92393000  0.28330000  0.44154000  1.0
  H  H18  1  0.36632000  0.28345000  0.84216000  1.0
  H  H19  1  0.07592000  0.55841000  0.71676000  1.0
  H  H20  1  0.52285000  0.15909000  0.44254000  1.0
  H  H21  1  0.46163000  0.28127000  0.16557000  1.0
  H  H22  1  0.29858000  0.83621000  0.11600000  1.0
  H  H23  1  0.17929000  0.88466000  0.72022000  1.0
  H  H24  1  0.70159000  0.88389000  0.16377000  1.0
  H  H25  1  0.82072000  0.27983000  0.11525000  1.0
  H  H26  1  0.53829000  0.83448000  0.71885000  1.0
  H  H27  1  0.53836000  0.71872000  0.83442000  1.0
  H  H28  1  0.70144000  0.16380000  0.88401000  1.0
  H  H29  1  0.82069000  0.11533000  0.27978000  1.0
  H  H30  1  0.29842000  0.11611000  0.83623000  1.0
  H  H31  1  0.17929000  0.72017000  0.88475000  1.0
  H  H32  1  0.46171000  0.16552000  0.28115000  1.0
  C  C33  1  0.37423000  0.18499000  0.00089000  1.0
  C  C34  1  0.37388000  0.00086000  0.18499000  1.0
  C  C35  1  0.18793000  0.81621000  0.81625000  1.0
  C  C36  1  0.62577000  0.81500000  0.99910000  1.0
  C  C37  1  0.81206000  0.18378000  0.18375000  1.0
  C  C38  1  0.62613000  0.99914000  0.81501000  1.0
  C  C39  1  0.47220000  0.36881000  0.08944000  1.0
  C  C40  1  0.38506000  0.91202000  0.27971000  1.0
  C  C41  1  0.09989000  0.72077000  0.63224000  1.0
  C  C42  1  0.61528000  0.72020000  0.08795000  1.0
  C  C43  1  0.90017000  0.36783000  0.27917000  1.0
  C  C44  1  0.52752000  0.91061000  0.63126000  1.0
  C  C45  1  0.52781000  0.63118000  0.91056000  1.0
  C  C46  1  0.61494000  0.08799000  0.72029000  1.0
  C  C47  1  0.90010000  0.27923000  0.36776000  1.0
  C  C48  1  0.38472000  0.27980000  0.91205000  1.0
  C  C49  1  0.09983000  0.63217000  0.72083000  1.0
  C  C50  1  0.47248000  0.08939000  0.36874000  1.0
  C  C51  1  0.43815000  0.27886000  0.09249000  1.0
  C  C52  1  0.34738000  0.90919000  0.18685000  1.0
  C  C53  1  0.15736000  0.81391000  0.72243000  1.0
  C  C54  1  0.65263000  0.81305000  0.09077000  1.0
  C  C55  1  0.84268000  0.27762000  0.18604000  1.0
  C  C56  1  0.56189000  0.90755000  0.72122000  1.0
  C  C57  1  0.56185000  0.72113000  0.90750000  1.0
  C  C58  1  0.65263000  0.09081000  0.81315000  1.0
  C  C59  1  0.84263000  0.18608000  0.27757000  1.0
  C  C60  1  0.34738000  0.18695000  0.90923000  1.0
  C  C61  1  0.15731000  0.72237000  0.81396000  1.0
  C  C62  1  0.43811000  0.09245000  0.27878000  1.0
  C  C63  1  0.33809000  0.08757000  0.00081000  1.0
  C  C64  1  0.33777000  0.00082000  0.08755000  1.0
  C  C65  1  0.25069000  0.91382000  0.91383000  1.0
  C  C66  1  0.66192000  0.91243000  0.99919000  1.0
  C  C67  1  0.74931000  0.08618000  0.08617000  1.0
  C  C68  1  0.66224000  0.99918000  0.91245000  1.0
  C  C69  1  0.64312000  0.40648000  0.82235000  1.0
  C  C70  1  0.81675000  0.17521000  0.58954000  1.0
  C  C71  1  0.23327000  0.41543000  0.59131000  1.0
  C  C72  1  0.18333000  0.41062000  0.82477000  1.0
  C  C73  1  0.76695000  0.40862000  0.58465000  1.0
  C  C74  1  0.35678000  0.17757000  0.59329000  1.0
  C  C75  1  0.35688000  0.59352000  0.17765000  1.0
  C  C76  1  0.18326000  0.82480000  0.41047000  1.0
  C  C77  1  0.76672000  0.58456000  0.40869000  1.0
  C  C78  1  0.81668000  0.58939000  0.17524000  1.0
  C  C79  1  0.23303000  0.59139000  0.41535000  1.0
  C  C80  1  0.64322000  0.82243000  0.40671000  1.0
  N  N81  1  0.44642000  0.37024000  0.00068000  1.0
  N  N82  1  0.44669000  0.00064000  0.37012000  1.0
  N  N83  1  0.07165000  0.63040000  0.63047000  1.0
  N  N84  1  0.55359000  0.62976000  0.99932000  1.0
  N  N85  1  0.92834000  0.36960000  0.36953000  1.0
  N  N86  1  0.55332000  0.99937000  0.62989000  1.0
  N  N87  1  0.59929000  0.44168000  0.89584000  1.0
  N  N88  1  0.70029000  0.10343000  0.54808000  1.0
  N  N89  1  0.15463000  0.45315000  0.55641000  1.0
  N  N90  1  0.29972000  0.45204000  0.89657000  1.0
  N  N91  1  0.84558000  0.44349000  0.54691000  1.0
  N  N92  1  0.40060000  0.10407000  0.55812000  1.0
  N  N93  1  0.40071000  0.55832000  0.10416000  1.0
  N  N94  1  0.29973000  0.89658000  0.45193000  1.0
  N  N95  1  0.84536000  0.54685000  0.44359000  1.0
  N  N96  1  0.70028000  0.54796000  0.10343000  1.0
  N  N97  1  0.15441000  0.55651000  0.45309000  1.0
  N  N98  1  0.59941000  0.89593000  0.44188000  1.0
  N  N99  1  0.27848000  0.00067000  0.90979000  1.0
  N  N100  1  0.36937000  0.09179000  0.09180000  1.0
  N  N101  1  0.27805000  0.90978000  0.00071000  1.0
  N  N102  1  0.63064000  0.90821000  0.90820000  1.0
  N  N103  1  0.72152000  0.99932000  0.09020000  1.0
  N  N104  1  0.72196000  0.09022000  0.99929000  1.0
