# generated using pymatgen
data_K3H4C6N3O11
_symmetry_space_group_name_H-M   'P 1'
_cell_length_a   9.82170500
_cell_length_b   9.82170000
_cell_length_c   11.83780000
_cell_angle_alpha   90.00090000
_cell_angle_beta   90.00030000
_cell_angle_gamma   60.00005052
_symmetry_Int_Tables_number   1
_chemical_formula_structural   K3H4C6N3O11
_chemical_formula_sum   'K9 H12 C18 N9 O33'
_cell_volume   988.95242876
_cell_formula_units_Z   3
loop_
 _symmetry_equiv_pos_site_id
 _symmetry_equiv_pos_as_xyz
  1  'x, y, z'
loop_
 _atom_site_type_symbol
 _atom_site_label
 _atom_site_symmetry_multiplicity
 _atom_site_fract_x
 _atom_site_fract_y
 _atom_site_fract_z
 _atom_site_occupancy
  K  K0  1  0.44914000  0.55086000  0.83336000  1.0
  K  K1  1  0.55086000  0.00000000  0.50000000  1.0
  K  K2  1  0.00000000  0.44914000  0.16664000  1.0
  K  K3  1  0.83487000  0.51769000  0.52698000  1.0
  K  K4  1  0.51769000  0.64743000  0.19368000  1.0
  K  K5  1  0.64743000  0.83489000  0.86032000  1.0
  K  K6  1  0.35255000  0.48232000  0.47303000  1.0
  K  K7  1  0.16512000  0.35257000  0.80632000  1.0
  K  K8  1  0.48232000  0.16511000  0.13968000  1.0
  H  H9  1  0.56290000  0.16132000  0.75737000  1.0
  H  H10  1  0.16132000  0.27580000  0.42402000  1.0
  H  H11  1  0.27578000  0.56290000  0.09070000  1.0
  H  H12  1  0.72422000  0.83868000  0.24263000  1.0
  H  H13  1  0.43712000  0.72420000  0.57598000  1.0
  H  H14  1  0.83868000  0.43710000  0.90930000  1.0
  H  H15  1  0.55535000  0.22093000  0.88059000  1.0
  H  H16  1  0.22091000  0.22373000  0.54724000  1.0
  H  H17  1  0.22371000  0.55534000  0.21390000  1.0
  H  H18  1  0.77627000  0.77908000  0.11941000  1.0
  H  H19  1  0.44464000  0.77627000  0.45276000  1.0
  H  H20  1  0.77905000  0.44466000  0.78610000  1.0
  C  C21  1  0.00001000  0.12974000  0.66666667  1.0
  C  C22  1  0.12975000  0.87026000  0.33333333  1.0
  C  C23  1  0.87026000  0.99999000  1.00000000  1.0
  C  C24  1  0.85702000  0.12048000  0.65578000  1.0
  C  C25  1  0.12048000  0.02252000  0.32246000  1.0
  C  C26  1  0.02251000  0.85700000  0.98915000  1.0
  C  C27  1  0.97750000  0.87952000  0.34422000  1.0
  C  C28  1  0.14300000  0.97748000  0.67754000  1.0
  C  C29  1  0.87951000  0.14299000  0.01085000  1.0
  C  C30  1  0.85076000  0.97674000  0.67288000  1.0
  C  C31  1  0.97673000  0.17252000  0.33954000  1.0
  C  C32  1  0.17250000  0.85078000  0.00623000  1.0
  C  C33  1  0.82749000  0.02327000  0.32712000  1.0
  C  C34  1  0.14925000  0.82748000  0.66046000  1.0
  C  C35  1  0.02328000  0.14922000  0.99377000  1.0
  C  C36  1  0.00000000  0.83062000  0.66666667  1.0
  C  C37  1  0.83061000  0.16939000  0.33333333  1.0
  C  C38  1  0.16938000  0.00000000  0.00000000  1.0
  N  N39  1  0.71574000  0.25569000  0.62765000  1.0
  N  N40  1  0.25568000  0.02859000  0.29431000  1.0
  N  N41  1  0.02859000  0.71573000  0.96100000  1.0
  N  N42  1  0.97143000  0.74431000  0.37235000  1.0
  N  N43  1  0.28426000  0.97142000  0.70569000  1.0
  N  N44  1  0.74432000  0.28426000  0.03900000  1.0
  N  N45  1  0.00000000  0.68800000  0.66666667  1.0
  N  N46  1  0.68799000  0.31201000  0.33333333  1.0
  N  N47  1  0.31199000  0.00000000  1.00000000  1.0
  O  O48  1  0.00002000  0.25851000  0.66662000  1.0
  O  O49  1  0.25853000  0.74149000  0.33333333  1.0
  O  O50  1  0.74147000  0.00000000  0.00000000  1.0
  O  O51  1  0.68774000  0.39125000  0.65785000  1.0
  O  O52  1  0.39124000  0.92104000  0.32450000  1.0
  O  O53  1  0.92101000  0.68773000  0.99117000  1.0
  O  O54  1  0.07899000  0.60876000  0.34215000  1.0
  O  O55  1  0.31228000  0.07897000  0.67550000  1.0
  O  O56  1  0.60874000  0.31226000  0.00883000  1.0
  O  O57  1  0.61531000  0.24242000  0.56893000  1.0
  O  O58  1  0.24239000  0.14228000  0.23556000  1.0
  O  O59  1  0.14230000  0.61530000  0.90228000  1.0
  O  O60  1  0.85773000  0.75758000  0.43107000  1.0
  O  O61  1  0.38467000  0.85773000  0.76444000  1.0
  O  O62  1  0.75759000  0.38470000  0.09772000  1.0
  O  O63  1  0.72051000  0.98227000  0.69012000  1.0
  O  O64  1  0.98225000  0.29724000  0.35676000  1.0
  O  O65  1  0.29722000  0.72052000  0.02349000  1.0
  O  O66  1  0.70277000  0.01774000  0.30988000  1.0
  O  O67  1  0.27949000  0.70276000  0.64324000  1.0
  O  O68  1  0.01774000  0.27948000  0.97652000  1.0
  O  O69  1  0.11082000  0.56688000  0.62061000  1.0
  O  O70  1  0.56687000  0.32231000  0.28726000  1.0
  O  O71  1  0.32231000  0.11080000  0.95393000  1.0
  O  O72  1  0.67770000  0.43312000  0.37939000  1.0
  O  O73  1  0.88918000  0.67769000  0.71274000  1.0
  O  O74  1  0.43311000  0.88920000  0.04607000  1.0
  O  O75  1  0.49525000  0.24746000  0.80973000  1.0
  O  O76  1  0.24746000  0.25729000  0.47639000  1.0
  O  O77  1  0.25730000  0.49524000  0.14305000  1.0
  O  O78  1  0.74271000  0.75254000  0.19027000  1.0
  O  O79  1  0.50475000  0.74271000  0.52361000  1.0
  O  O80  1  0.75254000  0.50476000  0.85695000  1.0
