# generated using pymatgen
data_CdH24C33(NO3)2
_symmetry_space_group_name_H-M   'P 1'
_cell_length_a   8.53015000
_cell_length_b   12.35960000
_cell_length_c   13.76110000
_cell_angle_alpha   67.13420000
_cell_angle_beta   83.89030000
_cell_angle_gamma   83.74420000
_symmetry_Int_Tables_number   1
_chemical_formula_structural   CdH24C33(NO3)2
_chemical_formula_sum   'Cd2 H48 C66 N4 O12'
_cell_volume   1325.59563106
_cell_formula_units_Z   2
loop_
 _symmetry_equiv_pos_site_id
 _symmetry_equiv_pos_as_xyz
  1  'x, y, z'
loop_
 _atom_site_type_symbol
 _atom_site_label
 _atom_site_symmetry_multiplicity
 _atom_site_fract_x
 _atom_site_fract_y
 _atom_site_fract_z
 _atom_site_occupancy
  Cd  Cd0  1  0.46704000  0.35338000  0.50150000  1.0
  Cd  Cd1  1  0.53297000  0.64663000  0.49850000  1.0
  H  H2  1  0.34514000  0.62091000  0.91813000  1.0
  H  H3  1  0.65485000  0.37909000  0.08187000  1.0
  H  H4  1  0.10635000  0.63431000  0.03529000  1.0
  H  H5  1  0.89365000  0.36569000  0.96471000  1.0
  H  H6  1  0.81209000  0.68514000  0.78133000  1.0
  H  H7  1  0.18790000  0.31485000  0.21867000  1.0
  H  H8  1  0.05054000  0.67114000  0.66791000  1.0
  H  H9  1  0.94946000  0.32886000  0.33209000  1.0
  H  H10  1  0.63452000  0.61488000  0.93597000  1.0
  H  H11  1  0.36548000  0.38511000  0.06403000  1.0
  H  H12  1  0.66201000  0.76827000  0.87278000  1.0
  H  H13  1  0.33799000  0.23173000  0.12722000  1.0
  H  H14  1  0.44793000  0.55016000  0.09110000  1.0
  H  H15  1  0.55207000  0.44983000  0.90891000  1.0
  H  H16  1  0.25934000  0.59699000  0.21830000  1.0
  H  H17  1  0.74065000  0.40301000  0.78171000  1.0
  H  H18  1  0.45490000  0.93305000  0.12687000  1.0
  H  H19  1  0.54510000  0.06694000  0.87313000  1.0
  H  H20  1  0.63324000  0.88951000  0.99281000  1.0
  H  H21  1  0.36676000  0.11049000  0.00719000  1.0
  H  H22  1  0.02270000  0.67973000  0.50070000  1.0
  H  H23  1  0.97731000  0.32027000  0.49930000  1.0
  H  H24  1  0.93060000  0.88934000  0.45879000  1.0
  H  H25  1  0.06940000  0.11066000  0.54121000  1.0
  H  H26  1  0.03195000  0.04381000  0.28872000  1.0
  H  H27  1  0.96805000  0.95619000  0.71127000  1.0
  H  H28  1  0.21482000  0.98456000  0.16427000  1.0
  H  H29  1  0.78518000  0.01544000  0.83573000  1.0
  H  H30  1  0.68058000  0.11727000  0.49466000  1.0
  H  H31  1  0.31942000  0.88273000  0.50534000  1.0
  H  H32  1  0.68095000  0.89518000  0.58781000  1.0
  H  H33  1  0.31905000  0.10482000  0.41219000  1.0
  H  H34  1  0.49327000  0.81247000  0.74481000  1.0
  H  H35  1  0.50673000  0.18754000  0.25519000  1.0
  H  H36  1  0.28613000  0.84801000  0.87642000  1.0
  H  H37  1  0.71387000  0.15199000  0.12358000  1.0
  H  H38  1  0.11198000  0.98793000  0.93520000  1.0
  H  H39  1  0.88802000  0.01207000  0.06480000  1.0
  H  H40  1  0.01699000  0.19605000  0.90934000  1.0
  H  H41  1  0.98301000  0.80396000  0.09066000  1.0
  H  H42  1  0.03791000  0.41234000  0.80335000  1.0
  H  H43  1  0.96209000  0.58766000  0.19664000  1.0
  H  H44  1  0.22218000  0.47526000  0.64207000  1.0
  H  H45  1  0.77782000  0.52474000  0.35793000  1.0
  H  H46  1  0.36032000  0.33468000  0.33855000  1.0
  H  H47  1  0.63968000  0.66532000  0.66145000  1.0
  H  H48  1  0.21416000  0.38507000  0.39558000  1.0
  H  H49  1  0.78584000  0.61494000  0.60443000  1.0
  C  C50  1  0.35879000  0.64102000  0.71508000  1.0
  C  C51  1  0.64121000  0.35898000  0.28492000  1.0
  C  C52  1  0.21385000  0.64553000  0.78511000  1.0
  C  C53  1  0.78615000  0.35447000  0.21489000  1.0
  C  C54  1  0.22765000  0.63483000  0.88927000  1.0
  C  C55  1  0.77235000  0.36517000  0.11073000  1.0
  C  C56  1  0.09535000  0.64300000  0.95437000  1.0
  C  C57  1  0.90465000  0.35700000  0.04563000  1.0
  C  C58  1  0.94415000  0.66261000  0.91612000  1.0
  C  C59  1  0.05585000  0.33739000  0.08388000  1.0
  C  C60  1  0.92761000  0.67162000  0.81274000  1.0
  C  C61  1  0.07239000  0.32838000  0.18727000  1.0
  C  C62  1  0.06255000  0.66323000  0.74843000  1.0
  C  C63  1  0.93745000  0.33678000  0.25157000  1.0
  C  C64  1  0.66427000  0.69247000  0.94902000  1.0
  C  C65  1  0.33573000  0.30752000  0.05098000  1.0
  C  C66  1  0.55155000  0.71777000  0.03013000  1.0
  C  C67  1  0.44844000  0.28223000  0.96987000  1.0
  C  C68  1  0.44657000  0.63624000  0.09592000  1.0
  C  C69  1  0.55343000  0.36375000  0.90408000  1.0
  C  C70  1  0.34153000  0.66190000  0.17025000  1.0
  C  C71  1  0.65847000  0.33809000  0.82975000  1.0
  C  C72  1  0.34082000  0.76928000  0.18346000  1.0
  C  C73  1  0.65917000  0.23072000  0.81654000  1.0
  C  C74  1  0.44810000  0.85034000  0.11726000  1.0
  C  C75  1  0.55190000  0.14966000  0.88274000  1.0
  C  C76  1  0.55015000  0.82541000  0.04182000  1.0
  C  C77  1  0.44985000  0.17458000  0.95818000  1.0
  C  C78  1  0.23183000  0.79915000  0.26234000  1.0
  C  C79  1  0.76817000  0.20085000  0.73766000  1.0
  C  C80  1  0.17636000  0.71393000  0.35967000  1.0
  C  C81  1  0.82364000  0.28607000  0.64033000  1.0
  C  C82  1  0.06723000  0.74771000  0.42800000  1.0
  C  C83  1  0.93277000  0.25229000  0.57201000  1.0
  C  C84  1  0.01563000  0.86560000  0.40404000  1.0
  C  C85  1  0.98438000  0.13440000  0.59596000  1.0
  C  C86  1  0.07210000  0.95121000  0.30955000  1.0
  C  C87  1  0.92790000  0.04879000  0.69045000  1.0
  C  C88  1  0.17692000  0.91751000  0.23985000  1.0
  C  C89  1  0.82308000  0.08249000  0.76015000  1.0
  C  C90  1  0.22754000  0.58433000  0.39634000  1.0
  C  C91  1  0.77246000  0.41568000  0.60367000  1.0
  C  C92  1  0.60051000  0.07635000  0.56387000  1.0
  C  C93  1  0.39949000  0.92365000  0.43613000  1.0
  C  C94  1  0.60127000  0.95343000  0.61626000  1.0
  C  C95  1  0.39874000  0.04657000  0.38374000  1.0
  C  C96  1  0.49742000  0.90763000  0.70388000  1.0
  C  C97  1  0.50258000  0.09237000  0.29612000  1.0
  C  C98  1  0.39417000  0.98412000  0.73967000  1.0
  C  C99  1  0.60583000  0.01588000  0.26033000  1.0
  C  C100  1  0.28811000  0.94262000  0.83213000  1.0
  C  C101  1  0.71189000  0.05738000  0.16787000  1.0
  C  C102  1  0.19166000  0.02003000  0.86410000  1.0
  C  C103  1  0.80834000  0.97997000  0.13590000  1.0
  C  C104  1  0.19229000  0.14432000  0.80628000  1.0
  C  C105  1  0.80771000  0.85568000  0.19372000  1.0
  C  C106  1  0.09691000  0.22705000  0.83834000  1.0
  C  C107  1  0.90309000  0.77295000  0.16166000  1.0
  C  C108  1  0.10747000  0.34573000  0.78062000  1.0
  C  C109  1  0.89253000  0.65427000  0.21938000  1.0
  C  C110  1  0.21127000  0.38202000  0.68940000  1.0
  C  C111  1  0.78873000  0.61798000  0.31060000  1.0
  C  C112  1  0.29543000  0.18875000  0.71386000  1.0
  C  C113  1  0.70458000  0.81125000  0.28614000  1.0
  C  C114  1  0.39959000  0.10708000  0.68063000  1.0
  C  C115  1  0.60041000  0.89292000  0.31937000  1.0
  N  N116  1  0.50244000  0.14985000  0.59481000  1.0
  N  N117  1  0.49757000  0.85015000  0.40519000  1.0
  N  N118  1  0.30183000  0.30590000  0.65735000  1.0
  N  N119  1  0.69817000  0.69410000  0.34265000  1.0
  O  O120  1  0.33692000  0.64502000  0.62280000  1.0
  O  O121  1  0.66308000  0.35498000  0.37720000  1.0
  O  O122  1  0.49259000  0.63606000  0.75026000  1.0
  O  O123  1  0.50740000  0.36394000  0.24974000  1.0
  O  O124  1  0.82171000  0.67235000  0.98510000  1.0
  O  O125  1  0.17829000  0.32764000  0.01491000  1.0
  O  O126  1  0.36482000  0.55124000  0.43438000  1.0
  O  O127  1  0.63518000  0.44877000  0.56562000  1.0
  O  O128  1  0.13343000  0.51637000  0.39010000  1.0
  O  O129  1  0.86657000  0.48363000  0.60991000  1.0
  O  O130  1  0.28226000  0.31134000  0.40268000  1.0
  O  O131  1  0.71774000  0.68866000  0.59732000  1.0
