# generated using pymatgen
data_Mn3H44C50(NO10)2
_symmetry_space_group_name_H-M   'P 1'
_cell_length_a   9.34451000
_cell_length_b   17.35060000
_cell_length_c   17.35090000
_cell_angle_alpha   74.79730000
_cell_angle_beta   78.05230000
_cell_angle_gamma   78.05040000
_symmetry_Int_Tables_number   1
_chemical_formula_structural   Mn3H44C50(NO10)2
_chemical_formula_sum   'Mn6 H88 C100 N4 O40'
_cell_volume   2620.89456589
_cell_formula_units_Z   2
loop_
 _symmetry_equiv_pos_site_id
 _symmetry_equiv_pos_as_xyz
  1  'x, y, z'
loop_
 _atom_site_type_symbol
 _atom_site_label
 _atom_site_symmetry_multiplicity
 _atom_site_fract_x
 _atom_site_fract_y
 _atom_site_fract_z
 _atom_site_occupancy
  Mn  Mn0  1  0.55991000  0.81595000  0.69145000  1.0
  Mn  Mn1  1  0.94032000  0.30851000  0.18399000  1.0
  Mn  Mn2  1  0.44017000  0.18400000  0.30856000  1.0
  Mn  Mn3  1  0.05987000  0.69146000  0.81597000  1.0
  Mn  Mn4  1  0.50002000  0.99996000  0.50004000  1.0
  Mn  Mn5  1  0.00009000  0.49999000  0.00001000  1.0
  H  H6  1  0.40819000  0.67256000  0.71292000  1.0
  H  H7  1  0.09183000  0.28705000  0.32743000  1.0
  H  H8  1  0.59183000  0.32742000  0.28708000  1.0
  H  H9  1  0.90816000  0.71293000  0.67257000  1.0
  H  H10  1  0.44582000  0.71699000  0.62324000  1.0
  H  H11  1  0.05416000  0.37674000  0.28300000  1.0
  H  H12  1  0.55415000  0.28301000  0.37676000  1.0
  H  H13  1  0.94584000  0.62325000  0.71700000  1.0
  H  H14  1  0.66136000  0.84942000  0.39519000  1.0
  H  H15  1  0.83865000  0.60480000  0.15060000  1.0
  H  H16  1  0.33864000  0.15058000  0.60481000  1.0
  H  H17  1  0.16136000  0.39520000  0.84940000  1.0
  H  H18  1  0.99840000  0.71875000  0.53781000  1.0
  H  H19  1  0.50160000  0.46218000  0.28127000  1.0
  H  H20  1  0.00159000  0.28125000  0.46219000  1.0
  H  H21  1  0.49842000  0.53781000  0.71874000  1.0
  H  H22  1  0.07205000  0.14494000  0.16261000  1.0
  H  H23  1  0.42793000  0.83741000  0.85505000  1.0
  H  H24  1  0.92793000  0.85506000  0.83739000  1.0
  H  H25  1  0.57207000  0.16260000  0.14495000  1.0
  H  H26  1  0.68535000  0.02954000  0.22831000  1.0
  H  H27  1  0.81464000  0.77170000  0.97044000  1.0
  H  H28  1  0.31463000  0.97046000  0.77168000  1.0
  H  H29  1  0.18536000  0.22830000  0.02956000  1.0
  H  H30  1  0.09000000  0.82898000  0.97140000  1.0
  H  H31  1  0.40998000  0.02861000  0.17102000  1.0
  H  H32  1  0.91000000  0.17102000  0.02861000  1.0
  H  H33  1  0.59001000  0.97139000  0.82898000  1.0
  H  H34  1  0.98568000  0.85286000  0.60410000  1.0
  H  H35  1  0.51432000  0.39590000  0.14714000  1.0
  H  H36  1  0.01431000  0.14714000  0.39590000  1.0
  H  H37  1  0.48568000  0.60409000  0.85286000  1.0
  H  H38  1  0.85354000  0.94147000  0.57819000  1.0
  H  H39  1  0.64644000  0.42182000  0.05853000  1.0
  H  H40  1  0.14645000  0.05853000  0.42182000  1.0
  H  H41  1  0.35353000  0.57818000  0.94147000  1.0
  H  H42  1  0.88077000  0.90162000  0.68043000  1.0
  H  H43  1  0.61923000  0.31958000  0.09838000  1.0
  H  H44  1  0.11923000  0.09838000  0.31957000  1.0
  H  H45  1  0.38076000  0.68043000  0.90162000  1.0
  H  H46  1  0.06699000  0.61687000  0.16743000  1.0
  H  H47  1  0.43299000  0.83256000  0.38312000  1.0
  H  H48  1  0.93303000  0.38313000  0.83257000  1.0
  H  H49  1  0.56698000  0.16743000  0.61687000  1.0
  H  H50  1  0.19932000  0.04313000  0.08103000  1.0
  H  H51  1  0.30067000  0.91898000  0.95686000  1.0
  H  H52  1  0.80067000  0.95687000  0.91897000  1.0
  H  H53  1  0.69934000  0.08102000  0.04313000  1.0
  H  H54  1  0.14745000  0.66981000  0.41785000  1.0
  H  H55  1  0.35254000  0.58215000  0.33019000  1.0
  H  H56  1  0.85256000  0.33019000  0.58216000  1.0
  H  H57  1  0.64746000  0.41784000  0.66981000  1.0
  H  H58  1  0.35763000  0.85673000  0.52312000  1.0
  H  H59  1  0.14235000  0.47688000  0.14327000  1.0
  H  H60  1  0.64236000  0.14326000  0.47688000  1.0
  H  H61  1  0.85763000  0.52313000  0.85674000  1.0
  H  H62  1  0.17857000  0.85868000  0.50103000  1.0
  H  H63  1  0.32140000  0.49897000  0.14134000  1.0
  H  H64  1  0.82140000  0.14132000  0.49898000  1.0
  H  H65  1  0.67858000  0.50103000  0.85868000  1.0
  H  H66  1  0.21783000  0.81316000  0.60039000  1.0
  H  H67  1  0.28215000  0.39961000  0.18684000  1.0
  H  H68  1  0.78216000  0.18683000  0.39961000  1.0
  H  H69  1  0.71783000  0.60041000  0.81316000  1.0
  H  H70  1  0.07112000  0.84749000  0.21670000  1.0
  H  H71  1  0.42887000  0.78330000  0.15250000  1.0
  H  H72  1  0.92889000  0.15251000  0.78330000  1.0
  H  H73  1  0.57112000  0.21670000  0.84749000  1.0
  H  H74  1  0.80521000  0.79679000  0.27671000  1.0
  H  H75  1  0.69476000  0.72328000  0.20321000  1.0
  H  H76  1  0.19480000  0.20321000  0.72329000  1.0
  H  H77  1  0.30522000  0.27672000  0.79679000  1.0
  H  H78  1  0.81162000  0.92799000  0.14691000  1.0
  H  H79  1  0.68837000  0.85309000  0.07200000  1.0
  H  H80  1  0.18838000  0.07201000  0.85309000  1.0
  H  H81  1  0.31162000  0.14692000  0.92800000  1.0
  H  H82  1  0.09172000  0.06875000  0.62492000  1.0
  H  H83  1  0.40824000  0.37509000  0.93127000  1.0
  H  H84  1  0.90828000  0.93126000  0.37509000  1.0
  H  H85  1  0.59170000  0.62492000  0.06874000  1.0
  H  H86  1  0.94820000  0.02305000  0.69725000  1.0
  H  H87  1  0.55177000  0.30276000  0.97695000  1.0
  H  H88  1  0.05180000  0.97695000  0.30276000  1.0
  H  H89  1  0.44819000  0.69725000  0.02305000  1.0
  H  H90  1  0.91328000  0.07585000  0.59858000  1.0
  H  H91  1  0.58669000  0.40143000  0.92415000  1.0
  H  H92  1  0.08672000  0.92415000  0.40142000  1.0
  H  H93  1  0.41326000  0.59858000  0.07584000  1.0
  C  C94  1  0.72434000  0.81019000  0.54753000  1.0
  C  C95  1  0.77568000  0.45244000  0.18982000  1.0
  C  C96  1  0.27566000  0.18981000  0.45246000  1.0
  C  C97  1  0.22435000  0.54755000  0.81017000  1.0
  C  C98  1  0.81853000  0.78644000  0.47456000  1.0
  C  C99  1  0.68148000  0.52542000  0.21359000  1.0
  C  C100  1  0.18147000  0.21356000  0.52543000  1.0
  C  C101  1  0.31853000  0.47458000  0.78642000  1.0
  C  C102  1  0.76699000  0.80915000  0.40006000  1.0
  C  C103  1  0.73302000  0.59992000  0.19087000  1.0
  C  C104  1  0.23302000  0.19085000  0.59993000  1.0
  C  C105  1  0.26699000  0.40007000  0.80913000  1.0
  C  C106  1  0.95682000  0.73649000  0.48038000  1.0
  C  C107  1  0.54319000  0.51960000  0.26353000  1.0
  C  C108  1  0.04318000  0.26351000  0.51962000  1.0
  C  C109  1  0.45683000  0.48039000  0.73648000  1.0
  C  C110  1  0.79175000  0.15338000  0.24873000  1.0
  C  C111  1  0.70824000  0.75129000  0.84661000  1.0
  C  C112  1  0.20824000  0.84662000  0.75126000  1.0
  C  C113  1  0.29178000  0.24871000  0.15339000  1.0
  C  C114  1  0.87067000  0.09337000  0.20048000  1.0
  C  C115  1  0.62931000  0.79954000  0.90663000  1.0
  C  C116  1  0.12932000  0.90664000  0.79952000  1.0
  C  C117  1  0.37069000  0.20046000  0.09337000  1.0
  C  C118  1  0.01568000  0.09716000  0.15938000  1.0
  C  C119  1  0.48430000  0.84064000  0.90284000  1.0
  C  C120  1  0.98431000  0.90285000  0.84062000  1.0
  C  C121  1  0.51570000  0.15936000  0.09716000  1.0
  C  C122  1  0.79815000  0.03170000  0.19626000  1.0
  C  C123  1  0.70184000  0.80375000  0.96829000  1.0
  C  C124  1  0.20184000  0.96830000  0.80374000  1.0
  C  C125  1  0.29816000  0.19625000  0.03171000  1.0
  C  C126  1  0.08070000  0.71790000  0.06309000  1.0
  C  C127  1  0.41928000  0.93692000  0.28209000  1.0
  C  C128  1  0.91931000  0.28210000  0.93692000  1.0
  C  C129  1  0.58071000  0.06308000  0.71790000  1.0
  C  C130  1  0.01298000  0.98045000  0.11024000  1.0
  C  C131  1  0.48702000  0.88976000  0.01954000  1.0
  C  C132  1  0.98702000  0.01956000  0.88976000  1.0
  C  C133  1  0.51299000  0.11024000  0.98046000  1.0
  C  C134  1  0.08463000  0.80079000  0.03551000  1.0
  C  C135  1  0.41537000  0.96449000  0.19920000  1.0
  C  C136  1  0.91538000  0.19921000  0.96448000  1.0
  C  C137  1  0.58463000  0.03551000  0.80079000  1.0
  C  C138  1  0.93713000  0.91155000  0.61738000  1.0
  C  C139  1  0.56287000  0.38262000  0.08846000  1.0
  C  C140  1  0.06288000  0.08846000  0.38262000  1.0
  C  C141  1  0.43711000  0.61738000  0.91154000  1.0
  C  C142  1  0.07153000  0.68124000  0.14592000  1.0
  C  C143  1  0.42845000  0.85408000  0.31875000  1.0
  C  C144  1  0.92849000  0.31876000  0.85409000  1.0
  C  C145  1  0.57152000  0.14591000  0.68124000  1.0
  C  C146  1  0.07816000  0.66970000  0.00270000  1.0
  C  C147  1  0.42183000  0.99730000  0.33030000  1.0
  C  C148  1  0.92186000  0.33031000  0.99731000  1.0
  C  C149  1  0.57814000  0.00269000  0.66970000  1.0
  C  C150  1  0.06672000  0.72869000  0.20039000  1.0
  C  C151  1  0.43326000  0.79962000  0.27130000  1.0
  C  C152  1  0.93330000  0.27131000  0.79962000  1.0
  C  C153  1  0.56672000  0.20038000  0.72869000  1.0
  C  C154  1  0.07830000  0.84663000  0.09137000  1.0
  C  C155  1  0.42169000  0.90863000  0.15336000  1.0
  C  C156  1  0.92171000  0.15337000  0.90862000  1.0
  C  C157  1  0.57830000  0.09137000  0.84663000  1.0
  C  C158  1  0.98392000  0.72852000  0.34120000  1.0
  C  C159  1  0.51606000  0.65880000  0.27149000  1.0
  C  C160  1  0.01610000  0.27148000  0.65880000  1.0
  C  C161  1  0.48392000  0.34120000  0.72852000  1.0
  C  C162  1  0.08728000  0.04091000  0.11398000  1.0
  C  C163  1  0.41272000  0.88603000  0.95909000  1.0
  C  C164  1  0.91272000  0.95910000  0.88602000  1.0
  C  C165  1  0.58729000  0.11397000  0.04091000  1.0
  C  C166  1  0.03992000  0.70834000  0.41405000  1.0
  C  C167  1  0.46008000  0.58594000  0.29166000  1.0
  C  C168  1  0.96009000  0.29166000  0.58595000  1.0
  C  C169  1  0.53993000  0.41405000  0.70833000  1.0
  C  C170  1  0.23920000  0.86278000  0.54730000  1.0
  C  C171  1  0.26078000  0.45271000  0.13723000  1.0
  C  C172  1  0.76079000  0.13722000  0.45271000  1.0
  C  C173  1  0.73920000  0.54730000  0.86278000  1.0
  C  C174  1  0.07206000  0.81136000  0.17391000  1.0
  C  C175  1  0.42793000  0.82609000  0.18864000  1.0
  C  C176  1  0.92795000  0.18865000  0.82609000  1.0
  C  C177  1  0.57206000  0.17391000  0.81136000  1.0
  C  C178  1  0.84813000  0.78020000  0.33361000  1.0
  C  C179  1  0.65185000  0.66638000  0.21981000  1.0
  C  C180  1  0.15188000  0.21980000  0.66639000  1.0
  C  C181  1  0.34813000  0.33361000  0.78019000  1.0
  C  C182  1  0.86832000  0.97529000  0.15117000  1.0
  C  C183  1  0.63167000  0.84884000  0.02471000  1.0
  C  C184  1  0.13168000  0.02471000  0.84883000  1.0
  C  C185  1  0.36834000  0.15116000  0.97529000  1.0
  C  C186  1  0.99837000  0.03702000  0.63305000  1.0
  C  C187  1  0.50160000  0.36695000  0.96298000  1.0
  C  C188  1  0.00163000  0.96298000  0.36695000  1.0
  C  C189  1  0.49836000  0.63305000  0.03702000  1.0
  C  C190  1  0.19125000  0.94287000  0.57135000  1.0
  C  C191  1  0.30875000  0.42866000  0.05714000  1.0
  C  C192  1  0.80875000  0.05713000  0.42866000  1.0
  C  C193  1  0.69125000  0.57135000  0.94287000  1.0
  N  N194  1  0.04954000  0.96198000  0.60576000  1.0
  N  N195  1  0.45045000  0.39424000  0.03803000  1.0
  N  N196  1  0.95047000  0.03803000  0.39424000  1.0
  N  N197  1  0.54953000  0.60576000  0.96198000  1.0
  O  O198  1  0.48795000  0.69758000  0.67297000  1.0
  O  O199  1  0.01205000  0.32699000  0.30242000  1.0
  O  O200  1  0.51204000  0.30241000  0.32702000  1.0
  O  O201  1  0.98796000  0.67299000  0.69758000  1.0
  O  O202  1  0.05293000  0.59763000  0.03179000  1.0
  O  O203  1  0.44708000  0.96823000  0.40236000  1.0
  O  O204  1  0.94709000  0.40237000  0.96823000  1.0
  O  O205  1  0.55292000  0.03177000  0.59764000  1.0
  O  O206  1  0.59789000  0.85583000  0.54359000  1.0
  O  O207  1  0.90213000  0.45639000  0.14419000  1.0
  O  O208  1  0.40212000  0.14419000  0.45640000  1.0
  O  O209  1  0.09789000  0.54361000  0.85581000  1.0
  O  O210  1  0.76752000  0.78034000  0.61661000  1.0
  O  O211  1  0.73252000  0.38337000  0.21966000  1.0
  O  O212  1  0.23248000  0.21964000  0.38338000  1.0
  O  O213  1  0.26749000  0.61663000  0.78034000  1.0
  O  O214  1  0.85838000  0.20791000  0.25545000  1.0
  O  O215  1  0.64159000  0.74454000  0.79209000  1.0
  O  O216  1  0.14157000  0.79211000  0.74453000  1.0
  O  O217  1  0.35840000  0.25546000  0.20790000  1.0
  O  O218  1  0.66013000  0.14509000  0.28347000  1.0
  O  O219  1  0.83987000  0.71655000  0.85487000  1.0
  O  O220  1  0.33988000  0.85490000  0.71653000  1.0
  O  O221  1  0.16015000  0.28345000  0.14511000  1.0
  O  O222  1  0.10045000  0.70483000  0.92815000  1.0
  O  O223  1  0.39951000  0.07186000  0.29517000  1.0
  O  O224  1  0.89956000  0.29517000  0.07186000  1.0
  O  O225  1  0.60044000  0.92813000  0.70483000  1.0
  O  O226  1  0.08518000  0.92802000  0.06152000  1.0
  O  O227  1  0.41482000  0.93849000  0.07197000  1.0
  O  O228  1  0.91481000  0.07199000  0.93848000  1.0
  O  O229  1  0.58517000  0.06152000  0.92802000  1.0
  O  O230  1  0.28127000  0.99131000  0.56090000  1.0
  O  O231  1  0.21873000  0.43912000  0.00869000  1.0
  O  O232  1  0.71875000  0.00868000  0.43912000  1.0
  O  O233  1  0.78128000  0.56091000  0.99130000  1.0
  O  O234  1  0.06502000  0.69033000  0.28140000  1.0
  O  O235  1  0.43495000  0.71860000  0.30965000  1.0
  O  O236  1  0.93500000  0.30967000  0.71860000  1.0
  O  O237  1  0.56503000  0.28140000  0.69034000  1.0
