# generated using pymatgen
data_Zn6H51C77(O8F5)3
_symmetry_space_group_name_H-M   'P 1'
_cell_length_a   18.55240000
_cell_length_b   18.70750000
_cell_length_c   18.82780000
_cell_angle_alpha   109.54100000
_cell_angle_beta   109.26900000
_cell_angle_gamma   108.98000000
_symmetry_Int_Tables_number   1
_chemical_formula_structural   Zn6H51C77(O8F5)3
_chemical_formula_sum   'Zn6 H51 C77 O24 F15'
_cell_volume   5068.55218000
_cell_formula_units_Z   1
loop_
 _symmetry_equiv_pos_site_id
 _symmetry_equiv_pos_as_xyz
  1  'x, y, z'
loop_
 _atom_site_type_symbol
 _atom_site_label
 _atom_site_symmetry_multiplicity
 _atom_site_fract_x
 _atom_site_fract_y
 _atom_site_fract_z
 _atom_site_occupancy
  Zn  Zn0  1  0.56216000  0.56141000  0.50336000  1.0
  Zn  Zn1  1  0.43693000  0.43715000  0.50471000  1.0
  Zn  Zn2  1  0.99779000  0.56534000  0.06431000  1.0
  Zn  Zn3  1  0.00545000  0.44016000  0.94482000  1.0
  Zn  Zn4  1  0.55336000  0.00465000  0.05172000  1.0
  Zn  Zn5  1  0.42478000  0.99394000  0.91811000  1.0
  H  H6  1  0.66657000  0.32347000  0.45419000  1.0
  H  H7  1  0.36309000  0.44049000  0.17658000  1.0
  H  H8  1  0.42326000  0.55510000  0.21504000  1.0
  H  H9  1  0.44218000  0.74999000  0.58359000  1.0
  H  H10  1  0.55922000  0.79573000  0.63496000  1.0
  H  H11  1  0.72911000  0.21007000  0.82227000  1.0
  H  H12  1  0.59925000  0.10975000  0.81766000  1.0
  H  H13  1  0.72336000  0.31340000  0.15697000  1.0
  H  H14  1  0.78517000  0.25765000  0.16283000  1.0
  H  H15  1  0.84142000  0.42671000  0.15373000  1.0
  H  H16  1  0.58458000  0.22400000  0.54625000  1.0
  H  H17  1  0.39817000  0.91514000  0.15995000  1.0
  H  H18  1  0.67275000  0.22437000  0.68120000  1.0
  H  H19  1  0.78413000  0.36376000  0.81438000  1.0
  H  H20  1  0.87244000  0.66512000  0.90170000  1.0
  H  H21  1  0.66528000  0.20648000  0.33462000  1.0
  H  H22  1  0.29107000  0.54446000  0.58532000  1.0
  H  H23  1  0.20529000  0.56980000  0.55444000  1.0
  H  H24  1  0.18065000  0.46297000  0.53541000  1.0
  H  H25  1  0.14931000  0.46820000  0.39704000  1.0
  H  H26  1  0.23388000  0.44198000  0.42727000  1.0
  H  H27  1  0.34653000  0.59609000  0.49325000  1.0
  H  H28  1  0.26346000  0.62487000  0.46670000  1.0
  H  H29  1  0.42173000  0.39782000  0.70080000  1.0
  H  H30  1  0.44879000  0.43620000  0.81089000  1.0
  H  H31  1  0.33718000  0.37440000  0.72832000  1.0
  H  H32  1  0.37907000  0.53237000  0.79901000  1.0
  H  H33  1  0.35727000  0.49500000  0.69092000  1.0
  H  H34  1  0.52085000  0.54902000  0.74642000  1.0
  H  H35  1  0.53855000  0.59838000  0.85252000  1.0
  H  H36  1  0.58979000  0.80867000  0.10961000  1.0
  H  H37  1  0.57235000  0.70073000  0.07237000  1.0
  H  H38  1  0.68071000  0.78999000  0.13410000  1.0
  H  H39  1  0.63843000  0.72001000  0.97650000  1.0
  H  H40  1  0.65317000  0.82651000  0.01363000  1.0
  H  H41  1  0.49003000  0.76385000  0.95820000  1.0
  H  H42  1  0.47694000  0.65869000  0.91258000  1.0
  H  H43  1  0.37608000  0.74647000  0.32397000  1.0
  H  H44  1  0.35298000  0.82882000  0.37356000  1.0
  H  H45  1  0.28337000  0.71907000  0.33922000  1.0
  H  H46  1  0.21152000  0.75830000  0.23312000  1.0
  H  H47  1  0.23815000  0.68072000  0.18323000  1.0
  H  H48  1  0.36734000  0.79313000  0.19984000  1.0
  H  H49  1  0.35814000  0.87672000  0.26876000  1.0
  H  H50  1  0.19132000  0.26649000  0.24294000  1.0
  H  H51  1  0.14352000  0.19140000  0.13150000  1.0
  H  H52  1  0.11769000  0.15509000  0.20025000  1.0
  H  H53  1  0.22650000  0.11403000  0.17275000  1.0
  H  H54  1  0.27460000  0.19043000  0.28337000  1.0
  H  H55  1  0.33886000  0.31116000  0.25417000  1.0
  H  H56  1  0.29470000  0.23316000  0.14524000  1.0
  C  C57  1  0.47776000  0.36135000  0.38776000  1.0
  C  C58  1  0.70013000  0.44425000  0.68714000  1.0
  C  C59  1  0.70655000  0.52451000  0.69244000  1.0
  C  C60  1  0.76785000  0.60057000  0.76986000  1.0
  C  C61  1  0.82437000  0.60290000  0.84290000  1.0
  C  C62  1  0.81894000  0.52611000  0.83853000  1.0
  C  C63  1  0.55403000  0.28734000  0.33017000  1.0
  C  C64  1  0.47787000  0.29290000  0.31808000  1.0
  C  C65  1  0.40291000  0.23590000  0.23546000  1.0
  C  C66  1  0.40755000  0.17405000  0.17150000  1.0
  C  C67  1  0.48233000  0.16516000  0.18317000  1.0
  C  C68  1  0.64001000  0.52615000  0.62240000  1.0
  C  C69  1  0.55499000  0.22489000  0.26535000  1.0
  C  C70  1  0.65022000  0.25357000  0.31961000  1.0
  C  C71  1  0.65009000  0.32588000  0.39376000  1.0
  C  C72  1  0.32189000  0.52079000  0.25490000  1.0
  C  C73  1  0.33386000  0.53668000  0.33678000  1.0
  C  C74  1  0.27196000  0.55163000  0.35838000  1.0
  C  C75  1  0.20180000  0.54892000  0.29595000  1.0
  C  C76  1  0.18615000  0.52904000  0.21171000  1.0
  C  C77  1  0.24926000  0.51473000  0.19437000  1.0
  C  C78  1  0.27846000  0.49461000  0.12711000  1.0
  C  C79  1  0.47942000  0.58998000  0.62535000  1.0
  C  C80  1  0.36063000  0.50156000  0.19562000  1.0
  C  C81  1  0.50015000  0.73665000  0.70035000  1.0
  C  C82  1  0.49149000  0.66065000  0.70233000  1.0
  C  C83  1  0.49856000  0.65795000  0.77864000  1.0
  C  C84  1  0.51183000  0.73030000  0.84963000  1.0
  C  C85  1  0.51747000  0.80556000  0.84437000  1.0
  C  C86  1  0.51024000  0.80546000  0.76825000  1.0
  C  C87  1  0.51243000  0.85768000  0.72140000  1.0
  C  C88  1  0.50237000  0.78010000  0.64507000  1.0
  C  C89  1  0.87518000  0.36079000  0.96684000  1.0
  C  C90  1  0.40474000  0.52956000  0.39587000  1.0
  C  C91  1  0.88743000  0.53083000  0.91230000  1.0
  C  C92  1  0.11858000  0.59773000  0.98333000  1.0
  C  C93  1  0.11153000  0.52386000  0.14416000  1.0
  C  C94  1  0.34787000  0.87279000  0.94985000  1.0
  C  C95  1  0.48961000  0.10310000  0.11559000  1.0
  C  C96  1  0.57925000  0.11142000  0.95768000  1.0
  C  C97  1  0.52403000  0.88222000  0.91066000  1.0
  C  C98  1  0.79344000  0.30475000  0.03532000  1.0
  C  C99  1  0.79895000  0.29452000  0.96083000  1.0
  C  C100  1  0.72748000  0.22166000  0.88231000  1.0
  C  C101  1  0.64253000  0.36189000  0.61072000  1.0
  C  C102  1  0.65411000  0.16478000  0.87966000  1.0
  C  C103  1  0.65098000  0.17482000  0.95598000  1.0
  C  C104  1  0.72372000  0.24509000  0.03366000  1.0
  C  C105  1  0.76216000  0.29172000  0.13125000  1.0
  C  C106  1  0.83786000  0.36271000  0.13253000  1.0
  C  C107  1  0.23202000  0.75389000  0.04133000  1.0
  C  C108  1  0.17771000  0.66655000  0.97471000  1.0
  C  C109  1  0.17808000  0.65032000  0.89627000  1.0
  C  C110  1  0.22885000  0.71589000  0.88491000  1.0
  C  C111  1  0.28396000  0.80151000  0.95203000  1.0
  C  C112  1  0.63137000  0.28437000  0.60738000  1.0
  C  C113  1  0.28294000  0.81682000  0.02936000  1.0
  C  C114  1  0.32720000  0.88858000  0.12102000  1.0
  C  C115  1  0.26780000  0.81898000  0.13683000  1.0
  C  C116  1  0.68157000  0.28553000  0.68290000  1.0
  C  C117  1  0.74315000  0.36357000  0.75769000  1.0
  C  C118  1  0.75497000  0.44399000  0.76162000  1.0
  C  C119  1  0.27870000  0.57189000  0.44558000  1.0
  C  C120  1  0.21709000  0.49399000  0.44634000  1.0
  C  C121  1  0.22393000  0.51928000  0.53527000  1.0
  C  C122  1  0.49495000  0.57865000  0.78532000  1.0
  C  C123  1  0.40265000  0.50816000  0.75456000  1.0
  C  C124  1  0.40233000  0.42451000  0.74837000  1.0
  C  C125  1  0.51767000  0.72607000  0.93002000  1.0
  C  C126  1  0.61150000  0.76124000  0.00052000  1.0
  C  C127  1  0.61391000  0.76529000  0.08374000  1.0
  C  C128  1  0.31959000  0.81053000  0.21210000  1.0
  C  C129  1  0.26678000  0.74807000  0.23387000  1.0
  C  C130  1  0.32294000  0.76118000  0.32237000  1.0
  C  C131  1  0.32103000  0.24394000  0.21178000  1.0
  C  C132  1  0.24793000  0.18173000  0.21767000  1.0
  C  C133  1  0.17078000  0.19947000  0.19694000  1.0
  O  O134  1  0.53120000  0.43943000  0.41497000  1.0
  O  O135  1  0.90438000  0.33628000  0.91499000  1.0
  O  O136  1  0.90942000  0.58234000  0.99044000  1.0
  O  O137  1  0.92185000  0.48450000  0.89204000  1.0
  O  O138  1  0.09479000  0.62421000  0.03823000  1.0
  O  O139  1  0.09570000  0.51830000  0.93471000  1.0
  O  O140  1  0.08020000  0.57379000  0.16724000  1.0
  O  O141  1  0.08738000  0.47104000  0.06693000  1.0
  O  O142  1  0.42587000  0.90712000  0.00914000  1.0
  O  O143  1  0.32131000  0.89517000  0.89324000  1.0
  O  O144  1  0.54784000  0.08187000  0.14571000  1.0
  O  O145  1  0.42438000  0.33619000  0.41496000  1.0
  O  O146  1  0.44256000  0.07801000  0.03663000  1.0
  O  O147  1  0.60380000  0.09564000  0.01957000  1.0
  O  O148  1  0.49932000  0.07784000  0.89939000  1.0
  O  O149  1  0.57614000  0.91475000  0.99200000  1.0
  O  O150  1  0.47642000  0.91184000  0.88060000  1.0
  O  O151  1  0.66601000  0.57543000  0.59226000  1.0
  O  O152  1  0.56105000  0.47914000  0.60033000  1.0
  O  O153  1  0.52398000  0.61482000  0.59111000  1.0
  O  O154  1  0.42427000  0.51029000  0.59639000  1.0
  O  O155  1  0.48446000  0.57841000  0.41809000  1.0
  O  O156  1  0.37946000  0.47263000  0.41742000  1.0
  O  O157  1  0.90636000  0.43877000  0.02401000  1.0
  F  F158  1  0.77309000  0.67740000  0.77850000  1.0
  F  F159  1  0.70569000  0.28741000  0.29006000  1.0
  F  F160  1  0.70461000  0.41052000  0.41540000  1.0
  F  F161  1  0.14485000  0.56546000  0.31963000  1.0
  F  F162  1  0.22445000  0.41454000  0.05319000  1.0
  F  F163  1  0.29729000  0.55522000  0.09992000  1.0
  F  F164  1  0.59678000  0.35806000  0.53474000  1.0
  F  F165  1  0.44533000  0.87687000  0.69880000  1.0
  F  F166  1  0.58913000  0.93558000  0.76187000  1.0
  F  F167  1  0.92216000  0.37687000  0.18096000  1.0
  F  F168  1  0.12724000  0.57031000  0.82596000  1.0
  F  F169  1  0.22440000  0.69210000  0.80683000  1.0
  F  F170  1  0.31246000  0.95935000  0.13222000  1.0
  F  F171  1  0.20485000  0.83898000  0.14989000  1.0
  F  F172  1  0.33377000  0.12066000  0.09335000  1.0
