# generated using pymatgen
data_CdH14C17N6O5
_symmetry_space_group_name_H-M   'P 1'
_cell_length_a   8.88850000
_cell_length_b   10.20670000
_cell_length_c   12.06476660
_cell_angle_alpha   106.28999588
_cell_angle_beta   96.92487632
_cell_angle_gamma   115.39100000
_symmetry_Int_Tables_number   1
_chemical_formula_structural   CdH14C17N6O5
_chemical_formula_sum   'Cd2 H28 C34 N12 O10'
_cell_volume   911.77264037
_cell_formula_units_Z   2
loop_
 _symmetry_equiv_pos_site_id
 _symmetry_equiv_pos_as_xyz
  1  'x, y, z'
loop_
 _atom_site_type_symbol
 _atom_site_label
 _atom_site_symmetry_multiplicity
 _atom_site_fract_x
 _atom_site_fract_y
 _atom_site_fract_z
 _atom_site_occupancy
  Cd  Cd0  1  0.04571000  0.08644000  0.72512000  1.0
  Cd  Cd1  1  0.95430000  0.91357000  0.27488000  1.0
  H  H2  1  0.61766000  0.29172000  0.06826000  1.0
  H  H3  1  0.38234000  0.70827000  0.93174000  1.0
  H  H4  1  0.23980000  0.15715000  0.55055000  1.0
  H  H5  1  0.76020000  0.84284000  0.44944000  1.0
  H  H6  1  0.18184000  0.98659000  0.53475000  1.0
  H  H7  1  0.81817000  0.01342000  0.46525000  1.0
  H  H8  1  0.06753000  0.37561000  0.96220000  1.0
  H  H9  1  0.93248000  0.62438000  0.03780000  1.0
  H  H10  1  0.15882000  0.57520000  0.16735000  1.0
  H  H11  1  0.84119000  0.42480000  0.83266000  1.0
  H  H12  1  0.43159000  0.65628000  0.31565000  1.0
  H  H13  1  0.56840000  0.34370000  0.68434000  1.0
  H  H14  1  0.61989000  0.53588000  0.26339000  1.0
  H  H15  1  0.38012000  0.46412000  0.73661000  1.0
  H  H16  1  0.31856000  0.95254000  0.82845000  1.0
  H  H17  1  0.68144000  0.04746000  0.17154000  1.0
  H  H18  1  0.37728000  0.07176000  0.74177000  1.0
  H  H19  1  0.62270000  0.92823000  0.25822000  1.0
  H  H20  1  0.64553000  0.07815000  0.68148000  1.0
  H  H21  1  0.35449000  0.92188000  0.31852000  1.0
  H  H22  1  0.60717000  0.52999000  0.44468000  1.0
  H  H23  1  0.39282000  0.47001000  0.55532000  1.0
  H  H24  1  0.50250000  0.24457000  0.36947000  1.0
  H  H25  1  0.49749000  0.75543000  0.63054000  1.0
  H  H26  1  0.67368000  0.14092000  0.46141000  1.0
  H  H27  1  0.32631000  0.85908000  0.53860000  1.0
  H  H28  1  0.04321000  0.60775000  0.70283000  1.0
  H  H29  1  0.95678000  0.39226000  0.29717000  1.0
  C  C30  1  0.28364000  0.33408000  0.00268000  1.0
  C  C31  1  0.71637000  0.66593000  0.99733000  1.0
  C  C32  1  0.18312000  0.40677000  0.02894000  1.0
  C  C33  1  0.81690000  0.59323000  0.97107000  1.0
  C  C34  1  0.23839000  0.52100000  0.14279000  1.0
  C  C35  1  0.76161000  0.47899000  0.85722000  1.0
  C  C36  1  0.39238000  0.56594000  0.22750000  1.0
  C  C37  1  0.60763000  0.43406000  0.77250000  1.0
  C  C38  1  0.49663000  0.49787000  0.20138000  1.0
  C  C39  1  0.50337000  0.50211000  0.79861000  1.0
  C  C40  1  0.43779000  0.38012000  0.08847000  1.0
  C  C41  1  0.56221000  0.61986000  0.91152000  1.0
  C  C42  1  0.39613000  0.19198000  0.92091000  1.0
  C  C43  1  0.60387000  0.80802000  0.07909000  1.0
  C  C44  1  0.41227000  0.06765000  0.83087000  1.0
  C  C45  1  0.58772000  0.93233000  0.16912000  1.0
  C  C46  1  0.67815000  0.07904000  0.77133000  1.0
  C  C47  1  0.32184000  0.92097000  0.22866000  1.0
  C  C48  1  0.89208000  0.75797000  0.62362000  1.0
  C  C49  1  0.10792000  0.24204000  0.37638000  1.0
  C  C50  1  0.83256000  0.58662000  0.57694000  1.0
  C  C51  1  0.16744000  0.41340000  0.42306000  1.0
  C  C52  1  0.68093000  0.48350000  0.48273000  1.0
  C  C53  1  0.31907000  0.51651000  0.51728000  1.0
  C  C54  1  0.62356000  0.32345000  0.44046000  1.0
  C  C55  1  0.37645000  0.67657000  0.55956000  1.0
  C  C56  1  0.71773000  0.26585000  0.49249000  1.0
  C  C57  1  0.28227000  0.73416000  0.50752000  1.0
  C  C58  1  0.86981000  0.36812000  0.58735000  1.0
  C  C59  1  0.13020000  0.63189000  0.41266000  1.0
  C  C60  1  0.92636000  0.52820000  0.62872000  1.0
  C  C61  1  0.07363000  0.47181000  0.37129000  1.0
  C  C62  1  0.96675000  0.30730000  0.64900000  1.0
  C  C63  1  0.03327000  0.69273000  0.35101000  1.0
  N  N64  1  0.26250000  0.21689000  0.89928000  1.0
  N  N65  1  0.73750000  0.78311000  0.10072000  1.0
  N  N66  1  0.50483000  0.28700000  0.03310000  1.0
  N  N67  1  0.49517000  0.71299000  0.96690000  1.0
  N  N68  1  0.58417000  0.08197000  0.85028000  1.0
  N  N69  1  0.41582000  0.91801000  0.14971000  1.0
  N  N70  1  0.66924000  0.08438000  0.95323000  1.0
  N  N71  1  0.33074000  0.91558000  0.04675000  1.0
  N  N72  1  0.81008000  0.08319000  0.93564000  1.0
  N  N73  1  0.18991000  0.91679000  0.06434000  1.0
  N  N74  1  0.81878000  0.07939000  0.82311000  1.0
  N  N75  1  0.18121000  0.92062000  0.17688000  1.0
  O  O76  1  0.80092000  0.80872000  0.57881000  1.0
  O  O77  1  0.19906000  0.19127000  0.42117000  1.0
  O  O78  1  0.03301000  0.84841000  0.70810000  1.0
  O  O79  1  0.96698000  0.15158000  0.29190000  1.0
  O  O80  1  0.08867000  0.39523000  0.74326000  1.0
  O  O81  1  0.91135000  0.60479000  0.25675000  1.0
  O  O82  1  0.91085000  0.15758000  0.60177000  1.0
  O  O83  1  0.08916000  0.84244000  0.39822000  1.0
  O  O84  1  0.23847000  0.09279000  0.59952000  1.0
  O  O85  1  0.76153000  0.90722000  0.40048000  1.0
