# generated using pymatgen
data_TbH7C11N3O7
_symmetry_space_group_name_H-M   'P 1'
_cell_length_a   8.25867000
_cell_length_b   11.48840000
_cell_length_c   14.73220000
_cell_angle_alpha   90.00000000
_cell_angle_beta   90.00000000
_cell_angle_gamma   90.84630000
_symmetry_Int_Tables_number   1
_chemical_formula_structural   TbH7C11N3O7
_chemical_formula_sum   'Tb4 H28 C44 N12 O28'
_cell_volume   1397.62251936
_cell_formula_units_Z   4
loop_
 _symmetry_equiv_pos_site_id
 _symmetry_equiv_pos_as_xyz
  1  'x, y, z'
loop_
 _atom_site_type_symbol
 _atom_site_label
 _atom_site_symmetry_multiplicity
 _atom_site_fract_x
 _atom_site_fract_y
 _atom_site_fract_z
 _atom_site_occupancy
  Tb  Tb0  1  0.72191000  0.07047000  0.87009000  1.0
  Tb  Tb1  1  0.27809000  0.42953000  0.37009000  1.0
  Tb  Tb2  1  0.27809000  0.92954000  0.12991000  1.0
  Tb  Tb3  1  0.72191000  0.57047000  0.62991000  1.0
  H  H4  1  0.41582000  0.89898000  0.55773000  1.0
  H  H5  1  0.58418000  0.60101000  0.05773000  1.0
  H  H6  1  0.58419000  0.10101000  0.44227000  1.0
  H  H7  1  0.41581000  0.39899000  0.94227000  1.0
  H  H8  1  0.25150000  0.71804000  0.57735000  1.0
  H  H9  1  0.74850000  0.78195000  0.07735000  1.0
  H  H10  1  0.74851000  0.28195000  0.42266000  1.0
  H  H11  1  0.25149000  0.21805000  0.92266000  1.0
  H  H12  1  0.09283000  0.82154000  0.83176000  1.0
  H  H13  1  0.90717000  0.67847000  0.33176000  1.0
  H  H14  1  0.90717000  0.17847000  0.16825000  1.0
  H  H15  1  0.09283000  0.32153000  0.66825000  1.0
  H  H16  1  0.25258000  0.00784000  0.82287000  1.0
  H  H17  1  0.74742000  0.49216000  0.32287000  1.0
  H  H18  1  0.74742000  0.99217000  0.17713000  1.0
  H  H19  1  0.25258000  0.50783000  0.67713000  1.0
  H  H20  1  0.33785000  0.14483000  0.55488000  1.0
  H  H21  1  0.66215000  0.35517000  0.05488000  1.0
  H  H22  1  0.66215000  0.85516000  0.44512000  1.0
  H  H23  1  0.33785000  0.64484000  0.94512000  1.0
  H  H24  1  0.03516000  0.15406000  0.77801000  1.0
  H  H25  1  0.96484000  0.34594000  0.27801000  1.0
  H  H26  1  0.96484000  0.84594000  0.22200000  1.0
  H  H27  1  0.03516000  0.65406000  0.72200000  1.0
  H  H28  1  0.97111000  0.03153000  0.73055000  1.0
  H  H29  1  0.02889000  0.46847000  0.23055000  1.0
  H  H30  1  0.02889000  0.96847000  0.26945000  1.0
  H  H31  1  0.97111000  0.53153000  0.76945000  1.0
  C  C32  1  0.68833000  0.31546000  0.76206000  1.0
  C  C33  1  0.31167000  0.18454000  0.26206000  1.0
  C  C34  1  0.31166000  0.68454000  0.23794000  1.0
  C  C35  1  0.68834000  0.81546000  0.73794000  1.0
  C  C36  1  0.57441000  0.24043000  0.70808000  1.0
  C  C37  1  0.42559000  0.25957000  0.20808000  1.0
  C  C38  1  0.42558000  0.75957000  0.29192000  1.0
  C  C39  1  0.57443000  0.74043000  0.79192000  1.0
  C  C40  1  0.49801000  0.25651000  0.62508000  1.0
  C  C41  1  0.50199000  0.24349000  0.12508000  1.0
  C  C42  1  0.50198000  0.74349000  0.37492000  1.0
  C  C43  1  0.49802000  0.75651000  0.87492000  1.0
  C  C44  1  0.46796000  0.35620000  0.56395000  1.0
  C  C45  1  0.53204000  0.14380000  0.06395000  1.0
  C  C46  1  0.53204000  0.64379000  0.43604000  1.0
  C  C47  1  0.46796000  0.85621000  0.93604000  1.0
  C  C48  1  0.43440000  0.08110000  0.68076000  1.0
  C  C49  1  0.56560000  0.41890000  0.18076000  1.0
  C  C50  1  0.56560000  0.91890000  0.31924000  1.0
  C  C51  1  0.43440000  0.58110000  0.81924000  1.0
  C  C52  1  0.34649000  0.96960000  0.68907000  1.0
  C  C53  1  0.65352000  0.53040000  0.18907000  1.0
  C  C54  1  0.65351000  0.03040000  0.31093000  1.0
  C  C55  1  0.34649000  0.46960000  0.81093000  1.0
  C  C56  1  0.34471000  0.88655000  0.61933000  1.0
  C  C57  1  0.65529000  0.61345000  0.11933000  1.0
  C  C58  1  0.65529000  0.11345000  0.38067000  1.0
  C  C59  1  0.34471000  0.38655000  0.88067000  1.0
  C  C60  1  0.25471000  0.78388000  0.63072000  1.0
  C  C61  1  0.74529000  0.71612000  0.13072000  1.0
  C  C62  1  0.74529000  0.21612000  0.36929000  1.0
  C  C63  1  0.25471000  0.28388000  0.86929000  1.0
  C  C64  1  0.16770000  0.84153000  0.77247000  1.0
  C  C65  1  0.83230000  0.65847000  0.27247000  1.0
  C  C66  1  0.83230000  0.15847000  0.22753000  1.0
  C  C67  1  0.16770000  0.34153000  0.72753000  1.0
  C  C68  1  0.25502000  0.94580000  0.76726000  1.0
  C  C69  1  0.74498000  0.55420000  0.26726000  1.0
  C  C70  1  0.74498000  0.05420000  0.23274000  1.0
  C  C71  1  0.25502000  0.44580000  0.73274000  1.0
  C  C72  1  0.02942000  0.06453000  0.00256000  1.0
  C  C73  1  0.97058000  0.43547000  0.50256000  1.0
  C  C74  1  0.97057000  0.93547000  0.99743000  1.0
  C  C75  1  0.02943000  0.56453000  0.49744000  1.0
  N  N76  1  0.53315000  0.13160000  0.74156000  1.0
  N  N77  1  0.46685000  0.36840000  0.24156000  1.0
  N  N78  1  0.46685000  0.86840000  0.25844000  1.0
  N  N79  1  0.53315000  0.63160000  0.75844000  1.0
  N  N80  1  0.41454000  0.15395000  0.60879000  1.0
  N  N81  1  0.58546000  0.34605000  0.10879000  1.0
  N  N82  1  0.58546000  0.84605000  0.39121000  1.0
  N  N83  1  0.41454000  0.65395000  0.89121000  1.0
  N  N84  1  0.16786000  0.76136000  0.70599000  1.0
  N  N85  1  0.83214000  0.73864000  0.20599000  1.0
  N  N86  1  0.83214000  0.23864000  0.29401000  1.0
  N  N87  1  0.16786000  0.26136000  0.79401000  1.0
  O  O88  1  0.73785000  0.27093000  0.83567000  1.0
  O  O89  1  0.26215000  0.22908000  0.33567000  1.0
  O  O90  1  0.26214000  0.72907000  0.16432000  1.0
  O  O91  1  0.73786000  0.77093000  0.66432000  1.0
  O  O92  1  0.72936000  0.41581000  0.73416000  1.0
  O  O93  1  0.27064000  0.08419000  0.23416000  1.0
  O  O94  1  0.27064000  0.58419000  0.26583000  1.0
  O  O95  1  0.72936000  0.91581000  0.76584000  1.0
  O  O96  1  0.49993000  0.45816000  0.59115000  1.0
  O  O97  1  0.50007000  0.04184000  0.09115000  1.0
  O  O98  1  0.50007000  0.54184000  0.40884000  1.0
  O  O99  1  0.49993000  0.95815000  0.90884000  1.0
  O  O100  1  0.39766000  0.32852000  0.49018000  1.0
  O  O101  1  0.60234000  0.17148000  0.99018000  1.0
  O  O102  1  0.60235000  0.67148000  0.50982000  1.0
  O  O103  1  0.39765000  0.82852000  0.00982000  1.0
  O  O104  1  0.94458000  0.13899000  0.96232000  1.0
  O  O105  1  0.05542000  0.36101000  0.46232000  1.0
  O  O106  1  0.05541000  0.86102000  0.03768000  1.0
  O  O107  1  0.94459000  0.63898000  0.53768000  1.0
  O  O108  1  0.15876000  0.08417000  0.04701000  1.0
  O  O109  1  0.84125000  0.41584000  0.54701000  1.0
  O  O110  1  0.84124000  0.91584000  0.95299000  1.0
  O  O111  1  0.15876000  0.58417000  0.45298000  1.0
  O  O112  1  0.93963000  0.09798000  0.76690000  1.0
  O  O113  1  0.06037000  0.40202000  0.26690000  1.0
  O  O114  1  0.06037000  0.90203000  0.23310000  1.0
  O  O115  1  0.93963000  0.59797000  0.73310000  1.0
