# generated using pymatgen
data_Al2H4C19IO10
_symmetry_space_group_name_H-M   'P 1'
_cell_length_a   6.70355000
_cell_length_b   19.55370000
_cell_length_c   21.37200000
_cell_angle_alpha   86.62150000
_cell_angle_beta   89.18720000
_cell_angle_gamma   89.49090000
_symmetry_Int_Tables_number   1
_chemical_formula_structural   Al2H4C19IO10
_chemical_formula_sum   'Al4 H8 C38 I2 O20'
_cell_volume   2796.18362650
_cell_formula_units_Z   2
loop_
 _symmetry_equiv_pos_site_id
 _symmetry_equiv_pos_as_xyz
  1  'x, y, z'
loop_
 _atom_site_type_symbol
 _atom_site_label
 _atom_site_symmetry_multiplicity
 _atom_site_fract_x
 _atom_site_fract_y
 _atom_site_fract_z
 _atom_site_occupancy
  Al  Al0  1  0.75607000  0.26505000  0.26230000  1.0
  Al  Al1  1  0.24393000  0.73494000  0.73770000  1.0
  Al  Al2  1  0.25542000  0.26508000  0.26234000  1.0
  Al  Al3  1  0.74458000  0.73492000  0.73766000  1.0
  H  H4  1  0.88369000  0.05382000  0.90037000  1.0
  H  H5  1  0.11630000  0.94619000  0.09962000  1.0
  H  H6  1  0.33447000  0.95060000  0.98578000  1.0
  H  H7  1  0.66553000  0.04940000  0.01421000  1.0
  H  H8  1  0.50784000  0.17548000  0.26086000  1.0
  H  H9  1  0.49216000  0.82452000  0.73914000  1.0
  H  H10  1  0.00292000  0.35352000  0.27213000  1.0
  H  H11  1  0.99708000  0.64648000  0.72787000  1.0
  C  C12  1  0.50776000  0.34862000  0.17458000  1.0
  C  C13  1  0.49226000  0.65138000  0.82543000  1.0
  C  C14  1  0.49969000  0.34521000  0.34447000  1.0
  C  C15  1  0.50033000  0.65479000  0.65552000  1.0
  C  C16  1  0.00404000  0.17795000  0.34776000  1.0
  C  C17  1  0.99595000  0.82205000  0.65224000  1.0
  C  C18  1  0.01168000  0.18516000  0.18053000  1.0
  C  C19  1  0.98832000  0.81484000  0.81947000  1.0
  C  C20  1  0.93481000  0.03023000  0.94497000  1.0
  C  C21  1  0.06518000  0.96977000  0.05503000  1.0
  C  C22  1  0.12631000  0.04995000  0.98034000  1.0
  C  C23  1  0.87369000  0.95005000  0.01966000  1.0
  C  C24  1  0.01354000  0.13796000  0.13139000  1.0
  C  C25  1  0.98646000  0.86204000  0.86861000  1.0
  C  C26  1  0.81366000  0.02697000  0.00789000  1.0
  C  C27  1  0.18633000  0.97303000  0.99211000  1.0
  C  C28  1  0.00404000  0.04807000  0.04483000  1.0
  C  C29  1  0.99596000  0.95193000  0.95516000  1.0
  C  C30  1  0.01000000  0.09648000  0.09114000  1.0
  C  C31  1  0.99000000  0.90352000  0.90886000  1.0
  C  C32  1  0.99664000  0.87551000  0.60294000  1.0
  C  C33  1  0.00335000  0.12448000  0.39706000  1.0
  C  C34  1  0.99777000  0.92325000  0.56306000  1.0
  C  C35  1  0.00224000  0.07675000  0.43694000  1.0
  C  C36  1  0.99914000  0.97573000  0.51979000  1.0
  C  C37  1  0.00087000  0.02427000  0.48021000  1.0
  C  C38  1  0.50785000  0.39501000  0.11967000  1.0
  C  C39  1  0.49217000  0.60500000  0.88033000  1.0
  C  C40  1  0.50502000  0.43518000  0.07339000  1.0
  C  C41  1  0.49497000  0.56482000  0.92661000  1.0
  C  C42  1  0.50172000  0.47947000  0.02305000  1.0
  C  C43  1  0.49826000  0.52053000  0.97696000  1.0
  C  C44  1  0.49736000  0.39252000  0.39366000  1.0
  C  C45  1  0.50265000  0.60749000  0.60633000  1.0
  C  C46  1  0.49784000  0.43389000  0.43464000  1.0
  C  C47  1  0.50216000  0.56611000  0.56536000  1.0
  C  C48  1  0.49903000  0.47918000  0.47940000  1.0
  C  C49  1  0.50097000  0.52082000  0.52059000  1.0
  I  I50  1  0.32178000  0.12983000  0.94969000  1.0
  I  I51  1  0.67821000  0.87017000  0.05031000  1.0
  O  O52  1  0.33060000  0.32694000  0.32514000  1.0
  O  O53  1  0.66940000  0.67306000  0.67486000  1.0
  O  O54  1  0.67775000  0.33067000  0.19601000  1.0
  O  O55  1  0.32226000  0.66933000  0.80399000  1.0
  O  O56  1  0.84055000  0.20327000  0.20061000  1.0
  O  O57  1  0.15945000  0.79673000  0.79938000  1.0
  O  O58  1  0.67114000  0.32713000  0.32465000  1.0
  O  O59  1  0.32887000  0.67287000  0.67534000  1.0
  O  O60  1  0.83378000  0.19839000  0.32826000  1.0
  O  O61  1  0.16622000  0.80161000  0.67174000  1.0
  O  O62  1  0.33704000  0.33101000  0.19657000  1.0
  O  O63  1  0.66296000  0.66899000  0.80343000  1.0
  O  O64  1  0.50669000  0.22475000  0.26358000  1.0
  O  O65  1  0.49331000  0.77525000  0.73642000  1.0
  O  O66  1  0.17484000  0.19818000  0.32795000  1.0
  O  O67  1  0.82515000  0.80182000  0.67205000  1.0
  O  O68  1  0.18029000  0.20358000  0.20015000  1.0
  O  O69  1  0.81971000  0.79643000  0.79985000  1.0
  O  O70  1  0.00468000  0.30587000  0.26205000  1.0
  O  O71  1  0.99532000  0.69413000  0.73795000  1.0
