# generated using pymatgen
data_NiH12C10N2O5
_symmetry_space_group_name_H-M   'P 1'
_cell_length_a   7.25081000
_cell_length_b   9.09775000
_cell_length_c   17.99000000
_cell_angle_alpha   90.04360000
_cell_angle_beta   90.00000000
_cell_angle_gamma   90.00000000
_symmetry_Int_Tables_number   1
_chemical_formula_structural   NiH12C10N2O5
_chemical_formula_sum   'Ni4 H48 C40 N8 O20'
_cell_volume   1186.72901603
_cell_formula_units_Z   4
loop_
 _symmetry_equiv_pos_site_id
 _symmetry_equiv_pos_as_xyz
  1  'x, y, z'
loop_
 _atom_site_type_symbol
 _atom_site_label
 _atom_site_symmetry_multiplicity
 _atom_site_fract_x
 _atom_site_fract_y
 _atom_site_fract_z
 _atom_site_occupancy
  Ni  Ni0  1  0.53521000  0.12746000  0.86227000  1.0
  Ni  Ni1  1  0.03602000  0.87243000  0.63767000  1.0
  Ni  Ni2  1  0.46406000  0.87250000  0.13758000  1.0
  Ni  Ni3  1  0.96446000  0.12767000  0.36234000  1.0
  H  H4  1  0.77240000  0.31521000  0.97436000  1.0
  H  H5  1  0.27560000  0.68283000  0.52646000  1.0
  H  H6  1  0.22517000  0.68373000  0.02622000  1.0
  H  H7  1  0.72595000  0.31618000  0.47379000  1.0
  H  H8  1  0.80407000  0.58618000  0.99826000  1.0
  H  H9  1  0.30445000  0.41159000  0.50257000  1.0
  H  H10  1  0.19522000  0.41260000  0.00222000  1.0
  H  H11  1  0.69558000  0.58729000  0.49778000  1.0
  H  H12  1  0.62406000  0.76182000  0.91886000  1.0
  H  H13  1  0.12054000  0.23729000  0.58131000  1.0
  H  H14  1  0.37773000  0.23772000  0.08115000  1.0
  H  H15  1  0.87765000  0.76233000  0.41878000  1.0
  H  H16  1  0.43030000  0.66204000  0.81582000  1.0
  H  H17  1  0.92729000  0.33845000  0.68415000  1.0
  H  H18  1  0.57156000  0.33821000  0.18394000  1.0
  H  H19  1  0.07151000  0.66203000  0.31596000  1.0
  H  H20  1  0.30513000  0.44205000  0.75086000  1.0
  H  H21  1  0.80617000  0.55860000  0.74973000  1.0
  H  H22  1  0.69503000  0.55861000  0.24918000  1.0
  H  H23  1  0.19511000  0.44157000  0.25065000  1.0
  H  H24  1  0.51174000  0.34372000  0.73041000  1.0
  H  H25  1  0.01311000  0.65721000  0.76941000  1.0
  H  H26  1  0.48815000  0.65671000  0.26947000  1.0
  H  H27  1  0.98826000  0.34336000  0.23049000  1.0
  H  H28  1  0.04040000  0.20217000  0.81629000  1.0
  H  H29  1  0.54075000  0.79793000  0.68362000  1.0
  H  H30  1  0.95937000  0.79869000  0.18341000  1.0
  H  H31  1  0.45981000  0.20218000  0.31646000  1.0
  H  H32  1  0.14061000  0.36019000  0.85499000  1.0
  H  H33  1  0.64139000  0.63990000  0.64500000  1.0
  H  H34  1  0.85920000  0.64037000  0.14491000  1.0
  H  H35  1  0.35906000  0.36004000  0.35513000  1.0
  H  H36  1  0.41022000  0.13388000  0.69431000  1.0
  H  H37  1  0.91113000  0.86704000  0.80548000  1.0
  H  H38  1  0.58922000  0.86716000  0.30543000  1.0
  H  H39  1  0.08931000  0.13310000  0.19456000  1.0
  H  H40  1  0.16760000  0.14140000  0.70657000  1.0
  H  H41  1  0.66848000  0.85907000  0.79356000  1.0
  H  H42  1  0.83185000  0.85938000  0.29334000  1.0
  H  H43  1  0.33194000  0.14074000  0.20657000  1.0
  H  H44  1  0.84141000  0.07370000  0.93656000  1.0
  H  H45  1  0.34256000  0.92588000  0.56333000  1.0
  H  H46  1  0.15762000  0.92605000  0.06319000  1.0
  H  H47  1  0.65795000  0.07382000  0.43665000  1.0
  H  H48  1  0.68931000  0.97322000  0.97442000  1.0
  H  H49  1  0.19052000  0.02658000  0.52556000  1.0
  H  H50  1  0.30971000  0.02657000  0.02537000  1.0
  H  H51  1  0.81020000  0.97342000  0.47448000  1.0
  C  C52  1  0.70068000  0.39597000  0.94026000  1.0
  C  C53  1  0.20214000  0.60261000  0.56028000  1.0
  C  C54  1  0.29808000  0.60326000  0.06008000  1.0
  C  C55  1  0.79863000  0.39674000  0.43991000  1.0
  C  C56  1  0.71655000  0.54641000  0.95339000  1.0
  C  C57  1  0.21643000  0.45205000  0.54713000  1.0
  C  C58  1  0.28312000  0.45278000  0.04689000  1.0
  C  C59  1  0.78348000  0.54720000  0.45310000  1.0
  C  C60  1  0.61782000  0.64395000  0.90888000  1.0
  C  C61  1  0.11576000  0.35521000  0.59131000  1.0
  C  C62  1  0.38312000  0.35564000  0.09115000  1.0
  C  C63  1  0.88325000  0.64443000  0.40880000  1.0
  C  C64  1  0.51043000  0.58793000  0.85097000  1.0
  C  C65  1  0.00855000  0.41197000  0.64909000  1.0
  C  C66  1  0.49065000  0.41206000  0.14893000  1.0
  C  C67  1  0.99075000  0.58813000  0.35098000  1.0
  C  C68  1  0.50790000  0.43671000  0.83900000  1.0
  C  C69  1  0.00771000  0.56321000  0.66110000  1.0
  C  C70  1  0.49227000  0.56331000  0.16096000  1.0
  C  C71  1  0.99259000  0.43687000  0.33896000  1.0
  C  C72  1  0.40948000  0.36693000  0.77410000  1.0
  C  C73  1  0.91016000  0.63355000  0.72604000  1.0
  C  C74  1  0.59051000  0.63348000  0.22582000  1.0
  C  C75  1  0.09070000  0.36672000  0.27408000  1.0
  C  C76  1  0.16491000  0.24249000  0.84457000  1.0
  C  C77  1  0.66549000  0.75765000  0.65544000  1.0
  C  C78  1  0.83475000  0.75809000  0.15526000  1.0
  C  C79  1  0.33503000  0.24232000  0.34464000  1.0
  C  C80  1  0.17735000  0.17002000  0.92140000  1.0
  C  C81  1  0.67820000  0.82992000  0.57856000  1.0
  C  C82  1  0.82188000  0.83021000  0.07836000  1.0
  C  C83  1  0.32235000  0.16992000  0.42149000  1.0
  C  C84  1  0.29860000  0.12138000  0.73513000  1.0
  C  C85  1  0.79919000  0.87922000  0.76478000  1.0
  C  C86  1  0.70098000  0.87937000  0.26465000  1.0
  C  C87  1  0.20114000  0.12084000  0.23530000  1.0
  C  C88  1  0.30669000  0.96289000  0.76325000  1.0
  C  C89  1  0.80663000  0.03760000  0.73652000  1.0
  C  C90  1  0.69323000  0.03779000  0.23643000  1.0
  C  C91  1  0.19322000  0.96241000  0.26348000  1.0
  N  N92  1  0.59903000  0.34224000  0.88402000  1.0
  N  N93  1  0.10008000  0.65717000  0.61620000  1.0
  N  N94  1  0.40016000  0.65747000  0.11608000  1.0
  N  N95  1  0.90064000  0.34265000  0.38387000  1.0
  N  N96  1  0.33007000  0.22483000  0.79687000  1.0
  N  N97  1  0.83068000  0.77554000  0.70311000  1.0
  N  N98  1  0.66951000  0.77572000  0.20295000  1.0
  N  N99  1  0.16991000  0.22460000  0.29694000  1.0
  O  O100  1  0.03318000  0.16598000  0.95983000  1.0
  O  O101  1  0.53411000  0.83389000  0.54008000  1.0
  O  O102  1  0.96596000  0.83423000  0.03988000  1.0
  O  O103  1  0.46646000  0.16581000  0.45996000  1.0
  O  O104  1  0.33590000  0.12424000  0.94342000  1.0
  O  O105  1  0.83677000  0.87559000  0.55654000  1.0
  O  O106  1  0.66319000  0.87562000  0.05635000  1.0
  O  O107  1  0.16373000  0.12443000  0.44352000  1.0
  O  O108  1  0.22398000  0.86191000  0.72752000  1.0
  O  O109  1  0.72353000  0.13857000  0.77215000  1.0
  O  O110  1  0.77606000  0.13876000  0.27217000  1.0
  O  O111  1  0.27572000  0.86140000  0.22769000  1.0
  O  O112  1  0.40382000  0.93750000  0.82083000  1.0
  O  O113  1  0.90386000  0.06285000  0.67894000  1.0
  O  O114  1  0.59618000  0.06304000  0.17882000  1.0
  O  O115  1  0.09616000  0.93721000  0.32112000  1.0
  O  O116  1  0.72373000  0.02051000  0.92633000  1.0
  O  O117  1  0.22493000  0.97914000  0.57361000  1.0
  O  O118  1  0.27530000  0.97922000  0.07346000  1.0
  O  O119  1  0.77576000  0.02079000  0.42641000  1.0
