# generated using pymatgen
data_TbH6C7SO8
_symmetry_space_group_name_H-M   'P 1'
_cell_length_a   5.87447000
_cell_length_b   10.22378657
_cell_length_c   18.71020000
_cell_angle_alpha   93.97891102
_cell_angle_beta   99.01980000
_cell_angle_gamma   106.69284373
_symmetry_Int_Tables_number   1
_chemical_formula_structural   TbH6C7SO8
_chemical_formula_sum   'Tb4 H24 C28 S4 O32'
_cell_volume   1055.25194443
_cell_formula_units_Z   4
loop_
 _symmetry_equiv_pos_site_id
 _symmetry_equiv_pos_as_xyz
  1  'x, y, z'
loop_
 _atom_site_type_symbol
 _atom_site_label
 _atom_site_symmetry_multiplicity
 _atom_site_fract_x
 _atom_site_fract_y
 _atom_site_fract_z
 _atom_site_occupancy
  Tb  Tb0  1  0.85453000  0.80356000  0.52932000  1.0
  Tb  Tb1  1  0.02156000  0.69643000  0.97066000  1.0
  Tb  Tb2  1  0.14545000  0.19643000  0.47067000  1.0
  Tb  Tb3  1  0.97844000  0.30357000  0.02934000  1.0
  H  H4  1  0.17221000  0.75527000  0.65751000  1.0
  H  H5  1  0.25957000  0.74459000  0.84244000  1.0
  H  H6  1  0.82781000  0.24474000  0.34249000  1.0
  H  H7  1  0.74044000  0.25542000  0.15756000  1.0
  H  H8  1  0.24901000  0.68515000  0.58944000  1.0
  H  H9  1  0.47436000  0.81477000  0.91054000  1.0
  H  H10  1  0.75099000  0.31485000  0.41056000  1.0
  H  H11  1  0.52564000  0.18523000  0.08947000  1.0
  H  H12  1  0.26761000  0.74912000  0.46849000  1.0
  H  H13  1  0.54987000  0.75096000  0.03145000  1.0
  H  H14  1  0.73238000  0.25087000  0.53151000  1.0
  H  H15  1  0.45013000  0.24904000  0.96856000  1.0
  H  H16  1  0.25180000  0.89451000  0.44985000  1.0
  H  H17  1  0.40741000  0.60559000  0.05012000  1.0
  H  H18  1  0.74818000  0.10548000  0.55015000  1.0
  H  H19  1  0.59260000  0.39441000  0.94988000  1.0
  H  H20  1  0.26340000  0.19305000  0.75068000  1.0
  H  H21  1  0.81978000  0.30701000  0.74947000  1.0
  H  H22  1  0.73661000  0.80695000  0.24932000  1.0
  H  H23  1  0.18022000  0.69299000  0.25053000  1.0
  H  H24  1  0.50071000  0.11376000  0.86345000  1.0
  H  H25  1  0.02363000  0.38648000  0.63665000  1.0
  H  H26  1  0.49930000  0.88624000  0.13655000  1.0
  H  H27  1  0.97637000  0.61353000  0.36335000  1.0
  C  C28  1  0.32777000  0.11082000  0.60757000  1.0
  C  C29  1  0.10947000  0.38915000  0.89252000  1.0
  C  C30  1  0.67220000  0.88916000  0.39243000  1.0
  C  C31  1  0.89054000  0.61086000  0.10748000  1.0
  C  C32  1  0.42842000  0.07726000  0.68002000  1.0
  C  C33  1  0.17105000  0.42280000  0.82008000  1.0
  C  C34  1  0.57157000  0.92273000  0.31998000  1.0
  C  C35  1  0.82896000  0.57720000  0.17992000  1.0
  C  C36  1  0.38113000  0.12893000  0.74670000  1.0
  C  C37  1  0.00559000  0.37109000  0.75340000  1.0
  C  C38  1  0.61888000  0.87107000  0.25330000  1.0
  C  C39  1  0.99441000  0.62891000  0.24660000  1.0
  C  C40  1  0.50016000  0.08716000  0.80624000  1.0
  C  C41  1  0.10696000  0.41285000  0.69387000  1.0
  C  C42  1  0.49986000  0.91285000  0.19376000  1.0
  C  C43  1  0.89305000  0.58716000  0.30613000  1.0
  C  C44  1  0.58335000  0.99676000  0.69066000  1.0
  C  C45  1  0.39578000  0.50330000  0.80944000  1.0
  C  C46  1  0.41665000  0.00324000  0.30934000  1.0
  C  C47  1  0.60422000  0.49670000  0.19056000  1.0
  C  C48  1  0.67968000  0.92980000  0.63617000  1.0
  C  C49  1  0.61363000  0.57016000  0.86387000  1.0
  C  C50  1  0.32031000  0.07019000  0.36383000  1.0
  C  C51  1  0.38638000  0.42984000  0.13613000  1.0
  C  C52  1  0.59494000  0.47911000  0.48137000  1.0
  C  C53  1  0.13455000  0.02086000  0.01861000  1.0
  C  C54  1  0.40505000  0.52089000  0.51863000  1.0
  C  C55  1  0.86545000  0.97914000  0.98140000  1.0
  S  S56  1  0.66936000  0.98664000  0.78223000  1.0
  S  S57  1  0.40060000  0.51343000  0.71787000  1.0
  S  S58  1  0.33065000  0.01336000  0.21776000  1.0
  S  S59  1  0.59941000  0.48658000  0.28213000  1.0
  O  O60  1  0.14658000  0.02314000  0.56576000  1.0
  O  O61  1  0.05762000  0.47670000  0.93440000  1.0
  O  O62  1  0.85342000  0.97685000  0.43424000  1.0
  O  O63  1  0.94238000  0.52330000  0.06560000  1.0
  O  O64  1  0.41837000  0.22853000  0.58878000  1.0
  O  O65  1  0.10158000  0.27147000  0.91126000  1.0
  O  O66  1  0.58161000  0.77146000  0.41121000  1.0
  O  O67  1  0.89842000  0.72853000  0.08874000  1.0
  O  O68  1  0.62840000  0.94935000  0.56848000  1.0
  O  O69  1  0.61063000  0.55057000  0.93157000  1.0
  O  O70  1  0.37159000  0.05065000  0.43152000  1.0
  O  O71  1  0.38937000  0.44943000  0.06843000  1.0
  O  O72  1  0.80996000  0.85299000  0.65425000  1.0
  O  O73  1  0.80263000  0.64695000  0.84574000  1.0
  O  O74  1  0.19003000  0.14701000  0.34575000  1.0
  O  O75  1  0.19738000  0.35305000  0.15426000  1.0
  O  O76  1  0.78628000  0.57073000  0.47813000  1.0
  O  O77  1  0.23759000  0.92925000  0.02181000  1.0
  O  O78  1  0.21370000  0.42927000  0.52186000  1.0
  O  O79  1  0.76242000  0.07076000  0.97819000  1.0
  O  O80  1  0.53911000  0.35193000  0.45632000  1.0
  O  O81  1  0.23096000  0.14802000  0.04367000  1.0
  O  O82  1  0.46087000  0.64806000  0.54367000  1.0
  O  O83  1  0.76904000  0.85198000  0.95633000  1.0
  O  O84  1  0.11590000  0.71332000  0.60719000  1.0
  O  O85  1  0.29536000  0.78641000  0.89278000  1.0
  O  O86  1  0.88410000  0.28668000  0.39282000  1.0
  O  O87  1  0.70464000  0.21359000  0.10722000  1.0
  O  O88  1  0.15298000  0.80147000  0.45885000  1.0
  O  O89  1  0.39257000  0.69861000  0.04110000  1.0
  O  O90  1  0.84702000  0.19853000  0.54115000  1.0
  O  O91  1  0.60743000  0.30139000  0.95890000  1.0
