# generated using pymatgen
data_Zn3H28C38(NO9)2
_symmetry_space_group_name_H-M   'P 1'
_cell_length_a   12.38530000
_cell_length_b   12.38530000
_cell_length_c   16.34900000
_cell_angle_alpha   102.15500000
_cell_angle_beta   102.15500000
_cell_angle_gamma   96.71030000
_symmetry_Int_Tables_number   1
_chemical_formula_structural   Zn3H28C38(NO9)2
_chemical_formula_sum   'Zn6 H56 C76 N4 O36'
_cell_volume   2362.34658633
_cell_formula_units_Z   2
loop_
 _symmetry_equiv_pos_site_id
 _symmetry_equiv_pos_as_xyz
  1  'x, y, z'
loop_
 _atom_site_type_symbol
 _atom_site_label
 _atom_site_symmetry_multiplicity
 _atom_site_fract_x
 _atom_site_fract_y
 _atom_site_fract_z
 _atom_site_occupancy
  Zn  Zn0  1  0.79976000  0.07921000  0.63512000  1.0
  Zn  Zn1  1  0.92079000  0.20024000  0.86488000  1.0
  Zn  Zn2  1  0.20024000  0.92079000  0.36488000  1.0
  Zn  Zn3  1  0.07921000  0.79976000  0.13512000  1.0
  Zn  Zn4  1  0.50000000  0.00000000  0.50000000  1.0
  Zn  Zn5  1  0.00000000  0.50000000  1.00000000  1.0
  H  H6  1  0.39607000  0.22304000  0.97704000  1.0
  H  H7  1  0.77696000  0.60393000  0.52296000  1.0
  H  H8  1  0.60393000  0.77696000  0.02296000  1.0
  H  H9  1  0.22304000  0.39607000  0.47703000  1.0
  H  H10  1  0.55382000  0.79440000  0.34359000  1.0
  H  H11  1  0.20560000  0.44618000  0.15641000  1.0
  H  H12  1  0.44618000  0.20560000  0.65641000  1.0
  H  H13  1  0.79439000  0.55382000  0.84359000  1.0
  H  H14  1  0.75835000  0.69098000  0.16668000  1.0
  H  H15  1  0.30902000  0.24165000  0.33333333  1.0
  H  H16  1  0.24165000  0.30902000  0.83332000  1.0
  H  H17  1  0.69098000  0.75835000  0.66666667  1.0
  H  H18  1  0.90633000  0.92225000  0.41186000  1.0
  H  H19  1  0.07775000  0.09367000  0.08814000  1.0
  H  H20  1  0.09367000  0.07775000  0.58814000  1.0
  H  H21  1  0.92225000  0.90633000  0.91186000  1.0
  H  H22  1  0.42828000  0.77291000  0.20887000  1.0
  H  H23  1  0.22710000  0.57172000  0.29113000  1.0
  H  H24  1  0.57172000  0.22710000  0.79113000  1.0
  H  H25  1  0.77290000  0.42828000  0.70887000  1.0
  H  H26  1  0.27957000  0.45846000  0.02920000  1.0
  H  H27  1  0.54154000  0.72043000  0.47080000  1.0
  H  H28  1  0.72043000  0.54154000  0.97081000  1.0
  H  H29  1  0.45846000  0.27957000  0.52919000  1.0
  H  H30  1  0.63152000  0.51951000  0.15431000  1.0
  H  H31  1  0.48049000  0.36848000  0.34569000  1.0
  H  H32  1  0.36848000  0.48049000  0.84569000  1.0
  H  H33  1  0.51951000  0.63152000  0.65431000  1.0
  H  H34  1  0.56547000  0.16306000  0.39484000  1.0
  H  H35  1  0.83694000  0.43453000  0.10516000  1.0
  H  H36  1  0.43453000  0.83694000  0.60516000  1.0
  H  H37  1  0.16306000  0.56547000  0.89484000  1.0
  H  H38  1  0.49798000  0.95579000  0.16217000  1.0
  H  H39  1  0.04421000  0.50202000  0.33783000  1.0
  H  H40  1  0.50202000  0.04421000  0.83783000  1.0
  H  H41  1  0.95579000  0.49798000  0.66217000  1.0
  H  H42  1  0.38820000  0.03643000  0.14510000  1.0
  H  H43  1  0.96357000  0.61180000  0.35490000  1.0
  H  H44  1  0.61180000  0.96357000  0.85490000  1.0
  H  H45  1  0.03643000  0.38820000  0.64510000  1.0
  H  H46  1  0.38778000  0.94605000  0.21708000  1.0
  H  H47  1  0.05395000  0.61222000  0.28292000  1.0
  H  H48  1  0.61222000  0.05395000  0.78292000  1.0
  H  H49  1  0.94605000  0.38778000  0.71708000  1.0
  H  H50  1  0.48869000  0.23209000  0.20809000  1.0
  H  H51  1  0.76791000  0.51131000  0.29192000  1.0
  H  H52  1  0.51131000  0.76791000  0.79191000  1.0
  H  H53  1  0.23209000  0.48869000  0.70808000  1.0
  H  H54  1  0.61211000  0.17318000  0.20236000  1.0
  H  H55  1  0.82682000  0.38789000  0.29764000  1.0
  H  H56  1  0.38789000  0.82682000  0.79764000  1.0
  H  H57  1  0.17318000  0.61211000  0.70236000  1.0
  H  H58  1  0.60042000  0.25580000  0.30289000  1.0
  H  H59  1  0.74420000  0.39958000  0.19711000  1.0
  H  H60  1  0.39958000  0.74420000  0.69711000  1.0
  H  H61  1  0.25580000  0.60042000  0.80289000  1.0
  C  C62  1  0.71745000  0.92935000  0.47144000  1.0
  C  C63  1  0.07065000  0.28255000  0.02856000  1.0
  C  C64  1  0.28255000  0.07065000  0.52856000  1.0
  C  C65  1  0.92935000  0.71745000  0.97144000  1.0
  C  C66  1  0.72848000  0.86419000  0.38626000  1.0
  C  C67  1  0.13581000  0.27152000  0.11374000  1.0
  C  C68  1  0.27152000  0.13581000  0.61374000  1.0
  C  C69  1  0.86419000  0.72848000  0.88626000  1.0
  C  C70  1  0.63436000  0.79667000  0.32688000  1.0
  C  C71  1  0.20333000  0.36564000  0.17312000  1.0
  C  C72  1  0.36564000  0.20333000  0.67312000  1.0
  C  C73  1  0.79666000  0.63436000  0.82688000  1.0
  C  C74  1  0.64341000  0.73168000  0.24807000  1.0
  C  C75  1  0.26832000  0.35659000  0.25193000  1.0
  C  C76  1  0.35659000  0.26832000  0.75193000  1.0
  C  C77  1  0.73168000  0.64341000  0.74807000  1.0
  C  C78  1  0.74865000  0.73765000  0.22844000  1.0
  C  C79  1  0.26235000  0.25135000  0.27156000  1.0
  C  C80  1  0.25135000  0.26235000  0.77157000  1.0
  C  C81  1  0.73765000  0.74865000  0.72843000  1.0
  C  C82  1  0.84264000  0.80678000  0.28717000  1.0
  C  C83  1  0.19322000  0.15736000  0.21283000  1.0
  C  C84  1  0.15736000  0.19322000  0.71283000  1.0
  C  C85  1  0.80678000  0.84264000  0.78717000  1.0
  C  C86  1  0.83275000  0.86933000  0.36625000  1.0
  C  C87  1  0.13067000  0.16726000  0.13375000  1.0
  C  C88  1  0.16726000  0.13067000  0.63375000  1.0
  C  C89  1  0.86933000  0.83274000  0.86625000  1.0
  C  C90  1  0.95509000  0.81706000  0.26674000  1.0
  C  C91  1  0.18294000  0.04491000  0.23326000  1.0
  C  C92  1  0.04491000  0.18294000  0.73326000  1.0
  C  C93  1  0.81706000  0.95509000  0.76674000  1.0
  C  C94  1  0.54356000  0.65699000  0.18793000  1.0
  C  C95  1  0.34301000  0.45644000  0.31207000  1.0
  C  C96  1  0.45643000  0.34301000  0.81207000  1.0
  C  C97  1  0.65699000  0.54356000  0.68793000  1.0
  C  C98  1  0.43826000  0.69073000  0.17440000  1.0
  C  C99  1  0.30927000  0.56174000  0.32560000  1.0
  C  C100  1  0.56174000  0.30927000  0.82560000  1.0
  C  C101  1  0.69073000  0.43826000  0.67440000  1.0
  C  C102  1  0.34484000  0.62097000  0.11562000  1.0
  C  C103  1  0.37903000  0.65516000  0.38438000  1.0
  C  C104  1  0.65516000  0.37903000  0.88439000  1.0
  C  C105  1  0.62097000  0.34484000  0.61561000  1.0
  C  C106  1  0.35392000  0.51326000  0.07259000  1.0
  C  C107  1  0.48674000  0.64608000  0.42741000  1.0
  C  C108  1  0.64608000  0.48674000  0.92741000  1.0
  C  C109  1  0.51325000  0.35391000  0.57259000  1.0
  C  C110  1  0.45738000  0.47666000  0.08908000  1.0
  C  C111  1  0.52334000  0.54262000  0.41092000  1.0
  C  C112  1  0.54262000  0.52334000  0.91092000  1.0
  C  C113  1  0.47665000  0.45738000  0.58908000  1.0
  C  C114  1  0.55168000  0.54933000  0.14448000  1.0
  C  C115  1  0.45067000  0.44832000  0.35552000  1.0
  C  C116  1  0.44832000  0.45067000  0.85552000  1.0
  C  C117  1  0.54933000  0.55168000  0.64448000  1.0
  C  C118  1  0.23371000  0.66019000  0.09916000  1.0
  C  C119  1  0.33981000  0.76629000  0.40084000  1.0
  C  C120  1  0.76628000  0.33981000  0.90084000  1.0
  C  C121  1  0.66019000  0.23371000  0.59916000  1.0
  C  C122  1  0.47191000  0.36071000  0.05198000  1.0
  C  C123  1  0.63930000  0.52809000  0.44802000  1.0
  C  C124  1  0.52809000  0.63929000  0.94802000  1.0
  C  C125  1  0.36070000  0.47191000  0.55198000  1.0
  C  C126  1  0.51917000  0.08680000  0.34622000  1.0
  C  C127  1  0.91320000  0.48083000  0.15378000  1.0
  C  C128  1  0.48083000  0.91320000  0.65378000  1.0
  C  C129  1  0.08680000  0.51917000  0.84622000  1.0
  C  C130  1  0.44104000  0.00268000  0.19313000  1.0
  C  C131  1  0.99732000  0.55896000  0.30687000  1.0
  C  C132  1  0.55896000  0.99732000  0.80686000  1.0
  C  C133  1  0.00268000  0.44104000  0.69313000  1.0
  C  C134  1  0.55402000  0.19450000  0.24338000  1.0
  C  C135  1  0.80550000  0.44598000  0.25662000  1.0
  C  C136  1  0.44598000  0.80550000  0.75662000  1.0
  C  C137  1  0.19450000  0.55402000  0.74338000  1.0
  N  N138  1  0.50395000  0.09479000  0.26431000  1.0
  N  N139  1  0.90521000  0.49605000  0.23569000  1.0
  N  N140  1  0.49605000  0.90520000  0.73569000  1.0
  N  N141  1  0.09480000  0.50395000  0.76431000  1.0
  O  O142  1  0.80221000  0.00211000  0.51709000  1.0
  O  O143  1  0.99788000  0.19780000  0.98291000  1.0
  O  O144  1  0.19780000  0.99789000  0.48291000  1.0
  O  O145  1  0.00211000  0.80220000  0.01708000  1.0
  O  O146  1  0.62686000  0.90776000  0.49376000  1.0
  O  O147  1  0.09224000  0.37314000  0.00624000  1.0
  O  O148  1  0.37314000  0.09224000  0.50624000  1.0
  O  O149  1  0.90776000  0.62686000  0.99376000  1.0
  O  O150  1  0.22437000  0.74881000  0.15271000  1.0
  O  O151  1  0.25119000  0.77563000  0.34729000  1.0
  O  O152  1  0.77563000  0.25119000  0.84729000  1.0
  O  O153  1  0.74881000  0.22437000  0.65271000  1.0
  O  O154  1  0.15766000  0.60589000  0.03451000  1.0
  O  O155  1  0.39411000  0.84234000  0.46549000  1.0
  O  O156  1  0.84234000  0.39411000  0.96549000  1.0
  O  O157  1  0.60590000  0.15765000  0.53451000  1.0
  O  O158  1  0.37671000  0.29675000  0.99742000  1.0
  O  O159  1  0.70325000  0.62329000  0.50258000  1.0
  O  O160  1  0.62329000  0.70325000  0.00258000  1.0
  O  O161  1  0.29675000  0.37671000  0.49742000  1.0
  O  O162  1  0.55921000  0.32297000  0.06868000  1.0
  O  O163  1  0.67703000  0.44079000  0.43132000  1.0
  O  O164  1  0.44079000  0.67703000  0.93132000  1.0
  O  O165  1  0.32297000  0.55921000  0.56868000  1.0
  O  O166  1  0.96109000  0.76183000  0.19289000  1.0
  O  O167  1  0.23817000  0.03891000  0.30711000  1.0
  O  O168  1  0.03891000  0.23817000  0.80711000  1.0
  O  O169  1  0.76183000  0.96109000  0.69289000  1.0
  O  O170  1  0.03474000  0.88009000  0.32503000  1.0
  O  O171  1  0.11991000  0.96526000  0.17497000  1.0
  O  O172  1  0.96526000  0.11991000  0.67497000  1.0
  O  O173  1  0.88009000  0.03474000  0.82503000  1.0
  O  O174  1  0.48479000  0.00034000  0.36799000  1.0
  O  O175  1  0.99966000  0.51521000  0.13201000  1.0
  O  O176  1  0.51521000  0.99966000  0.63201000  1.0
  O  O177  1  0.00034000  0.48480000  0.86799000  1.0
