# generated using pymatgen
data_Zr6H19C52S10N4Cl5O32
_symmetry_space_group_name_H-M   'P 1'
_cell_length_a   16.44660000
_cell_length_b   16.47017369
_cell_length_c   16.47490000
_cell_angle_alpha   88.50482232
_cell_angle_beta   60.23370000
_cell_angle_gamma   60.25421685
_symmetry_Int_Tables_number   1
_chemical_formula_structural   Zr6H19C52S10N4Cl5O32
_chemical_formula_sum   'Zr6 H19 C52 S10 N4 Cl5 O32'
_cell_volume   3216.64034691
_cell_formula_units_Z   1
loop_
 _symmetry_equiv_pos_site_id
 _symmetry_equiv_pos_as_xyz
  1  'x, y, z'
loop_
 _atom_site_type_symbol
 _atom_site_label
 _atom_site_symmetry_multiplicity
 _atom_site_fract_x
 _atom_site_fract_y
 _atom_site_fract_z
 _atom_site_occupancy
  Zr  Zr0  1  0.48853000  0.39969000  0.90207000  1.0
  Zr  Zr1  1  0.50428000  0.60336000  0.10621000  1.0
  Zr  Zr2  1  0.70717000  0.39519000  0.89823000  1.0
  Zr  Zr3  1  0.28687000  0.60678000  0.11019000  1.0
  Zr  Zr4  1  0.49751000  0.61013000  0.89429000  1.0
  Zr  Zr5  1  0.49768000  0.39100000  0.11272000  1.0
  H  H6  1  0.65691000  0.42205000  0.75463000  1.0
  H  H7  1  0.33720000  0.75026000  0.08319000  1.0
  H  H8  1  0.66971000  0.41249000  0.08615000  1.0
  H  H9  1  0.32404000  0.41874000  0.09288000  1.0
  H  H10  1  0.48605000  0.63862000  0.61185000  1.0
  H  H11  1  0.51406000  0.09635000  0.12601000  1.0
  H  H12  1  0.98575000  0.87478000  0.11951000  1.0
  H  H13  1  0.98646000  0.63441000  0.39656000  1.0
  H  H14  1  0.69422000  0.17185000  0.64838000  1.0
  H  H15  1  0.29718000  0.85835000  0.33375000  1.0
  H  H16  1  0.23028000  0.38908000  0.87316000  1.0
  H  H17  1  0.15478000  0.08214000  0.49192000  1.0
  H  H18  1  0.27569000  0.97352000  0.42611000  1.0
  H  H19  1  0.93951000  0.16297000  0.71879000  1.0
  H  H20  1  0.07665000  0.06310000  0.62612000  1.0
  H  H21  1  0.83053000  0.02140000  0.42589000  1.0
  H  H22  1  0.71330000  0.07825000  0.53722000  1.0
  H  H23  1  0.05292000  0.79059000  0.33682000  1.0
  H  H24  1  0.91447000  0.88379000  0.43665000  1.0
  C  C25  1  0.48029000  0.51489000  0.73914000  1.0
  C  C26  1  0.51383000  0.76549000  0.98969000  1.0
  C  C27  1  0.49745000  0.49530000  0.27618000  1.0
  C  C28  1  0.49700000  0.22833000  0.00791000  1.0
  C  C29  1  0.75009000  0.23371000  0.74336000  1.0
  C  C30  1  0.22061000  0.50988000  0.00296000  1.0
  C  C31  1  0.24202000  0.76286000  0.27148000  1.0
  C  C32  1  0.77123000  0.50420000  0.99678000  1.0
  C  C33  1  0.76928000  0.50494000  0.73473000  1.0
  C  C34  1  0.76929000  0.22428000  0.00074000  1.0
  C  C35  1  0.22708000  0.50331000  0.28146000  1.0
  C  C36  1  0.22671000  0.77032000  0.99902000  1.0
  C  C37  1  0.48429000  0.43711000  0.42758000  1.0
  C  C38  1  0.48333000  0.57733000  0.59389000  1.0
  C  C39  1  0.49068000  0.49856000  0.36836000  1.0
  C  C40  1  0.47884000  0.51435000  0.65067000  1.0
  C  C41  1  0.48477000  0.54962000  0.51248000  1.0
  C  C42  1  0.48104000  0.46611000  0.50972000  1.0
  C  C43  1  0.51139000  0.91172000  0.92566000  1.0
  C  C44  1  0.51185000  0.07788000  0.06457000  1.0
  C  C45  1  0.51638000  0.85331000  0.98797000  1.0
  C  C46  1  0.50449000  0.13571000  0.00282000  1.0
  C  C47  1  0.51502000  0.99560000  0.03625000  1.0
  C  C48  1  0.51038000  0.99298000  0.95327000  1.0
  C  C49  1  0.97665000  0.08714000  0.93443000  1.0
  C  C50  1  0.02221000  0.90261000  0.06065000  1.0
  C  C51  1  0.86010000  0.13431000  0.99768000  1.0
  C  C52  1  0.13755000  0.85770000  0.99719000  1.0
  C  C53  1  0.96309000  0.98611000  0.03750000  1.0
  C  C54  1  0.03532000  0.00267000  0.95690000  1.0
  C  C55  1  0.97705000  0.44005000  0.59987000  1.0
  C  C56  1  0.02315000  0.57328000  0.42210000  1.0
  C  C57  1  0.86055000  0.50577000  0.64906000  1.0
  C  C58  1  0.13840000  0.50581000  0.37325000  1.0
  C  C59  1  0.96393000  0.54999000  0.50541000  1.0
  C  C60  1  0.03598000  0.46515000  0.51799000  1.0
  C  C61  1  0.94824000  0.09421000  0.61098000  1.0
  C  C62  1  0.78509000  0.12494000  0.61409000  1.0
  C  C63  1  0.85078000  0.04604000  0.53363000  1.0
  C  C64  1  0.97102000  0.98654000  0.48711000  1.0
  C  C65  1  0.04329000  0.89639000  0.40924000  1.0
  C  C66  1  0.20634000  0.89245000  0.38044000  1.0
  C  C67  1  0.14021000  0.97258000  0.45985000  1.0
  C  C68  1  0.02017000  0.01803000  0.51961000  1.0
  C  C69  1  0.82992000  0.14921000  0.65611000  1.0
  C  C70  1  0.16169000  0.85068000  0.35545000  1.0
  C  C71  1  0.84479000  0.57653000  0.05910000  1.0
  C  C72  1  0.14711000  0.44915000  0.93206000  1.0
  C  C73  1  0.85788000  0.51049000  0.99506000  1.0
  C  C74  1  0.13180000  0.51357000  0.99870000  1.0
  C  C75  1  0.04237000  0.47246000  0.95323000  1.0
  C  C76  1  0.94999000  0.55460000  0.03538000  1.0
  S  S77  1  0.49188000  0.59203000  0.41391000  1.0
  S  S78  1  0.47555000  0.42173000  0.60664000  1.0
  S  S79  1  0.52099000  0.89762000  0.07955000  1.0
  S  S80  1  0.50241000  0.09085000  0.90982000  1.0
  S  S81  1  0.82319000  0.07481000  0.08476000  1.0
  S  S82  1  0.17531000  0.91573000  0.90904000  1.0
  S  S83  1  0.82399000  0.59866000  0.59513000  1.0
  S  S84  1  0.17597000  0.41439000  0.42826000  1.0
  S  S85  1  0.99892000  0.42289000  0.90534000  1.0
  S  S86  1  0.99114000  0.60333000  0.08653000  1.0
  N  N87  1  0.19254000  0.00853000  0.48090000  1.0
  N  N88  1  0.99359000  0.11062000  0.65337000  1.0
  N  N89  1  0.79753000  0.02555000  0.49813000  1.0
  N  N90  1  0.99799000  0.85565000  0.38990000  1.0
  Cl  Cl91  1  0.48095000  0.33775000  0.40784000  1.0
  Cl  Cl92  1  0.50546000  0.89287000  0.82780000  1.0
  Cl  Cl93  1  0.04717000  0.12318000  0.84107000  1.0
  Cl  Cl94  1  0.04681000  0.33930000  0.62928000  1.0
  Cl  Cl95  1  0.72100000  0.67274000  0.15649000  1.0
  O  O96  1  0.47752000  0.44672000  0.77695000  1.0
  O  O97  1  0.51463000  0.72968000  0.05937000  1.0
  O  O98  1  0.50281000  0.56270000  0.23814000  1.0
  O  O99  1  0.48968000  0.26834000  0.94213000  1.0
  O  O100  1  0.78686000  0.26567000  0.77899000  1.0
  O  O101  1  0.18941000  0.57494000  0.07181000  1.0
  O  O102  1  0.20566000  0.72697000  0.23901000  1.0
  O  O103  1  0.80449000  0.43496000  0.93082000  1.0
  O  O104  1  0.66796000  0.57383000  0.76526000  1.0
  O  O105  1  0.66784000  0.25615000  0.07054000  1.0
  O  O106  1  0.32904000  0.43276000  0.24665000  1.0
  O  O107  1  0.32873000  0.73807000  0.93056000  1.0
  O  O108  1  0.79962000  0.26391000  0.93366000  1.0
  O  O109  1  0.19398000  0.57126000  0.24343000  1.0
  O  O110  1  0.19419000  0.73521000  0.06992000  1.0
  O  O111  1  0.79896000  0.43432000  0.77087000  1.0
  O  O112  1  0.64432000  0.27479000  0.77981000  1.0
  O  O113  1  0.66915000  0.56804000  0.06586000  1.0
  O  O114  1  0.34771000  0.72571000  0.23139000  1.0
  O  O115  1  0.32191000  0.44032000  0.93788000  1.0
  O  O116  1  0.49701000  0.26161000  0.07723000  1.0
  O  O117  1  0.48641000  0.58099000  0.76965000  1.0
  O  O118  1  0.50884000  0.73305000  0.92375000  1.0
  O  O119  1  0.49883000  0.42604000  0.24094000  1.0
  O  O120  1  0.37322000  0.44203000  0.06828000  1.0
  O  O121  1  0.62058000  0.43680000  0.06284000  1.0
  O  O122  1  0.38298000  0.67946000  0.05922000  1.0
  O  O123  1  0.61066000  0.44621000  0.82542000  1.0
  O  O124  1  0.58765000  0.54471000  0.95670000  1.0
  O  O125  1  0.40581000  0.54881000  0.96052000  1.0
  O  O126  1  0.41362000  0.54082000  0.13509000  1.0
  O  O127  1  0.58019000  0.37004000  0.96373000  1.0
