# generated using pymatgen
data_NiH4C6(SN2)2
_symmetry_space_group_name_H-M   'P 1'
_cell_length_a   5.54654000
_cell_length_b   7.09066000
_cell_length_c   11.97960000
_cell_angle_alpha   90.03680000
_cell_angle_beta   90.00720000
_cell_angle_gamma   105.74800000
_symmetry_Int_Tables_number   1
_chemical_formula_structural   NiH4C6(SN2)2
_chemical_formula_sum   'Ni2 H8 C12 S4 N8'
_cell_volume   453.45670927
_cell_formula_units_Z   2
loop_
 _symmetry_equiv_pos_site_id
 _symmetry_equiv_pos_as_xyz
  1  'x, y, z'
loop_
 _atom_site_type_symbol
 _atom_site_label
 _atom_site_symmetry_multiplicity
 _atom_site_fract_x
 _atom_site_fract_y
 _atom_site_fract_z
 _atom_site_occupancy
  Ni  Ni0  1  0.00000000  0.00000000  0.50000000  1.0
  Ni  Ni1  1  0.00000000  0.00000000  0.00000000  1.0
  H  H2  1  0.02810000  0.91821000  0.25001000  1.0
  H  H3  1  0.97191000  0.08179000  0.74999000  1.0
  H  H4  1  0.05325000  0.60860000  0.25039000  1.0
  H  H5  1  0.94674000  0.39140000  0.74961000  1.0
  H  H6  1  0.03918000  0.41919000  0.43022000  1.0
  H  H7  1  0.95590000  0.57957000  0.92968000  1.0
  H  H8  1  0.96082000  0.58081000  0.56978000  1.0
  H  H9  1  0.04410000  0.42043000  0.07032000  1.0
  C  C10  1  0.03185000  0.07208000  0.25007000  1.0
  C  C11  1  0.96815000  0.92793000  0.74993000  1.0
  C  C12  1  0.04509000  0.45381000  0.25027000  1.0
  C  C13  1  0.95490000  0.54619000  0.74973000  1.0
  C  C14  1  0.03809000  0.35047000  0.34906000  1.0
  C  C15  1  0.95912000  0.64887000  0.84863000  1.0
  C  C16  1  0.96191000  0.64953000  0.65094000  1.0
  C  C17  1  0.04088000  0.35113000  0.15137000  1.0
  C  C18  1  0.41958000  0.80362000  0.43165000  1.0
  C  C19  1  0.58051000  0.19671000  0.93185000  1.0
  C  C20  1  0.58041000  0.19638000  0.56835000  1.0
  C  C21  1  0.41951000  0.80329000  0.06815000  1.0
  S  S22  1  0.66816000  0.72746000  0.41462000  1.0
  S  S23  1  0.33133000  0.27192000  0.91441000  1.0
  S  S24  1  0.33183000  0.27254000  0.58538000  1.0
  S  S25  1  0.66869000  0.72808000  0.08559000  1.0
  N  N26  1  0.03143000  0.15950000  0.34913000  1.0
  N  N27  1  0.96685000  0.84005000  0.84886000  1.0
  N  N28  1  0.96858000  0.84050000  0.65087000  1.0
  N  N29  1  0.03315000  0.15995000  0.15114000  1.0
  N  N30  1  0.23851000  0.85949000  0.44358000  1.0
  N  N31  1  0.76146000  0.14090000  0.94427000  1.0
  N  N32  1  0.76149000  0.14051000  0.55642000  1.0
  N  N33  1  0.23855000  0.85910000  0.05572000  1.0
