# generated using pymatgen
data_CdH4C4(N3O)2
_symmetry_space_group_name_H-M   'P 1'
_cell_length_a   6.69736000
_cell_length_b   6.72536000
_cell_length_c   8.23562000
_cell_angle_alpha   86.86520000
_cell_angle_beta   89.99880000
_cell_angle_gamma   89.99630000
_symmetry_Int_Tables_number   1
_chemical_formula_structural   CdH4C4(N3O)2
_chemical_formula_sum   'Cd2 H8 C8 N12 O4'
_cell_volume   370.39501375
_cell_formula_units_Z   2
loop_
 _symmetry_equiv_pos_site_id
 _symmetry_equiv_pos_as_xyz
  1  'x, y, z'
loop_
 _atom_site_type_symbol
 _atom_site_label
 _atom_site_symmetry_multiplicity
 _atom_site_fract_x
 _atom_site_fract_y
 _atom_site_fract_z
 _atom_site_occupancy
  Cd  Cd0  1  0.49999000  1.00000000  0.50001000  1.0
  Cd  Cd1  1  0.99999000  0.50001000  0.00000000  1.0
  H  H2  1  0.66128000  0.39141000  0.46645000  1.0
  H  H3  1  0.16129000  0.10860000  0.03356000  1.0
  H  H4  1  0.33873000  0.60860000  0.53356000  1.0
  H  H5  1  0.83871000  0.89142000  0.96644000  1.0
  H  H6  1  0.85749000  0.99707000  0.67372000  1.0
  H  H7  1  0.35748000  0.50294000  0.82628000  1.0
  H  H8  1  0.14253000  0.00293000  0.32628000  1.0
  H  H9  1  0.64252000  0.49706000  0.17372000  1.0
  C  C10  1  0.81516000  0.62308000  0.64843000  1.0
  C  C11  1  0.31515000  0.87689000  0.85156000  1.0
  C  C12  1  0.18486000  0.37692000  0.35157000  1.0
  C  C13  1  0.68485000  0.12313000  0.14842000  1.0
  C  C14  1  0.82336000  0.28014000  0.64498000  1.0
  C  C15  1  0.32334000  0.21982000  0.85501000  1.0
  C  C16  1  0.17664000  0.71987000  0.35502000  1.0
  C  C17  1  0.67666000  0.78013000  0.14497000  1.0
  N  N18  1  0.76411000  0.78586000  0.60407000  1.0
  N  N19  1  0.26409000  0.71409000  0.89594000  1.0
  N  N20  1  0.23590000  0.21414000  0.39592000  1.0
  N  N21  1  0.73591000  0.28592000  0.10407000  1.0
  N  N22  1  0.70743000  0.25855000  0.51944000  1.0
  N  N23  1  0.20745000  0.24140000  0.98053000  1.0
  N  N24  1  0.29258000  0.74146000  0.48055000  1.0
  N  N25  1  0.79259000  0.75855000  0.01943000  1.0
  N  N26  1  0.88213000  0.45539000  0.70751000  1.0
  N  N27  1  0.38209000  0.04455000  0.79252000  1.0
  N  N28  1  0.11787000  0.54462000  0.29248000  1.0
  N  N29  1  0.61785000  0.95545000  0.20755000  1.0
  O  O30  1  0.89893000  0.12153000  0.72789000  1.0
  O  O31  1  0.39890000  0.37845000  0.77211000  1.0
  O  O32  1  0.10107000  0.87849000  0.27211000  1.0
  O  O33  1  0.60107000  0.62151000  0.22791000  1.0
