# generated using pymatgen
data_HgH10C8(SN2)2
_symmetry_space_group_name_H-M   'P 1'
_cell_length_a   7.88062000
_cell_length_b   7.88078000
_cell_length_c   8.86076000
_cell_angle_alpha   92.73850000
_cell_angle_beta   92.73650000
_cell_angle_gamma   91.27800000
_symmetry_Int_Tables_number   1
_chemical_formula_structural   HgH10C8(SN2)2
_chemical_formula_sum   'Hg2 H20 C16 S4 N8'
_cell_volume   548.87936770
_cell_formula_units_Z   2
loop_
 _symmetry_equiv_pos_site_id
 _symmetry_equiv_pos_as_xyz
  1  'x, y, z'
loop_
 _atom_site_type_symbol
 _atom_site_label
 _atom_site_symmetry_multiplicity
 _atom_site_fract_x
 _atom_site_fract_y
 _atom_site_fract_z
 _atom_site_occupancy
  Hg  Hg0  1  0.05403000  0.94599000  0.75001000  1.0
  Hg  Hg1  1  0.94597000  0.05400000  0.24999000  1.0
  H  H2  1  0.63407000  0.40567000  0.36919000  1.0
  H  H3  1  0.40570000  0.63408000  0.86919000  1.0
  H  H4  1  0.36592000  0.59432000  0.63081000  1.0
  H  H5  1  0.59429000  0.36592000  0.13081000  1.0
  H  H6  1  0.55951000  0.67262000  0.15885000  1.0
  H  H7  1  0.67263000  0.55952000  0.65884000  1.0
  H  H8  1  0.44049000  0.32739000  0.84115000  1.0
  H  H9  1  0.32738000  0.44047000  0.34116000  1.0
  H  H10  1  0.50532000  0.85754000  0.38462000  1.0
  H  H11  1  0.85754000  0.50533000  0.88460000  1.0
  H  H12  1  0.49469000  0.14246000  0.61538000  1.0
  H  H13  1  0.14246000  0.49467000  0.11539000  1.0
  H  H14  1  0.32997000  0.99806000  0.37737000  1.0
  H  H15  1  0.99806000  0.32999000  0.87735000  1.0
  H  H16  1  0.67004000  0.00195000  0.62263000  1.0
  H  H17  1  0.00194000  0.67002000  0.12265000  1.0
  H  H18  1  0.53260000  0.06632000  0.31684000  1.0
  H  H19  1  0.06632000  0.53262000  0.81683000  1.0
  H  H20  1  0.46741000  0.93369000  0.68315000  1.0
  H  H21  1  0.93368000  0.46739000  0.18317000  1.0
  C  C22  1  0.28761000  0.95940000  0.06767000  1.0
  C  C23  1  0.95940000  0.28760000  0.56766000  1.0
  C  C24  1  0.71238000  0.04060000  0.93233000  1.0
  C  C25  1  0.04060000  0.71239000  0.43233000  1.0
  C  C26  1  0.73025000  0.38687000  0.45795000  1.0
  C  C27  1  0.38688000  0.73025000  0.95795000  1.0
  C  C28  1  0.26976000  0.61313000  0.54206000  1.0
  C  C29  1  0.61311000  0.26975000  0.04205000  1.0
  C  C30  1  0.46271000  0.74481000  0.10133000  1.0
  C  C31  1  0.74481000  0.46271000  0.60132000  1.0
  C  C32  1  0.53729000  0.25519000  0.89867000  1.0
  C  C33  1  0.25519000  0.53729000  0.39868000  1.0
  C  C34  1  0.44425000  0.95713000  0.32127000  1.0
  C  C35  1  0.95713000  0.44427000  0.82126000  1.0
  C  C36  1  0.55575000  0.04288000  0.67873000  1.0
  C  C37  1  0.04287000  0.55574000  0.17874000  1.0
  S  S38  1  0.18578000  0.14875000  0.10202000  1.0
  S  S39  1  0.14876000  0.18579000  0.60201000  1.0
  S  S40  1  0.81421000  0.85125000  0.89798000  1.0
  S  S41  1  0.85125000  0.81420000  0.39799000  1.0
  N  N42  1  0.27884000  0.86323000  0.93779000  1.0
  N  N43  1  0.86322000  0.27882000  0.43778000  1.0
  N  N44  1  0.72115000  0.13677000  0.06221000  1.0
  N  N45  1  0.13678000  0.72117000  0.56221000  1.0
  N  N46  1  0.39876000  0.88885000  0.16950000  1.0
  N  N47  1  0.88887000  0.39877000  0.66949000  1.0
  N  N48  1  0.60124000  0.11115000  0.83050000  1.0
  N  N49  1  0.11115000  0.60123000  0.33052000  1.0
