# generated using pymatgen
data_FeH12Ru6C18(NO4)6
_symmetry_space_group_name_H-M   'P 1'
_cell_length_a   10.95510000
_cell_length_b   10.95844664
_cell_length_c   10.95950000
_cell_angle_alpha   109.47211122
_cell_angle_beta   109.46900000
_cell_angle_gamma   109.46357990
_symmetry_Int_Tables_number   1
_chemical_formula_structural   FeH12Ru6C18(NO4)6
_chemical_formula_sum   'Fe1 H12 Ru6 C18 N6 O24'
_cell_volume   1012.93660075
_cell_formula_units_Z   1
loop_
 _symmetry_equiv_pos_site_id
 _symmetry_equiv_pos_as_xyz
  1  'x, y, z'
loop_
 _atom_site_type_symbol
 _atom_site_label
 _atom_site_symmetry_multiplicity
 _atom_site_fract_x
 _atom_site_fract_y
 _atom_site_fract_z
 _atom_site_occupancy
  Fe  Fe0  1  0.00000000  0.00000000  0.00000000  1.0
  H  H1  1  0.29086000  1.00000000  0.70888000  1.0
  H  H2  1  0.29088000  0.70889000  0.00000000  1.0
  H  H3  1  0.70914000  0.00000000  0.29112000  1.0
  H  H4  1  0.70901000  0.70901000  0.41800000  1.0
  H  H5  1  0.70903000  0.41807000  0.70903000  1.0
  H  H6  1  0.70911000  0.29111000  0.00000000  1.0
  H  H7  1  0.29097000  0.58192000  0.29096000  1.0
  H  H8  1  0.29099000  0.29099000  0.58199000  1.0
  H  H9  1  0.00001000  0.29095000  0.70903000  1.0
  H  H10  1  0.41804000  0.70890000  0.70890000  1.0
  H  H11  1  0.58196000  0.29110000  0.29110000  1.0
  H  H12  1  0.00000000  0.70905000  0.29097000  1.0
  Ru  Ru13  1  0.59147000  0.99999000  0.59147000  1.0
  Ru  Ru14  1  0.40854000  0.40852000  0.00000000  1.0
  Ru  Ru15  1  0.40853000  0.00001000  0.40853000  1.0
  Ru  Ru16  1  0.59147000  0.59149000  0.00000000  1.0
  Ru  Ru17  1  0.00001000  0.59148000  0.59147000  1.0
  Ru  Ru18  1  0.99999000  0.40852000  0.40853000  1.0
  C  C19  1  0.35241000  0.99999000  0.64745000  1.0
  C  C20  1  0.35243000  0.64746000  0.00000000  1.0
  C  C21  1  0.64758000  0.00000000  0.35254000  1.0
  C  C22  1  0.64751000  0.64751000  0.29501000  1.0
  C  C23  1  0.64754000  0.29507000  0.64753000  1.0
  C  C24  1  0.64757000  0.35254000  0.00000000  1.0
  C  C25  1  0.35247000  0.70493000  0.35247000  1.0
  C  C26  1  0.35249000  0.35249000  0.70499000  1.0
  C  C27  1  0.00000000  0.35245000  0.64752000  1.0
  C  C28  1  0.29506000  0.64748000  0.64747000  1.0
  C  C29  1  0.70494000  0.35252000  0.35253000  1.0
  C  C30  1  0.00001000  0.64755000  0.35248000  1.0
  C  C31  1  0.85291000  1.00000000  0.85256000  1.0
  C  C32  1  0.14711000  0.14748000  0.00001000  1.0
  C  C33  1  0.14709000  1.00000000  0.14744000  1.0
  C  C34  1  0.85290000  0.85253000  0.00000000  1.0
  C  C35  1  0.99964000  0.85255000  0.85255000  1.0
  C  C36  1  0.00036000  0.14745000  0.14745000  1.0
  N  N37  1  0.76024000  0.00000000  0.75950000  1.0
  N  N38  1  0.23978000  0.24052000  0.00001000  1.0
  N  N39  1  0.23976000  0.00000000  0.24050000  1.0
  N  N40  1  0.76024000  0.75949000  0.00000000  1.0
  N  N41  1  0.99925000  0.75949000  0.75949000  1.0
  N  N42  1  0.00074000  0.24050000  0.24050000  1.0
  O  O43  1  0.47502000  0.99999000  0.70353000  1.0
  O  O44  1  0.29638000  0.52490000  0.99999000  1.0
  O  O45  1  0.70363000  0.00001000  0.47509000  1.0
  O  O46  1  0.52495000  0.52490000  0.22845000  1.0
  O  O47  1  0.52497000  0.22850000  0.52493000  1.0
  O  O48  1  0.52496000  0.29645000  0.00000000  1.0
  O  O49  1  0.29637000  0.99999000  0.52490000  1.0
  O  O50  1  0.70352000  0.70356000  0.22845000  1.0
  O  O51  1  0.29648000  0.77152000  0.29645000  1.0
  O  O52  1  0.47504000  0.70355000  0.00000000  1.0
  O  O53  1  0.47506000  0.47510000  0.77155000  1.0
  O  O54  1  0.70352000  0.22848000  0.70355000  1.0
  O  O55  1  0.70362000  0.47510000  0.00001000  1.0
  O  O56  1  0.52498000  0.00001000  0.29647000  1.0
  O  O57  1  0.29649000  0.29644000  0.77155000  1.0
  O  O58  1  0.47503000  0.77150000  0.47507000  1.0
  O  O59  1  0.00003000  0.47506000  0.70354000  1.0
  O  O60  1  0.22852000  0.70355000  0.70353000  1.0
  O  O61  1  0.77145000  0.47507000  0.47508000  1.0
  O  O62  1  0.99995000  0.29642000  0.52492000  1.0
  O  O63  1  0.22854000  0.52493000  0.52492000  1.0
  O  O64  1  0.99997000  0.52494000  0.29646000  1.0
  O  O65  1  0.77148000  0.29645000  0.29647000  1.0
  O  O66  1  0.00004000  0.70357000  0.47507000  1.0
