# generated using pymatgen
data_CuH8C13SN3O
_symmetry_space_group_name_H-M   'P 1'
_cell_length_a   5.76760000
_cell_length_b   7.02076000
_cell_length_c   14.46620000
_cell_angle_alpha   89.99980000
_cell_angle_beta   83.31960000
_cell_angle_gamma   89.99930000
_symmetry_Int_Tables_number   1
_chemical_formula_structural   CuH8C13SN3O
_chemical_formula_sum   'Cu2 H16 C26 S2 N6 O2'
_cell_volume   581.80175741
_cell_formula_units_Z   2
loop_
 _symmetry_equiv_pos_site_id
 _symmetry_equiv_pos_as_xyz
  1  'x, y, z'
loop_
 _atom_site_type_symbol
 _atom_site_label
 _atom_site_symmetry_multiplicity
 _atom_site_fract_x
 _atom_site_fract_y
 _atom_site_fract_z
 _atom_site_occupancy
  Cu  Cu0  1  0.15519000  0.08538000  0.07079000  1.0
  Cu  Cu1  1  0.84484000  0.58537000  0.92921000  1.0
  H  H2  1  0.60591000  0.05926000  0.86845000  1.0
  H  H3  1  0.39408000  0.55929000  0.13155000  1.0
  H  H4  1  0.18638000  0.04615000  0.41971000  1.0
  H  H5  1  0.81362000  0.54615000  0.58029000  1.0
  H  H6  1  0.32372000  0.00453000  0.25058000  1.0
  H  H7  1  0.67629000  0.50453000  0.74942000  1.0
  H  H8  1  0.54621000  0.27981000  0.33889000  1.0
  H  H9  1  0.45379000  0.77980000  0.66111000  1.0
  H  H10  1  0.93045000  0.99572000  0.74210000  1.0
  H  H11  1  0.06955000  0.49574000  0.25790000  1.0
  H  H12  1  0.17290000  0.29244000  0.67202000  1.0
  H  H13  1  0.82709000  0.79245000  0.32798000  1.0
  H  H14  1  0.23574000  0.20338000  0.83479000  1.0
  H  H15  1  0.76426000  0.70340000  0.16521000  1.0
  H  H16  1  0.71262000  0.23509000  0.17336000  1.0
  H  H17  1  0.28738000  0.73508000  0.82663000  1.0
  C  C18  1  0.58370000  0.09499000  0.79690000  1.0
  C  C19  1  0.41631000  0.59501000  0.20310000  1.0
  C  C20  1  0.07492000  0.08753000  0.36729000  1.0
  C  C21  1  0.92507000  0.58754000  0.63271000  1.0
  C  C22  1  0.33150000  0.47205000  0.97621000  1.0
  C  C23  1  0.66852000  0.97206000  0.02380000  1.0
  C  C24  1  0.72677000  0.11076000  0.63773000  1.0
  C  C25  1  0.27323000  0.61078000  0.36227000  1.0
  C  C26  1  0.15288000  0.06592000  0.27333000  1.0
  C  C27  1  0.84712000  0.56592000  0.72666000  1.0
  C  C28  1  0.71939000  0.21896000  0.32185000  1.0
  C  C29  1  0.28060000  0.71896000  0.67815000  1.0
  C  C30  1  0.76671000  0.05853000  0.72698000  1.0
  C  C31  1  0.23329000  0.55856000  0.27301000  1.0
  C  C32  1  0.85013000  0.16146000  0.39295000  1.0
  C  C33  1  0.14987000  0.66146000  0.60705000  1.0
  C  C34  1  0.33633000  0.22938000  0.68715000  1.0
  C  C35  1  0.66367000  0.72940000  0.31284000  1.0
  C  C36  1  0.51794000  0.19518000  0.61615000  1.0
  C  C37  1  0.48206000  0.69519000  0.38385000  1.0
  C  C38  1  0.74602000  0.16932000  0.48893000  1.0
  C  C39  1  0.25397000  0.66932000  0.51107000  1.0
  C  C40  1  0.37277000  0.17848000  0.77745000  1.0
  C  C41  1  0.62722000  0.67851000  0.22255000  1.0
  C  C42  1  0.81168000  0.19389000  0.22988000  1.0
  C  C43  1  0.18832000  0.69390000  0.77012000  1.0
  S  S44  1  0.06797000  0.39615000  0.01365000  1.0
  S  S45  1  0.93205000  0.89614000  0.98635000  1.0
  N  N46  1  0.02416000  0.11582000  0.20480000  1.0
  N  N47  1  0.97584000  0.61582000  0.79520000  1.0
  N  N48  1  0.53744000  0.23054000  0.52085000  1.0
  N  N49  1  0.46255000  0.73055000  0.47915000  1.0
  N  N50  1  0.52306000  0.52532000  0.95132000  1.0
  N  N51  1  0.47695000  0.02532000  0.04869000  1.0
  O  O52  1  0.87424000  0.09448000  0.55603000  1.0
  O  O53  1  0.12575000  0.59449000  0.44397000  1.0
