# generated using pymatgen
data_Cu3H6(C3N)7
_symmetry_space_group_name_H-M   'P 1'
_cell_length_a   31.12060000
_cell_length_b   31.77970000
_cell_length_c   32.21080000
_cell_angle_alpha   89.85780000
_cell_angle_beta   90.68560000
_cell_angle_gamma   89.59420000
_symmetry_Int_Tables_number   1
_chemical_formula_structural   Cu3H6(C3N)7
_chemical_formula_sum   'Cu12 H24 C84 N28'
_cell_volume   31853.40398213
_cell_formula_units_Z   4
loop_
 _symmetry_equiv_pos_site_id
 _symmetry_equiv_pos_as_xyz
  1  'x, y, z'
loop_
 _atom_site_type_symbol
 _atom_site_label
 _atom_site_symmetry_multiplicity
 _atom_site_fract_x
 _atom_site_fract_y
 _atom_site_fract_z
 _atom_site_occupancy
  Cu  Cu0  1  0.33449000  0.58297000  0.37579000  1.0
  Cu  Cu1  1  0.40661000  0.63260000  0.32729000  1.0
  Cu  Cu2  1  0.38253000  0.66006000  0.41880000  1.0
  Cu  Cu3  1  0.83743000  0.91295000  0.62021000  1.0
  Cu  Cu4  1  0.91974000  0.87194000  0.66421000  1.0
  Cu  Cu5  1  0.88519000  0.83467000  0.57879000  1.0
  Cu  Cu6  1  0.15279000  0.42264000  0.88580000  1.0
  Cu  Cu7  1  0.07556000  0.37635000  0.83989000  1.0
  Cu  Cu8  1  0.11683000  0.33765000  0.92315000  1.0
  Cu  Cu9  1  0.66651000  0.08035000  0.12138000  1.0
  Cu  Cu10  1  0.58306000  0.12276000  0.16010000  1.0
  Cu  Cu11  1  0.63011000  0.16620000  0.08390000  1.0
  H  H12  1  0.32200000  0.50419000  0.31542000  1.0
  H  H13  1  0.41381000  0.57733000  0.24584000  1.0
  H  H14  1  0.32885000  0.66865000  0.50166000  1.0
  H  H15  1  0.26012000  0.56725000  0.44101000  1.0
  H  H16  1  0.47827000  0.69985000  0.30643000  1.0
  H  H17  1  0.45312000  0.73081000  0.43498000  1.0
  H  H18  1  0.81898000  0.98922000  0.68198000  1.0
  H  H19  1  0.92952000  0.93120000  0.74284000  1.0
  H  H20  1  0.82661000  0.82155000  0.49848000  1.0
  H  H21  1  0.75957000  0.92573000  0.55627000  1.0
  H  H22  1  0.99867000  0.81029000  0.68254000  1.0
  H  H23  1  0.95250000  0.76008000  0.56528000  1.0
  H  H24  1  0.16583000  0.50068000  0.82594000  1.0
  H  H25  1  0.06499000  0.43465000  0.75933000  1.0
  H  H26  1  0.18288000  0.32300000  0.99850000  1.0
  H  H27  1  0.23074000  0.43996000  0.94776000  1.0
  H  H28  1  0.00151000  0.30999000  0.82236000  1.0
  H  H29  1  0.05749000  0.25779000  0.93532000  1.0
  H  H30  1  0.68020000  0.00300000  0.18278000  1.0
  H  H31  1  0.56566000  0.05944000  0.23487000  1.0
  H  H32  1  0.69397000  0.17942000  0.00858000  1.0
  H  H33  1  0.74321000  0.06188000  0.05942000  1.0
  H  H34  1  0.50487000  0.18664000  0.17218000  1.0
  H  H35  1  0.57296000  0.24881000  0.07292000  1.0
  C  C36  1  0.34434000  0.52738000  0.30387000  1.0
  C  C37  1  0.36813000  0.52697000  0.26683000  1.0
  C  C38  1  0.39138000  0.56490000  0.26821000  1.0
  C  C39  1  0.31722000  0.64407000  0.48119000  1.0
  C  C40  1  0.28138000  0.61760000  0.48592000  1.0
  C  C41  1  0.28196000  0.59213000  0.45009000  1.0
  C  C42  1  0.46658000  0.70206000  0.33795000  1.0
  C  C43  1  0.48006000  0.72899000  0.37025000  1.0
  C  C44  1  0.45356000  0.71805000  0.40379000  1.0
  C  C45  1  0.84621000  0.96978000  0.69138000  1.0
  C  C46  1  0.87363000  0.97388000  0.72634000  1.0
  C  C47  1  0.90283000  0.93997000  0.72258000  1.0
  C  C48  1  0.81563000  0.84700000  0.51815000  1.0
  C  C49  1  0.77932000  0.87345000  0.51305000  1.0
  C  C50  1  0.78124000  0.90036000  0.54781000  1.0
  C  C51  1  0.98177000  0.80342000  0.65372000  1.0
  C  C52  1  0.99008000  0.77148000  0.62449000  1.0
  C  C53  1  0.95802000  0.77761000  0.59367000  1.0
  C  C54  1  0.14100000  0.47935000  0.81530000  1.0
  C  C55  1  0.11620000  0.48101000  0.77837000  1.0
  C  C56  1  0.08933000  0.44553000  0.78109000  1.0
  C  C57  1  0.18878000  0.35151000  0.98094000  1.0
  C  C58  1  0.22153000  0.38153000  0.98651000  1.0
  C  C59  1  0.21336000  0.41142000  0.95488000  1.0
  C  C60  1  0.02029000  0.30304000  0.85015000  1.0
  C  C61  1  0.01626000  0.26919000  0.87825000  1.0
  C  C62  1  0.04907000  0.27623000  0.90799000  1.0
  C  C63  1  0.65233000  0.02217000  0.19004000  1.0
  C  C64  1  0.62288000  0.01737000  0.22265000  1.0
  C  C65  1  0.59369000  0.05113000  0.21687000  1.0
  C  C66  1  0.70050000  0.15099000  0.02632000  1.0
  C  C67  1  0.73242000  0.11995000  0.02008000  1.0
  C  C68  1  0.72581000  0.09079000  0.05244000  1.0
  C  C69  1  0.52674000  0.19608000  0.14795000  1.0
  C  C70  1  0.52537000  0.23240000  0.12263000  1.0
  C  C71  1  0.56164000  0.22795000  0.09708000  1.0
  C  C72  1  0.87294000  0.00451000  0.75750000  1.0
  C  C73  1  0.87365000  0.03097000  0.78521000  1.0
  C  C74  1  0.87468000  0.06015000  0.81551000  1.0
  C  C75  1  0.87590000  0.08666000  0.84296000  1.0
  C  C76  1  0.36965000  0.49587000  0.23619000  1.0
  C  C77  1  0.37233000  0.46873000  0.20927000  1.0
  C  C78  1  0.37525000  0.43879000  0.17987000  1.0
  C  C79  1  0.37825000  0.41137000  0.15346000  1.0
  C  C80  1  0.62346000  0.98641000  0.25366000  1.0
  C  C81  1  0.62530000  0.95901000  0.28058000  1.0
  C  C82  1  0.62751000  0.92900000  0.31019000  1.0
  C  C83  1  0.62986000  0.90183000  0.33710000  1.0
  C  C84  1  0.11900000  0.51078000  0.74643000  1.0
  C  C85  1  0.12328000  0.53727000  0.71901000  1.0
  C  C86  1  0.12816000  0.56627000  0.68887000  1.0
  C  C87  1  0.13314000  0.59247000  0.66150000  1.0
  C  C88  1  0.76327000  0.11834000  0.98886000  1.0
  C  C89  1  0.79014000  0.11700000  0.96131000  1.0
  C  C90  1  0.81973000  0.11597000  0.93111000  1.0
  C  C91  1  0.84637000  0.11526000  0.90352000  1.0
  C  C92  1  0.25161000  0.61748000  0.51817000  1.0
  C  C93  1  0.22508000  0.61806000  0.54608000  1.0
  C  C94  1  0.19528000  0.61925000  0.57611000  1.0
  C  C95  1  0.16795000  0.62027000  0.60307000  1.0
  C  C96  1  0.25489000  0.38154000  0.01603000  1.0
  C  C97  1  0.28466000  0.38167000  0.04137000  1.0
  C  C98  1  0.31734000  0.38160000  0.06920000  1.0
  C  C99  1  0.34711000  0.38118000  0.09433000  1.0
  C  C100  1  0.74835000  0.87282000  0.48115000  1.0
  C  C101  1  0.72097000  0.87214000  0.45340000  1.0
  C  C102  1  0.69058000  0.87154000  0.42322000  1.0
  C  C103  1  0.66270000  0.87134000  0.39612000  1.0
  C  C104  1  0.98669000  0.23620000  0.87697000  1.0
  C  C105  1  0.96088000  0.20717000  0.87593000  1.0
  C  C106  1  0.93228000  0.17551000  0.87485000  1.0
  C  C107  1  0.90632000  0.14680000  0.87361000  1.0
  C  C108  1  0.51238000  0.75937000  0.36922000  1.0
  C  C109  1  0.54086000  0.78586000  0.36829000  1.0
  C  C110  1  0.57212000  0.81499000  0.36752000  1.0
  C  C111  1  0.60047000  0.84143000  0.36711000  1.0
  C  C112  1  0.02226000  0.74053000  0.62598000  1.0
  C  C113  1  0.05011000  0.71300000  0.62735000  1.0
  C  C114  1  0.08025000  0.68236000  0.62893000  1.0
  C  C115  1  0.10731000  0.65429000  0.63009000  1.0
  C  C116  1  0.49494000  0.26508000  0.12264000  1.0
  C  C117  1  0.46801000  0.29350000  0.12261000  1.0
  C  C118  1  0.43799000  0.32431000  0.12262000  1.0
  C  C119  1  0.41040000  0.35191000  0.12296000  1.0
  N  N120  1  0.38225000  0.58578000  0.30325000  1.0
  N  N121  1  0.35299000  0.56258000  0.32534000  1.0
  N  N122  1  0.31533000  0.60275000  0.42623000  1.0
  N  N123  1  0.33713000  0.63506000  0.44548000  1.0
  N  N124  1  0.42672000  0.68715000  0.39218000  1.0
  N  N125  1  0.43474000  0.67734000  0.35136000  1.0
  N  N126  1  0.89348000  0.91784000  0.68821000  1.0
  N  N127  1  0.85830000  0.93624000  0.66889000  1.0
  N  N128  1  0.81581000  0.89058000  0.57142000  1.0
  N  N129  1  0.83706000  0.85740000  0.55306000  1.0
  N  N130  1  0.93290000  0.81045000  0.60393000  1.0
  N  N131  1  0.94755000  0.82636000  0.64121000  1.0
  N  N132  1  0.09772000  0.42466000  0.81666000  1.0
  N  N133  1  0.12984000  0.44561000  0.83779000  1.0
  N  N134  1  0.17869000  0.39992000  0.93253000  1.0
  N  N135  1  0.16351000  0.36272000  0.94859000  1.0
  N  N136  1  0.07060000  0.31133000  0.89824000  1.0
  N  N137  1  0.05284000  0.32790000  0.86230000  1.0
  N  N138  1  0.60507000  0.07395000  0.18361000  1.0
  N  N139  1  0.64149000  0.05603000  0.16706000  1.0
  N  N140  1  0.69265000  0.10354000  0.07572000  1.0
  N  N141  1  0.67704000  0.14092000  0.05961000  1.0
  N  N142  1  0.58255000  0.19199000  0.10651000  1.0
  N  N143  1  0.56098000  0.17226000  0.13815000  1.0
  N  N144  1  0.87644000  0.11597000  0.87344000  1.0
  N  N145  1  0.37903000  0.38171000  0.12332000  1.0
  N  N146  1  0.63132000  0.87133000  0.36658000  1.0
  N  N147  1  0.13653000  0.62248000  0.63178000  1.0
