# generated using pymatgen
data_FeH4(CN2)4
_symmetry_space_group_name_H-M   'P 1'
_cell_length_a   6.41635000
_cell_length_b   6.84996000
_cell_length_c   8.37072000
_cell_angle_alpha   65.86400000
_cell_angle_beta   89.81540000
_cell_angle_gamma   89.52010000
_symmetry_Int_Tables_number   1
_chemical_formula_structural   FeH4(CN2)4
_chemical_formula_sum   'Fe2 H8 C8 N16'
_cell_volume   335.73249484
_cell_formula_units_Z   2
loop_
 _symmetry_equiv_pos_site_id
 _symmetry_equiv_pos_as_xyz
  1  'x, y, z'
loop_
 _atom_site_type_symbol
 _atom_site_label
 _atom_site_symmetry_multiplicity
 _atom_site_fract_x
 _atom_site_fract_y
 _atom_site_fract_z
 _atom_site_occupancy
  Fe  Fe0  1  0.00000000  0.00000000  0.00000000  1.0
  Fe  Fe1  1  0.50000000  0.00000000  0.00000000  1.0
  H  H2  1  0.99589000  0.45650000  0.72595000  1.0
  H  H3  1  0.50373000  0.45952000  0.72606000  1.0
  H  H4  1  0.49625000  0.81427000  0.72607000  1.0
  H  H5  1  0.99585000  0.18274000  0.27413000  1.0
  H  H6  1  0.00411000  0.54350000  0.27405000  1.0
  H  H7  1  0.49627000  0.54048000  0.27394000  1.0
  H  H8  1  0.50374000  0.18573000  0.27393000  1.0
  H  H9  1  0.00415000  0.81726000  0.72587000  1.0
  C  C10  1  0.99929000  0.47496000  0.84886000  1.0
  C  C11  1  0.50006000  0.47340000  0.85067000  1.0
  C  C12  1  0.49999000  0.67586000  0.85068000  1.0
  C  C13  1  0.99927000  0.32398000  0.15122000  1.0
  C  C14  1  0.00072000  0.52504000  0.15114000  1.0
  C  C15  1  0.49994000  0.52660000  0.14933000  1.0
  C  C16  1  0.50001000  0.32414000  0.14932000  1.0
  C  C17  1  0.00073000  0.67602000  0.84878000  1.0
  N  N18  1  0.99861000  0.29725000  0.00005000  1.0
  N  N19  1  0.49959000  0.29145000  0.99999000  1.0
  N  N20  1  0.50041000  0.70855000  0.00001000  1.0
  N  N21  1  0.00139000  0.70276000  0.99995000  1.0
  N  N22  1  0.26797000  0.90475000  0.17666000  1.0
  N  N23  1  0.73205000  0.91873000  0.17670000  1.0
  N  N24  1  0.26795000  0.08127000  0.82330000  1.0
  N  N25  1  0.73203000  0.09525000  0.82333000  1.0
  N  N26  1  0.26702000  0.88071000  0.32867000  1.0
  N  N27  1  0.73301000  0.79067000  0.32869000  1.0
  N  N28  1  0.26699000  0.20933000  0.67131000  1.0
  N  N29  1  0.73297000  0.11929000  0.67134000  1.0
  N  N30  1  0.25708000  0.85473000  0.47482000  1.0
  N  N31  1  0.74299000  0.67044000  0.47483000  1.0
  N  N32  1  0.25701000  0.32956000  0.52517000  1.0
  N  N33  1  0.74293000  0.14527000  0.52518000  1.0
