# generated using pymatgen
data_Al3H9C31O14
_symmetry_space_group_name_H-M   'P 1'
_cell_length_a   12.36100000
_cell_length_b   12.41832273
_cell_length_c   27.05790000
_cell_angle_alpha   82.05518121
_cell_angle_beta   89.83810000
_cell_angle_gamma   60.43910708
_symmetry_Int_Tables_number   1
_chemical_formula_structural   Al3H9C31O14
_chemical_formula_sum   'Al6 H18 C62 O28'
_cell_volume   3567.82535730
_cell_formula_units_Z   2
loop_
 _symmetry_equiv_pos_site_id
 _symmetry_equiv_pos_as_xyz
  1  'x, y, z'
loop_
 _atom_site_type_symbol
 _atom_site_label
 _atom_site_symmetry_multiplicity
 _atom_site_fract_x
 _atom_site_fract_y
 _atom_site_fract_z
 _atom_site_occupancy
  Al  Al0  1  0.40382000  0.18779000  0.48603000  1.0
  Al  Al1  1  0.40876000  0.92412000  0.50255000  1.0
  Al  Al2  1  0.65420000  0.92046000  0.50310000  1.0
  Al  Al3  1  0.92010000  0.16071000  0.01944000  1.0
  Al  Al4  1  0.66094000  0.42103000  0.00400000  1.0
  Al  Al5  1  0.89927000  0.43127000  0.00357000  1.0
  H  H6  1  0.30372000  0.18080000  0.80146000  1.0
  H  H7  1  0.60064000  0.51643000  0.22689000  1.0
  H  H8  1  0.71943000  0.79083000  0.19474000  1.0
  H  H9  1  0.70745000  0.81926000  0.28418000  1.0
  H  H10  1  0.47082000  0.28232000  0.69852000  1.0
  H  H11  1  0.46990000  0.31591000  0.78763000  1.0
  H  H12  1  0.86513000  0.05559000  0.80808000  1.0
  H  H13  1  0.95785000  0.22483000  0.69095000  1.0
  H  H14  1  0.58813000  0.54522000  0.31630000  1.0
  H  H15  1  0.92401000  0.26103000  0.77913000  1.0
  H  H16  1  0.33791000  0.14337000  0.71333000  1.0
  H  H17  1  0.04090000  0.98921000  0.76324000  1.0
  H  H18  1  0.00628000  0.86632000  0.77912000  1.0
  H  H19  1  0.09697000  0.86463000  0.72794000  1.0
  H  H20  1  0.88248000  0.93081000  0.69499000  1.0
  H  H21  1  0.91586000  0.05143000  0.67961000  1.0
  H  H22  1  0.28224000  0.39266000  0.50241000  1.0
  H  H23  1  0.00121000  0.95557000  0.00355000  1.0
  C  C24  1  0.27999000  0.10157000  0.41837000  1.0
  C  C25  1  0.69085000  0.73742000  0.22152000  1.0
  C  C26  1  0.68436000  0.75307000  0.27142000  1.0
  C  C27  1  0.64708000  0.68399000  0.30618000  1.0
  C  C28  1  0.66063000  0.65195000  0.20485000  1.0
  C  C29  1  0.66917000  0.63362000  0.15417000  1.0
  C  C30  1  0.63787000  0.70275000  0.35680000  1.0
  C  C31  1  0.67811000  0.61483000  0.11085000  1.0
  C  C32  1  0.67780000  0.21725000  0.13629000  1.0
  C  C33  1  0.66851000  0.20045000  0.18148000  1.0
  C  C34  1  0.66174000  0.18184000  0.23107000  1.0
  C  C35  1  0.60282000  0.77154000  0.44608000  1.0
  C  C36  1  0.65915000  0.16414000  0.27696000  1.0
  C  C37  1  0.65485000  0.14347000  0.32664000  1.0
  C  C38  1  0.64966000  0.12326000  0.37201000  1.0
  C  C39  1  0.10413000  0.22574000  0.13221000  1.0
  C  C40  1  0.13177000  0.20398000  0.17741000  1.0
  C  C41  1  0.15894000  0.18142000  0.22695000  1.0
  C  C42  1  0.18075000  0.16140000  0.27278000  1.0
  C  C43  1  0.20638000  0.14079000  0.32237000  1.0
  C  C44  1  0.23153000  0.12249000  0.36765000  1.0
  C  C45  1  0.67856000  0.62516000  0.87393000  1.0
  C  C46  1  0.62384000  0.09700000  0.42265000  1.0
  C  C47  1  0.66672000  0.64739000  0.82800000  1.0
  C  C48  1  0.65536000  0.66935000  0.77778000  1.0
  C  C49  1  0.64666000  0.68704000  0.73155000  1.0
  C  C50  1  0.63593000  0.70941000  0.68133000  1.0
  C  C51  1  0.62493000  0.73235000  0.63541000  1.0
  C  C52  1  0.65180000  0.11585000  0.61055000  1.0
  C  C53  1  0.55647000  0.23311000  0.72304000  1.0
  C  C54  1  0.55578000  0.25165000  0.77237000  1.0
  C  C55  1  0.77985000  0.10438000  0.78341000  1.0
  C  C56  1  0.78241000  0.08478000  0.73389000  1.0
  C  C57  1  0.26021000  0.10382000  0.55864000  1.0
  C  C58  1  0.66818000  0.15017000  0.70341000  1.0
  C  C59  1  0.66800000  0.18680000  0.80322000  1.0
  C  C60  1  0.67048000  0.20505000  0.85354000  1.0
  C  C61  1  0.66286000  0.13119000  0.65340000  1.0
  C  C62  1  0.67570000  0.22079000  0.89676000  1.0
  C  C63  1  0.20294000  0.13207000  0.60498000  1.0
  C  C64  1  0.03322000  0.21525000  0.71526000  1.0
  C  C65  1  0.01425000  0.23584000  0.76446000  1.0
  C  C66  1  0.22846000  0.19038000  0.77708000  1.0
  C  C67  1  0.24749000  0.16941000  0.72799000  1.0
  C  C68  1  0.60143000  0.78182000  0.58282000  1.0
  C  C69  1  0.15046000  0.18057000  0.69643000  1.0
  C  C70  1  0.11182000  0.22281000  0.79622000  1.0
  C  C71  1  0.09278000  0.23904000  0.84685000  1.0
  C  C72  1  0.17446000  0.15558000  0.64691000  1.0
  C  C73  1  0.07439000  0.24972000  0.89062000  1.0
  C  C74  1  0.70888000  0.23890000  0.08608000  1.0
  C  C75  1  0.70151000  0.56851000  0.06414000  1.0
  C  C76  1  0.04947000  0.25323000  0.08211000  1.0
  C  C77  1  0.69823000  0.24545000  0.94480000  1.0
  C  C78  1  0.70636000  0.57453000  0.92635000  1.0
  C  C79  1  0.61803000  0.09693000  0.56316000  1.0
  C  C80  1  0.03323000  0.26026000  0.94040000  1.0
  C  C81  1  0.62790000  0.72219000  0.40003000  1.0
  C  C82  1  0.61690000  0.59847000  0.28954000  1.0
  C  C83  1  0.62365000  0.58267000  0.23965000  1.0
  C  C84  1  0.90029000  0.99704000  0.71184000  1.0
  C  C85  1  0.01720000  0.92563000  0.74770000  1.0
  O  O86  1  0.52514000  0.17979000  0.43783000  1.0
  O  O87  1  0.49827000  0.80536000  0.56173000  1.0
  O  O88  1  0.68339000  0.80375000  0.56237000  1.0
  O  O89  1  0.69990000  0.00055000  0.54465000  1.0
  O  O90  1  0.48985000  0.00826000  0.49747000  1.0
  O  O91  1  0.03315000  0.17044000  0.06689000  1.0
  O  O92  1  0.81925000  0.16604000  0.07654000  1.0
  O  O93  1  0.62346000  0.33294000  0.05610000  1.0
  O  O94  1  0.62457000  0.53846000  0.04742000  1.0
  O  O95  1  0.80014000  0.55424000  0.04345000  1.0
  O  O96  1  0.01677000  0.36319000  0.05781000  1.0
  O  O97  1  0.30929000  0.17956000  0.42973000  1.0
  O  O98  1  0.00721000  0.17846000  0.96013000  1.0
  O  O99  1  0.79759000  0.16469000  0.97056000  1.0
  O  O100  1  0.61667000  0.35196000  0.95686000  1.0
  O  O101  1  0.62771000  0.55041000  0.94842000  1.0
  O  O102  1  0.81125000  0.55170000  0.94568000  1.0
  O  O103  1  0.02150000  0.35436000  0.95989000  1.0
  O  O104  1  0.82538000  0.34013000  0.00855000  1.0
  O  O105  1  0.29326000  0.00319000  0.44712000  1.0
  O  O106  1  0.49815000  0.79667000  0.46406000  1.0
  O  O107  1  0.68364000  0.79343000  0.46491000  1.0
  O  O108  1  0.70160000  0.98844000  0.44733000  1.0
  O  O109  1  0.50875000  0.17393000  0.54422000  1.0
  O  O110  1  0.28685000  0.18220000  0.53559000  1.0
  O  O111  1  0.28521000  0.99807000  0.54569000  1.0
  O  O112  1  0.32659000  0.35133000  0.47512000  1.0
  O  O113  1  0.00725000  0.99731000  0.03014000  1.0
