# generated using pymatgen
data_TbH6C7O9
_symmetry_space_group_name_H-M   'P 1'
_cell_length_a   9.86793000
_cell_length_b   9.86893000
_cell_length_c   13.02190000
_cell_angle_alpha   109.05700000
_cell_angle_beta   95.19330000
_cell_angle_gamma   116.72200000
_symmetry_Int_Tables_number   1
_chemical_formula_structural   TbH6C7O9
_chemical_formula_sum   'Tb4 H24 C28 O36'
_cell_volume   1027.45487989
_cell_formula_units_Z   4
loop_
 _symmetry_equiv_pos_site_id
 _symmetry_equiv_pos_as_xyz
  1  'x, y, z'
loop_
 _atom_site_type_symbol
 _atom_site_label
 _atom_site_symmetry_multiplicity
 _atom_site_fract_x
 _atom_site_fract_y
 _atom_site_fract_z
 _atom_site_occupancy
  Tb  Tb0  1  0.26292000  0.53879000  0.99480000  1.0
  Tb  Tb1  1  0.54403000  0.76829000  0.50518000  1.0
  Tb  Tb2  1  0.73709000  0.46121000  0.00519000  1.0
  Tb  Tb3  1  0.45596000  0.23171000  0.49482000  1.0
  H  H4  1  0.05988000  0.30577000  0.76253000  1.0
  H  H5  1  0.54308000  0.79729000  0.73754000  1.0
  H  H6  1  0.94011000  0.69423000  0.23747000  1.0
  H  H7  1  0.45693000  0.20271000  0.26246000  1.0
  H  H8  1  0.95045000  0.36655000  0.81556000  1.0
  H  H9  1  0.55087000  0.63491000  0.68441000  1.0
  H  H10  1  0.04955000  0.63344000  0.18444000  1.0
  H  H11  1  0.44913000  0.36509000  0.31559000  1.0
  H  H12  1  0.15925000  0.21658000  0.14666000  1.0
  H  H13  1  0.06998000  0.51262000  0.35332000  1.0
  H  H14  1  0.84075000  0.78342000  0.85334000  1.0
  H  H15  1  0.93002000  0.48738000  0.64668000  1.0
  H  H16  1  0.02472000  0.95189000  0.20257000  1.0
  H  H17  1  0.74935000  0.32216000  0.29752000  1.0
  H  H18  1  0.97528000  0.04812000  0.79743000  1.0
  H  H19  1  0.25065000  0.67783000  0.70248000  1.0
  H  H20  1  0.48162000  0.77457000  0.92479000  1.0
  H  H21  1  0.84989000  0.05704000  0.57532000  1.0
  H  H22  1  0.51839000  0.22544000  0.07521000  1.0
  H  H23  1  0.15011000  0.94296000  0.42468000  1.0
  H  H24  1  0.49180000  0.61605000  0.86304000  1.0
  H  H25  1  0.75300000  0.12877000  0.63711000  1.0
  H  H26  1  0.50820000  0.38395000  0.13696000  1.0
  H  H27  1  0.24700000  0.87123000  0.36289000  1.0
  C  C28  1  0.90883000  0.25444000  0.02930000  1.0
  C  C29  1  0.22538000  0.37973000  0.47066000  1.0
  C  C30  1  0.09117000  0.74557000  0.97070000  1.0
  C  C31  1  0.77462000  0.62027000  0.52933000  1.0
  C  C32  1  0.80239000  0.92490000  0.12099000  1.0
  C  C33  1  0.80413000  0.18161000  0.37916000  1.0
  C  C34  1  0.19762000  0.07510000  0.87901000  1.0
  C  C35  1  0.19588000  0.81839000  0.62084000  1.0
  C  C36  1  0.03428000  0.13292000  0.13110000  1.0
  C  C37  1  0.00194000  0.40325000  0.36891000  1.0
  C  C38  1  0.96572000  0.86708000  0.86890000  1.0
  C  C39  1  0.99806000  0.59675000  0.63109000  1.0
  C  C40  1  0.66605000  0.76983000  0.11157000  1.0
  C  C41  1  0.65846000  0.05457000  0.38850000  1.0
  C  C42  1  0.33394000  0.23017000  0.88843000  1.0
  C  C43  1  0.34154000  0.94542000  0.61151000  1.0
  C  C44  1  0.96380000  0.99455000  0.15931000  1.0
  C  C45  1  0.83536000  0.30461000  0.34078000  1.0
  C  C46  1  0.03619000  0.00545000  0.84069000  1.0
  C  C47  1  0.16464000  0.69539000  0.65922000  1.0
  C  C48  1  0.31677000  0.66002000  0.26381000  1.0
  C  C49  1  0.39611000  0.55303000  0.23612000  1.0
  C  C50  1  0.68323000  0.33997000  0.73619000  1.0
  C  C51  1  0.60389000  0.44696000  0.76388000  1.0
  C  C52  1  0.91234000  0.14011000  0.07725000  1.0
  C  C53  1  0.06308000  0.33525000  0.42275000  1.0
  C  C54  1  0.08766000  0.85990000  0.92276000  1.0
  C  C55  1  0.93692000  0.66475000  0.57725000  1.0
  O  O56  1  0.03590000  0.34935000  0.01310000  1.0
  O  O57  1  0.33641000  0.52296000  0.48674000  1.0
  O  O58  1  0.96409000  0.65065000  0.98690000  1.0
  O  O59  1  0.66358000  0.47704000  0.51325000  1.0
  O  O60  1  0.77975000  0.25336000  0.00896000  1.0
  O  O61  1  0.24468000  0.27109000  0.49111000  1.0
  O  O62  1  0.22024000  0.74665000  0.99104000  1.0
  O  O63  1  0.75532000  0.72891000  0.50888000  1.0
  O  O64  1  0.24195000  0.66264000  0.18080000  1.0
  O  O65  1  0.48178000  0.56128000  0.31911000  1.0
  O  O66  1  0.75806000  0.33737000  0.81919000  1.0
  O  O67  1  0.51823000  0.43872000  0.68089000  1.0
  O  O68  1  0.69565000  0.66012000  0.12091000  1.0
  O  O69  1  0.53931000  0.07466000  0.37906000  1.0
  O  O70  1  0.30435000  0.33989000  0.87909000  1.0
  O  O71  1  0.46068000  0.92532000  0.62093000  1.0
  O  O72  1  0.76988000  0.01487000  0.07228000  1.0
  O  O73  1  0.94286000  0.19783000  0.42781000  1.0
  O  O74  1  0.23012000  0.98514000  0.92773000  1.0
  O  O75  1  0.05715000  0.80218000  0.57220000  1.0
  O  O76  1  0.52952000  0.75213000  0.09116000  1.0
  O  O77  1  0.66133000  0.93851000  0.40891000  1.0
  O  O78  1  0.47049000  0.24788000  0.90884000  1.0
  O  O79  1  0.33868000  0.06149000  0.59109000  1.0
  O  O80  1  0.32646000  0.73200000  0.36673000  1.0
  O  O81  1  0.36514000  0.45982000  0.13319000  1.0
  O  O82  1  0.67354000  0.26800000  0.63327000  1.0
  O  O83  1  0.63486000  0.54017000  0.86682000  1.0
  O  O84  1  0.06127000  0.40483000  0.81237000  1.0
  O  O85  1  0.59228000  0.74891000  0.68763000  1.0
  O  O86  1  0.93873000  0.59517000  0.18763000  1.0
  O  O87  1  0.40772000  0.25108000  0.31237000  1.0
  O  O88  1  0.41801000  0.65941000  0.86812000  1.0
  O  O89  1  0.79126000  0.04983000  0.63190000  1.0
  O  O90  1  0.58200000  0.34059000  0.13188000  1.0
  O  O91  1  0.20875000  0.95017000  0.36811000  1.0
