# generated using pymatgen
data_CuH24C25N4O5
_symmetry_space_group_name_H-M   'P 1'
_cell_length_a   10.19400000
_cell_length_b   10.44960000
_cell_length_c   14.59820000
_cell_angle_alpha   86.87730000
_cell_angle_beta   73.07020000
_cell_angle_gamma   86.86960000
_symmetry_Int_Tables_number   1
_chemical_formula_structural   CuH24C25N4O5
_chemical_formula_sum   'Cu2 H48 C50 N8 O10'
_cell_volume   1484.22371249
_cell_formula_units_Z   2
loop_
 _symmetry_equiv_pos_site_id
 _symmetry_equiv_pos_as_xyz
  1  'x, y, z'
loop_
 _atom_site_type_symbol
 _atom_site_label
 _atom_site_symmetry_multiplicity
 _atom_site_fract_x
 _atom_site_fract_y
 _atom_site_fract_z
 _atom_site_occupancy
  Cu  Cu0  1  0.94636000  0.10047000  0.96879000  1.0
  Cu  Cu1  1  0.05365000  0.89953000  0.03121000  1.0
  H  H2  1  0.88808000  0.33303000  0.88681000  1.0
  H  H3  1  0.11192000  0.66697000  0.11319000  1.0
  H  H4  1  0.78450000  0.31906000  0.99118000  1.0
  H  H5  1  0.21550000  0.68094000  0.00882000  1.0
  H  H6  1  0.59285000  0.17712000  0.10643000  1.0
  H  H7  1  0.40715000  0.82287000  0.89357000  1.0
  H  H8  1  0.96743000  0.38759000  0.08016000  1.0
  H  H9  1  0.03258000  0.61242000  0.91984000  1.0
  H  H10  1  0.94718000  0.46237000  0.19010000  1.0
  H  H11  1  0.05283000  0.53764000  0.80990000  1.0
  H  H12  1  0.96723000  0.55887000  0.08292000  1.0
  H  H13  1  0.03277000  0.44114000  0.91708000  1.0
  H  H14  1  0.42033000  0.05007000  0.06203000  1.0
  H  H15  1  0.57967000  0.94993000  0.93797000  1.0
  H  H16  1  0.17308000  0.10168000  0.65667000  1.0
  H  H17  1  0.82693000  0.89832000  0.34334000  1.0
  H  H18  1  0.35135000  0.52305000  0.08413000  1.0
  H  H19  1  0.64866000  0.47695000  0.91586000  1.0
  H  H20  1  0.27793000  0.74059000  0.77653000  1.0
  H  H21  1  0.72208000  0.25940000  0.22347000  1.0
  H  H22  1  0.31269000  0.03541000  0.49330000  1.0
  H  H23  1  0.68731000  0.96458000  0.50671000  1.0
  H  H24  1  0.18435000  0.39550000  0.03727000  1.0
  H  H25  1  0.81565000  0.60450000  0.96273000  1.0
  H  H26  1  0.40691000  0.67001000  0.61603000  1.0
  H  H27  1  0.59309000  0.32998000  0.38396000  1.0
  H  H28  1  0.78283000  0.61572000  0.29585000  1.0
  H  H29  1  0.21717000  0.38429000  0.70415000  1.0
  H  H30  1  0.77817000  0.72748000  0.20295000  1.0
  H  H31  1  0.22183000  0.27253000  0.79705000  1.0
  H  H32  1  0.43194000  0.95466000  0.20385000  1.0
  H  H33  1  0.56805000  0.04535000  0.79616000  1.0
  H  H34  1  0.50714000  0.80708000  0.15303000  1.0
  H  H35  1  0.49285000  0.19293000  0.84697000  1.0
  H  H36  1  0.61370000  0.92998000  0.16316000  1.0
  H  H37  1  0.38629000  0.07003000  0.83684000  1.0
  H  H38  1  0.63882000  0.70737000  0.54427000  1.0
  H  H39  1  0.36118000  0.29263000  0.45573000  1.0
  H  H40  1  0.72583000  0.61321000  0.44520000  1.0
  H  H41  1  0.27417000  0.38679000  0.55480000  1.0
  H  H42  1  0.56633000  0.56594000  0.52250000  1.0
  H  H43  1  0.43367000  0.43406000  0.47750000  1.0
  H  H44  1  0.35581000  0.63747000  0.21587000  1.0
  H  H45  1  0.64419000  0.36253000  0.78413000  1.0
  H  H46  1  0.40062000  0.59565000  0.32219000  1.0
  H  H47  1  0.59938000  0.40436000  0.67780000  1.0
  H  H48  1  0.33551000  0.47813000  0.26460000  1.0
  H  H49  1  0.66449000  0.52187000  0.73540000  1.0
  C  C50  1  0.21927000  0.92606000  0.72739000  1.0
  C  C51  1  0.78074000  0.07394000  0.27261000  1.0
  C  C52  1  0.13977000  0.96223000  0.82615000  1.0
  C  C53  1  0.86024000  0.03776000  0.17385000  1.0
  C  C54  1  0.18549000  0.13769000  0.02618000  1.0
  C  C55  1  0.81451000  0.86231000  0.97382000  1.0
  C  C56  1  0.50200000  0.22392000  0.09248000  1.0
  C  C57  1  0.49800000  0.77608000  0.90753000  1.0
  C  C58  1  0.77035000  0.47797000  0.13915000  1.0
  C  C59  1  0.22965000  0.52204000  0.86085000  1.0
  C  C60  1  0.47889000  0.35673000  0.10159000  1.0
  C  C61  1  0.52111000  0.64327000  0.89841000  1.0
  C  C62  1  0.29051000  0.21477000  0.04886000  1.0
  C  C63  1  0.70949000  0.78523000  0.95114000  1.0
  C  C64  1  0.92156000  0.47134000  0.12173000  1.0
  C  C65  1  0.07844000  0.52866000  0.87827000  1.0
  C  C66  1  0.40692000  0.15375000  0.06696000  1.0
  C  C67  1  0.59308000  0.84625000  0.93304000  1.0
  C  C68  1  0.22711000  0.00836000  0.64698000  1.0
  C  C69  1  0.77289000  0.99163000  0.35303000  1.0
  C  C70  1  0.36505000  0.41920000  0.08124000  1.0
  C  C71  1  0.63495000  0.58080000  0.91876000  1.0
  C  C72  1  0.28671000  0.80516000  0.71431000  1.0
  C  C73  1  0.71329000  0.19483000  0.28569000  1.0
  C  C74  1  0.60033000  0.73560000  0.32318000  1.0
  C  C75  1  0.39966000  0.26441000  0.67682000  1.0
  C  C76  1  0.67253000  0.55840000  0.20243000  1.0
  C  C77  1  0.32747000  0.44161000  0.79757000  1.0
  C  C78  1  0.30433000  0.97219000  0.55626000  1.0
  C  C79  1  0.69567000  0.02781000  0.44374000  1.0
  C  C80  1  0.37314000  0.85115000  0.54393000  1.0
  C  C81  1  0.62686000  0.14885000  0.45607000  1.0
  C  C82  1  0.27192000  0.34797000  0.05462000  1.0
  C  C83  1  0.72809000  0.65203000  0.94538000  1.0
  C  C84  1  0.55886000  0.72719000  0.42262000  1.0
  C  C85  1  0.44114000  0.27281000  0.57738000  1.0
  C  C86  1  0.54502000  0.52278000  0.19708000  1.0
  C  C87  1  0.45499000  0.47721000  0.80292000  1.0
  C  C88  1  0.51401000  0.83378000  0.29705000  1.0
  C  C89  1  0.48599000  0.16622000  0.70295000  1.0
  C  C90  1  0.36111000  0.76656000  0.62370000  1.0
  C  C91  1  0.63889000  0.23343000  0.37630000  1.0
  C  C92  1  0.71371000  0.66058000  0.25641000  1.0
  C  C93  1  0.28628000  0.33942000  0.74358000  1.0
  C  C94  1  0.51655000  0.88375000  0.19911000  1.0
  C  C95  1  0.48344000  0.11626000  0.80089000  1.0
  C  C96  1  0.62449000  0.64971000  0.48742000  1.0
  C  C97  1  0.37551000  0.35029000  0.51257000  1.0
  C  C98  1  0.40170000  0.56060000  0.25267000  1.0
  C  C99  1  0.59830000  0.43940000  0.74733000  1.0
  N  N100  1  0.70956000  0.40009000  0.09572000  1.0
  N  N101  1  0.29044000  0.59991000  0.90428000  1.0
  N  N102  1  0.57259000  0.42839000  0.13067000  1.0
  N  N103  1  0.42742000  0.57160000  0.86933000  1.0
  N  N104  1  0.42401000  0.88188000  0.37430000  1.0
  N  N105  1  0.57599000  0.11812000  0.62570000  1.0
  N  N106  1  0.45079000  0.81659000  0.45110000  1.0
  N  N107  1  0.54921000  0.18341000  0.54890000  1.0
  O  O108  1  0.06383000  0.06493000  0.83631000  1.0
  O  O109  1  0.93617000  0.93506000  0.16370000  1.0
  O  O110  1  0.09776000  0.19823000  0.99073000  1.0
  O  O111  1  0.90224000  0.80177000  0.00927000  1.0
  O  O112  1  0.19145000  0.01761000  0.04574000  1.0
  O  O113  1  0.80854000  0.98240000  0.95427000  1.0
  O  O114  1  0.15475000  0.88498000  0.89387000  1.0
  O  O115  1  0.84527000  0.11501000  0.10613000  1.0
  O  O116  1  0.82701000  0.27321000  0.92974000  1.0
  O  O117  1  0.17300000  0.72679000  0.07026000  1.0
