# generated using pymatgen
data_CaCu6H48C36S6(N2O7)3
_symmetry_space_group_name_H-M   'P 1'
_cell_length_a   12.52190000
_cell_length_b   17.10490000
_cell_length_c   17.10893382
_cell_angle_alpha   60.05137644
_cell_angle_beta   90.00029957
_cell_angle_gamma   90.00070000
_symmetry_Int_Tables_number   1
_chemical_formula_structural   CaCu6H48C36S6(N2O7)3
_chemical_formula_sum   'Ca2 Cu12 H96 C72 S12 N12 O42'
_cell_volume   3175.18439565
_cell_formula_units_Z   2
loop_
 _symmetry_equiv_pos_site_id
 _symmetry_equiv_pos_as_xyz
  1  'x, y, z'
loop_
 _atom_site_type_symbol
 _atom_site_label
 _atom_site_symmetry_multiplicity
 _atom_site_fract_x
 _atom_site_fract_y
 _atom_site_fract_z
 _atom_site_occupancy
  Ca  Ca0  1  0.13088000  0.66694000  0.66661000  1.0
  Ca  Ca1  1  0.63087000  0.33310667  0.33333333  1.0
  Cu  Cu2  1  0.25096000  0.86459000  0.55763000  1.0
  Cu  Cu3  1  0.00147000  0.86254000  0.55770000  1.0
  Cu  Cu4  1  0.25067000  0.57819000  0.86483000  1.0
  Cu  Cu5  1  0.00126000  0.58008000  0.86262000  1.0
  Cu  Cu6  1  0.25086000  0.55754000  0.57785000  1.0
  Cu  Cu7  1  0.00152000  0.55718000  0.58019000  1.0
  Cu  Cu8  1  0.75094000  0.13539000  0.44237000  1.0
  Cu  Cu9  1  0.50148000  0.13744000  0.44230000  1.0
  Cu  Cu10  1  0.75068000  0.42181000  0.13517000  1.0
  Cu  Cu11  1  0.50127000  0.41989000  0.13735000  1.0
  Cu  Cu12  1  0.75085000  0.44246000  0.42215000  1.0
  Cu  Cu13  1  0.50149000  0.44283000  0.41979000  1.0
  H  H14  1  0.51256000  0.83070000  0.48622000  1.0
  H  H15  1  0.25521000  0.19628000  0.45562000  1.0
  H  H16  1  0.45759000  0.96283000  0.33314000  1.0
  H  H17  1  0.47541000  0.85740000  0.33855000  1.0
  H  H18  1  0.28289000  0.82930000  0.34645000  1.0
  H  H19  1  0.31540000  0.93424000  0.24861000  1.0
  H  H20  1  0.02554000  0.92537000  0.36036000  1.0
  H  H21  1  0.09952000  0.82416000  0.39408000  1.0
  H  H22  1  0.08733000  0.90759000  0.27661000  1.0
  H  H23  1  0.17016000  0.10606000  0.58909000  1.0
  H  H24  1  0.21634000  0.19897000  0.59885000  1.0
  H  H25  1  0.35193000  0.02768000  0.68016000  1.0
  H  H26  1  0.22862000  0.02270000  0.73275000  1.0
  H  H27  1  0.43153000  0.04127000  0.89256000  1.0
  H  H28  1  0.45647000  0.98551000  0.82953000  1.0
  H  H29  1  0.32867000  0.97534000  0.88116000  1.0
  H  H30  1  0.51288000  0.68254000  0.83146000  1.0
  H  H31  1  0.25502000  0.34813000  0.19627000  1.0
  H  H32  1  0.45730000  0.70419000  0.96308000  1.0
  H  H33  1  0.47508000  0.80400000  0.85756000  1.0
  H  H34  1  0.28252000  0.82380000  0.82936000  1.0
  H  H35  1  0.31482000  0.81701000  0.93425000  1.0
  H  H36  1  0.02518000  0.71430000  0.92609000  1.0
  H  H37  1  0.09894000  0.78161000  0.82473000  1.0
  H  H38  1  0.08760000  0.81560000  0.90835000  1.0
  H  H39  1  0.16978000  0.30534000  0.10553000  1.0
  H  H40  1  0.21544000  0.20254000  0.19841000  1.0
  H  H41  1  0.35078000  0.29266000  0.02685000  1.0
  H  H42  1  0.22787000  0.24408000  0.02266000  1.0
  H  H43  1  0.43231000  0.06707000  0.04060000  1.0
  H  H44  1  0.45612000  0.18601000  0.98458000  1.0
  H  H45  1  0.32868000  0.14360000  0.97510000  1.0
  H  H46  1  0.51296000  0.48630000  0.68256000  1.0
  H  H47  1  0.25554000  0.45551000  0.34797000  1.0
  H  H48  1  0.45727000  0.33313000  0.70400000  1.0
  H  H49  1  0.47454000  0.33899000  0.80386000  1.0
  H  H50  1  0.28173000  0.34819000  0.82261000  1.0
  H  H51  1  0.31405000  0.24973000  0.81646000  1.0
  H  H52  1  0.02518000  0.35826000  0.71236000  1.0
  H  H53  1  0.09713000  0.39185000  0.78093000  1.0
  H  H54  1  0.08781000  0.27460000  0.81340000  1.0
  H  H55  1  0.16991000  0.58882000  0.30534000  1.0
  H  H56  1  0.21537000  0.59853000  0.20257000  1.0
  H  H57  1  0.34952000  0.68081000  0.29284000  1.0
  H  H58  1  0.22703000  0.73336000  0.24277000  1.0
  H  H59  1  0.43312000  0.89149000  0.06727000  1.0
  H  H60  1  0.45548000  0.82957000  0.18634000  1.0
  H  H61  1  0.32824000  0.88109000  0.14257000  1.0
  H  H62  1  0.01253000  0.16928000  0.51376000  1.0
  H  H63  1  0.75521000  0.80368000  0.54438000  1.0
  H  H64  1  0.95758000  0.03716000  0.66685000  1.0
  H  H65  1  0.97540000  0.14259000  0.66143000  1.0
  H  H66  1  0.78287000  0.17070000  0.65353000  1.0
  H  H67  1  0.81539000  0.06576000  0.75138000  1.0
  H  H68  1  0.52553000  0.07460000  0.63965000  1.0
  H  H69  1  0.59951000  0.17581000  0.60593000  1.0
  H  H70  1  0.58732000  0.09238000  0.72340000  1.0
  H  H71  1  0.67015000  0.89392000  0.41090000  1.0
  H  H72  1  0.71633000  0.80100000  0.40114000  1.0
  H  H73  1  0.85193000  0.97230000  0.31984000  1.0
  H  H74  1  0.72862000  0.97728000  0.26724000  1.0
  H  H75  1  0.93154000  0.95874000  0.10743000  1.0
  H  H76  1  0.95648000  0.01449000  0.17047000  1.0
  H  H77  1  0.82868000  0.02466000  0.11884000  1.0
  H  H78  1  0.01290000  0.31745000  0.16847000  1.0
  H  H79  1  0.75499000  0.65189000  0.80370000  1.0
  H  H80  1  0.95719000  0.29580000  0.03689000  1.0
  H  H81  1  0.97493000  0.19598000  0.14241000  1.0
  H  H82  1  0.78234000  0.17636000  0.17062000  1.0
  H  H83  1  0.81459000  0.18302000  0.06580000  1.0
  H  H84  1  0.52510000  0.28595000  0.07353000  1.0
  H  H85  1  0.59866000  0.21850000  0.17498000  1.0
  H  H86  1  0.58755000  0.18467000  0.09126000  1.0
  H  H87  1  0.66979000  0.69473000  0.89442000  1.0
  H  H88  1  0.71555000  0.79750000  0.80157000  1.0
  H  H89  1  0.85099000  0.70736000  0.97304000  1.0
  H  H90  1  0.72803000  0.75576000  0.97744000  1.0
  H  H91  1  0.93223000  0.93289000  0.95952000  1.0
  H  H92  1  0.95623000  0.81398000  0.01538000  1.0
  H  H93  1  0.82875000  0.85622000  0.02505000  1.0
  H  H94  1  0.01295000  0.51372000  0.31740000  1.0
  H  H95  1  0.75556000  0.54445000  0.65204000  1.0
  H  H96  1  0.95732000  0.66687000  0.29604000  1.0
  H  H97  1  0.97443000  0.66106000  0.19612000  1.0
  H  H98  1  0.78157000  0.65180000  0.17758000  1.0
  H  H99  1  0.81396000  0.75028000  0.18366000  1.0
  H  H100  1  0.52522000  0.64179000  0.28804000  1.0
  H  H101  1  0.59701000  0.60820000  0.21939000  1.0
  H  H102  1  0.58776000  0.72545000  0.18693000  1.0
  H  H103  1  0.66996000  0.41113000  0.69468000  1.0
  H  H104  1  0.71547000  0.40142000  0.79746000  1.0
  H  H105  1  0.84973000  0.31920000  0.70718000  1.0
  H  H106  1  0.72717000  0.26665000  0.75709000  1.0
  H  H107  1  0.93304000  0.10841000  0.93276000  1.0
  H  H108  1  0.95560000  0.17044000  0.81370000  1.0
  H  H109  1  0.82830000  0.11891000  0.85727000  1.0
  C  C110  1  0.36433000  0.75881000  0.50700000  1.0
  C  C111  1  0.42878000  0.84735000  0.46442000  1.0
  C  C112  1  0.33958000  0.02044000  0.52251000  1.0
  C  C113  1  0.41867000  0.97778000  0.48885000  1.0
  C  C114  1  0.38907000  0.24665000  0.48900000  1.0
  C  C115  1  0.31113000  0.16797000  0.51362000  1.0
  C  C116  1  0.42357000  0.89487000  0.36043000  1.0
  C  C117  1  0.31187000  0.89829000  0.32279000  1.0
  C  C118  1  0.09552000  0.89674000  0.34516000  1.0
  C  C119  1  0.24177000  0.13763000  0.59825000  1.0
  C  C120  1  0.29113000  0.06913000  0.68899000  1.0
  C  C121  1  0.39592000  0.02114000  0.84666000  1.0
  C  C122  1  0.36499000  0.73372000  0.75900000  1.0
  C  C123  1  0.42900000  0.68792000  0.84772000  1.0
  C  C124  1  0.33921000  0.45715000  0.02046000  1.0
  C  C125  1  0.41850000  0.53317000  0.97794000  1.0
  C  C126  1  0.38877000  0.26434000  0.24620000  1.0
  C  C127  1  0.31073000  0.31846000  0.16774000  1.0
  C  C128  1  0.42338000  0.74462000  0.89506000  1.0
  C  C129  1  0.31151000  0.77865000  0.89835000  1.0
  C  C130  1  0.09525000  0.75793000  0.89734000  1.0
  C  C131  1  0.24118000  0.26438000  0.13721000  1.0
  C  C132  1  0.29052000  0.24205000  0.06871000  1.0
  C  C133  1  0.39612000  0.13287000  0.02056000  1.0
  C  C134  1  0.36496000  0.50783000  0.73353000  1.0
  C  C135  1  0.42905000  0.46487000  0.68770000  1.0
  C  C136  1  0.33946000  0.52266000  0.45690000  1.0
  C  C137  1  0.41873000  0.48932000  0.53292000  1.0
  C  C138  1  0.38922000  0.48948000  0.26414000  1.0
  C  C139  1  0.31106000  0.51379000  0.31828000  1.0
  C  C140  1  0.42317000  0.36086000  0.74430000  1.0
  C  C141  1  0.31109000  0.32392000  0.77786000  1.0
  C  C142  1  0.09490000  0.34359000  0.75631000  1.0
  C  C143  1  0.24123000  0.59817000  0.26427000  1.0
  C  C144  1  0.29017000  0.68912000  0.24179000  1.0
  C  C145  1  0.39623000  0.84618000  0.13282000  1.0
  C  C146  1  0.86430000  0.24118000  0.49297000  1.0
  C  C147  1  0.92877000  0.15264000  0.53556000  1.0
  C  C148  1  0.83957000  0.97953000  0.47749000  1.0
  C  C149  1  0.91866000  0.02219000  0.51115000  1.0
  C  C150  1  0.88906000  0.75333000  0.51100000  1.0
  C  C151  1  0.81112000  0.83200000  0.48638000  1.0
  C  C152  1  0.92356000  0.10512000  0.63956000  1.0
  C  C153  1  0.81186000  0.10171000  0.67719000  1.0
  C  C154  1  0.59551000  0.10322000  0.65486000  1.0
  C  C155  1  0.74176000  0.86235000  0.40174000  1.0
  C  C156  1  0.79112000  0.93085000  0.31101000  1.0
  C  C157  1  0.89592000  0.97885000  0.15334000  1.0
  C  C158  1  0.86503000  0.26631000  0.24101000  1.0
  C  C159  1  0.92901000  0.31209000  0.15227000  1.0
  C  C160  1  0.83923000  0.54286000  0.97950000  1.0
  C  C161  1  0.91851000  0.46683000  0.02204000  1.0
  C  C162  1  0.88879000  0.73565000  0.75376000  1.0
  C  C163  1  0.81072000  0.68154000  0.83223000  1.0
  C  C164  1  0.92329000  0.25540000  0.10492000  1.0
  C  C165  1  0.81139000  0.22143000  0.10164000  1.0
  C  C166  1  0.59514000  0.24230000  0.10233000  1.0
  C  C167  1  0.74124000  0.73565000  0.86275000  1.0
  C  C168  1  0.79063000  0.75792000  0.93129000  1.0
  C  C169  1  0.89616000  0.86706000  0.97952000  1.0
  C  C170  1  0.86492000  0.49222000  0.26645000  1.0
  C  C171  1  0.92904000  0.53517000  0.31228000  1.0
  C  C172  1  0.83949000  0.47731000  0.54310000  1.0
  C  C173  1  0.91875000  0.51066000  0.46708000  1.0
  C  C174  1  0.88926000  0.51050000  0.73586000  1.0
  C  C175  1  0.81109000  0.48618000  0.68173000  1.0
  C  C176  1  0.92315000  0.63915000  0.25574000  1.0
  C  C177  1  0.81104000  0.67609000  0.22229000  1.0
  C  C178  1  0.59488000  0.65646000  0.24401000  1.0
  C  C179  1  0.74129000  0.40179000  0.73574000  1.0
  C  C180  1  0.79026000  0.31086000  0.75819000  1.0
  C  C181  1  0.89624000  0.15380000  0.86717000  1.0
  S  S182  1  0.21099000  0.95447000  0.35455000  1.0
  S  S183  1  0.35068000  0.12237000  0.74765000  1.0
  S  S184  1  0.21077000  0.69071000  0.95459000  1.0
  S  S185  1  0.35111000  0.13062000  0.12191000  1.0
  S  S186  1  0.21125000  0.35540000  0.68930000  1.0
  S  S187  1  0.35230000  0.74656000  0.13096000  1.0
  S  S188  1  0.71098000  0.04552000  0.64545000  1.0
  S  S189  1  0.85068000  0.87762000  0.25234000  1.0
  S  S190  1  0.71076000  0.30946000  0.04532000  1.0
  S  S191  1  0.85102000  0.86941000  0.87815000  1.0
  S  S192  1  0.71132000  0.64461000  0.31094000  1.0
  S  S193  1  0.85223000  0.25333000  0.86908000  1.0
  N  N194  1  0.38305000  0.90225000  0.49774000  1.0
  N  N195  1  0.37288000  0.09866000  0.50958000  1.0
  N  N196  1  0.38298000  0.59992000  0.90256000  1.0
  N  N197  1  0.37251000  0.39167000  0.09852000  1.0
  N  N198  1  0.38317000  0.49810000  0.59964000  1.0
  N  N199  1  0.37284000  0.51000000  0.39145000  1.0
  N  N200  1  0.88304000  0.09773000  0.50226000  1.0
  N  N201  1  0.87287000  0.90131000  0.49042000  1.0
  N  N202  1  0.88299000  0.40009000  0.09743000  1.0
  N  N203  1  0.87249000  0.60830000  0.90146000  1.0
  N  N204  1  0.88320000  0.50188000  0.40037000  1.0
  N  N205  1  0.87288000  0.48998000  0.60855000  1.0
  O  O206  1  0.12663000  0.82095000  0.61751000  1.0
  O  O207  1  0.27970000  0.75588000  0.55387000  1.0
  O  O208  1  0.25054000  0.98117000  0.55554000  1.0
  O  O209  1  0.38974000  0.69613000  0.49454000  1.0
  O  O210  1  0.47824000  0.24429000  0.44931000  1.0
  O  O211  1  0.50594000  0.01898000  0.45135000  1.0
  O  O212  1  0.36630000  0.31065000  0.50015000  1.0
  O  O213  1  0.12650000  0.56205000  0.82104000  1.0
  O  O214  1  0.27980000  0.69018000  0.75619000  1.0
  O  O215  1  0.25004000  0.46373000  0.98125000  1.0
  O  O216  1  0.39103000  0.80835000  0.69609000  1.0
  O  O217  1  0.47818000  0.30623000  0.24381000  1.0
  O  O218  1  0.50595000  0.52916000  0.01908000  1.0
  O  O219  1  0.36611000  0.18926000  0.31011000  1.0
  O  O220  1  0.12646000  0.61733000  0.56166000  1.0
  O  O221  1  0.27987000  0.55415000  0.69000000  1.0
  O  O222  1  0.25018000  0.55519000  0.46347000  1.0
  O  O223  1  0.39097000  0.49610000  0.80821000  1.0
  O  O224  1  0.47865000  0.45016000  0.30599000  1.0
  O  O225  1  0.50618000  0.45216000  0.52894000  1.0
  O  O226  1  0.36658000  0.50045000  0.18908000  1.0
  O  O227  1  0.62662000  0.17904000  0.38247000  1.0
  O  O228  1  0.77967000  0.24409000  0.44614000  1.0
  O  O229  1  0.75053000  0.01881000  0.44445000  1.0
  O  O230  1  0.88972000  0.30384000  0.50545000  1.0
  O  O231  1  0.97823000  0.75569000  0.55069000  1.0
  O  O232  1  0.00593000  0.98100000  0.54864000  1.0
  O  O233  1  0.86630000  0.68932000  0.49986000  1.0
  O  O234  1  0.62650000  0.43791000  0.17897000  1.0
  O  O235  1  0.77986000  0.30984000  0.24384000  1.0
  O  O236  1  0.75004000  0.53629000  0.01873000  1.0
  O  O237  1  0.89113000  0.19169000  0.30392000  1.0
  O  O238  1  0.97817000  0.69373000  0.75616000  1.0
  O  O239  1  0.00594000  0.47082000  0.98089000  1.0
  O  O240  1  0.86614000  0.81071000  0.68986000  1.0
  O  O241  1  0.62645000  0.38270000  0.43831000  1.0
  O  O242  1  0.77983000  0.44590000  0.30997000  1.0
  O  O243  1  0.75022000  0.44478000  0.53654000  1.0
  O  O244  1  0.89087000  0.50400000  0.19172000  1.0
  O  O245  1  0.97867000  0.54984000  0.69399000  1.0
  O  O246  1  0.00620000  0.54783000  0.47104000  1.0
  O  O247  1  0.86662000  0.49953000  0.81092000  1.0
