# generated using pymatgen
data_ZnH6(CN2)4
_symmetry_space_group_name_H-M   'P 1'
_cell_length_a   9.48943000
_cell_length_b   9.48951000
_cell_length_c   9.58149000
_cell_angle_alpha   115.47900000
_cell_angle_beta   115.47800000
_cell_angle_gamma   90.66860000
_symmetry_Int_Tables_number   1
_chemical_formula_structural   ZnH6(CN2)4
_chemical_formula_sum   'Zn2 H12 C8 N16'
_cell_volume   682.35878609
_cell_formula_units_Z   2
loop_
 _symmetry_equiv_pos_site_id
 _symmetry_equiv_pos_as_xyz
  1  'x, y, z'
loop_
 _atom_site_type_symbol
 _atom_site_label
 _atom_site_symmetry_multiplicity
 _atom_site_fract_x
 _atom_site_fract_y
 _atom_site_fract_z
 _atom_site_occupancy
  Zn  Zn0  1  0.80402000  0.52070000  0.87843000  1.0
  Zn  Zn1  1  0.52070000  0.80402000  0.37843000  1.0
  H  H2  1  0.65257000  0.36593000  0.46160000  1.0
  H  H3  1  0.36593000  0.65258000  0.96159000  1.0
  H  H4  1  0.69430000  0.47465000  0.36584000  1.0
  H  H5  1  0.47464000  0.69431000  0.86583000  1.0
  H  H6  1  0.49453000  0.42194000  0.32301000  1.0
  H  H7  1  0.42193000  0.49454000  0.82300000  1.0
  H  H8  1  0.99014000  0.86050000  0.08566000  1.0
  H  H9  1  0.86051000  0.99014000  0.58565000  1.0
  H  H10  1  0.18837000  0.93539000  0.13549000  1.0
  H  H11  1  0.93539000  0.18836000  0.63548000  1.0
  H  H12  1  0.15496000  0.94296000  0.30522000  1.0
  H  H13  1  0.94297000  0.15495000  0.80521000  1.0
  C  C14  1  0.62158000  0.45977000  0.42427000  1.0
  C  C15  1  0.45976000  0.62158000  0.92425000  1.0
  C  C16  1  0.15094000  0.70901000  0.12724000  1.0
  C  C17  1  0.70902000  0.15094000  0.62724000  1.0
  C  C18  1  0.65242000  0.61469000  0.58019000  1.0
  C  C19  1  0.61470000  0.65242000  0.08020000  1.0
  C  C20  1  0.11799000  0.87001000  0.16458000  1.0
  C  C21  1  0.87001000  0.11799000  0.66457000  1.0
  N  N22  1  0.29391000  0.67901000  0.20621000  1.0
  N  N23  1  0.67901000  0.29391000  0.70621000  1.0
  N  N24  1  0.04309000  0.56669000  0.00913000  1.0
  N  N25  1  0.56668000  0.04308000  0.50914000  1.0
  N  N26  1  0.72429000  0.64760000  0.74953000  1.0
  N  N27  1  0.64759000  0.72428000  0.24951000  1.0
  N  N28  1  0.61435000  0.74889000  0.57500000  1.0
  N  N29  1  0.74888000  0.61435000  0.07499000  1.0
  N  N30  1  0.66428000  0.86517000  0.74369000  1.0
  N  N31  1  0.86517000  0.66427000  0.24368000  1.0
  N  N32  1  0.27144000  0.51595000  0.13534000  1.0
  N  N33  1  0.51595000  0.27143000  0.63534000  1.0
  N  N34  1  0.72964000  0.80476000  0.84812000  1.0
  N  N35  1  0.80476000  0.72964000  0.34810000  1.0
  N  N36  1  0.12158000  0.44919000  0.01821000  1.0
  N  N37  1  0.44919000  0.12158000  0.51821000  1.0
