# generated using pymatgen
data_Zn2H35C51N7O8
_symmetry_space_group_name_H-M   'P 1'
_cell_length_a   15.31330000
_cell_length_b   15.31330000
_cell_length_c   37.43450000
_cell_angle_alpha   86.10360000
_cell_angle_beta   86.10350000
_cell_angle_gamma   74.59890000
_symmetry_Int_Tables_number   1
_chemical_formula_structural   Zn2H35C51N7O8
_chemical_formula_sum   'Zn8 H140 C204 N28 O32'
_cell_volume   8432.12281362
_cell_formula_units_Z   4
loop_
 _symmetry_equiv_pos_site_id
 _symmetry_equiv_pos_as_xyz
  1  'x, y, z'
loop_
 _atom_site_type_symbol
 _atom_site_label
 _atom_site_symmetry_multiplicity
 _atom_site_fract_x
 _atom_site_fract_y
 _atom_site_fract_z
 _atom_site_occupancy
  Zn  Zn0  1  0.73791000  0.00174000  0.67538000  1.0
  Zn  Zn1  1  0.74953000  0.01248000  0.59836000  1.0
  Zn  Zn2  1  0.00174000  0.73790000  0.17538000  1.0
  Zn  Zn3  1  0.01248000  0.74953000  0.09836000  1.0
  Zn  Zn4  1  0.99826000  0.26210000  0.82462000  1.0
  Zn  Zn5  1  0.98752000  0.25047000  0.90164000  1.0
  Zn  Zn6  1  0.26210000  0.99826000  0.32462000  1.0
  Zn  Zn7  1  0.25047000  0.98752000  0.40164000  1.0
  H  H8  1  0.00290000  0.09244000  0.58831000  1.0
  H  H9  1  0.83591000  0.71276000  0.57850000  1.0
  H  H10  1  0.73046000  0.72638000  0.68771000  1.0
  H  H11  1  0.86725000  0.95293000  0.46509000  1.0
  H  H12  1  0.72786000  0.56479000  0.68861000  1.0
  H  H13  1  0.79130000  0.88630000  0.52800000  1.0
  H  H14  1  0.99280000  0.03426000  0.45346000  1.0
  H  H15  1  0.04480000  0.14069000  0.41036000  1.0
  H  H16  1  0.83729000  0.55030000  0.57939000  1.0
  H  H17  1  0.16113000  0.10982000  0.58800000  1.0
  H  H18  1  0.47644000  0.01219000  0.58001000  1.0
  H  H19  1  0.71276000  0.30570000  0.58090000  1.0
  H  H20  1  0.79249000  0.15683000  0.54093000  1.0
  H  H21  1  0.97164000  0.71960000  0.40979000  1.0
  H  H22  1  0.78522000  0.26271000  0.69056000  1.0
  H  H23  1  0.73556000  0.46078000  0.57912000  1.0
  H  H24  1  0.03104000  0.60987000  0.25252000  1.0
  H  H25  1  0.97218000  0.53392000  0.30556000  1.0
  H  H26  1  0.04284000  0.93636000  0.68806000  1.0
  H  H27  1  0.31293000  0.01470000  0.57998000  1.0
  H  H28  1  0.75547000  0.24636000  0.48298000  1.0
  H  H29  1  0.80950000  0.35463000  0.43973000  1.0
  H  H30  1  0.97028000  0.78978000  0.34856000  1.0
  H  H31  1  0.20151000  0.94871000  0.68719000  1.0
  H  H32  1  0.80996000  0.41693000  0.68912000  1.0
  H  H33  1  0.28506000  0.05665000  0.69339000  1.0
  H  H34  1  0.97217000  0.55549000  0.41935000  1.0
  H  H35  1  0.44842000  0.05444000  0.69271000  1.0
  H  H36  1  0.85476000  0.85380000  0.22988000  1.0
  H  H37  1  0.85955000  0.82911000  0.30182000  1.0
  H  H38  1  0.06313000  0.19023000  0.33505000  1.0
  H  H39  1  0.95897000  0.24495000  0.31443000  1.0
  H  H40  1  0.95789000  0.17865000  0.35560000  1.0
  H  H41  1  0.01458000  0.92159000  0.22626000  1.0
  H  H42  1  0.02897000  0.88337000  0.30258000  1.0
  H  H43  1  0.09244000  0.00290000  0.08831000  1.0
  H  H44  1  0.71275000  0.83592000  0.07850000  1.0
  H  H45  1  0.72637000  0.73046000  0.18771000  1.0
  H  H46  1  0.95293000  0.86726000  0.96509000  1.0
  H  H47  1  0.56479000  0.72787000  0.18860000  1.0
  H  H48  1  0.88630000  0.79130000  0.02799000  1.0
  H  H49  1  0.03426000  0.99280000  0.95346000  1.0
  H  H50  1  0.14069000  0.04480000  0.91036000  1.0
  H  H51  1  0.55029000  0.83730000  0.07939000  1.0
  H  H52  1  0.10982000  0.16113000  0.08800000  1.0
  H  H53  1  0.01219000  0.47644000  0.08001000  1.0
  H  H54  1  0.30570000  0.71275000  0.08089000  1.0
  H  H55  1  0.15682000  0.79248000  0.04093000  1.0
  H  H56  1  0.71960000  0.97164000  0.90980000  1.0
  H  H57  1  0.26271000  0.78522000  0.19056000  1.0
  H  H58  1  0.46077000  0.73555000  0.07912000  1.0
  H  H59  1  0.60987000  0.03104000  0.75252000  1.0
  H  H60  1  0.53392000  0.97218000  0.80556000  1.0
  H  H61  1  0.93635000  0.04284000  0.18806000  1.0
  H  H62  1  0.01470000  0.31293000  0.07998000  1.0
  H  H63  1  0.24636000  0.75547000  0.98298000  1.0
  H  H64  1  0.35463000  0.80950000  0.93973000  1.0
  H  H65  1  0.78979000  0.97028000  0.84857000  1.0
  H  H66  1  0.94871000  0.20151000  0.18719000  1.0
  H  H67  1  0.41693000  0.80996000  0.18911000  1.0
  H  H68  1  0.05666000  0.28506000  0.19339000  1.0
  H  H69  1  0.55549000  0.97217000  0.91935000  1.0
  H  H70  1  0.05445000  0.44842000  0.19271000  1.0
  H  H71  1  0.85380000  0.85476000  0.72988000  1.0
  H  H72  1  0.82912000  0.85955000  0.80182000  1.0
  H  H73  1  0.19023000  0.06313000  0.83505000  1.0
  H  H74  1  0.24495000  0.95898000  0.81444000  1.0
  H  H75  1  0.17866000  0.95789000  0.85560000  1.0
  H  H76  1  0.92158000  0.01459000  0.72626000  1.0
  H  H77  1  0.88336000  0.02898000  0.80258000  1.0
  H  H78  1  0.90755000  0.99710000  0.91168000  1.0
  H  H79  1  0.28724000  0.16409000  0.92150000  1.0
  H  H80  1  0.27362000  0.26954000  0.81229000  1.0
  H  H81  1  0.04708000  0.13275000  0.03491000  1.0
  H  H82  1  0.43521000  0.27214000  0.81140000  1.0
  H  H83  1  0.11370000  0.20870000  0.97200000  1.0
  H  H84  1  0.96574000  0.00720000  0.04654000  1.0
  H  H85  1  0.85931000  0.95520000  0.08964000  1.0
  H  H86  1  0.44970000  0.16271000  0.92061000  1.0
  H  H87  1  0.89018000  0.83887000  0.91200000  1.0
  H  H88  1  0.98781000  0.52357000  0.91999000  1.0
  H  H89  1  0.69429000  0.28724000  0.91911000  1.0
  H  H90  1  0.84318000  0.20752000  0.95907000  1.0
  H  H91  1  0.28040000  0.02835000  0.09020000  1.0
  H  H92  1  0.73729000  0.21478000  0.80944000  1.0
  H  H93  1  0.53922000  0.26445000  0.92088000  1.0
  H  H94  1  0.39014000  0.96900000  0.24748000  1.0
  H  H95  1  0.46608000  0.02783000  0.19444000  1.0
  H  H96  1  0.06366000  0.95716000  0.81194000  1.0
  H  H97  1  0.98530000  0.68708000  0.92002000  1.0
  H  H98  1  0.75364000  0.24453000  0.01701000  1.0
  H  H99  1  0.64537000  0.19051000  0.06027000  1.0
  H  H100  1  0.21022000  0.02971000  0.15143000  1.0
  H  H101  1  0.05131000  0.79848000  0.81281000  1.0
  H  H102  1  0.58307000  0.19004000  0.81088000  1.0
  H  H103  1  0.94336000  0.71495000  0.80661000  1.0
  H  H104  1  0.44452000  0.02784000  0.08065000  1.0
  H  H105  1  0.94556000  0.55158000  0.80729000  1.0
  H  H106  1  0.14616000  0.14519000  0.27012000  1.0
  H  H107  1  0.17085000  0.14040000  0.19818000  1.0
  H  H108  1  0.80977000  0.93687000  0.16495000  1.0
  H  H109  1  0.75505000  0.04103000  0.18556000  1.0
  H  H110  1  0.82135000  0.04212000  0.14440000  1.0
  H  H111  1  0.07847000  0.98531000  0.27375000  1.0
  H  H112  1  0.11667000  0.97093000  0.19742000  1.0
  H  H113  1  0.99710000  0.90756000  0.41168000  1.0
  H  H114  1  0.16409000  0.28724000  0.42150000  1.0
  H  H115  1  0.26954000  0.27363000  0.31229000  1.0
  H  H116  1  0.13275000  0.04708000  0.53491000  1.0
  H  H117  1  0.27213000  0.43521000  0.31140000  1.0
  H  H118  1  0.20870000  0.11370000  0.47200000  1.0
  H  H119  1  0.00720000  0.96574000  0.54654000  1.0
  H  H120  1  0.95520000  0.85931000  0.58964000  1.0
  H  H121  1  0.16271000  0.44970000  0.42061000  1.0
  H  H122  1  0.83888000  0.89018000  0.41200000  1.0
  H  H123  1  0.52357000  0.98780000  0.41999000  1.0
  H  H124  1  0.28725000  0.69430000  0.41911000  1.0
  H  H125  1  0.20752000  0.84318000  0.45907000  1.0
  H  H126  1  0.02835000  0.28040000  0.59020000  1.0
  H  H127  1  0.21478000  0.73729000  0.30944000  1.0
  H  H128  1  0.26445000  0.53923000  0.42088000  1.0
  H  H129  1  0.96900000  0.39014000  0.74748000  1.0
  H  H130  1  0.02783000  0.46608000  0.69444000  1.0
  H  H131  1  0.95716000  0.06366000  0.31194000  1.0
  H  H132  1  0.68708000  0.98530000  0.42002000  1.0
  H  H133  1  0.24453000  0.75364000  0.51702000  1.0
  H  H134  1  0.19050000  0.64537000  0.56027000  1.0
  H  H135  1  0.02971000  0.21022000  0.65143000  1.0
  H  H136  1  0.79848000  0.05131000  0.31281000  1.0
  H  H137  1  0.19004000  0.58307000  0.31089000  1.0
  H  H138  1  0.71495000  0.94336000  0.30661000  1.0
  H  H139  1  0.02784000  0.44452000  0.58065000  1.0
  H  H140  1  0.55158000  0.94556000  0.30729000  1.0
  H  H141  1  0.14519000  0.14617000  0.77011000  1.0
  H  H142  1  0.14039000  0.17086000  0.69818000  1.0
  H  H143  1  0.93688000  0.80977000  0.66495000  1.0
  H  H144  1  0.04103000  0.75505000  0.68557000  1.0
  H  H145  1  0.04212000  0.82135000  0.64440000  1.0
  H  H146  1  0.98531000  0.07847000  0.77375000  1.0
  H  H147  1  0.97093000  0.11667000  0.69742000  1.0
  C  C148  1  0.04776000  0.06059000  0.60960000  1.0
  C  C149  1  0.78174000  0.73064000  0.63294000  1.0
  C  C150  1  0.91826000  0.00301000  0.63796000  1.0
  C  C151  1  0.01358000  0.01206000  0.63782000  1.0
  C  C152  1  0.81189000  0.68003000  0.60254000  1.0
  C  C153  1  0.77629000  0.83011000  0.63252000  1.0
  C  C154  1  0.75377000  0.68705000  0.66410000  1.0
  C  C155  1  0.78091000  0.54559000  0.63386000  1.0
  C  C156  1  0.57200000  0.02463000  0.63694000  1.0
  C  C157  1  0.87053000  0.13387000  0.47061000  1.0
  C  C158  1  0.73323000  0.18046000  0.63669000  1.0
  C  C159  1  0.95394000  0.31982000  0.39510000  1.0
  C  C160  1  0.84107000  0.98353000  0.49018000  1.0
  C  C161  1  0.75319000  0.59635000  0.66452000  1.0
  C  C162  1  0.80240000  0.95246000  0.52092000  1.0
  C  C163  1  0.97160000  0.66673000  0.32289000  1.0
  C  C164  1  0.47244000  0.03206000  0.63644000  1.0
  C  C165  1  0.95138000  0.10384000  0.45010000  1.0
  C  C166  1  0.92853000  0.25426000  0.42127000  1.0
  C  C167  1  0.77372000  0.45101000  0.63411000  1.0
  C  C168  1  0.98017000  0.16396000  0.42540000  1.0
  C  C169  1  0.81177000  0.58900000  0.60305000  1.0
  C  C170  1  0.13592000  0.06936000  0.60938000  1.0
  C  C171  1  0.74713000  0.27423000  0.63584000  1.0
  C  C172  1  0.43349000  0.02274000  0.60458000  1.0
  C  C173  1  0.97252000  0.44120000  0.36893000  1.0
  C  C174  1  0.19297000  0.02913000  0.63724000  1.0
  C  C175  1  0.73486000  0.33047000  0.60442000  1.0
  C  C176  1  0.28770000  0.03484000  0.63673000  1.0
  C  C177  1  0.80039000  0.09273000  0.52875000  1.0
  C  C178  1  0.97197000  0.67870000  0.38704000  1.0
  C  C179  1  0.77447000  0.30669000  0.66624000  1.0
  C  C180  1  0.74809000  0.41714000  0.60353000  1.0
  C  C181  1  0.99107000  0.67960000  0.25567000  1.0
  C  C182  1  0.97447000  0.57486000  0.32802000  1.0
  C  C183  1  0.97489000  0.53563000  0.36294000  1.0
  C  C184  1  0.06963000  0.97307000  0.66588000  1.0
  C  C185  1  0.34212000  0.02472000  0.60469000  1.0
  C  C186  1  0.81924000  0.22423000  0.46725000  1.0
  C  C187  1  0.84876000  0.28419000  0.44291000  1.0
  C  C188  1  0.97111000  0.71861000  0.35249000  1.0
  C  C189  1  0.15801000  0.98109000  0.66555000  1.0
  C  C190  1  0.78758000  0.39339000  0.66533000  1.0
  C  C191  1  0.32679000  0.04649000  0.66842000  1.0
  C  C192  1  0.97325000  0.58766000  0.39254000  1.0
  C  C193  1  0.41786000  0.04555000  0.66823000  1.0
  C  C194  1  0.91931000  0.82593000  0.24283000  1.0
  C  C195  1  0.92185000  0.80940000  0.28464000  1.0
  C  C196  1  0.99128000  0.22479000  0.34004000  1.0
  C  C197  1  0.98266000  0.88513000  0.24674000  1.0
  C  C198  1  0.98838000  0.86760000  0.28239000  1.0
  C  C199  1  0.06059000  0.04776000  0.10960000  1.0
  C  C200  1  0.73064000  0.78174000  0.13293000  1.0
  C  C201  1  0.00301000  0.91826000  0.13796000  1.0
  C  C202  1  0.01206000  0.01358000  0.13782000  1.0
  C  C203  1  0.68003000  0.81189000  0.10253000  1.0
  C  C204  1  0.83010000  0.77629000  0.13252000  1.0
  C  C205  1  0.68704000  0.75378000  0.16410000  1.0
  C  C206  1  0.54559000  0.78091000  0.13385000  1.0
  C  C207  1  0.02463000  0.57200000  0.13694000  1.0
  C  C208  1  0.13388000  0.87053000  0.97060000  1.0
  C  C209  1  0.18046000  0.73323000  0.13669000  1.0
  C  C210  1  0.31982000  0.95394000  0.89510000  1.0
  C  C211  1  0.98353000  0.84107000  0.99017000  1.0
  C  C212  1  0.59634000  0.75319000  0.16451000  1.0
  C  C213  1  0.95246000  0.80239000  0.02092000  1.0
  C  C214  1  0.66673000  0.97160000  0.82290000  1.0
  C  C215  1  0.03206000  0.47244000  0.13644000  1.0
  C  C216  1  0.10384000  0.95138000  0.95010000  1.0
  C  C217  1  0.25426000  0.92853000  0.92127000  1.0
  C  C218  1  0.45101000  0.77372000  0.13411000  1.0
  C  C219  1  0.16396000  0.98017000  0.92540000  1.0
  C  C220  1  0.58900000  0.81177000  0.10305000  1.0
  C  C221  1  0.06936000  0.13592000  0.10938000  1.0
  C  C222  1  0.27423000  0.74712000  0.13584000  1.0
  C  C223  1  0.02275000  0.43349000  0.10458000  1.0
  C  C224  1  0.44120000  0.97252000  0.86894000  1.0
  C  C225  1  0.02913000  0.19297000  0.13724000  1.0
  C  C226  1  0.33048000  0.73486000  0.10442000  1.0
  C  C227  1  0.03485000  0.28770000  0.13673000  1.0
  C  C228  1  0.09273000  0.80039000  0.02875000  1.0
  C  C229  1  0.67870000  0.97197000  0.88704000  1.0
  C  C230  1  0.30669000  0.77446000  0.16623000  1.0
  C  C231  1  0.41714000  0.74809000  0.10353000  1.0
  C  C232  1  0.67960000  0.99107000  0.75567000  1.0
  C  C233  1  0.57486000  0.97447000  0.82802000  1.0
  C  C234  1  0.53563000  0.97489000  0.86294000  1.0
  C  C235  1  0.97307000  0.06962000  0.16588000  1.0
  C  C236  1  0.02472000  0.34212000  0.10469000  1.0
  C  C237  1  0.22423000  0.81924000  0.96725000  1.0
  C  C238  1  0.28419000  0.84876000  0.94291000  1.0
  C  C239  1  0.71861000  0.97111000  0.85249000  1.0
  C  C240  1  0.98109000  0.15801000  0.16555000  1.0
  C  C241  1  0.39339000  0.78758000  0.16533000  1.0
  C  C242  1  0.04649000  0.32679000  0.16842000  1.0
  C  C243  1  0.58766000  0.97325000  0.89254000  1.0
  C  C244  1  0.04556000  0.41785000  0.16823000  1.0
  C  C245  1  0.82593000  0.91931000  0.74283000  1.0
  C  C246  1  0.80940000  0.92186000  0.78464000  1.0
  C  C247  1  0.22479000  0.99128000  0.84004000  1.0
  C  C248  1  0.88513000  0.98266000  0.74674000  1.0
  C  C249  1  0.86760000  0.98838000  0.78239000  1.0
  C  C250  1  0.93941000  0.95225000  0.89039000  1.0
  C  C251  1  0.26936000  0.21826000  0.86706000  1.0
  C  C252  1  0.99699000  0.08174000  0.86204000  1.0
  C  C253  1  0.98795000  0.98642000  0.86218000  1.0
  C  C254  1  0.31997000  0.18811000  0.89746000  1.0
  C  C255  1  0.16989000  0.22371000  0.86748000  1.0
  C  C256  1  0.31296000  0.24623000  0.83590000  1.0
  C  C257  1  0.45441000  0.21909000  0.86614000  1.0
  C  C258  1  0.97536000  0.42801000  0.86306000  1.0
  C  C259  1  0.86613000  0.12947000  0.02939000  1.0
  C  C260  1  0.81954000  0.26677000  0.86331000  1.0
  C  C261  1  0.68018000  0.04607000  0.10490000  1.0
  C  C262  1  0.01647000  0.15893000  0.00982000  1.0
  C  C263  1  0.40365000  0.24681000  0.83548000  1.0
  C  C264  1  0.04754000  0.19761000  0.97908000  1.0
  C  C265  1  0.33333333  0.02840000  0.17710000  1.0
  C  C266  1  0.96794000  0.52757000  0.86356000  1.0
  C  C267  1  0.89616000  0.04862000  0.04990000  1.0
  C  C268  1  0.74574000  0.07147000  0.07872000  1.0
  C  C269  1  0.54899000  0.22628000  0.86589000  1.0
  C  C270  1  0.83604000  0.01983000  0.07460000  1.0
  C  C271  1  0.41100000  0.18823000  0.89695000  1.0
  C  C272  1  0.93064000  0.86409000  0.89062000  1.0
  C  C273  1  0.72577000  0.25288000  0.86416000  1.0
  C  C274  1  0.97725000  0.56651000  0.89542000  1.0
  C  C275  1  0.55880000  0.02749000  0.13107000  1.0
  C  C276  1  0.97088000  0.80703000  0.86276000  1.0
  C  C277  1  0.66953000  0.26514000  0.89558000  1.0
  C  C278  1  0.96516000  0.71231000  0.86327000  1.0
  C  C279  1  0.90727000  0.19961000  0.97125000  1.0
  C  C280  1  0.32130000  0.02802000  0.11296000  1.0
  C  C281  1  0.69331000  0.22554000  0.83376000  1.0
  C  C282  1  0.58286000  0.25191000  0.89647000  1.0
  C  C283  1  0.32040000  0.00894000  0.24433000  1.0
  C  C284  1  0.42514000  0.02554000  0.17198000  1.0
  C  C285  1  0.46437000  0.02512000  0.13706000  1.0
  C  C286  1  0.02695000  0.93037000  0.83412000  1.0
  C  C287  1  0.97528000  0.65788000  0.89531000  1.0
  C  C288  1  0.77578000  0.18077000  0.03275000  1.0
  C  C289  1  0.71581000  0.15124000  0.05709000  1.0
  C  C290  1  0.28139000  0.02888000  0.14750000  1.0
  C  C291  1  0.01892000  0.84199000  0.83445000  1.0
  C  C292  1  0.60661000  0.21242000  0.83467000  1.0
  C  C293  1  0.95352000  0.67321000  0.83158000  1.0
  C  C294  1  0.41235000  0.02676000  0.10746000  1.0
  C  C295  1  0.95445000  0.58215000  0.83177000  1.0
  C  C296  1  0.17406000  0.08064000  0.25717000  1.0
  C  C297  1  0.19059000  0.07809000  0.21536000  1.0
  C  C298  1  0.77521000  0.00872000  0.15996000  1.0
  C  C299  1  0.11490000  0.01725000  0.25327000  1.0
  C  C300  1  0.13243000  0.01153000  0.21761000  1.0
  C  C301  1  0.95225000  0.93941000  0.39040000  1.0
  C  C302  1  0.21826000  0.26936000  0.36707000  1.0
  C  C303  1  0.08174000  0.99699000  0.36204000  1.0
  C  C304  1  0.98642000  0.98795000  0.36218000  1.0
  C  C305  1  0.18811000  0.31997000  0.39747000  1.0
  C  C306  1  0.22371000  0.16989000  0.36748000  1.0
  C  C307  1  0.24623000  0.31296000  0.33590000  1.0
  C  C308  1  0.21909000  0.45441000  0.36615000  1.0
  C  C309  1  0.42801000  0.97536000  0.36306000  1.0
  C  C310  1  0.12948000  0.86613000  0.52940000  1.0
  C  C311  1  0.26677000  0.81955000  0.36331000  1.0
  C  C312  1  0.04607000  0.68019000  0.60490000  1.0
  C  C313  1  0.15893000  0.01648000  0.50982000  1.0
  C  C314  1  0.24681000  0.40366000  0.33548000  1.0
  C  C315  1  0.19760000  0.04755000  0.47908000  1.0
  C  C316  1  0.02840000  0.33333333  0.67710000  1.0
  C  C317  1  0.52757000  0.96794000  0.36356000  1.0
  C  C318  1  0.04862000  0.89617000  0.54990000  1.0
  C  C319  1  0.07147000  0.74574000  0.57873000  1.0
  C  C320  1  0.22629000  0.54899000  0.36589000  1.0
  C  C321  1  0.01983000  0.83605000  0.57460000  1.0
  C  C322  1  0.18824000  0.41100000  0.39695000  1.0
  C  C323  1  0.86409000  0.93064000  0.39062000  1.0
  C  C324  1  0.25288000  0.72577000  0.36416000  1.0
  C  C325  1  0.56652000  0.97725000  0.39542000  1.0
  C  C326  1  0.02749000  0.55880000  0.63107000  1.0
  C  C327  1  0.80703000  0.97088000  0.36276000  1.0
  C  C328  1  0.26514000  0.66952000  0.39558000  1.0
  C  C329  1  0.71231000  0.96516000  0.36327000  1.0
  C  C330  1  0.19961000  0.90727000  0.47125000  1.0
  C  C331  1  0.02803000  0.32130000  0.61296000  1.0
  C  C332  1  0.22554000  0.69331000  0.33376000  1.0
  C  C333  1  0.25192000  0.58286000  0.39647000  1.0
  C  C334  1  0.00894000  0.32040000  0.74433000  1.0
  C  C335  1  0.02554000  0.42514000  0.67198000  1.0
  C  C336  1  0.02512000  0.46437000  0.63707000  1.0
  C  C337  1  0.93037000  0.02695000  0.33412000  1.0
  C  C338  1  0.65789000  0.97528000  0.39531000  1.0
  C  C339  1  0.18077000  0.77578000  0.53275000  1.0
  C  C340  1  0.15124000  0.71581000  0.55709000  1.0
  C  C341  1  0.02888000  0.28139000  0.64750000  1.0
  C  C342  1  0.84199000  0.01892000  0.33445000  1.0
  C  C343  1  0.21242000  0.60661000  0.33467000  1.0
  C  C344  1  0.67321000  0.95352000  0.33158000  1.0
  C  C345  1  0.02676000  0.41235000  0.60746000  1.0
  C  C346  1  0.58215000  0.95445000  0.33177000  1.0
  C  C347  1  0.08065000  0.17406000  0.75717000  1.0
  C  C348  1  0.07809000  0.19059000  0.71536000  1.0
  C  C349  1  0.00872000  0.77521000  0.65996000  1.0
  C  C350  1  0.01726000  0.11490000  0.75326000  1.0
  C  C351  1  0.01153000  0.13242000  0.71762000  1.0
  N  N352  1  0.96841000  0.73773000  0.22860000  1.0
  N  N353  1  0.83928000  0.07287000  0.49544000  1.0
  N  N354  1  0.77760000  0.02117000  0.54459000  1.0
  N  N355  1  0.98046000  0.30508000  0.35995000  1.0
  N  N356  1  0.99224000  0.38205000  0.34288000  1.0
  N  N357  1  0.94816000  0.40593000  0.40139000  1.0
  N  N358  1  0.96369000  0.71159000  0.28876000  1.0
  N  N359  1  0.73773000  0.96841000  0.72860000  1.0
  N  N360  1  0.07287000  0.83928000  0.99544000  1.0
  N  N361  1  0.02117000  0.77760000  0.04458000  1.0
  N  N362  1  0.30508000  0.98046000  0.85995000  1.0
  N  N363  1  0.38205000  0.99225000  0.84288000  1.0
  N  N364  1  0.40593000  0.94816000  0.90139000  1.0
  N  N365  1  0.71159000  0.96369000  0.78877000  1.0
  N  N366  1  0.26227000  0.03158000  0.27140000  1.0
  N  N367  1  0.92713000  0.16072000  0.00456000  1.0
  N  N368  1  0.97883000  0.22240000  0.95541000  1.0
  N  N369  1  0.69492000  0.01954000  0.14005000  1.0
  N  N370  1  0.61795000  0.00776000  0.15712000  1.0
  N  N371  1  0.59407000  0.05185000  0.09861000  1.0
  N  N372  1  0.28841000  0.03629000  0.21123000  1.0
  N  N373  1  0.03158000  0.26227000  0.77140000  1.0
  N  N374  1  0.16072000  0.92713000  0.50456000  1.0
  N  N375  1  0.22240000  0.97883000  0.45541000  1.0
  N  N376  1  0.01954000  0.69493000  0.64005000  1.0
  N  N377  1  0.00776000  0.61795000  0.65712000  1.0
  N  N378  1  0.05185000  0.59407000  0.59861000  1.0
  N  N379  1  0.03629000  0.28841000  0.71123000  1.0
  O  O380  1  0.79340000  0.87024000  0.60284000  1.0
  O  O381  1  0.61867000  0.00827000  0.60745000  1.0
  O  O382  1  0.71569000  0.15215000  0.60741000  1.0
  O  O383  1  0.88006000  0.02135000  0.60821000  1.0
  O  O384  1  0.75408000  0.86831000  0.66222000  1.0
  O  O385  1  0.74198000  0.13518000  0.66676000  1.0
  O  O386  1  0.88339000  0.97751000  0.66730000  1.0
  O  O387  1  0.60243000  0.03364000  0.66691000  1.0
  O  O388  1  0.87023000  0.79340000  0.10283000  1.0
  O  O389  1  0.00827000  0.61866000  0.10745000  1.0
  O  O390  1  0.15215000  0.71569000  0.10741000  1.0
  O  O391  1  0.02134000  0.88006000  0.10821000  1.0
  O  O392  1  0.86831000  0.75408000  0.16221000  1.0
  O  O393  1  0.13517000  0.74198000  0.16676000  1.0
  O  O394  1  0.97751000  0.88339000  0.16730000  1.0
  O  O395  1  0.03364000  0.60243000  0.16691000  1.0
  O  O396  1  0.12976000  0.20660000  0.89717000  1.0
  O  O397  1  0.99172000  0.38134000  0.89255000  1.0
  O  O398  1  0.84785000  0.28431000  0.89259000  1.0
  O  O399  1  0.97866000  0.11994000  0.89179000  1.0
  O  O400  1  0.13169000  0.24592000  0.83779000  1.0
  O  O401  1  0.86483000  0.25802000  0.83324000  1.0
  O  O402  1  0.02250000  0.11662000  0.83271000  1.0
  O  O403  1  0.96636000  0.39758000  0.83309000  1.0
  O  O404  1  0.20661000  0.12976000  0.39717000  1.0
  O  O405  1  0.38134000  0.99172000  0.39255000  1.0
  O  O406  1  0.28431000  0.84785000  0.39259000  1.0
  O  O407  1  0.11994000  0.97866000  0.39179000  1.0
  O  O408  1  0.24593000  0.13169000  0.33778000  1.0
  O  O409  1  0.25802000  0.86483000  0.33324000  1.0
  O  O410  1  0.11662000  0.02250000  0.33270000  1.0
  O  O411  1  0.39758000  0.96636000  0.33309000  1.0
