# generated using pymatgen
data_CdH16C18(NO3)2
_symmetry_space_group_name_H-M   'P 1'
_cell_length_a   7.64810000
_cell_length_b   9.99626000
_cell_length_c   11.69910000
_cell_angle_alpha   89.99880000
_cell_angle_beta   89.99960000
_cell_angle_gamma   90.73280000
_symmetry_Int_Tables_number   1
_chemical_formula_structural   CdH16C18(NO3)2
_chemical_formula_sum   'Cd2 H32 C36 N4 O12'
_cell_volume   894.35107387
_cell_formula_units_Z   2
loop_
 _symmetry_equiv_pos_site_id
 _symmetry_equiv_pos_as_xyz
  1  'x, y, z'
loop_
 _atom_site_type_symbol
 _atom_site_label
 _atom_site_symmetry_multiplicity
 _atom_site_fract_x
 _atom_site_fract_y
 _atom_site_fract_z
 _atom_site_occupancy
  Cd  Cd0  1  0.75001000  0.75000000  0.22595000  1.0
  Cd  Cd1  1  0.25000000  0.24999000  0.77405000  1.0
  H  H2  1  0.47904000  0.75629000  0.01843000  1.0
  H  H3  1  0.97902000  0.25629000  0.98157000  1.0
  H  H4  1  0.52097000  0.24370000  0.98157000  1.0
  H  H5  1  0.02098000  0.74368000  0.01843000  1.0
  H  H6  1  0.03200000  0.74613000  0.80485000  1.0
  H  H7  1  0.53200000  0.24615000  0.19514000  1.0
  H  H8  1  0.96800000  0.25385000  0.19515000  1.0
  H  H9  1  0.46800000  0.75385000  0.80486000  1.0
  H  H10  1  0.93055000  0.91722000  0.64530000  1.0
  H  H11  1  0.43055000  0.41723000  0.35470000  1.0
  H  H12  1  0.06945000  0.08277000  0.35470000  1.0
  H  H13  1  0.56944000  0.58277000  0.64531000  1.0
  H  H14  1  0.07428000  0.54030000  0.43020000  1.0
  H  H15  1  0.57428000  0.04031000  0.56980000  1.0
  H  H16  1  0.92573000  0.45973000  0.56982000  1.0
  H  H17  1  0.42574000  0.95971000  0.43018000  1.0
  H  H18  1  0.91904000  0.91267000  0.43029000  1.0
  H  H19  1  0.41903000  0.41270000  0.56972000  1.0
  H  H20  1  0.08094000  0.08733000  0.56972000  1.0
  H  H21  1  0.58095000  0.58730000  0.43029000  1.0
  H  H22  1  0.05250000  0.92878000  0.18820000  1.0
  H  H23  1  0.55249000  0.42878000  0.81179000  1.0
  H  H24  1  0.94750000  0.07122000  0.81179000  1.0
  H  H25  1  0.44750000  0.57122000  0.18821000  1.0
  H  H26  1  0.86887000  0.99765000  0.15848000  1.0
  H  H27  1  0.36885000  0.49764000  0.84151000  1.0
  H  H28  1  0.13113000  0.00235000  0.84153000  1.0
  H  H29  1  0.63114000  0.50235000  0.15849000  1.0
  H  H30  1  0.16598000  0.64129000  0.61557000  1.0
  H  H31  1  0.66598000  0.14130000  0.38443000  1.0
  H  H32  1  0.83403000  0.35875000  0.38443000  1.0
  H  H33  1  0.33402000  0.85875000  0.61556000  1.0
  C  C34  1  0.84476000  0.84104000  0.48160000  1.0
  C  C35  1  0.34474000  0.34104000  0.51840000  1.0
  C  C36  1  0.15523000  0.15897000  0.51841000  1.0
  C  C37  1  0.65525000  0.65896000  0.48161000  1.0
  C  C38  1  0.85029000  0.84340000  0.60022000  1.0
  C  C39  1  0.35030000  0.34341000  0.39979000  1.0
  C  C40  1  0.14970000  0.15660000  0.39979000  1.0
  C  C41  1  0.64970000  0.65659000  0.60021000  1.0
  C  C42  1  0.74999000  0.74999000  0.78770000  1.0
  C  C43  1  0.25001000  0.25000000  0.21230000  1.0
  C  C44  1  0.75000000  0.75000000  0.66168000  1.0
  C  C45  1  0.25000000  0.25000000  0.33832000  1.0
  C  C46  1  0.90684000  0.74916000  0.84918000  1.0
  C  C47  1  0.40684000  0.24918000  0.15083000  1.0
  C  C48  1  0.09316000  0.25082000  0.15083000  1.0
  C  C49  1  0.59317000  0.75081000  0.84917000  1.0
  C  C50  1  0.90143000  0.74767000  0.96781000  1.0
  C  C51  1  0.40145000  0.24768000  0.03218000  1.0
  C  C52  1  0.09857000  0.25231000  0.03219000  1.0
  C  C53  1  0.59856000  0.75230000  0.96783000  1.0
  C  C54  1  0.19930000  0.69074000  0.32709000  1.0
  C  C55  1  0.69930000  0.19075000  0.67290000  1.0
  C  C56  1  0.80072000  0.30927000  0.67291000  1.0
  C  C57  1  0.30071000  0.80926000  0.32708000  1.0
  C  C58  1  0.14365000  0.62222000  0.21739000  1.0
  C  C59  1  0.64364000  0.12223000  0.78261000  1.0
  C  C60  1  0.85635000  0.37777000  0.78262000  1.0
  C  C61  1  0.35638000  0.87776000  0.21738000  1.0
  C  C62  1  0.34757000  0.86795000  0.43165000  1.0
  C  C63  1  0.84755000  0.36796000  0.56834000  1.0
  C  C64  1  0.65245000  0.13207000  0.56834000  1.0
  C  C65  1  0.15245000  0.63206000  0.43166000  1.0
  C  C66  1  0.29744000  0.81023000  0.53528000  1.0
  C  C67  1  0.79745000  0.31024000  0.46471000  1.0
  C  C68  1  0.70256000  0.18980000  0.46471000  1.0
  C  C69  1  0.20256000  0.68980000  0.53529000  1.0
  N  N70  1  0.74999000  0.74998000  0.42301000  1.0
  N  N71  1  0.25000000  0.25002000  0.57700000  1.0
  N  N72  1  0.75002000  0.74999000  0.02607000  1.0
  N  N73  1  0.24998000  0.24999000  0.97394000  1.0
  O  O74  1  0.92656000  0.94595000  0.21767000  1.0
  O  O75  1  0.42655000  0.44595000  0.78232000  1.0
  O  O76  1  0.07345000  0.05404000  0.78234000  1.0
  O  O77  1  0.57345000  0.55405000  0.21768000  1.0
  O  O78  1  0.98102000  0.59938000  0.20299000  1.0
  O  O79  1  0.48103000  0.09939000  0.79700000  1.0
  O  O80  1  0.01897000  0.40060000  0.79702000  1.0
  O  O81  1  0.51897000  0.90059000  0.20298000  1.0
  O  O82  1  0.26182000  0.58817000  0.14726000  1.0
  O  O83  1  0.76183000  0.08817000  0.85274000  1.0
  O  O84  1  0.73816000  0.41182000  0.85275000  1.0
  O  O85  1  0.23817000  0.91182000  0.14724000  1.0
