# generated using pymatgen
data_Zn4H34C59N4(ClO13)2
_symmetry_space_group_name_H-M   'P 1'
_cell_length_a   9.76665000
_cell_length_b   11.06970000
_cell_length_c   21.83450000
_cell_angle_alpha   89.73360000
_cell_angle_beta   89.02450000
_cell_angle_gamma   89.66780000
_symmetry_Int_Tables_number   1
_chemical_formula_structural   Zn4H34C59N4(ClO13)2
_chemical_formula_sum   'Zn4 H34 C59 N4 Cl2 O26'
_cell_volume   2360.20638085
_cell_formula_units_Z   1
loop_
 _symmetry_equiv_pos_site_id
 _symmetry_equiv_pos_as_xyz
  1  'x, y, z'
loop_
 _atom_site_type_symbol
 _atom_site_label
 _atom_site_symmetry_multiplicity
 _atom_site_fract_x
 _atom_site_fract_y
 _atom_site_fract_z
 _atom_site_occupancy
  Zn  Zn0  1  0.34384000  0.47420000  0.51146000  1.0
  Zn  Zn1  1  0.62742000  0.47242000  0.49996000  1.0
  Zn  Zn2  1  0.66278000  0.52506000  0.00369000  1.0
  Zn  Zn3  1  0.37705000  0.52546000  0.00187000  1.0
  H  H4  1  0.83009000  0.36920000  0.57804000  1.0
  H  H5  1  0.89237000  0.56143000  0.36299000  1.0
  H  H6  1  0.88291000  0.69453000  0.40923000  1.0
  H  H7  1  0.14278000  0.68661000  0.42097000  1.0
  H  H8  1  0.14984000  0.55459000  0.37436000  1.0
  H  H9  1  0.26786000  0.87307000  0.47495000  1.0
  H  H10  1  0.76503000  0.83353000  0.56983000  1.0
  H  H11  1  0.81409000  0.84912000  0.49123000  1.0
  H  H12  1  0.82394000  0.07493000  0.50234000  1.0
  H  H13  1  0.77139000  0.05998000  0.58114000  1.0
  H  H14  1  0.29873000  0.34670000  0.12825000  1.0
  H  H15  1  0.24747000  0.32332000  0.35498000  1.0
  H  H16  1  0.66407000  0.54494000  0.31713000  1.0
  H  H17  1  0.68210000  0.56552000  0.20322000  1.0
  H  H18  1  0.74099000  0.56884000  0.80768000  1.0
  H  H19  1  0.19898000  0.49448000  0.80977000  1.0
  H  H20  1  0.20210000  0.65505000  0.81020000  1.0
  H  H21  1  0.20780000  0.65340000  0.69410000  1.0
  H  H22  1  0.20192000  0.49302000  0.69593000  1.0
  H  H23  1  0.16068000  0.45833000  0.90924000  1.0
  H  H24  1  0.13718000  0.52192000  0.14559000  1.0
  H  H25  1  0.12376000  0.67423000  0.11931000  1.0
  H  H26  1  0.86393000  0.65398000  0.11749000  1.0
  H  H27  1  0.88003000  0.49983000  0.14229000  1.0
  H  H28  1  0.75164000  0.91409000  0.02710000  1.0
  H  H29  1  0.23859000  0.89843000  0.94803000  1.0
  H  H30  1  0.20400000  0.90393000  0.02848000  1.0
  H  H31  1  0.19809000  0.13147000  0.02395000  1.0
  H  H32  1  0.23123000  0.12623000  0.94349000  1.0
  H  H33  1  0.94712000  0.21779000  0.59441000  1.0
  H  H34  1  0.17887000  0.07530000  0.55834000  1.0
  H  H35  1  0.86673000  0.46374000  0.74563000  1.0
  H  H36  1  0.74244000  0.33368000  0.93161000  1.0
  H  H37  1  0.85270000  0.09589000  0.95249000  1.0
  C  C38  1  0.47367000  0.70831000  0.49204000  1.0
  C  C39  1  0.47535000  0.44904000  0.38567000  1.0
  C  C40  1  0.49837000  0.23748000  0.51188000  1.0
  C  C41  1  0.51517000  0.52313000  0.61947000  1.0
  C  C42  1  0.54037000  0.75767000  0.01236000  1.0
  C  C43  1  0.50611000  0.49299000  0.12007000  1.0
  C  C44  1  0.52203000  0.28544000  0.99927000  1.0
  C  C45  1  0.52168000  0.55061000  0.88522000  1.0
  C  C46  1  0.92435000  0.52713000  0.46088000  1.0
  C  C47  1  0.04162000  0.40176000  0.55008000  1.0
  C  C48  1  0.06672000  0.52218000  0.46715000  1.0
  C  C49  1  0.89955000  0.41041000  0.54455000  1.0
  C  C50  1  0.93107000  0.60521000  0.40420000  1.0
  C  C51  1  0.09283000  0.60053000  0.41125000  1.0
  C  C52  1  0.47969000  0.84298000  0.49597000  1.0
  C  C53  1  0.49108000  0.10325000  0.50650000  1.0
  C  C54  1  0.59938000  0.90326000  0.51079000  1.0
  C  C55  1  0.36870000  0.04287000  0.49117000  1.0
  C  C56  1  0.60419000  0.02895000  0.51607000  1.0
  C  C57  1  0.36381000  0.91667000  0.48660000  1.0
  C  C58  1  0.74798000  0.88620000  0.52786000  1.0
  C  C59  1  0.75355000  0.02847000  0.53422000  1.0
  C  C60  1  0.49767000  0.46831000  0.18738000  1.0
  C  C61  1  0.38570000  0.40334000  0.21436000  1.0
  C  C62  1  0.59709000  0.51636000  0.22430000  1.0
  C  C63  1  0.28710000  0.34563000  0.17786000  1.0
  C  C64  1  0.17467000  0.28932000  0.20382000  1.0
  C  C65  1  0.47644000  0.44842000  0.31668000  1.0
  C  C66  1  0.58645000  0.50577000  0.28818000  1.0
  C  C67  1  0.37263000  0.39497000  0.28011000  1.0
  C  C68  1  0.25794000  0.33295000  0.30556000  1.0
  C  C69  1  0.15913000  0.28421000  0.26867000  1.0
  C  C70  1  0.52196000  0.56441000  0.81755000  1.0
  C  C71  1  0.52348000  0.55647000  0.68554000  1.0
  C  C72  1  0.40187000  0.57085000  0.78438000  1.0
  C  C73  1  0.64794000  0.56221000  0.71869000  1.0
  C  C74  1  0.40363000  0.56823000  0.72026000  1.0
  C  C75  1  0.64521000  0.56549000  0.78281000  1.0
  C  C76  1  0.24693000  0.57410000  0.78868000  1.0
  C  C77  1  0.24893000  0.57226000  0.71646000  1.0
  C  C78  1  0.08501000  0.53868000  0.04813000  1.0
  C  C79  1  0.95543000  0.46569000  0.94834000  1.0
  C  C80  1  0.94276000  0.52849000  0.04660000  1.0
  C  C81  1  0.09838000  0.47809000  0.94979000  1.0
  C  C82  1  0.08483000  0.58226000  0.11347000  1.0
  C  C83  1  0.92288000  0.56992000  0.11201000  1.0
  C  C84  1  0.53654000  0.89222000  0.01145000  1.0
  C  C85  1  0.52895000  0.15210000  0.00566000  1.0
  C  C86  1  0.41562000  0.95616000  0.00223000  1.0
  C  C87  1  0.65286000  0.08810000  0.01621000  1.0
  C  C88  1  0.41230000  0.08216000  0.99958000  1.0
  C  C89  1  0.65563000  0.96167000  0.01858000  1.0
  C  C90  1  0.26372000  0.94471000  0.99075000  1.0
  C  C91  1  0.25982000  0.08751000  0.98791000  1.0
  C  C92  1  0.09992000  0.32790000  0.60157000  1.0
  C  C93  1  0.23992000  0.11108000  0.47593000  1.0
  C  C94  1  0.78426000  0.57563000  0.68636000  1.0
  C  C95  1  0.89694000  0.41888000  0.88905000  1.0
  C  C96  1  0.78362000  0.15239000  0.03054000  1.0
  N  N97  1  0.83791000  0.47386000  0.49939000  1.0
  N  N98  1  0.12956000  0.46216000  0.51137000  1.0
  N  N99  1  0.16598000  0.51579000  0.00002000  1.0
  N  N100  1  0.87397000  0.49410000  0.99781000  1.0
  Cl  Cl101  1  0.05216000  0.23065000  0.15651000  1.0
  Cl  Cl102  1  0.01625000  0.21778000  0.30139000  1.0
  O  O103  1  0.35769000  0.65859000  0.48548000  1.0
  O  O104  1  0.58883000  0.65413000  0.49665000  1.0
  O  O105  1  0.59336000  0.45783000  0.40945000  1.0
  O  O106  1  0.36225000  0.44425000  0.41516000  1.0
  O  O107  1  0.61633000  0.28455000  0.50670000  1.0
  O  O108  1  0.38546000  0.29370000  0.52079000  1.0
  O  O109  1  0.40048000  0.54196000  0.59416000  1.0
  O  O110  1  0.61894000  0.47295000  0.59418000  1.0
  O  O111  1  0.65502000  0.70573000  0.02225000  1.0
  O  O112  1  0.42699000  0.70602000  0.00212000  1.0
  O  O113  1  0.39492000  0.52345000  0.09417000  1.0
  O  O114  1  0.62313000  0.48459000  0.09369000  1.0
  O  O115  1  0.40760000  0.33636000  0.00848000  1.0
  O  O116  1  0.63326000  0.34127000  0.98462000  1.0
  O  O117  1  0.63381000  0.56512000  0.91334000  1.0
  O  O118  1  0.40723000  0.52206000  0.91052000  1.0
  O  O119  1  0.01924000  0.23669000  0.62334000  1.0
  O  O120  1  0.20946000  0.34832000  0.62439000  1.0
  O  O121  1  0.13996000  0.10893000  0.52093000  1.0
  O  O122  1  0.21577000  0.15757000  0.42684000  1.0
  O  O123  1  0.89078000  0.50873000  0.70812000  1.0
  O  O124  1  0.80513000  0.64549000  0.64392000  1.0
  O  O125  1  0.79505000  0.34056000  0.89119000  1.0
  O  O126  1  0.95156000  0.44865000  0.84024000  1.0
  O  O127  1  0.88770000  0.13864000  0.98799000  1.0
  O  O128  1  0.80349000  0.20812000  0.07721000  1.0
