# generated using pymatgen
data_CdH14C19(NO)4
_symmetry_space_group_name_H-M   'P 1'
_cell_length_a   8.54782000
_cell_length_b   9.19549000
_cell_length_c   15.35040000
_cell_angle_alpha   88.14590000
_cell_angle_beta   84.25480000
_cell_angle_gamma   76.76010000
_symmetry_Int_Tables_number   1
_chemical_formula_structural   CdH14C19(NO)4
_chemical_formula_sum   'Cd2 H28 C38 N8 O8'
_cell_volume   1168.53701704
_cell_formula_units_Z   2
loop_
 _symmetry_equiv_pos_site_id
 _symmetry_equiv_pos_as_xyz
  1  'x, y, z'
loop_
 _atom_site_type_symbol
 _atom_site_label
 _atom_site_symmetry_multiplicity
 _atom_site_fract_x
 _atom_site_fract_y
 _atom_site_fract_z
 _atom_site_occupancy
  Cd  Cd0  1  0.76903000  0.71081000  0.92997000  1.0
  Cd  Cd1  1  0.23097000  0.28919000  0.07003000  1.0
  H  H2  1  0.19053000  0.69685000  0.81811000  1.0
  H  H3  1  0.80947000  0.30315000  0.18189000  1.0
  H  H4  1  0.02003000  0.51561000  0.64180000  1.0
  H  H5  1  0.97997000  0.48439000  0.35820000  1.0
  H  H6  1  0.21720000  0.34115000  0.54158000  1.0
  H  H7  1  0.78280000  0.65885000  0.45842000  1.0
  H  H8  1  0.43306000  0.14473000  0.60345000  1.0
  H  H9  1  0.56694000  0.85527000  0.39655000  1.0
  H  H10  1  0.45942000  0.13797000  0.76375000  1.0
  H  H11  1  0.54058000  0.86203000  0.23625000  1.0
  H  H12  1  0.78457000  0.80878000  0.73089000  1.0
  H  H13  1  0.21543000  0.19122000  0.26911000  1.0
  H  H14  1  0.72622000  0.85192000  0.57449000  1.0
  H  H15  1  0.27378000  0.14808000  0.42551000  1.0
  H  H16  1  0.46555000  0.82731000  0.52656000  1.0
  H  H17  1  0.53445000  0.17269000  0.47344000  1.0
  H  H18  1  0.25037000  0.76359000  0.63289000  1.0
  H  H19  1  0.74963000  0.23641000  0.36711000  1.0
  H  H20  1  0.25125000  0.60834000  0.97609000  1.0
  H  H21  1  0.74875000  0.39166000  0.02391000  1.0
  H  H22  1  0.43546000  0.63208000  0.01419000  1.0
  H  H23  1  0.56454000  0.36792000  0.98581000  1.0
  H  H24  1  0.38218000  0.97921000  0.95999000  1.0
  H  H25  1  0.61782000  0.02079000  0.04001000  1.0
  H  H26  1  0.07214000  0.74176000  0.10606000  1.0
  H  H27  1  0.92786000  0.25824000  0.89394000  1.0
  H  H28  1  0.99675000  0.04038000  0.15927000  1.0
  H  H29  1  0.00326000  0.95962000  0.84073000  1.0
  C  C30  1  0.00087000  0.53017000  0.81541000  1.0
  C  C31  1  0.99913000  0.46983000  0.18459000  1.0
  C  C32  1  0.12849000  0.42515000  0.75862000  1.0
  C  C33  1  0.87150000  0.57485000  0.24138000  1.0
  C  C34  1  0.11708000  0.43247000  0.66807000  1.0
  C  C35  1  0.88292000  0.56753000  0.33193000  1.0
  C  C36  1  0.22697000  0.33360000  0.61200000  1.0
  C  C37  1  0.77303000  0.66640000  0.38800000  1.0
  C  C38  1  0.34912000  0.22538000  0.64613000  1.0
  C  C39  1  0.65088000  0.77462000  0.35387000  1.0
  C  C40  1  0.36373000  0.21983000  0.73572000  1.0
  C  C41  1  0.63627000  0.78017000  0.26428000  1.0
  C  C42  1  0.25539000  0.31982000  0.79266000  1.0
  C  C43  1  0.74461000  0.68018000  0.20734000  1.0
  C  C44  1  0.27794000  0.31028000  0.88840000  1.0
  C  C45  1  0.72206000  0.68972000  0.11160000  1.0
  C  C46  1  0.54760000  0.76497000  0.76950000  1.0
  C  C47  1  0.45240000  0.23503000  0.23050000  1.0
  C  C48  1  0.66881000  0.80018000  0.70982000  1.0
  C  C49  1  0.33119000  0.19982000  0.29018000  1.0
  C  C50  1  0.63531000  0.82300000  0.62281000  1.0
  C  C51  1  0.36469000  0.17701000  0.37719000  1.0
  C  C52  1  0.48628000  0.80986000  0.59539000  1.0
  C  C53  1  0.51372000  0.19014000  0.40461000  1.0
  C  C54  1  0.36501000  0.77460000  0.65400000  1.0
  C  C55  1  0.63499000  0.22540000  0.34600000  1.0
  C  C56  1  0.39785000  0.75344000  0.74143000  1.0
  C  C57  1  0.60215000  0.24656000  0.25857000  1.0
  C  C58  1  0.39783000  0.71097000  0.88410000  1.0
  C  C59  1  0.60217000  0.28903000  0.11590000  1.0
  C  C60  1  0.33454000  0.68335000  0.97596000  1.0
  C  C61  1  0.66546000  0.31664000  0.02404000  1.0
  C  C62  1  0.28764000  0.95671000  0.00730000  1.0
  C  C63  1  0.71236000  0.04329000  0.99270000  1.0
  C  C64  1  0.12077000  0.83712000  0.08388000  1.0
  C  C65  1  0.87923000  0.16288000  0.91612000  1.0
  C  C66  1  0.08777000  0.98331000  0.10999000  1.0
  C  C67  1  0.91223000  0.01669000  0.89001000  1.0
  N  N68  1  0.54344000  0.73726000  0.85915000  1.0
  N  N69  1  0.45656000  0.26274000  0.14085000  1.0
  N  N70  1  0.30732000  0.71956000  0.81553000  1.0
  N  N71  1  0.69268000  0.28044000  0.18447000  1.0
  N  N72  1  0.24733000  0.82281000  0.01875000  1.0
  N  N73  1  0.75267000  0.17719000  0.98125000  1.0
  N  N74  1  0.19232000  0.05649000  0.06157000  1.0
  N  N75  1  0.80768000  0.94351000  0.93843000  1.0
  O  O76  1  0.87687000  0.48755000  0.84766000  1.0
  O  O77  1  0.12313000  0.51245000  0.15234000  1.0
  O  O78  1  0.01607000  0.66474000  0.82440000  1.0
  O  O79  1  0.98393000  0.33526000  0.17560000  1.0
  O  O80  1  0.17332000  0.40065000  0.93968000  1.0
  O  O81  1  0.82667000  0.59935000  0.06032000  1.0
  O  O82  1  0.39439000  0.21533000  0.91599000  1.0
  O  O83  1  0.60561000  0.78468000  0.08401000  1.0
