# generated using pymatgen
data_CuH9C4O7
_symmetry_space_group_name_H-M   'P 1'
_cell_length_a   6.96745000
_cell_length_b   9.81829000
_cell_length_c   13.83570000
_cell_angle_alpha   90.00060000
_cell_angle_beta   90.00010000
_cell_angle_gamma   80.75410000
_symmetry_Int_Tables_number   1
_chemical_formula_structural   CuH9C4O7
_chemical_formula_sum   'Cu4 H36 C16 O28'
_cell_volume   934.18193991
_cell_formula_units_Z   4
loop_
 _symmetry_equiv_pos_site_id
 _symmetry_equiv_pos_as_xyz
  1  'x, y, z'
loop_
 _atom_site_type_symbol
 _atom_site_label
 _atom_site_symmetry_multiplicity
 _atom_site_fract_x
 _atom_site_fract_y
 _atom_site_fract_z
 _atom_site_occupancy
  Cu  Cu0  1  0.04487000  0.31660000  0.27536000  1.0
  Cu  Cu1  1  0.45512000  0.18340000  0.77535000  1.0
  Cu  Cu2  1  0.95514000  0.68341000  0.72464000  1.0
  Cu  Cu3  1  0.54486000  0.81660000  0.22464000  1.0
  H  H4  1  0.97433000  0.87593000  0.43643000  1.0
  H  H5  1  0.52569000  0.62405000  0.93643000  1.0
  H  H6  1  0.02564000  0.12408000  0.56356000  1.0
  H  H7  1  0.47438000  0.37593000  0.06357000  1.0
  H  H8  1  0.67618000  0.96431000  0.52026000  1.0
  H  H9  1  0.82383000  0.53568000  0.02027000  1.0
  H  H10  1  0.32380000  0.03565000  0.47973000  1.0
  H  H11  1  0.17623000  0.46429000  0.97974000  1.0
  H  H12  1  0.69280000  0.13988000  0.48968000  1.0
  H  H13  1  0.80723000  0.36011000  0.98968000  1.0
  H  H14  1  0.30718000  0.86011000  0.51034000  1.0
  H  H15  1  0.19282000  0.63986000  0.01032000  1.0
  H  H16  1  0.73153000  0.20978000  0.25664000  1.0
  H  H17  1  0.76847000  0.29024000  0.75662000  1.0
  H  H18  1  0.26849000  0.79024000  0.74338000  1.0
  H  H19  1  0.23153000  0.70976000  0.24338000  1.0
  H  H20  1  0.70012000  0.35967000  0.21213000  1.0
  H  H21  1  0.79987000  0.14034000  0.71212000  1.0
  H  H22  1  0.29987000  0.64034000  0.78790000  1.0
  H  H23  1  0.20011000  0.85966000  0.28788000  1.0
  H  H24  1  0.94526000  0.57489000  0.29156000  1.0
  H  H25  1  0.55473000  0.92514000  0.79155000  1.0
  H  H26  1  0.05473000  0.42512000  0.70844000  1.0
  H  H27  1  0.44526000  0.07489000  0.20844000  1.0
  H  H28  1  0.74657000  0.53748000  0.32274000  1.0
  H  H29  1  0.75343000  0.96256000  0.82273000  1.0
  H  H30  1  0.25341000  0.46255000  0.67725000  1.0
  H  H31  1  0.24659000  0.03746000  0.17723000  1.0
  H  H32  1  0.37273000  0.41034000  0.28219000  1.0
  H  H33  1  0.12725000  0.08967000  0.78218000  1.0
  H  H34  1  0.62724000  0.58967000  0.71783000  1.0
  H  H35  1  0.87274000  0.91033000  0.21782000  1.0
  H  H36  1  0.39990000  0.26531000  0.33348000  1.0
  H  H37  1  0.10008000  0.23470000  0.83347000  1.0
  H  H38  1  0.60008000  0.73469000  0.66653000  1.0
  H  H39  1  0.89991000  0.76530000  0.16653000  1.0
  C  C40  1  0.01282000  0.06605000  0.36776000  1.0
  C  C41  1  0.48720000  0.43394000  0.86777000  1.0
  C  C42  1  0.98720000  0.93397000  0.63223000  1.0
  C  C43  1  0.51278000  0.56603000  0.13224000  1.0
  C  C44  1  0.94681000  0.98675000  0.45328000  1.0
  C  C45  1  0.55316000  0.51324000  0.95329000  1.0
  C  C46  1  0.05318000  0.01326000  0.54671000  1.0
  C  C47  1  0.44681000  0.48673000  0.04671000  1.0
  C  C48  1  0.72496000  0.03208000  0.46568000  1.0
  C  C49  1  0.77507000  0.46791000  0.96568000  1.0
  C  C50  1  0.27500000  0.96791000  0.53431000  1.0
  C  C51  1  0.22508000  0.53206000  0.03430000  1.0
  C  C52  1  0.62279000  0.01304000  0.37124000  1.0
  C  C53  1  0.87723000  0.48696000  0.87123000  1.0
  C  C54  1  0.37717000  0.98698000  0.62877000  1.0
  C  C55  1  0.12280000  0.51301000  0.12877000  1.0
  O  O56  1  0.02576000  0.19220000  0.38360000  1.0
  O  O57  1  0.47428000  0.30778000  0.88360000  1.0
  O  O58  1  0.97422000  0.80778000  0.61639000  1.0
  O  O59  1  0.52575000  0.69223000  0.11640000  1.0
  O  O60  1  0.04113000  0.00651000  0.28592000  1.0
  O  O61  1  0.45883000  0.49346000  0.78594000  1.0
  O  O62  1  0.95885000  0.99349000  0.71409000  1.0
  O  O63  1  0.54113000  0.50653000  0.21409000  1.0
  O  O64  1  0.56957000  0.11687000  0.31608000  1.0
  O  O65  1  0.93043000  0.38312000  0.81608000  1.0
  O  O66  1  0.43043000  0.88315000  0.68391000  1.0
  O  O67  1  0.06957000  0.61688000  0.18392000  1.0
  O  O68  1  0.60476000  0.88934000  0.35098000  1.0
  O  O69  1  0.89524000  0.61065000  0.85098000  1.0
  O  O70  1  0.39522000  0.11063000  0.64902000  1.0
  O  O71  1  0.10477000  0.38935000  0.14902000  1.0
  O  O72  1  0.79680000  0.27258000  0.21660000  1.0
  O  O73  1  0.70320000  0.22744000  0.71658000  1.0
  O  O74  1  0.20319000  0.72744000  0.78341000  1.0
  O  O75  1  0.29680000  0.77257000  0.28341000  1.0
  O  O76  1  0.88449000  0.52153000  0.34019000  1.0
  O  O77  1  0.61551000  0.97851000  0.84019000  1.0
  O  O78  1  0.11550000  0.47849000  0.65980000  1.0
  O  O79  1  0.38451000  0.02151000  0.15981000  1.0
  O  O80  1  0.30576000  0.35193000  0.32477000  1.0
  O  O81  1  0.19422000  0.14809000  0.82477000  1.0
  O  O82  1  0.69422000  0.64808000  0.67525000  1.0
  O  O83  1  0.80577000  0.85191000  0.17524000  1.0
