# generated using pymatgen
data_ZnPH6C3NO5
_symmetry_space_group_name_H-M   'P 1'
_cell_length_a   8.25825000
_cell_length_b   8.81967000
_cell_length_c   9.79534000
_cell_angle_alpha   90.00040000
_cell_angle_beta   90.00000000
_cell_angle_gamma   109.37300000
_symmetry_Int_Tables_number   1
_chemical_formula_structural   ZnPH6C3NO5
_chemical_formula_sum   'Zn4 P4 H24 C12 N4 O20'
_cell_volume   673.04812441
_cell_formula_units_Z   4
loop_
 _symmetry_equiv_pos_site_id
 _symmetry_equiv_pos_as_xyz
  1  'x, y, z'
loop_
 _atom_site_type_symbol
 _atom_site_label
 _atom_site_symmetry_multiplicity
 _atom_site_fract_x
 _atom_site_fract_y
 _atom_site_fract_z
 _atom_site_occupancy
  Zn  Zn0  1  0.65427000  0.64274000  0.81437000  1.0
  Zn  Zn1  1  0.65427000  0.14274000  0.68563000  1.0
  Zn  Zn2  1  0.34573000  0.35726000  0.18563000  1.0
  Zn  Zn3  1  0.34574000  0.85726000  0.31437000  1.0
  P  P4  1  0.42868000  0.72157000  0.04535000  1.0
  P  P5  1  0.42868000  0.22157000  0.45465000  1.0
  P  P6  1  0.57132000  0.27843000  0.95465000  1.0
  P  P7  1  0.57132000  0.77843000  0.54535000  1.0
  H  H8  1  0.10756000  0.89579000  0.03184000  1.0
  H  H9  1  0.10755000  0.39579000  0.46816000  1.0
  H  H10  1  0.89244000  0.10421000  0.96816000  1.0
  H  H11  1  0.89244000  0.60421000  0.53184000  1.0
  H  H12  1  0.14863000  0.01510000  0.89311000  1.0
  H  H13  1  0.14863000  0.51510000  0.60689000  1.0
  H  H14  1  0.85137000  0.98490000  0.10689000  1.0
  H  H15  1  0.85137000  0.48490000  0.39311000  1.0
  H  H16  1  0.31029000  0.00036000  0.98965000  1.0
  H  H17  1  0.31030000  0.50035000  0.51035000  1.0
  H  H18  1  0.68971000  0.99965000  0.01034000  1.0
  H  H19  1  0.68970000  0.49965000  0.48965000  1.0
  H  H20  1  0.21973000  0.56157000  0.88716000  1.0
  H  H21  1  0.21973000  0.06157000  0.61284000  1.0
  H  H22  1  0.78027000  0.43843000  0.11284000  1.0
  H  H23  1  0.78027000  0.93843000  0.38716000  1.0
  H  H24  1  0.12017000  0.62349000  0.02695000  1.0
  H  H25  1  0.12017000  0.12349000  0.47304000  1.0
  H  H26  1  0.87983000  0.37651000  0.97305000  1.0
  H  H27  1  0.87983000  0.87651000  0.52695000  1.0
  H  H28  1  0.31015000  0.84494000  0.79270000  1.0
  H  H29  1  0.31015000  0.34493000  0.70730000  1.0
  H  H30  1  0.68985000  0.15507000  0.20730000  1.0
  H  H31  1  0.68985000  0.65507000  0.29269000  1.0
  C  C32  1  0.22564000  0.66465000  0.95244000  1.0
  C  C33  1  0.22564000  0.16465000  0.54756000  1.0
  C  C34  1  0.77436000  0.33535000  0.04756000  1.0
  C  C35  1  0.77436000  0.83535000  0.45244000  1.0
  C  C36  1  0.20106000  0.79848000  0.86303000  1.0
  C  C37  1  0.20106000  0.29848000  0.63697000  1.0
  C  C38  1  0.79894000  0.20152000  0.13697000  1.0
  C  C39  1  0.79894000  0.70152000  0.36303000  1.0
  C  C40  1  0.03353000  0.72710000  0.78223000  1.0
  C  C41  1  0.03354000  0.22709000  0.71776000  1.0
  C  C42  1  0.96646000  0.27292000  0.21778000  1.0
  C  C43  1  0.96646000  0.77291000  0.28223000  1.0
  N  N44  1  0.19149000  0.93512000  0.94906000  1.0
  N  N45  1  0.19149000  0.43512000  0.55094000  1.0
  N  N46  1  0.80851000  0.06488000  0.05094000  1.0
  N  N47  1  0.80851000  0.56488000  0.44906000  1.0
  O  O48  1  0.42861000  0.58057000  0.13477000  1.0
  O  O49  1  0.42862000  0.08058000  0.36523000  1.0
  O  O50  1  0.57138000  0.41942000  0.86523000  1.0
  O  O51  1  0.57139000  0.91943000  0.63477000  1.0
  O  O52  1  0.57446000  0.77293000  0.94019000  1.0
  O  O53  1  0.57446000  0.27293000  0.55982000  1.0
  O  O54  1  0.42553000  0.22707000  0.05981000  1.0
  O  O55  1  0.42554000  0.72707000  0.44019000  1.0
  O  O56  1  0.43860000  0.87171000  0.13062000  1.0
  O  O57  1  0.43860000  0.37171000  0.36938000  1.0
  O  O58  1  0.56139000  0.12829000  0.86938000  1.0
  O  O59  1  0.56140000  0.62829000  0.63062000  1.0
  O  O60  1  0.90409000  0.75464000  0.83414000  1.0
  O  O61  1  0.90410000  0.25464000  0.66586000  1.0
  O  O62  1  0.09592000  0.24536000  0.16586000  1.0
  O  O63  1  0.09591000  0.74536000  0.33415000  1.0
  O  O64  1  0.03528000  0.64518000  0.67733000  1.0
  O  O65  1  0.03528000  0.14518000  0.82266000  1.0
  O  O66  1  0.96472000  0.35481000  0.32265000  1.0
  O  O67  1  0.96473000  0.85480000  0.17734000  1.0
