# generated using pymatgen
data_CsH10C9ClO4
_symmetry_space_group_name_H-M   'P 1'
_cell_length_a   7.13713000
_cell_length_b   8.77343000
_cell_length_c   18.10990000
_cell_angle_alpha   89.99990000
_cell_angle_beta   94.56730000
_cell_angle_gamma   89.99960000
_symmetry_Int_Tables_number   1
_chemical_formula_structural   CsH10C9ClO4
_chemical_formula_sum   'Cs4 H40 C36 Cl4 O16'
_cell_volume   1130.38861039
_cell_formula_units_Z   4
loop_
 _symmetry_equiv_pos_site_id
 _symmetry_equiv_pos_as_xyz
  1  'x, y, z'
loop_
 _atom_site_type_symbol
 _atom_site_label
 _atom_site_symmetry_multiplicity
 _atom_site_fract_x
 _atom_site_fract_y
 _atom_site_fract_z
 _atom_site_occupancy
  Cs  Cs0  1  0.27573000  0.56460000  0.56558000  1.0
  Cs  Cs1  1  0.22426000  0.06461000  0.43442000  1.0
  Cs  Cs2  1  0.72427000  0.43540000  0.43442000  1.0
  Cs  Cs3  1  0.77574000  0.93540000  0.56558000  1.0
  H  H4  1  0.21141000  0.55262000  0.98742000  1.0
  H  H5  1  0.28859000  0.05263000  0.01258000  1.0
  H  H6  1  0.78858000  0.44738000  0.01258000  1.0
  H  H7  1  0.71142000  0.94737000  0.98742000  1.0
  H  H8  1  0.49411000  0.71161000  0.96889000  1.0
  H  H9  1  0.00588000  0.21161000  0.03111000  1.0
  H  H10  1  0.50589000  0.28839000  0.03111000  1.0
  H  H11  1  0.99412000  0.78839000  0.96889000  1.0
  H  H12  1  0.63943000  0.70586000  0.85008000  1.0
  H  H13  1  0.86056000  0.20586000  0.14992000  1.0
  H  H14  1  0.36057000  0.29414000  0.14992000  1.0
  H  H15  1  0.13944000  0.79414000  0.85008000  1.0
  H  H16  1  0.10539000  0.66633000  0.41419000  1.0
  H  H17  1  0.39461000  0.16632000  0.58581000  1.0
  H  H18  1  0.89461000  0.33367000  0.58581000  1.0
  H  H19  1  0.60539000  0.83368000  0.41419000  1.0
  H  H20  1  0.94316000  0.79361000  0.40623000  1.0
  H  H21  1  0.55683000  0.29361000  0.59377000  1.0
  H  H22  1  0.05683000  0.20639000  0.59377000  1.0
  H  H23  1  0.44317000  0.70639000  0.40624000  1.0
  H  H24  1  0.79451000  0.57536000  0.77276000  1.0
  H  H25  1  0.70548000  0.07536000  0.22724000  1.0
  H  H26  1  0.20549000  0.42464000  0.22724000  1.0
  H  H27  1  0.29452000  0.92464000  0.77276000  1.0
  H  H28  1  0.67100000  0.72807000  0.72515000  1.0
  H  H29  1  0.82899000  0.22807000  0.27485000  1.0
  H  H30  1  0.32900000  0.27193000  0.27485000  1.0
  H  H31  1  0.17101000  0.77193000  0.72515000  1.0
  H  H32  1  0.30904000  0.32279000  0.70905000  1.0
  H  H33  1  0.19096000  0.82279000  0.29095000  1.0
  H  H34  1  0.69096000  0.67721000  0.29094000  1.0
  H  H35  1  0.80904000  0.17721000  0.70905000  1.0
  H  H36  1  0.08323000  0.40568000  0.71365000  1.0
  H  H37  1  0.41676000  0.90568000  0.28635000  1.0
  H  H38  1  0.91677000  0.59432000  0.28635000  1.0
  H  H39  1  0.58324000  0.09432000  0.71365000  1.0
  H  H40  1  0.14686000  0.24358000  0.76774000  1.0
  H  H41  1  0.35314000  0.74358000  0.23226000  1.0
  H  H42  1  0.85315000  0.75642000  0.23226000  1.0
  H  H43  1  0.64686000  0.25641000  0.76774000  1.0
  C  C44  1  0.44066000  0.54153000  0.79979000  1.0
  C  C45  1  0.05933000  0.04154000  0.20021000  1.0
  C  C46  1  0.55934000  0.45847000  0.20021000  1.0
  C  C47  1  0.94067000  0.95846000  0.79978000  1.0
  C  C48  1  0.27848000  0.45241000  0.80783000  1.0
  C  C49  1  0.22152000  0.95241000  0.19217000  1.0
  C  C50  1  0.72152000  0.54759000  0.19217000  1.0
  C  C51  1  0.77848000  0.04759000  0.80783000  1.0
  C  C52  1  0.19937000  0.46257000  0.87605000  1.0
  C  C53  1  0.30063000  0.96258000  0.12395000  1.0
  C  C54  1  0.80063000  0.53743000  0.12395000  1.0
  C  C55  1  0.69937000  0.03742000  0.87605000  1.0
  C  C56  1  0.27537000  0.55210000  0.93482000  1.0
  C  C57  1  0.22462000  0.05211000  0.06518000  1.0
  C  C58  1  0.72463000  0.44790000  0.06518000  1.0
  C  C59  1  0.77538000  0.94789000  0.93482000  1.0
  C  C60  1  0.43362000  0.63948000  0.92417000  1.0
  C  C61  1  0.06637000  0.13948000  0.07583000  1.0
  C  C62  1  0.56637000  0.36052000  0.07583000  1.0
  C  C63  1  0.93363000  0.86052000  0.92417000  1.0
  C  C64  1  0.51621000  0.63598000  0.85688000  1.0
  C  C65  1  0.98378000  0.13598000  0.14312000  1.0
  C  C66  1  0.48379000  0.36402000  0.14312000  1.0
  C  C67  1  0.01622000  0.86402000  0.85688000  1.0
  C  C68  1  0.69260000  0.60388000  0.72571000  1.0
  C  C69  1  0.80739000  0.10388000  0.27429000  1.0
  C  C70  1  0.30740000  0.39612000  0.27429000  1.0
  C  C71  1  0.19261000  0.89612000  0.72571000  1.0
  C  C72  1  0.78068000  0.55754000  0.65499000  1.0
  C  C73  1  0.71931000  0.05754000  0.34501000  1.0
  C  C74  1  0.21932000  0.44245000  0.34501000  1.0
  C  C75  1  0.28069000  0.94246000  0.65499000  1.0
  C  C76  1  0.20069000  0.35045000  0.74643000  1.0
  C  C77  1  0.29930000  0.85045000  0.25357000  1.0
  C  C78  1  0.79931000  0.64955000  0.25357000  1.0
  C  C79  1  0.70070000  0.14955000  0.74643000  1.0
  Cl  Cl80  1  0.99708000  0.35771000  0.88888000  1.0
  Cl  Cl81  1  0.50292000  0.85772000  0.11112000  1.0
  Cl  Cl82  1  0.00293000  0.64228000  0.11112000  1.0
  Cl  Cl83  1  0.49707000  0.14228000  0.88888000  1.0
  O  O84  1  0.01476000  0.72585000  0.44171000  1.0
  O  O85  1  0.48524000  0.22585000  0.55829000  1.0
  O  O86  1  0.98524000  0.27415000  0.55829000  1.0
  O  O87  1  0.51476000  0.77415000  0.44172000  1.0
  O  O88  1  0.51817000  0.52708000  0.73291000  1.0
  O  O89  1  0.98183000  0.02708000  0.26709000  1.0
  O  O90  1  0.48184000  0.47292000  0.26709000  1.0
  O  O91  1  0.01817000  0.97292000  0.73291000  1.0
  O  O92  1  0.71430000  0.44411000  0.61701000  1.0
  O  O93  1  0.78570000  0.94411000  0.38299000  1.0
  O  O94  1  0.28571000  0.55589000  0.38299000  1.0
  O  O95  1  0.21430000  0.05589000  0.61701000  1.0
  O  O96  1  0.92037000  0.63644000  0.63984000  1.0
  O  O97  1  0.57964000  0.13644000  0.36016000  1.0
  O  O98  1  0.07964000  0.36356000  0.36016000  1.0
  O  O99  1  0.42037000  0.86356000  0.63984000  1.0
