# generated using pymatgen
data_DyH21C23O8
_symmetry_space_group_name_H-M   'P 1'
_cell_length_a   9.57628000
_cell_length_b   9.88749000
_cell_length_c   12.48710000
_cell_angle_alpha   95.54650000
_cell_angle_beta   104.68900000
_cell_angle_gamma   97.32020000
_symmetry_Int_Tables_number   1
_chemical_formula_structural   DyH21C23O8
_chemical_formula_sum   'Dy2 H42 C46 O16'
_cell_volume   1124.08642369
_cell_formula_units_Z   2
loop_
 _symmetry_equiv_pos_site_id
 _symmetry_equiv_pos_as_xyz
  1  'x, y, z'
loop_
 _atom_site_type_symbol
 _atom_site_label
 _atom_site_symmetry_multiplicity
 _atom_site_fract_x
 _atom_site_fract_y
 _atom_site_fract_z
 _atom_site_occupancy
  Dy  Dy0  1  0.75239000  0.47967000  0.01186000  1.0
  Dy  Dy1  1  0.24761000  0.52033000  0.98814000  1.0
  H  H2  1  0.48644000  0.36218000  0.52735000  1.0
  H  H3  1  0.51356000  0.63782000  0.47264000  1.0
  H  H4  1  0.45061000  0.88001000  0.25318000  1.0
  H  H5  1  0.54939000  0.11999000  0.74682000  1.0
  H  H6  1  0.58642000  0.07156000  0.40318000  1.0
  H  H7  1  0.41359000  0.92843000  0.59682000  1.0
  H  H8  1  0.63699000  0.39760000  0.72554000  1.0
  H  H9  1  0.36301000  0.60241000  0.27446000  1.0
  H  H10  1  0.60319000  0.14491000  0.05438000  1.0
  H  H11  1  0.39681000  0.85508000  0.94562000  1.0
  H  H12  1  0.64416000  0.16079000  0.20406000  1.0
  H  H13  1  0.35584000  0.83921000  0.79594000  1.0
  H  H14  1  0.89965000  0.26394000  0.22069000  1.0
  H  H15  1  0.10034000  0.73607000  0.77931000  1.0
  H  H16  1  0.85447000  0.10036000  0.13473000  1.0
  H  H17  1  0.14554000  0.89965000  0.86528000  1.0
  H  H18  1  0.60884000  0.35122000  0.37254000  1.0
  H  H19  1  0.39116000  0.64878000  0.62745000  1.0
  H  H20  1  0.64641000  0.68789000  0.66945000  1.0
  H  H21  1  0.35359000  0.31212000  0.33056000  1.0
  H  H22  1  0.85621000  0.76374000  0.22055000  1.0
  H  H23  1  0.14378000  0.23626000  0.77944000  1.0
  H  H24  1  0.02806000  0.40571000  0.61629000  1.0
  H  H25  1  0.97194000  0.59430000  0.38371000  1.0
  H  H26  1  0.87339000  0.97871000  0.95881000  1.0
  H  H27  1  0.12661000  0.02129000  0.04119000  1.0
  H  H28  1  0.65991000  0.87343000  0.54729000  1.0
  H  H29  1  0.34009000  0.12657000  0.45272000  1.0
  H  H30  1  0.85887000  0.11024000  0.45974000  1.0
  H  H31  1  0.14114000  0.88975000  0.54026000  1.0
  H  H32  1  0.77190000  0.11257000  0.63347000  1.0
  H  H33  1  0.22810000  0.88744000  0.36654000  1.0
  H  H34  1  0.87850000  0.37004000  0.41674000  1.0
  H  H35  1  0.12151000  0.62996000  0.58326000  1.0
  H  H36  1  0.99379000  0.95757000  0.36853000  1.0
  H  H37  1  0.00621000  0.04242000  0.63146000  1.0
  H  H38  1  0.87865000  0.16582000  0.83965000  1.0
  H  H39  1  0.12135000  0.83418000  0.16036000  1.0
  H  H40  1  0.96362000  0.27323000  0.04537000  1.0
  H  H41  1  0.03638000  0.72677000  0.95464000  1.0
  H  H42  1  0.54377000  0.35382000  0.13610000  1.0
  H  H43  1  0.45623000  0.64618000  0.86390000  1.0
  C  C44  1  0.56238000  0.69667000  0.13892000  1.0
  C  C45  1  0.43762000  0.30333000  0.86108000  1.0
  C  C46  1  0.93228000  0.43344000  0.80126000  1.0
  C  C47  1  0.06771000  0.56655000  0.19874000  1.0
  C  C48  1  0.64560000  0.81130000  0.22819000  1.0
  C  C49  1  0.35439000  0.18870000  0.77181000  1.0
  C  C50  1  0.84130000  0.40644000  0.68231000  1.0
  C  C51  1  0.15870000  0.59356000  0.31769000  1.0
  C  C52  1  0.75802000  0.82304000  0.82089000  1.0
  C  C53  1  0.24198000  0.17697000  0.17911000  1.0
  C  C54  1  0.60511000  0.37177000  0.54612000  1.0
  C  C55  1  0.39490000  0.62823000  0.45388000  1.0
  C  C56  1  0.56952000  0.89760000  0.27993000  1.0
  C  C57  1  0.43048000  0.10240000  0.72006000  1.0
  C  C58  1  0.64598000  0.00430000  0.36355000  1.0
  C  C59  1  0.35402000  0.99570000  0.63645000  1.0
  C  C60  1  0.68848000  0.39230000  0.65721000  1.0
  C  C61  1  0.31151000  0.60770000  0.34279000  1.0
  C  C62  1  0.67107000  0.20586000  0.13327000  1.0
  C  C63  1  0.32893000  0.79414000  0.86673000  1.0
  C  C64  1  0.83115000  0.20662000  0.14049000  1.0
  C  C65  1  0.16885000  0.79339000  0.85951000  1.0
  C  C66  1  0.67338000  0.36525000  0.45954000  1.0
  C  C67  1  0.32663000  0.63475000  0.54046000  1.0
  C  C68  1  0.69676000  0.79315000  0.70514000  1.0
  C  C69  1  0.30324000  0.20686000  0.29486000  1.0
  C  C70  1  0.79881000  0.83251000  0.26078000  1.0
  C  C71  1  0.20119000  0.16748000  0.73922000  1.0
  C  C72  1  0.90938000  0.39684000  0.59528000  1.0
  C  C73  1  0.09062000  0.60316000  0.40472000  1.0
  C  C74  1  0.82634000  0.95692000  0.86867000  1.0
  C  C75  1  0.17366000  0.04309000  0.13134000  1.0
  C  C76  1  0.70453000  0.89662000  0.63764000  1.0
  C  C77  1  0.29547000  0.10339000  0.36237000  1.0
  C  C78  1  0.79884000  0.02571000  0.39543000  1.0
  C  C79  1  0.20116000  0.97428000  0.60457000  1.0
  C  C80  1  0.75190000  0.71152000  0.89208000  1.0
  C  C81  1  0.24810000  0.28848000  0.10792000  1.0
  C  C82  1  0.76933000  0.03080000  0.68593000  1.0
  C  C83  1  0.23067000  0.96921000  0.31408000  1.0
  C  C84  1  0.82556000  0.37663000  0.48435000  1.0
  C  C85  1  0.17444000  0.62336000  0.51565000  1.0
  C  C86  1  0.87482000  0.93979000  0.34415000  1.0
  C  C87  1  0.12518000  0.06020000  0.65585000  1.0
  C  C88  1  0.82996000  0.06118000  0.80146000  1.0
  C  C89  1  0.17004000  0.93883000  0.19855000  1.0
  O  O90  1  0.86886000  0.43611000  0.87924000  1.0
  O  O91  1  0.13114000  0.56388000  0.12076000  1.0
  O  O92  1  0.86033000  0.27276000  0.04904000  1.0
  O  O93  1  0.13967000  0.72724000  0.95096000  1.0
  O  O94  1  0.07056000  0.45305000  0.81898000  1.0
  O  O95  1  0.92944000  0.54696000  0.18103000  1.0
  O  O96  1  0.63276000  0.61666000  0.09546000  1.0
  O  O97  1  0.36723000  0.38334000  0.90453000  1.0
  O  O98  1  0.86308000  0.70558000  0.97331000  1.0
  O  O99  1  0.13692000  0.29442000  0.02669000  1.0
  O  O100  1  0.64669000  0.34683000  0.13618000  1.0
  O  O101  1  0.35331000  0.65317000  0.86381000  1.0
  O  O102  1  0.42362000  0.68435000  0.11059000  1.0
  O  O103  1  0.57637000  0.31565000  0.88940000  1.0
  O  O104  1  0.63728000  0.62045000  0.87034000  1.0
  O  O105  1  0.36272000  0.37956000  0.12966000  1.0
