# generated using pymatgen
data_AlH21C45(BrO)6
_symmetry_space_group_name_H-M   'P 1'
_cell_length_a   3.98642000
_cell_length_b   23.51670000
_cell_length_c   23.56280000
_cell_angle_alpha   60.07790000
_cell_angle_beta   86.94400000
_cell_angle_gamma   87.80530000
_symmetry_Int_Tables_number   1
_chemical_formula_structural   AlH21C45(BrO)6
_chemical_formula_sum   'Al1 H21 C45 Br6 O6'
_cell_volume   1911.61127996
_cell_formula_units_Z   1
loop_
 _symmetry_equiv_pos_site_id
 _symmetry_equiv_pos_as_xyz
  1  'x, y, z'
loop_
 _atom_site_type_symbol
 _atom_site_label
 _atom_site_symmetry_multiplicity
 _atom_site_fract_x
 _atom_site_fract_y
 _atom_site_fract_z
 _atom_site_occupancy
  Al  Al0  1  0.96573000  0.50034000  0.50009000  1.0
  H  H1  1  0.60955000  0.32579000  0.67382000  1.0
  H  H2  1  0.62647000  0.20492000  0.74175000  1.0
  H  H3  1  0.22819000  0.98143000  0.84524000  1.0
  H  H4  1  0.38761000  0.73833000  0.19093000  1.0
  H  H5  1  0.74801000  0.76444000  0.10768000  1.0
  H  H6  1  0.76029000  0.82957000  0.98825000  1.0
  H  H7  1  0.51179000  0.89073000  0.89763000  1.0
  H  H8  1  0.56903000  0.49816000  0.32571000  1.0
  H  H9  1  0.58434000  0.54987000  0.20533000  1.0
  H  H10  1  0.23586000  0.67542000  0.98285000  1.0
  H  H11  1  0.26815000  0.57552000  0.73623000  1.0
  H  H12  1  0.69136000  0.62314000  0.76381000  1.0
  H  H13  1  0.72260000  0.67793000  0.82865000  1.0
  H  H14  1  0.47597000  0.71181000  0.89072000  1.0
  H  H15  1  0.58869000  0.67505000  0.49982000  1.0
  H  H16  1  0.59679000  0.74250000  0.55341000  1.0
  H  H17  1  0.20238000  0.84577000  0.67868000  1.0
  H  H18  1  0.35708000  0.18983000  0.57492000  1.0
  H  H19  1  0.76945000  0.10866000  0.62487000  1.0
  H  H20  1  0.78307000  0.98836000  0.67986000  1.0
  H  H21  1  0.48552000  0.89780000  0.71223000  1.0
  C  C22  1  0.47425000  0.39975000  0.54787000  1.0
  C  C23  1  0.43976000  0.54877000  0.55244000  1.0
  C  C24  1  0.48410000  0.55322000  0.39969000  1.0
  C  C25  1  0.55530000  0.29548000  0.65247000  1.0
  C  C26  1  0.56089000  0.22752000  0.69079000  1.0
  C  C27  1  0.35454000  0.07675000  0.76612000  1.0
  C  C28  1  0.35482000  0.00854000  0.79722000  1.0
  C  C29  1  0.44771000  0.65653000  0.28744000  1.0
  C  C30  1  0.43800000  0.68577000  0.21956000  1.0
  C  C31  1  0.62796000  0.74530000  0.08026000  1.0
  C  C32  1  0.63451000  0.78240000  0.01240000  1.0
  C  C33  1  0.48440000  0.32634000  0.58591000  1.0
  C  C34  1  0.48932000  0.18806000  0.66389000  1.0
  C  C35  1  0.49450000  0.11547000  0.70229000  1.0
  C  C36  1  0.50334000  0.97489000  0.76703000  1.0
  C  C37  1  0.49955000  0.90245000  0.80108000  1.0
  C  C38  1  0.50276000  0.86542000  0.86963000  1.0
  C  C39  1  0.53509000  0.55114000  0.29547000  1.0
  C  C40  1  0.53815000  0.58022000  0.22772000  1.0
  C  C41  1  0.35588000  0.65829000  0.07736000  1.0
  C  C42  1  0.35597000  0.69555000  0.00928000  1.0
  C  C43  1  0.34793000  0.55985000  0.65422000  1.0
  C  C44  1  0.34310000  0.59785000  0.68447000  1.0
  C  C45  1  0.57880000  0.67189000  0.74556000  1.0
  C  C46  1  0.59460000  0.70274000  0.78246000  1.0
  C  C47  1  0.49204000  0.58864000  0.32653000  1.0
  C  C48  1  0.48514000  0.64818000  0.18832000  1.0
  C  C49  1  0.48627000  0.68220000  0.11584000  1.0
  C  C50  1  0.49500000  0.75834000  0.97512000  1.0
  C  C51  1  0.49431000  0.79669000  0.90280000  1.0
  C  C52  1  0.48273000  0.76519000  0.86574000  1.0
  C  C53  1  0.51810000  0.65366000  0.55175000  1.0
  C  C54  1  0.51915000  0.69167000  0.58177000  1.0
  C  C55  1  0.30908000  0.76627000  0.66065000  1.0
  C  C56  1  0.31750000  0.79723000  0.69778000  1.0
  C  C57  1  0.41977000  0.28712000  0.55872000  1.0
  C  C58  1  0.41891000  0.21896000  0.59709000  1.0
  C  C59  1  0.64557000  0.08052000  0.67312000  1.0
  C  C60  1  0.65228000  0.01248000  0.70409000  1.0
  C  C61  1  0.43336000  0.58721000  0.58748000  1.0
  C  C62  1  0.42922000  0.66444000  0.64863000  1.0
  C  C63  1  0.43590000  0.70208000  0.68348000  1.0
  C  C64  1  0.46261000  0.76645000  0.75923000  1.0
  C  C65  1  0.47824000  0.80072000  0.79720000  1.0
  C  C66  1  0.48808000  0.86941000  0.76554000  1.0
  Br  Br67  1  0.21955000  0.47048000  0.70499000  1.0
  Br  Br68  1  0.31281000  0.32606000  0.46906000  1.0
  Br  Br69  1  0.37560000  0.71073000  0.32584000  1.0
  Br  Br70  1  0.10650000  0.81654000  0.57775000  1.0
  Br  Br71  1  0.13985000  0.11291000  0.81580000  1.0
  Br  Br72  1  0.15559000  0.57398000  0.11296000  1.0
  O  O73  1  0.71001000  0.56494000  0.42844000  1.0
  O  O74  1  0.71507000  0.42912000  0.50697000  1.0
  O  O75  1  0.67818000  0.50740000  0.56389000  1.0
  O  O76  1  0.25113000  0.51141000  0.42803000  1.0
  O  O77  1  0.21049000  0.56209000  0.51191000  1.0
  O  O78  1  0.22672000  0.42734000  0.56141000  1.0
