# generated using pymatgen
data_NaTbH14C14(NO6)2
_symmetry_space_group_name_H-M   'P 1'
_cell_length_a   10.58450000
_cell_length_b   11.17050000
_cell_length_c   17.61370000
_cell_angle_alpha   90.00010000
_cell_angle_beta   90.00190000
_cell_angle_gamma   97.09830000
_symmetry_Int_Tables_number   1
_chemical_formula_structural   NaTbH14C14(NO6)2
_chemical_formula_sum   'Na4 Tb4 H56 C56 N8 O48'
_cell_volume   2066.57955728
_cell_formula_units_Z   4
loop_
 _symmetry_equiv_pos_site_id
 _symmetry_equiv_pos_as_xyz
  1  'x, y, z'
loop_
 _atom_site_type_symbol
 _atom_site_label
 _atom_site_symmetry_multiplicity
 _atom_site_fract_x
 _atom_site_fract_y
 _atom_site_fract_z
 _atom_site_occupancy
  Na  Na0  1  0.93639000  0.38935000  0.63411000  1.0
  Na  Na1  1  0.06362000  0.11065000  0.13411000  1.0
  Na  Na2  1  0.06361000  0.61066000  0.36589000  1.0
  Na  Na3  1  0.93638000  0.88934000  0.86589000  1.0
  Tb  Tb4  1  0.90536000  0.21774000  0.81684000  1.0
  Tb  Tb5  1  0.09464000  0.28226000  0.31685000  1.0
  Tb  Tb6  1  0.09464000  0.78226000  0.18316000  1.0
  Tb  Tb7  1  0.90535000  0.71774000  0.68315000  1.0
  H  H8  1  0.44490000  0.39564000  0.84478000  1.0
  H  H9  1  0.55508000  0.10435000  0.34477000  1.0
  H  H10  1  0.55510000  0.60435000  0.15523000  1.0
  H  H11  1  0.44491000  0.89566000  0.65523000  1.0
  H  H12  1  0.30462000  0.19519000  0.84398000  1.0
  H  H13  1  0.69537000  0.30480000  0.34398000  1.0
  H  H14  1  0.69538000  0.80480000  0.15602000  1.0
  H  H15  1  0.30461000  0.69520000  0.65602000  1.0
  H  H16  1  0.40878000  0.00465000  0.84114000  1.0
  H  H17  1  0.59123000  0.49534000  0.34115000  1.0
  H  H18  1  0.59122000  0.99534000  0.15885000  1.0
  H  H19  1  0.40877000  0.50466000  0.65886000  1.0
  H  H20  1  0.31603000  0.56384000  0.86313000  1.0
  H  H21  1  0.68396000  0.93616000  0.36312000  1.0
  H  H22  1  0.68397000  0.43616000  0.13689000  1.0
  H  H23  1  0.31606000  0.06385000  0.63688000  1.0
  H  H24  1  0.31887000  0.55548000  0.00665000  1.0
  H  H25  1  0.68113000  0.94453000  0.50663000  1.0
  H  H26  1  0.68111000  0.44451000  0.99337000  1.0
  H  H27  1  0.31888000  0.05547000  0.49336000  1.0
  H  H28  1  0.15170000  0.41494000  0.07300000  1.0
  H  H29  1  0.84829000  0.08505000  0.57299000  1.0
  H  H30  1  0.84829000  0.58505000  0.92701000  1.0
  H  H31  1  0.15170000  0.91494000  0.42701000  1.0
  H  H32  1  0.12854000  0.05584000  0.82799000  1.0
  H  H33  1  0.87146000  0.44415000  0.32800000  1.0
  H  H34  1  0.87146000  0.94415000  0.17200000  1.0
  H  H35  1  0.12854000  0.55585000  0.67200000  1.0
  H  H36  1  0.09948000  0.08248000  0.91536000  1.0
  H  H37  1  0.90053000  0.41752000  0.41536000  1.0
  H  H38  1  0.90052000  0.91752000  0.08463000  1.0
  H  H39  1  0.09949000  0.58248000  0.58463000  1.0
  H  H40  1  0.74601000  0.15990000  0.67942000  1.0
  H  H41  1  0.25399000  0.34011000  0.17943000  1.0
  H  H42  1  0.25400000  0.84011000  0.32057000  1.0
  H  H43  1  0.74599000  0.65989000  0.82058000  1.0
  H  H44  1  0.71433000  0.29509000  0.68751000  1.0
  H  H45  1  0.28568000  0.20492000  0.18751000  1.0
  H  H46  1  0.28567000  0.70492000  0.31249000  1.0
  H  H47  1  0.71431000  0.79509000  0.81249000  1.0
  H  H48  1  0.00834000  0.15470000  0.66491000  1.0
  H  H49  1  0.99166000  0.34530000  0.16491000  1.0
  H  H50  1  0.99167000  0.84531000  0.33508000  1.0
  H  H51  1  0.00834000  0.65470000  0.83509000  1.0
  H  H52  1  0.92258000  0.03460000  0.69266000  1.0
  H  H53  1  0.07741000  0.46541000  0.19266000  1.0
  H  H54  1  0.07743000  0.96541000  0.30734000  1.0
  H  H55  1  0.92257000  0.53460000  0.80733000  1.0
  H  H56  1  0.85175000  0.54379000  0.51661000  1.0
  H  H57  1  0.14825000  0.95621000  0.01662000  1.0
  H  H58  1  0.14825000  0.45621000  0.48338000  1.0
  H  H59  1  0.85175000  0.04379000  0.98338000  1.0
  H  H60  1  0.75288000  0.42706000  0.51231000  1.0
  H  H61  1  0.24712000  0.07294000  0.01231000  1.0
  H  H62  1  0.24713000  0.57294000  0.48768000  1.0
  H  H63  1  0.75288000  0.92706000  0.98768000  1.0
  C  C64  1  0.70809000  0.42546000  0.83990000  1.0
  C  C65  1  0.29191000  0.07454000  0.33990000  1.0
  C  C66  1  0.29192000  0.57453000  0.16010000  1.0
  C  C67  1  0.70809000  0.92546000  0.66009000  1.0
  C  C68  1  0.61646000  0.31126000  0.84442000  1.0
  C  C69  1  0.38354000  0.18875000  0.34442000  1.0
  C  C70  1  0.38354000  0.68874000  0.15558000  1.0
  C  C71  1  0.61646000  0.81125000  0.65558000  1.0
  C  C72  1  0.48447000  0.31027000  0.84554000  1.0
  C  C73  1  0.51552000  0.18972000  0.34553000  1.0
  C  C74  1  0.51554000  0.68972000  0.15446000  1.0
  C  C75  1  0.48446000  0.81028000  0.65447000  1.0
  C  C76  1  0.40798000  0.19927000  0.84518000  1.0
  C  C77  1  0.59201000  0.30073000  0.34518000  1.0
  C  C78  1  0.59203000  0.80073000  0.15482000  1.0
  C  C79  1  0.40796000  0.69927000  0.65482000  1.0
  C  C80  1  0.46500000  0.09296000  0.84377000  1.0
  C  C81  1  0.53500000  0.40703000  0.34378000  1.0
  C  C82  1  0.53500000  0.90703000  0.15622000  1.0
  C  C83  1  0.46498000  0.59297000  0.65622000  1.0
  C  C84  1  0.59771000  0.10239000  0.84238000  1.0
  C  C85  1  0.40229000  0.39762000  0.34238000  1.0
  C  C86  1  0.40229000  0.89761000  0.15762000  1.0
  C  C87  1  0.59770000  0.60238000  0.65762000  1.0
  C  C88  1  0.67132000  0.99570000  0.83552000  1.0
  C  C89  1  0.32869000  0.50432000  0.33552000  1.0
  C  C90  1  0.32868000  0.00430000  0.16448000  1.0
  C  C91  1  0.67130000  0.49568000  0.66448000  1.0
  C  C92  1  0.14287000  0.42478000  0.77077000  1.0
  C  C93  1  0.85714000  0.07523000  0.27077000  1.0
  C  C94  1  0.85715000  0.57523000  0.22923000  1.0
  C  C95  1  0.14286000  0.92478000  0.72923000  1.0
  C  C96  1  0.15541000  0.42603000  0.85603000  1.0
  C  C97  1  0.84459000  0.07396000  0.35603000  1.0
  C  C98  1  0.84459000  0.57397000  0.14397000  1.0
  C  C99  1  0.15542000  0.92605000  0.64397000  1.0
  C  C100  1  0.24757000  0.50267000  0.89508000  1.0
  C  C101  1  0.75242000  0.99732000  0.39507000  1.0
  C  C102  1  0.75242000  0.49733000  0.10493000  1.0
  C  C103  1  0.24759000  0.00268000  0.60493000  1.0
  C  C104  1  0.24738000  0.49841000  0.97416000  1.0
  C  C105  1  0.75262000  0.00159000  0.47415000  1.0
  C  C106  1  0.75261000  0.50159000  0.02585000  1.0
  C  C107  1  0.24738000  0.99841000  0.52585000  1.0
  C  C108  1  0.15431000  0.42050000  0.01149000  1.0
  C  C109  1  0.84570000  0.07948000  0.51148000  1.0
  C  C110  1  0.84568000  0.57949000  0.98851000  1.0
  C  C111  1  0.15431000  0.92051000  0.48852000  1.0
  C  C112  1  0.06406000  0.34874000  0.96826000  1.0
  C  C113  1  0.93595000  0.15125000  0.46825000  1.0
  C  C114  1  0.93593000  0.65127000  0.03175000  1.0
  C  C115  1  0.06406000  0.84874000  0.53175000  1.0
  C  C116  1  0.96069000  0.25954000  0.00291000  1.0
  C  C117  1  0.03932000  0.24046000  0.50291000  1.0
  C  C118  1  0.03930000  0.74045000  0.99709000  1.0
  C  C119  1  0.96070000  0.75954000  0.49709000  1.0
  N  N120  1  0.67093000  0.20933000  0.84301000  1.0
  N  N121  1  0.32907000  0.29067000  0.34301000  1.0
  N  N122  1  0.32908000  0.79067000  0.15699000  1.0
  N  N123  1  0.67092000  0.70933000  0.65699000  1.0
  N  N124  1  0.06651000  0.35124000  0.89221000  1.0
  N  N125  1  0.93350000  0.14875000  0.39220000  1.0
  N  N126  1  0.93348000  0.64877000  0.10780000  1.0
  N  N127  1  0.06651000  0.85124000  0.60780000  1.0
  O  O128  1  0.66547000  0.52524000  0.84230000  1.0
  O  O129  1  0.33454000  0.97476000  0.34231000  1.0
  O  O130  1  0.33455000  0.47476000  0.15769000  1.0
  O  O131  1  0.66545000  0.02524000  0.65769000  1.0
  O  O132  1  0.82656000  0.41015000  0.83338000  1.0
  O  O133  1  0.17344000  0.08983000  0.33338000  1.0
  O  O134  1  0.17345000  0.58984000  0.16662000  1.0
  O  O135  1  0.82655000  0.91015000  0.66666667  1.0
  O  O136  1  0.61358000  0.89058000  0.83796000  1.0
  O  O137  1  0.38645000  0.60943000  0.33796000  1.0
  O  O138  1  0.38644000  0.10942000  0.16203000  1.0
  O  O139  1  0.61355000  0.39056000  0.66204000  1.0
  O  O140  1  0.79252000  0.02206000  0.82697000  1.0
  O  O141  1  0.20749000  0.47795000  0.32697000  1.0
  O  O142  1  0.20749000  0.97796000  0.17303000  1.0
  O  O143  1  0.79250000  0.52203000  0.67304000  1.0
  O  O144  1  0.05085000  0.35087000  0.74422000  1.0
  O  O145  1  0.94916000  0.14913000  0.24423000  1.0
  O  O146  1  0.94916000  0.64915000  0.25577000  1.0
  O  O147  1  0.05083000  0.85087000  0.75577000  1.0
  O  O148  1  0.21788000  0.49682000  0.73250000  1.0
  O  O149  1  0.78212000  0.00320000  0.23249000  1.0
  O  O150  1  0.78213000  0.50320000  0.26751000  1.0
  O  O151  1  0.21788000  0.99680000  0.76751000  1.0
  O  O152  1  0.88942000  0.19485000  0.95520000  1.0
  O  O153  1  0.11058000  0.30515000  0.45519000  1.0
  O  O154  1  0.11057000  0.80515000  0.04481000  1.0
  O  O155  1  0.88943000  0.69484000  0.54480000  1.0
  O  O156  1  0.95333000  0.25064000  0.07389000  1.0
  O  O157  1  0.04669000  0.24938000  0.57389000  1.0
  O  O158  1  0.04666000  0.74935000  0.92611000  1.0
  O  O159  1  0.95334000  0.75065000  0.42611000  1.0
  O  O160  1  0.06593000  0.08924000  0.86312000  1.0
  O  O161  1  0.93407000  0.41075000  0.36313000  1.0
  O  O162  1  0.93408000  0.91075000  0.13687000  1.0
  O  O163  1  0.06593000  0.58925000  0.63687000  1.0
  O  O164  1  0.78400000  0.24246000  0.69613000  1.0
  O  O165  1  0.21600000  0.25754000  0.19613000  1.0
  O  O166  1  0.21600000  0.75755000  0.30387000  1.0
  O  O167  1  0.78399000  0.74246000  0.80387000  1.0
  O  O168  1  0.98053000  0.10714000  0.71038000  1.0
  O  O169  1  0.01946000  0.39286000  0.21038000  1.0
  O  O170  1  0.01947000  0.89287000  0.28962000  1.0
  O  O171  1  0.98053000  0.60714000  0.78961000  1.0
  O  O172  1  0.84348000  0.45442000  0.50734000  1.0
  O  O173  1  0.15652000  0.04558000  0.00733000  1.0
  O  O174  1  0.15653000  0.54558000  0.49267000  1.0
  O  O175  1  0.84348000  0.95441000  0.99266000  1.0
