# generated using pymatgen
data_ZnH9C14N3O5
_symmetry_space_group_name_H-M   'P 1'
_cell_length_a   7.61125000
_cell_length_b   9.66345000
_cell_length_c   10.27040000
_cell_angle_alpha   92.67820000
_cell_angle_beta   110.26200000
_cell_angle_gamma   110.14100000
_symmetry_Int_Tables_number   1
_chemical_formula_structural   ZnH9C14N3O5
_chemical_formula_sum   'Zn2 H18 C28 N6 O10'
_cell_volume   653.39718105
_cell_formula_units_Z   2
loop_
 _symmetry_equiv_pos_site_id
 _symmetry_equiv_pos_as_xyz
  1  'x, y, z'
loop_
 _atom_site_type_symbol
 _atom_site_label
 _atom_site_symmetry_multiplicity
 _atom_site_fract_x
 _atom_site_fract_y
 _atom_site_fract_z
 _atom_site_occupancy
  Zn  Zn0  1  0.24595000  0.45039000  0.05907000  1.0
  Zn  Zn1  1  0.75405000  0.54961000  0.94093000  1.0
  H  H2  1  0.45610000  0.66454000  0.57291000  1.0
  H  H3  1  0.54390000  0.33546000  0.42709000  1.0
  H  H4  1  0.59934000  0.78392000  0.21943000  1.0
  H  H5  1  0.40066000  0.21608000  0.78058000  1.0
  H  H6  1  0.65368000  0.03514000  0.33789000  1.0
  H  H7  1  0.34631000  0.96486000  0.66211000  1.0
  H  H8  1  0.09223000  0.29983000  0.74500000  1.0
  H  H9  1  0.90776000  0.70017000  0.25499000  1.0
  H  H10  1  0.04434000  0.07282000  0.84721000  1.0
  H  H11  1  0.95566000  0.92718000  0.15278000  1.0
  H  H12  1  0.80755000  0.82006000  0.69834000  1.0
  H  H13  1  0.19245000  0.17994000  0.30166000  1.0
  H  H14  1  0.18498000  0.46195000  0.58130000  1.0
  H  H15  1  0.81501000  0.53805000  0.41870000  1.0
  H  H16  1  0.99256000  0.46483000  0.64242000  1.0
  H  H17  1  0.00743000  0.53517000  0.35757000  1.0
  H  H18  1  0.19523000  0.98851000  0.04198000  1.0
  H  H19  1  0.80477000  0.01149000  0.95802000  1.0
  C  C20  1  0.45241000  0.65777000  0.46592000  1.0
  C  C21  1  0.54759000  0.34223000  0.53408000  1.0
  C  C22  1  0.52551000  0.72428000  0.28486000  1.0
  C  C23  1  0.47450000  0.27572000  0.71514000  1.0
  C  C24  1  0.71873000  0.91401000  0.50987000  1.0
  C  C25  1  0.28127000  0.08600000  0.49013000  1.0
  C  C26  1  0.74225000  0.04091000  0.44857000  1.0
  C  C27  1  0.25775000  0.95909000  0.55143000  1.0
  C  C28  1  0.87976000  0.18105000  0.53297000  1.0
  C  C29  1  0.12023000  0.81896000  0.46702000  1.0
  C  C30  1  0.98668000  0.19209000  0.67743000  1.0
  C  C31  1  0.01332000  0.80791000  0.32257000  1.0
  C  C32  1  0.95835000  0.06202000  0.73523000  1.0
  C  C33  1  0.04165000  0.93798000  0.26477000  1.0
  C  C34  1  0.82661000  0.92126000  0.65309000  1.0
  C  C35  1  0.17339000  0.07874000  0.34691000  1.0
  C  C36  1  0.02446000  0.44639000  0.54800000  1.0
  C  C37  1  0.97553000  0.55361000  0.45199000  1.0
  C  C38  1  0.48481000  0.13413000  0.04508000  1.0
  C  C39  1  0.51520000  0.86587000  0.95492000  1.0
  C  C40  1  0.65968000  0.14015000  0.02304000  1.0
  C  C41  1  0.34033000  0.85985000  0.97696000  1.0
  C  C42  1  0.32936000  0.99447000  0.02266000  1.0
  C  C43  1  0.67064000  0.00553000  0.97734000  1.0
  C  C44  1  0.44838000  0.26909000  0.08955000  1.0
  C  C45  1  0.55163000  0.73092000  0.91046000  1.0
  C  C46  1  0.83290000  0.28659000  0.04596000  1.0
  C  C47  1  0.16710000  0.71342000  0.95404000  1.0
  N  N48  1  0.37943000  0.58884000  0.24498000  1.0
  N  N49  1  0.62057000  0.41116000  0.75502000  1.0
  N  N50  1  0.33234000  0.54567000  0.35866000  1.0
  N  N51  1  0.66766000  0.45433000  0.64134000  1.0
  N  N52  1  0.57550000  0.77224000  0.42438000  1.0
  N  N53  1  0.42450000  0.22776000  0.57562000  1.0
  O  O54  1  0.89575000  0.29926000  0.46501000  1.0
  O  O55  1  0.10425000  0.70073000  0.53498000  1.0
  O  O56  1  0.36507000  0.32808000  0.98590000  1.0
  O  O57  1  0.63493000  0.67192000  0.01409000  1.0
  O  O58  1  0.47785000  0.30685000  0.21506000  1.0
  O  O59  1  0.52215000  0.69315000  0.78494000  1.0
  O  O60  1  0.81172000  0.40884000  0.07255000  1.0
  O  O61  1  0.18829000  0.59116000  0.92745000  1.0
  O  O62  1  0.99193000  0.27809000  0.03706000  1.0
  O  O63  1  0.00807000  0.72192000  0.96294000  1.0
