# generated using pymatgen
data_CoH18C18N4O5
_symmetry_space_group_name_H-M   'P 1'
_cell_length_a   9.14501000
_cell_length_b   9.64003000
_cell_length_c   11.43090000
_cell_angle_alpha   73.32190000
_cell_angle_beta   80.70120000
_cell_angle_gamma   64.86820000
_symmetry_Int_Tables_number   1
_chemical_formula_structural   CoH18C18N4O5
_chemical_formula_sum   'Co2 H36 C36 N8 O10'
_cell_volume   873.03333559
_cell_formula_units_Z   2
loop_
 _symmetry_equiv_pos_site_id
 _symmetry_equiv_pos_as_xyz
  1  'x, y, z'
loop_
 _atom_site_type_symbol
 _atom_site_label
 _atom_site_symmetry_multiplicity
 _atom_site_fract_x
 _atom_site_fract_y
 _atom_site_fract_z
 _atom_site_occupancy
  Co  Co0  1  0.30750000  0.69731000  0.39136000  1.0
  Co  Co1  1  0.69251000  0.30269000  0.60865000  1.0
  H  H2  1  0.52437000  0.66939000  0.13061000  1.0
  H  H3  1  0.47563000  0.33061000  0.86939000  1.0
  H  H4  1  0.67432000  0.00711000  0.18143000  1.0
  H  H5  1  0.32568000  0.99289000  0.81856000  1.0
  H  H6  1  0.44045000  0.96695000  0.36222000  1.0
  H  H7  1  0.55955000  0.03306000  0.63778000  1.0
  H  H8  1  0.87143000  0.75702000  0.05725000  1.0
  H  H9  1  0.12857000  0.24299000  0.94275000  1.0
  H  H10  1  0.73369000  0.92893000  0.96227000  1.0
  H  H11  1  0.26631000  0.07107000  0.03773000  1.0
  H  H12  1  0.96721000  0.81381000  0.55728000  1.0
  H  H13  1  0.03279000  0.18618000  0.44272000  1.0
  H  H14  1  0.05222000  0.33275000  0.71268000  1.0
  H  H15  1  0.94778000  0.66725000  0.28732000  1.0
  H  H16  1  0.30062000  0.35477000  0.53971000  1.0
  H  H17  1  0.69939000  0.64523000  0.46029000  1.0
  H  H18  1  0.80501000  0.52418000  0.78567000  1.0
  H  H19  1  0.19499000  0.47582000  0.21433000  1.0
  H  H20  1  0.72463000  0.71852000  0.69373000  1.0
  H  H21  1  0.27537000  0.28148000  0.30627000  1.0
  H  H22  1  0.87027000  0.80759000  0.79652000  1.0
  H  H23  1  0.12973000  0.19241000  0.20348000  1.0
  H  H24  1  0.98406000  0.61352000  0.87747000  1.0
  H  H25  1  0.01594000  0.38649000  0.12253000  1.0
  H  H26  1  0.61363000  0.76804000  0.90829000  1.0
  H  H27  1  0.38637000  0.23196000  0.09171000  1.0
  H  H28  1  0.74759000  0.59374000  0.00301000  1.0
  H  H29  1  0.25240000  0.40627000  0.99699000  1.0
  H  H30  1  0.81689000  0.10862000  0.41300000  1.0
  H  H31  1  0.18312000  0.89138000  0.58700000  1.0
  H  H32  1  0.96043000  0.07411000  0.04115000  1.0
  H  H33  1  0.03957000  0.92589000  0.95885000  1.0
  H  H34  1  0.51705000  0.45008000  0.11897000  1.0
  H  H35  1  0.48295000  0.54992000  0.88104000  1.0
  H  H36  1  0.78174000  0.26370000  0.89135000  1.0
  H  H37  1  0.21825000  0.73630000  0.10865000  1.0
  C  C38  1  0.53272000  0.75542000  0.16950000  1.0
  C  C39  1  0.46728000  0.24458000  0.83050000  1.0
  C  C40  1  0.60703000  0.93361000  0.19778000  1.0
  C  C41  1  0.39297000  0.06639000  0.80222000  1.0
  C  C42  1  0.49183000  0.91260000  0.28602000  1.0
  C  C43  1  0.50817000  0.08741000  0.71398000  1.0
  C  C44  1  0.74975000  0.81127000  0.02095000  1.0
  C  C45  1  0.25025000  0.18873000  0.97905000  1.0
  C  C46  1  0.02524000  0.68610000  0.57376000  1.0
  C  C47  1  0.97477000  0.31390000  0.42624000  1.0
  C  C48  1  0.07550000  0.43343000  0.65611000  1.0
  C  C49  1  0.92450000  0.56657000  0.34389000  1.0
  C  C50  1  0.19365000  0.44647000  0.56816000  1.0
  C  C51  1  0.80635000  0.55353000  0.43184000  1.0
  C  C52  1  0.83107000  0.62942000  0.74457000  1.0
  C  C53  1  0.16893000  0.37057000  0.25543000  1.0
  C  C54  1  0.86394000  0.69283000  0.84121000  1.0
  C  C55  1  0.13606000  0.30717000  0.15879000  1.0
  C  C56  1  0.73477000  0.71115000  0.94553000  1.0
  C  C57  1  0.26523000  0.28885000  0.05447000  1.0
  C  C58  1  0.65547000  0.28831000  0.27493000  1.0
  C  C59  1  0.34453000  0.71169000  0.72507000  1.0
  C  C60  1  0.79386000  0.15272000  0.31606000  1.0
  C  C61  1  0.20614000  0.84728000  0.68394000  1.0
  C  C62  1  0.90238000  0.07518000  0.23155000  1.0
  C  C63  1  0.09762000  0.92482000  0.76845000  1.0
  C  C64  1  0.87406000  0.13341000  0.10654000  1.0
  C  C65  1  0.12594000  0.86660000  0.89346000  1.0
  C  C66  1  0.73660000  0.26944000  0.06526000  1.0
  C  C67  1  0.26340000  0.73056000  0.93475000  1.0
  C  C68  1  0.62622000  0.34615000  0.15006000  1.0
  C  C69  1  0.37378000  0.65385000  0.84994000  1.0
  C  C70  1  0.54177000  0.37457000  0.36494000  1.0
  C  C71  1  0.45823000  0.62543000  0.63506000  1.0
  C  C72  1  0.04959000  0.92983000  0.27452000  1.0
  C  C73  1  0.95041000  0.07017000  0.72548000  1.0
  N  N74  1  0.16112000  0.60449000  0.51712000  1.0
  N  N75  1  0.83889000  0.39551000  0.48288000  1.0
  N  N76  1  0.96956000  0.58612000  0.65843000  1.0
  N  N77  1  0.03045000  0.41388000  0.34158000  1.0
  N  N78  1  0.44663000  0.80128000  0.26751000  1.0
  N  N79  1  0.55337000  0.19872000  0.73248000  1.0
  N  N80  1  0.63116000  0.83356000  0.12403000  1.0
  N  N81  1  0.36884000  0.16645000  0.87597000  1.0
  O  O82  1  0.42312000  0.50304000  0.32417000  1.0
  O  O83  1  0.57688000  0.49696000  0.67584000  1.0
  O  O84  1  0.56863000  0.31313000  0.47857000  1.0
  O  O85  1  0.43138000  0.68687000  0.52143000  1.0
  O  O86  1  0.11315000  0.91929000  0.37008000  1.0
  O  O87  1  0.88684000  0.08070000  0.62992000  1.0
  O  O88  1  0.10578000  0.82072000  0.21722000  1.0
  O  O89  1  0.89421000  0.17928000  0.78278000  1.0
  O  O90  1  0.70456000  0.33188000  0.94494000  1.0
  O  O91  1  0.29544000  0.66812000  0.05506000  1.0
