# generated using pymatgen
data_ZnH12C15N5O6
_symmetry_space_group_name_H-M   'P 1'
_cell_length_a   11.38640000
_cell_length_b   11.82882190
_cell_length_c   17.99685384
_cell_angle_alpha   81.24417693
_cell_angle_beta   71.55879539
_cell_angle_gamma   61.29964668
_symmetry_Int_Tables_number   1
_chemical_formula_structural   ZnH12C15N5O6
_chemical_formula_sum   'Zn4 H48 C60 N20 O24'
_cell_volume   2016.97463302
_cell_formula_units_Z   4
loop_
 _symmetry_equiv_pos_site_id
 _symmetry_equiv_pos_as_xyz
  1  'x, y, z'
loop_
 _atom_site_type_symbol
 _atom_site_label
 _atom_site_symmetry_multiplicity
 _atom_site_fract_x
 _atom_site_fract_y
 _atom_site_fract_z
 _atom_site_occupancy
  Zn  Zn0  1  0.92853000  0.96638000  0.32955000  1.0
  Zn  Zn1  1  0.22494000  0.03356000  0.67049000  1.0
  Zn  Zn2  1  0.50819000  0.46638000  0.17053000  1.0
  Zn  Zn3  1  0.14534000  0.53358000  0.82946000  1.0
  H  H4  1  0.20189000  0.94700000  0.21120000  1.0
  H  H5  1  0.36046000  0.05324000  0.78872000  1.0
  H  H6  1  0.66339000  0.44697000  0.28895000  1.0
  H  H7  1  0.39939000  0.55331000  0.71112000  1.0
  H  H8  1  0.42047000  0.94364000  0.21073000  1.0
  H  H9  1  0.57515000  0.05681000  0.78917000  1.0
  H  H10  1  0.88183000  0.44318000  0.28923000  1.0
  H  H11  1  0.61433000  0.55715000  0.71085000  1.0
  H  H12  1  0.26736000  0.97614000  0.46336000  1.0
  H  H13  1  0.70739000  0.02374000  0.53659000  1.0
  H  H14  1  0.98043000  0.47660000  0.03664000  1.0
  H  H15  1  0.49380000  0.52363000  0.96342000  1.0
  H  H16  1  0.04995000  0.98233000  0.45265000  1.0
  H  H17  1  0.48537000  0.01767000  0.54727000  1.0
  H  H18  1  0.75222000  0.48278000  0.04753000  1.0
  H  H19  1  0.28253000  0.51764000  0.95256000  1.0
  H  H20  1  0.70637000  0.09320000  0.24356000  1.0
  H  H21  1  0.04344000  0.90645000  0.75633000  1.0
  H  H22  1  0.20002000  0.59315000  0.25639000  1.0
  H  H23  1  0.04967000  0.40653000  0.74378000  1.0
  H  H24  1  0.49429000  0.09166000  0.23827000  1.0
  H  H25  1  0.82443000  0.90809000  0.76161000  1.0
  H  H26  1  0.98272000  0.59142000  0.26172000  1.0
  H  H27  1  0.83598000  0.40827000  0.73838000  1.0
  H  H28  1  0.52284000  0.83701000  0.43971000  1.0
  H  H29  1  0.80021000  0.16302000  0.56034000  1.0
  H  H30  1  0.21257000  0.33715000  0.06025000  1.0
  H  H31  1  0.61053000  0.66286000  0.93970000  1.0
  H  H32  1  0.73888000  0.84764000  0.43553000  1.0
  H  H33  1  0.02271000  0.15240000  0.56450000  1.0
  H  H34  1  0.42449000  0.34776000  0.06442000  1.0
  H  H35  1  0.83720000  0.65223000  0.93560000  1.0
  H  H36  1  0.94753000  0.17310000  0.20579000  1.0
  H  H37  1  0.32667000  0.82714000  0.79435000  1.0
  H  H38  1  0.40362000  0.67265000  0.29412000  1.0
  H  H39  1  0.37038000  0.32743000  0.70568000  1.0
  H  H40  1  0.02143000  0.18782000  0.05931000  1.0
  H  H41  1  0.26845000  0.81236000  0.94082000  1.0
  H  H42  1  0.33002000  0.68778000  0.44059000  1.0
  H  H43  1  0.45824000  0.31255000  0.55923000  1.0
  H  H44  1  0.06408000  0.80639000  0.05062000  1.0
  H  H45  1  0.92110000  0.19330000  0.94941000  1.0
  H  H46  1  0.36378000  0.30636000  0.44947000  1.0
  H  H47  1  0.11942000  0.69349000  0.55053000  1.0
  H  H48  1  0.99837000  0.80413000  0.19700000  1.0
  H  H49  1  0.99989000  0.19567000  0.80306000  1.0
  H  H50  1  0.44517000  0.30385000  0.30308000  1.0
  H  H51  1  0.05236000  0.69594000  0.69690000  1.0
  C  C52  1  0.21737000  0.95732000  0.26582000  1.0
  C  C53  1  0.44088000  0.04288000  0.73410000  1.0
  C  C54  1  0.73344000  0.45724000  0.23429000  1.0
  C  C55  1  0.42507000  0.54299000  0.76578000  1.0
  C  C56  1  0.34056000  0.95462000  0.26600000  1.0
  C  C57  1  0.56153000  0.04564000  0.73392000  1.0
  C  C58  1  0.85696000  0.45437000  0.23401000  1.0
  C  C59  1  0.54541000  0.54590000  0.76606000  1.0
  C  C60  1  0.36142000  0.96233000  0.33735000  1.0
  C  C61  1  0.66157000  0.03768000  0.66258000  1.0
  C  C62  1  0.94895000  0.46228000  0.16261000  1.0
  C  C63  1  0.57404000  0.53781000  0.83743000  1.0
  C  C64  1  0.25587000  0.97088000  0.40626000  1.0
  C  C65  1  0.63350000  0.02909000  0.59366000  1.0
  C  C66  1  0.91203000  0.47111000  0.09375000  1.0
  C  C67  1  0.47701000  0.52909000  0.90631000  1.0
  C  C68  1  0.13499000  0.97458000  0.40082000  1.0
  C  C69  1  0.51082000  0.02545000  0.59911000  1.0
  C  C70  1  0.78566000  0.47485000  0.09931000  1.0
  C  C71  1  0.35986000  0.52545000  0.90076000  1.0
  C  C72  1  0.66449000  0.03619000  0.28569000  1.0
  C  C73  1  0.98682000  0.96348000  0.71419000  1.0
  C  C74  1  0.20027000  0.53623000  0.21422000  1.0
  C  C75  1  0.95093000  0.46353000  0.78589000  1.0
  C  C76  1  0.54433000  0.03515000  0.28322000  1.0
  C  C77  1  0.86312000  0.96457000  0.71668000  1.0
  C  C78  1  0.07768000  0.53509000  0.21673000  1.0
  C  C79  1  0.82971000  0.46467000  0.78336000  1.0
  C  C80  1  0.48962000  0.96361000  0.33891000  1.0
  C  C81  1  0.79267000  0.03626000  0.66103000  1.0
  C  C82  1  0.07868000  0.46362000  0.16101000  1.0
  C  C83  1  0.70364000  0.53627000  0.83901000  1.0
  C  C84  1  0.56035000  0.89483000  0.39523000  1.0
  C  C85  1  0.85105000  0.10511000  0.60476000  1.0
  C  C86  1  0.20568000  0.39497000  0.10468000  1.0
  C  C87  1  0.70581000  0.60497000  0.89532000  1.0
  C  C88  1  0.68091000  0.90002000  0.39292000  1.0
  C  C89  1  0.97451000  0.09989000  0.60707000  1.0
  C  C90  1  0.32391000  0.40018000  0.10699000  1.0
  C  C91  1  0.83156000  0.59975000  0.89304000  1.0
  C  C92  1  0.97600000  0.09385000  0.16886000  1.0
  C  C93  1  0.23885000  0.90625000  0.83125000  1.0
  C  C94  1  0.39475000  0.59354000  0.33110000  1.0
  C  C95  1  0.31940000  0.40654000  0.66876000  1.0
  C  C96  1  0.01501000  0.10206000  0.08774000  1.0
  C  C97  1  0.20478000  0.89803000  0.91238000  1.0
  C  C98  1  0.35210000  0.60196000  0.41221000  1.0
  C  C99  1  0.36619000  0.39824000  0.58765000  1.0
  C  C100  1  0.04998000  0.99730000  0.04316000  1.0
  C  C101  1  0.09040000  0.00264000  0.95695000  1.0
  C  C102  1  0.34216000  0.49732000  0.45683000  1.0
  C  C103  1  0.29627000  0.50280000  0.54304000  1.0
  C  C104  1  0.04386000  0.88789000  0.08274000  1.0
  C  C105  1  0.01454000  0.11192000  0.91732000  1.0
  C  C106  1  0.37582000  0.38780000  0.41730000  1.0
  C  C107  1  0.18088000  0.61213000  0.58262000  1.0
  C  C108  1  0.00447000  0.88726000  0.16397000  1.0
  C  C109  1  0.05594000  0.11259000  0.83609000  1.0
  C  C110  1  0.41803000  0.38705000  0.33608000  1.0
  C  C111  1  0.14132000  0.61285000  0.66386000  1.0
  N  N112  1  0.11486000  0.96879000  0.33181000  1.0
  N  N113  1  0.41587000  0.03129000  0.66812000  1.0
  N  N114  1  0.69669000  0.46890000  0.16836000  1.0
  N  N115  1  0.33403000  0.53132000  0.83171000  1.0
  N  N116  1  0.73273000  0.96929000  0.33914000  1.0
  N  N117  1  0.04172000  0.03049000  0.66080000  1.0
  N  N118  1  0.32194000  0.46942000  0.16076000  1.0
  N  N119  1  0.95243000  0.53043000  0.83931000  1.0
  N  N120  1  0.97136000  0.98792000  0.20675000  1.0
  N  N121  1  0.16632000  0.01205000  0.79333000  1.0
  N  N122  1  0.42809000  0.48759000  0.29327000  1.0
  N  N123  1  0.20911000  0.51240000  0.70665000  1.0
  N  N124  1  0.75918000  0.20219000  0.40585000  1.0
  N  N125  1  0.36735000  0.79796000  0.59410000  1.0
  N  N126  1  0.41551000  0.70210000  0.09409000  1.0
  N  N127  1  0.21143000  0.29784000  0.90585000  1.0
  N  N128  1  0.01753000  0.72102000  0.40481000  1.0
  N  N129  1  0.14339000  0.27895000  0.59520000  1.0
  N  N130  1  0.67230000  0.22111000  0.09521000  1.0
  N  N131  1  0.98868000  0.77876000  0.90490000  1.0
  O  O132  1  0.82196000  0.08448000  0.43047000  1.0
  O  O133  1  0.33698000  0.91566000  0.56940000  1.0
  O  O134  1  0.50270000  0.58436000  0.06953000  1.0
  O  O135  1  0.15647000  0.41553000  0.93049000  1.0
  O  O136  1  0.77733000  0.21935000  0.33287000  1.0
  O  O137  1  0.32994000  0.78090000  0.66713000  1.0
  O  O138  1  0.36100000  0.71931000  0.16709000  1.0
  O  O139  1  0.24675000  0.28078000  0.83285000  1.0
  O  O140  1  0.68496000  0.29131000  0.45444000  1.0
  O  O141  1  0.43065000  0.70872000  0.54559000  1.0
  O  O142  1  0.38977000  0.79118000  0.04545000  1.0
  O  O143  1  0.22636000  0.20860000  0.95442000  1.0
  O  O144  1  0.01772667  0.76587000  0.33333333  1.0
  O  O145  1  0.11753000  0.23405000  0.66679000  1.0
  O  O146  1  0.60109000  0.26603000  0.16674000  1.0
  O  O147  1  0.03430000  0.73395000  0.83331000  1.0
  O  O148  1  0.97329000  0.80097000  0.45851000  1.0
  O  O149  1  0.23277000  0.19915000  0.54146000  1.0
  O  O150  1  0.68149000  0.30102000  0.04140000  1.0
  O  O151  1  0.02389000  0.69882000  0.95870000  1.0
  O  O152  1  0.06017000  0.60358000  0.41581000  1.0
  O  O153  1  0.07909000  0.39630000  0.58421000  1.0
  O  O154  1  0.72606000  0.10363000  0.08438000  1.0
  O  O155  1  0.91389000  0.89616000  0.91583000  1.0
