# generated using pymatgen
data_Co5H28C37N5O19
_symmetry_space_group_name_H-M   'P 1'
_cell_length_a   11.09810000
_cell_length_b   18.66000000
_cell_length_c   21.75970000
_cell_angle_alpha   93.29350000
_cell_angle_beta   89.98560000
_cell_angle_gamma   107.31000000
_symmetry_Int_Tables_number   1
_chemical_formula_structural   Co5H28C37N5O19
_chemical_formula_sum   'Co20 H112 C148 N20 O76'
_cell_volume   4294.35975127
_cell_formula_units_Z   4
loop_
 _symmetry_equiv_pos_site_id
 _symmetry_equiv_pos_as_xyz
  1  'x, y, z'
loop_
 _atom_site_type_symbol
 _atom_site_label
 _atom_site_symmetry_multiplicity
 _atom_site_fract_x
 _atom_site_fract_y
 _atom_site_fract_z
 _atom_site_occupancy
  Co  Co0  1  0.40079000  0.65174000  0.23959000  1.0
  Co  Co1  1  0.74869000  0.34812000  0.26049000  1.0
  Co  Co2  1  0.59921000  0.34826000  0.76041000  1.0
  Co  Co3  1  0.25130000  0.65188000  0.73951000  1.0
  Co  Co4  1  0.60988000  0.80067000  0.17557000  1.0
  Co  Co5  1  0.80896000  0.19920000  0.32446000  1.0
  Co  Co6  1  0.39013000  0.19934000  0.82444000  1.0
  Co  Co7  1  0.19104000  0.80080000  0.67554000  1.0
  Co  Co8  1  0.55566000  0.24870000  0.36326000  1.0
  Co  Co9  1  0.30709000  0.75115000  0.13678000  1.0
  Co  Co10  1  0.44434000  0.75130000  0.63675000  1.0
  Co  Co11  1  0.69291000  0.24885000  0.86321000  1.0
  Co  Co12  1  0.98589000  0.72460000  0.56294000  1.0
  Co  Co13  1  0.26126000  0.27541000  0.93704000  1.0
  Co  Co14  1  0.01412000  0.27540000  0.43708000  1.0
  Co  Co15  1  0.73876000  0.72458000  0.06294000  1.0
  Co  Co16  1  0.17081000  0.85395000  0.50185000  1.0
  Co  Co17  1  0.31687000  0.14605000  0.99813000  1.0
  Co  Co18  1  0.82919000  0.14605000  0.49816000  1.0
  Co  Co19  1  0.68312000  0.85396000  0.00186000  1.0
  H  H20  1  0.47270000  0.67549000  0.13176000  1.0
  H  H21  1  0.79700000  0.32436000  0.36827000  1.0
  H  H22  1  0.52730000  0.32451000  0.86824000  1.0
  H  H23  1  0.20300000  0.67564000  0.63173000  1.0
  H  H24  1  0.54488000  0.77379000  0.06749000  1.0
  H  H25  1  0.77106000  0.22617000  0.43252000  1.0
  H  H26  1  0.45514000  0.22620000  0.93252000  1.0
  H  H27  1  0.22894000  0.77383000  0.56749000  1.0
  H  H28  1  0.84111000  0.84213000  0.19720000  1.0
  H  H29  1  0.99894000  0.15790000  0.30273000  1.0
  H  H30  1  0.15889000  0.15787000  0.80281000  1.0
  H  H31  1  0.00106000  0.84210000  0.69727000  1.0
  H  H32  1  0.78513000  0.90083000  0.22944000  1.0
  H  H33  1  0.88441000  0.09916000  0.27041000  1.0
  H  H34  1  0.21488000  0.09917000  0.77057000  1.0
  H  H35  1  0.11559000  0.90085000  0.72958000  1.0
  H  H36  1  0.09991000  0.85427000  0.39187000  1.0
  H  H37  1  0.24542000  0.14561000  0.10810000  1.0
  H  H38  1  0.90009000  0.14574000  0.60814000  1.0
  H  H39  1  0.75458000  0.85439000  0.89189000  1.0
  H  H40  1  0.13101000  0.94480000  0.41507000  1.0
  H  H41  1  0.18592000  0.05510000  0.08484000  1.0
  H  H42  1  0.86899000  0.05520000  0.58493000  1.0
  H  H43  1  0.81408000  0.94490000  0.91514000  1.0
  H  H44  1  0.71397000  0.45403000  0.33486000  1.0
  H  H45  1  0.25998000  0.54579000  0.16530000  1.0
  H  H46  1  0.28602000  0.54596000  0.66514000  1.0
  H  H47  1  0.74002000  0.45420000  0.83469000  1.0
  H  H48  1  0.86260000  0.45556000  0.34854000  1.0
  H  H49  1  0.40705000  0.54426000  0.15151000  1.0
  H  H50  1  0.13740000  0.54443000  0.65146000  1.0
  H  H51  1  0.59295000  0.45573000  0.84848000  1.0
  H  H52  1  0.13552000  0.94977000  0.58888000  1.0
  H  H53  1  0.18586000  0.05029000  0.91104000  1.0
  H  H54  1  0.86448000  0.05023000  0.41113000  1.0
  H  H55  1  0.81414000  0.94973000  0.08896000  1.0
  H  H56  1  0.28052000  0.94419000  0.59526000  1.0
  H  H57  1  0.33647000  0.05588000  0.90466000  1.0
  H  H58  1  0.71948000  0.05582000  0.40474000  1.0
  H  H59  1  0.66354000  0.94413000  0.09534000  1.0
  H  H60  1  0.47507000  0.65718000  0.34915000  1.0
  H  H61  1  0.81759000  0.34286000  0.15092000  1.0
  H  H62  1  0.52494000  0.34282000  0.65086000  1.0
  H  H63  1  0.18242000  0.65714000  0.84907000  1.0
  H  H64  1  0.44815000  0.56648000  0.32658000  1.0
  H  H65  1  0.88131000  0.43352000  0.17362000  1.0
  H  H66  1  0.55186000  0.43351000  0.67343000  1.0
  H  H67  1  0.11870000  0.56647000  0.82637000  1.0
  H  H68  1  0.60868000  0.96759000  0.29861000  1.0
  H  H69  1  0.64068000  0.03232000  0.20139000  1.0
  H  H70  1  0.39132000  0.03241000  0.70139000  1.0
  H  H71  1  0.35932000  0.96768000  0.79861000  1.0
  H  H72  1  0.31423000  0.03906000  0.38773000  1.0
  H  H73  1  0.27487000  0.96078000  0.11223000  1.0
  H  H74  1  0.68576000  0.96094000  0.61227000  1.0
  H  H75  1  0.72513000  0.03922000  0.88777000  1.0
  H  H76  1  0.26851000  0.80276000  0.35084000  1.0
  H  H77  1  0.46537000  0.19709000  0.14915000  1.0
  H  H78  1  0.73149000  0.19725000  0.64917000  1.0
  H  H79  1  0.53463000  0.80291000  0.85083000  1.0
  H  H80  1  0.94437000  0.72376000  0.20872000  1.0
  H  H81  1  0.22007000  0.27591000  0.29123000  1.0
  H  H82  1  0.05563000  0.27624000  0.79128000  1.0
  H  H83  1  0.77993000  0.72408000  0.70877000  1.0
  H  H84  1  0.03756000  0.53856000  0.28458000  1.0
  H  H85  1  0.49887000  0.46104000  0.21543000  1.0
  H  H86  1  0.96243000  0.46143000  0.71542000  1.0
  H  H87  1  0.50113000  0.53895000  0.78456000  1.0
  H  H88  1  0.65213000  0.54471000  0.28391000  1.0
  H  H89  1  0.10743000  0.45517000  0.21617000  1.0
  H  H90  1  0.34786000  0.45528000  0.71609000  1.0
  H  H91  1  0.89258000  0.54482000  0.78383000  1.0
  H  H92  1  0.37018000  0.21244000  0.45338000  1.0
  H  H93  1  0.15779000  0.78771000  0.04663000  1.0
  H  H94  1  0.62982000  0.78757000  0.54662000  1.0
  H  H95  1  0.84220000  0.21229000  0.95336000  1.0
  H  H96  1  0.07442000  0.03804000  0.53093000  1.0
  H  H97  1  0.03646000  0.96202000  0.96902000  1.0
  H  H98  1  0.92558000  0.96197000  0.46908000  1.0
  H  H99  1  0.96355000  0.03799000  0.03097000  1.0
  H  H100  1  0.45880000  0.03134000  0.53913000  1.0
  H  H101  1  0.42756000  0.96877000  0.96076000  1.0
  H  H102  1  0.54120000  0.96867000  0.46087000  1.0
  H  H103  1  0.57243000  0.03124000  0.03923000  1.0
  H  H104  1  0.97128000  0.54101000  0.44653000  1.0
  H  H105  1  0.43034000  0.45905000  0.05351000  1.0
  H  H106  1  0.02872000  0.45899000  0.55348000  1.0
  H  H107  1  0.56967000  0.54094000  0.94649000  1.0
  H  H108  1  0.26018000  0.47097000  0.35022000  1.0
  H  H109  1  0.78895000  0.52906000  0.15007000  1.0
  H  H110  1  0.73982000  0.52903000  0.64979000  1.0
  H  H111  1  0.21105000  0.47093000  0.84992000  1.0
  H  H112  1  0.30726000  0.70679000  0.39039000  1.0
  H  H113  1  0.60021000  0.29323000  0.10975000  1.0
  H  H114  1  0.69274000  0.29321000  0.60962000  1.0
  H  H115  1  0.39979000  0.70676000  0.89024000  1.0
  H  H116  1  0.72011000  0.37199000  0.44766000  1.0
  H  H117  1  0.34840000  0.62790000  0.05220000  1.0
  H  H118  1  0.27988000  0.62801000  0.55234000  1.0
  H  H119  1  0.65161000  0.37210000  0.94780000  1.0
  H  H120  1  0.70529000  0.48433000  0.50661000  1.0
  H  H121  1  0.22103000  0.51558000  0.99324000  1.0
  H  H122  1  0.29470000  0.51566000  0.49339000  1.0
  H  H123  1  0.77898000  0.48441000  0.00676000  1.0
  H  H124  1  0.31124000  0.42275000  0.44778000  1.0
  H  H125  1  0.88877000  0.57732000  0.05224000  1.0
  H  H126  1  0.68875000  0.57724000  0.55223000  1.0
  H  H127  1  0.11123000  0.42266000  0.94775000  1.0
  H  H128  1  0.34539000  0.31608000  0.38864000  1.0
  H  H129  1  0.02977000  0.68393000  0.11137000  1.0
  H  H130  1  0.65461000  0.68391000  0.61136000  1.0
  H  H131  1  0.97023000  0.31606000  0.88862000  1.0
  C  C132  1  0.44268000  0.87872000  0.32112000  1.0
  C  C133  1  0.56356000  0.12117000  0.17887000  1.0
  C  C134  1  0.55732000  0.12128000  0.67889000  1.0
  C  C135  1  0.43644000  0.87884000  0.82112000  1.0
  C  C136  1  0.51617000  0.95381000  0.31944000  1.0
  C  C137  1  0.56199000  0.04609000  0.18053000  1.0
  C  C138  1  0.48383000  0.04619000  0.68057000  1.0
  C  C139  1  0.43801000  0.95392000  0.81946000  1.0
  C  C140  1  0.46815000  0.01102000  0.34271000  1.0
  C  C141  1  0.45678000  0.98886000  0.15726000  1.0
  C  C142  1  0.53185000  0.98898000  0.65730000  1.0
  C  C143  1  0.54321000  0.01115000  0.84273000  1.0
  C  C144  1  0.34964000  0.99354000  0.36979000  1.0
  C  C145  1  0.35581000  0.00633000  0.13013000  1.0
  C  C146  1  0.65036000  0.00647000  0.63022000  1.0
  C  C147  1  0.64418000  0.99368000  0.86985000  1.0
  C  C148  1  0.27985000  0.91852000  0.37493000  1.0
  C  C149  1  0.36102000  0.08135000  0.12499000  1.0
  C  C150  1  0.72015000  0.08148000  0.62508000  1.0
  C  C151  1  0.63899000  0.91866000  0.87499000  1.0
  C  C152  1  0.32464000  0.86125000  0.34893000  1.0
  C  C153  1  0.46305000  0.13861000  0.15103000  1.0
  C  C154  1  0.67536000  0.13875000  0.65109000  1.0
  C  C155  1  0.53696000  0.86140000  0.84895000  1.0
  C  C156  1  0.48688000  0.81691000  0.29112000  1.0
  C  C157  1  0.66941000  0.18300000  0.20892000  1.0
  C  C158  1  0.51313000  0.18308000  0.70890000  1.0
  C  C159  1  0.33059000  0.81701000  0.79107000  1.0
  C  C160  1  0.54420000  0.09129000  0.34057000  1.0
  C  C161  1  0.45255000  0.90859000  0.15946000  1.0
  C  C162  1  0.45579000  0.90872000  0.65944000  1.0
  C  C163  1  0.54744000  0.09142000  0.84054000  1.0
  C  C164  1  0.78797000  0.63825000  0.24520000  1.0
  C  C165  1  0.14937000  0.36149000  0.25476000  1.0
  C  C166  1  0.21203000  0.36175000  0.75481000  1.0
  C  C167  1  0.85063000  0.63850000  0.74523000  1.0
  C  C168  1  0.91480000  0.67090000  0.23127000  1.0
  C  C169  1  0.24343000  0.32875000  0.26866000  1.0
  C  C170  1  0.08520000  0.32909000  0.76874000  1.0
  C  C171  1  0.75657000  0.67125000  0.73133000  1.0
  C  C172  1  0.00378000  0.63446000  0.24561000  1.0
  C  C173  1  0.36892000  0.36516000  0.25436000  1.0
  C  C174  1  0.99622000  0.36553000  0.75440000  1.0
  C  C175  1  0.63107000  0.63483000  0.74563000  1.0
  C  C176  1  0.96650000  0.56569000  0.27377000  1.0
  C  C177  1  0.40062000  0.43395000  0.22623000  1.0
  C  C178  1  0.03349000  0.43430000  0.72624000  1.0
  C  C179  1  0.59938000  0.56604000  0.77376000  1.0
  C  C180  1  0.83987000  0.53297000  0.28850000  1.0
  C  C181  1  0.30684000  0.46676000  0.21153000  1.0
  C  C182  1  0.16012000  0.46702000  0.71150000  1.0
  C  C183  1  0.69316000  0.53323000  0.78845000  1.0
  C  C184  1  0.75147000  0.56983000  0.27386000  1.0
  C  C185  1  0.18150000  0.42994000  0.22616000  1.0
  C  C186  1  0.24853000  0.43016000  0.72615000  1.0
  C  C187  1  0.81850000  0.57005000  0.77383000  1.0
  C  C188  1  0.68889000  0.67410000  0.22871000  1.0
  C  C189  1  0.01435000  0.32578000  0.27128000  1.0
  C  C190  1  0.31111000  0.32589000  0.77130000  1.0
  C  C191  1  0.98565000  0.67421000  0.72872000  1.0
  C  C192  1  0.13951000  0.66706000  0.22922000  1.0
  C  C193  1  0.47201000  0.33260000  0.27084000  1.0
  C  C194  1  0.86049000  0.33293000  0.77078000  1.0
  C  C195  1  0.52798000  0.66739000  0.72916000  1.0
  C  C196  1  0.42844000  0.12465000  0.49453000  1.0
  C  C197  1  0.30386000  0.87547000  0.00540000  1.0
  C  C198  1  0.57156000  0.87536000  0.50549000  1.0
  C  C199  1  0.69615000  0.12454000  0.99458000  1.0
  C  C200  1  0.34007000  0.16008000  0.47657000  1.0
  C  C201  1  0.18005000  0.84004000  0.02341000  1.0
  C  C202  1  0.65993000  0.83993000  0.52345000  1.0
  C  C203  1  0.81995000  0.15997000  0.97657000  1.0
  C  C204  1  0.21239000  0.12847000  0.49001000  1.0
  C  C205  1  0.08395000  0.87160000  0.00995000  1.0
  C  C206  1  0.78761000  0.87154000  0.51001000  1.0
  C  C207  1  0.91605000  0.12841000  0.99004000  1.0
  C  C208  1  0.17385000  0.06128000  0.52026000  1.0
  C  C209  1  0.11264000  0.93879000  0.97968000  1.0
  C  C210  1  0.82615000  0.93873000  0.47975000  1.0
  C  C211  1  0.88736000  0.06123000  0.02031000  1.0
  C  C212  1  0.26075000  0.02501000  0.53771000  1.0
  C  C213  1  0.23584000  0.97508000  0.96222000  1.0
  C  C214  1  0.73925000  0.97500000  0.46230000  1.0
  C  C215  1  0.76417000  0.02494000  0.03777000  1.0
  C  C216  1  0.38868000  0.05764000  0.52520000  1.0
  C  C217  1  0.33115000  0.94248000  0.97474000  1.0
  C  C218  1  0.61132000  0.94237000  0.47481000  1.0
  C  C219  1  0.66885000  0.05753000  0.02525000  1.0
  C  C220  1  0.56713000  0.15599000  0.48144000  1.0
  C  C221  1  0.41114000  0.84409000  0.01850000  1.0
  C  C222  1  0.43287000  0.84402000  0.51858000  1.0
  C  C223  1  0.58886000  0.15591000  0.98148000  1.0
  C  C224  1  0.11347000  0.16489000  0.47573000  1.0
  C  C225  1  0.94861000  0.83514000  0.02428000  1.0
  C  C226  1  0.88654000  0.83512000  0.52429000  1.0
  C  C227  1  0.05139000  0.16487000  0.97571000  1.0
  C  C228  1  0.13459000  0.63012000  0.42096000  1.0
  C  C229  1  0.50437000  0.36993000  0.07909000  1.0
  C  C230  1  0.86542000  0.36988000  0.57905000  1.0
  C  C231  1  0.49564000  0.63006000  0.92090000  1.0
  C  C232  1  0.06178000  0.55489000  0.42364000  1.0
  C  C233  1  0.50684000  0.44516000  0.07645000  1.0
  C  C234  1  0.93822000  0.44511000  0.57637000  1.0
  C  C235  1  0.49316000  0.55483000  0.92354000  1.0
  C  C236  1  0.10862000  0.49812000  0.39862000  1.0
  C  C237  1  0.61037000  0.50192000  0.10157000  1.0
  C  C238  1  0.89138000  0.50188000  0.60139000  1.0
  C  C239  1  0.38964000  0.49807000  0.89842000  1.0
  C  C240  1  0.22565000  0.51608000  0.36976000  1.0
  C  C241  1  0.70932000  0.48395000  0.13051000  1.0
  C  C242  1  0.77435000  0.48391000  0.63025000  1.0
  C  C243  1  0.29068000  0.51603000  0.86947000  1.0
  C  C244  1  0.29627000  0.59111000  0.36585000  1.0
  C  C245  1  0.70484000  0.40890000  0.13436000  1.0
  C  C246  1  0.70373000  0.40888000  0.63417000  1.0
  C  C247  1  0.29516000  0.59108000  0.86563000  1.0
  C  C248  1  0.25163000  0.64817000  0.39241000  1.0
  C  C249  1  0.60320000  0.35185000  0.10775000  1.0
  C  C250  1  0.74838000  0.35182000  0.60760000  1.0
  C  C251  1  0.39681000  0.64814000  0.89224000  1.0
  C  C252  1  0.09099000  0.69155000  0.45140000  1.0
  C  C253  1  0.39942000  0.30851000  0.04858000  1.0
  C  C254  1  0.90901000  0.30845000  0.54862000  1.0
  C  C255  1  0.60060000  0.69148000  0.95140000  1.0
  C  C256  1  0.03676000  0.41754000  0.40412000  1.0
  C  C257  1  0.61907000  0.58246000  0.09600000  1.0
  C  C258  1  0.96324000  0.58246000  0.59589000  1.0
  C  C259  1  0.38093000  0.41753000  0.90398000  1.0
  C  C260  1  0.63162000  0.38590000  0.44786000  1.0
  C  C261  1  0.24598000  0.61401000  0.05204000  1.0
  C  C262  1  0.36838000  0.61410000  0.55215000  1.0
  C  C263  1  0.75402000  0.38598000  0.94795000  1.0
  C  C264  1  0.62203000  0.44931000  0.48134000  1.0
  C  C265  1  0.17287000  0.55062000  0.01856000  1.0
  C  C266  1  0.37796000  0.55068000  0.51867000  1.0
  C  C267  1  0.82714000  0.44938000  0.98143000  1.0
  C  C268  1  0.50685000  0.46653000  0.48255000  1.0
  C  C269  1  0.04045000  0.53346000  0.01741000  1.0
  C  C270  1  0.49314000  0.53346000  0.51746000  1.0
  C  C271  1  0.95956000  0.46653000  0.98258000  1.0
  C  C272  1  0.40536000  0.41611000  0.44897000  1.0
  C  C273  1  0.98952000  0.58393000  0.05101000  1.0
  C  C274  1  0.59463000  0.58388000  0.55104000  1.0
  C  C275  1  0.01048000  0.41606000  0.94898000  1.0
  C  C276  1  0.42304000  0.35485000  0.41534000  1.0
  C  C277  1  0.06858000  0.64515000  0.08462000  1.0
  C  C278  1  0.57694000  0.64514000  0.58466000  1.0
  C  C279  1  0.93142000  0.35484000  0.91537000  1.0
  N  N280  1  0.16763000  0.90088000  0.40939000  1.0
  N  N281  1  0.26651000  0.09902000  0.09054000  1.0
  N  N282  1  0.83237000  0.09913000  0.59062000  1.0
  N  N283  1  0.73349000  0.90099000  0.90944000  1.0
  N  N284  1  0.80084000  0.46297000  0.31590000  1.0
  N  N285  1  0.33792000  0.53682000  0.18420000  1.0
  N  N286  1  0.19915000  0.53703000  0.68411000  1.0
  N  N287  1  0.66208000  0.46317000  0.81579000  1.0
  N  N288  1  0.21709000  0.95531000  0.56534000  1.0
  N  N289  1  0.26189000  0.04477000  0.93458000  1.0
  N  N290  1  0.78291000  0.04470000  0.43467000  1.0
  N  N291  1  0.73811000  0.95525000  0.06542000  1.0
  N  N292  1  0.40915000  0.60938000  0.33233000  1.0
  N  N293  1  0.79942000  0.39061000  0.16783000  1.0
  N  N294  1  0.59086000  0.39062000  0.66768000  1.0
  N  N295  1  0.20058000  0.60939000  0.83216000  1.0
  N  N296  1  0.53477000  0.33951000  0.41380000  1.0
  N  N297  1  0.19562000  0.66041000  0.08613000  1.0
  N  N298  1  0.46522000  0.66048000  0.58621000  1.0
  N  N299  1  0.80439000  0.33958000  0.91385000  1.0
  O  O300  1  0.41436000  0.75014000  0.29316000  1.0
  O  O301  1  0.66371000  0.24977000  0.20688000  1.0
  O  O302  1  0.58565000  0.24986000  0.70686000  1.0
  O  O303  1  0.33629000  0.75023000  0.79311000  1.0
  O  O304  1  0.59392000  0.83472000  0.26418000  1.0
  O  O305  1  0.75860000  0.16520000  0.23587000  1.0
  O  O306  1  0.40609000  0.16528000  0.73583000  1.0
  O  O307  1  0.24140000  0.83481000  0.76412000  1.0
  O  O308  1  0.66398000  0.10494000  0.34284000  1.0
  O  O309  1  0.55867000  0.89493000  0.15734000  1.0
  O  O310  1  0.33601000  0.89508000  0.65717000  1.0
  O  O311  1  0.44133000  0.10508000  0.84267000  1.0
  O  O312  1  0.48629000  0.14053000  0.33755000  1.0
  O  O313  1  0.34536000  0.85933000  0.16240000  1.0
  O  O314  1  0.51369000  0.85948000  0.66246000  1.0
  O  O315  1  0.65463000  0.14068000  0.83759000  1.0
  O  O316  1  0.57683000  0.63988000  0.24403000  1.0
  O  O317  1  0.93661000  0.36000000  0.25589000  1.0
  O  O318  1  0.42316000  0.36011000  0.75597000  1.0
  O  O319  1  0.06338000  0.64000000  0.74411000  1.0
  O  O320  1  0.72167000  0.73497000  0.20024000  1.0
  O  O321  1  0.98625000  0.26498000  0.29984000  1.0
  O  O322  1  0.27833000  0.26503000  0.79977000  1.0
  O  O323  1  0.01374000  0.73502000  0.70016000  1.0
  O  O324  1  0.17319000  0.72926000  0.20323000  1.0
  O  O325  1  0.44345000  0.27040000  0.29683000  1.0
  O  O326  1  0.82679000  0.27073000  0.79677000  1.0
  O  O327  1  0.55654000  0.72960000  0.70318000  1.0
  O  O328  1  0.21273000  0.62797000  0.24071000  1.0
  O  O329  1  0.58437000  0.37179000  0.25947000  1.0
  O  O330  1  0.78727000  0.37202000  0.75929000  1.0
  O  O331  1  0.41562000  0.62821000  0.74053000  1.0
  O  O332  1  0.63790000  0.12030000  0.50259000  1.0
  O  O333  1  0.51765000  0.87978000  0.99735000  1.0
  O  O334  1  0.36210000  0.87972000  0.49743000  1.0
  O  O335  1  0.48234000  0.12023000  0.00263000  1.0
  O  O336  1  0.60849000  0.21487000  0.45094000  1.0
  O  O337  1  0.39350000  0.78521000  0.04900000  1.0
  O  O338  1  0.39150000  0.78514000  0.54908000  1.0
  O  O339  1  0.60647000  0.21479000  0.95098000  1.0
  O  O340  1  0.13809000  0.21890000  0.43939000  1.0
  O  O341  1  0.91922000  0.78101000  0.06050000  1.0
  O  O342  1  0.86193000  0.78111000  0.56062000  1.0
  O  O343  1  0.08078000  0.21899000  0.93948000  1.0
  O  O344  1  0.00770000  0.13959000  0.50206000  1.0
  O  O345  1  0.86811000  0.86044000  0.99801000  1.0
  O  O346  1  0.99231000  0.86043000  0.49796000  1.0
  O  O347  1  0.13190000  0.13956000  0.00196000  1.0
  O  O348  1  0.16033000  0.75902000  0.44716000  1.0
  O  O349  1  0.40125000  0.24103000  0.05278000  1.0
  O  O350  1  0.83968000  0.24098000  0.55287000  1.0
  O  O351  1  0.59878000  0.75896000  0.94719000  1.0
  O  O352  1  0.98861000  0.67235000  0.48159000  1.0
  O  O353  1  0.31637000  0.32773000  0.01833000  1.0
  O  O354  1  0.01140000  0.32764000  0.51843000  1.0
  O  O355  1  0.68364000  0.67227000  0.98165000  1.0
  O  O356  1  0.91767000  0.39831000  0.40815000  1.0
  O  O357  1  0.51919000  0.60165000  0.09191000  1.0
  O  O358  1  0.08234000  0.60169000  0.59186000  1.0
  O  O359  1  0.48081000  0.39833000  0.90807000  1.0
  O  O360  1  0.10378000  0.37190000  0.40487000  1.0
  O  O361  1  0.73174000  0.62811000  0.09523000  1.0
  O  O362  1  0.89622000  0.62810000  0.59514000  1.0
  O  O363  1  0.26826000  0.37188000  0.90475000  1.0
  O  O364  1  0.44293000  0.70842000  0.16168000  1.0
  O  O365  1  0.73430000  0.29144000  0.33836000  1.0
  O  O366  1  0.55708000  0.29158000  0.83832000  1.0
  O  O367  1  0.26570000  0.70855000  0.66164000  1.0
  O  O368  1  0.63474000  0.78912000  0.08222000  1.0
  O  O369  1  0.84560000  0.21082000  0.41780000  1.0
  O  O370  1  0.36528000  0.21087000  0.91778000  1.0
  O  O371  1  0.15441000  0.78918000  0.58221000  1.0
  O  O372  1  0.80961000  0.88460000  0.18905000  1.0
  O  O373  1  0.92503000  0.11535000  0.31081000  1.0
  O  O374  1  0.19039000  0.11540000  0.81095000  1.0
  O  O375  1  0.07497000  0.88466000  0.68919000  1.0
