# generated using pymatgen
data_CdH9C5Br2NO2
_symmetry_space_group_name_H-M   'P 1'
_cell_length_a   7.41300000
_cell_length_b   10.13980000
_cell_length_c   12.88670000
_cell_angle_alpha   90.00030000
_cell_angle_beta   89.99920000
_cell_angle_gamma   89.99970000
_symmetry_Int_Tables_number   1
_chemical_formula_structural   CdH9C5Br2NO2
_chemical_formula_sum   'Cd4 H36 C20 Br8 N4 O8'
_cell_volume   968.64604005
_cell_formula_units_Z   4
loop_
 _symmetry_equiv_pos_site_id
 _symmetry_equiv_pos_as_xyz
  1  'x, y, z'
loop_
 _atom_site_type_symbol
 _atom_site_label
 _atom_site_symmetry_multiplicity
 _atom_site_fract_x
 _atom_site_fract_y
 _atom_site_fract_z
 _atom_site_occupancy
  Cd  Cd0  1  0.69078000  0.24274000  0.00233000  1.0
  Cd  Cd1  1  0.19078000  0.25726000  0.99767000  1.0
  Cd  Cd2  1  0.30921000  0.74274000  0.49768000  1.0
  Cd  Cd3  1  0.80921000  0.75726000  0.50233000  1.0
  H  H4  1  0.21780000  0.99756000  0.79701000  1.0
  H  H5  1  0.71780000  0.50244000  0.20299000  1.0
  H  H6  1  0.78219000  0.49757000  0.70299000  1.0
  H  H7  1  0.28219000  0.00243000  0.29701000  1.0
  H  H8  1  0.17668000  0.88122000  0.70620000  1.0
  H  H9  1  0.67669000  0.61878000  0.29380000  1.0
  H  H10  1  0.82332000  0.38123000  0.79380000  1.0
  H  H11  1  0.32331000  0.11877000  0.20620000  1.0
  H  H12  1  0.88338000  0.93434000  0.72347000  1.0
  H  H13  1  0.38339000  0.56566000  0.27653000  1.0
  H  H14  1  0.11662000  0.43435000  0.77653000  1.0
  H  H15  1  0.61661000  0.06564000  0.22346000  1.0
  H  H16  1  0.77880000  0.88586000  0.92516000  1.0
  H  H17  1  0.27881000  0.61413000  0.07485000  1.0
  H  H18  1  0.22120000  0.38586000  0.57484000  1.0
  H  H19  1  0.72120000  0.11413000  0.42515000  1.0
  H  H20  1  0.83368000  0.75488000  0.83852000  1.0
  H  H21  1  0.33368000  0.74512000  0.16148000  1.0
  H  H22  1  0.16631000  0.25489000  0.66149000  1.0
  H  H23  1  0.66632000  0.24511000  0.33850000  1.0
  H  H24  1  0.04521000  0.71412000  0.98143000  1.0
  H  H25  1  0.54521000  0.78588000  0.01858000  1.0
  H  H26  1  0.95480000  0.21412000  0.51858000  1.0
  H  H27  1  0.45480000  0.28588000  0.48141000  1.0
  H  H28  1  0.08348000  0.88640000  0.99905000  1.0
  H  H29  1  0.58348000  0.61360000  0.00095000  1.0
  H  H30  1  0.91653000  0.38640000  0.50094000  1.0
  H  H31  1  0.41653000  0.11360000  0.49906000  1.0
  H  H32  1  0.21269000  0.71047000  0.81886000  1.0
  H  H33  1  0.71269000  0.78953000  0.18114000  1.0
  H  H34  1  0.78731000  0.21048000  0.68114000  1.0
  H  H35  1  0.28731000  0.28952000  0.31886000  1.0
  H  H36  1  0.33996000  0.82972000  0.88943000  1.0
  H  H37  1  0.83996000  0.67027000  0.11057000  1.0
  H  H38  1  0.66004000  0.32973000  0.61057000  1.0
  H  H39  1  0.16004000  0.17027000  0.38944000  1.0
  C  C40  1  0.94471000  0.08507000  0.83683000  1.0
  C  C41  1  0.44471000  0.41494000  0.16317000  1.0
  C  C42  1  0.05530000  0.58507000  0.66316000  1.0
  C  C43  1  0.55528000  0.91492000  0.33684000  1.0
  C  C44  1  0.95465000  0.94198000  0.79785000  1.0
  C  C45  1  0.45465000  0.55801000  0.20216000  1.0
  C  C46  1  0.04535000  0.44200000  0.70215000  1.0
  C  C47  1  0.54534000  0.05799000  0.29785000  1.0
  C  C48  1  0.88702000  0.84233000  0.87843000  1.0
  C  C49  1  0.38702000  0.65767000  0.12157000  1.0
  C  C50  1  0.11299000  0.34234000  0.62157000  1.0
  C  C51  1  0.61299000  0.15766000  0.37842000  1.0
  C  C52  1  0.05654000  0.80905000  0.94130000  1.0
  C  C53  1  0.55654000  0.69095000  0.05870000  1.0
  C  C54  1  0.94347000  0.30906000  0.55870000  1.0
  C  C55  1  0.44346000  0.19095000  0.44130000  1.0
  C  C56  1  0.20582000  0.80468000  0.86001000  1.0
  C  C57  1  0.70583000  0.69532000  0.13999000  1.0
  C  C58  1  0.79418000  0.30469000  0.63999000  1.0
  C  C59  1  0.29418000  0.19531000  0.36001000  1.0
  Br  Br60  1  0.93392000  0.45101000  0.97396000  1.0
  Br  Br61  1  0.43388000  0.04899000  0.02603000  1.0
  Br  Br62  1  0.06611000  0.95101000  0.52603000  1.0
  Br  Br63  1  0.56609000  0.54899000  0.47397000  1.0
  Br  Br64  1  0.44853000  0.38543000  0.88062000  1.0
  Br  Br65  1  0.94849000  0.11458000  0.11939000  1.0
  Br  Br66  1  0.55150000  0.88542000  0.61940000  1.0
  Br  Br67  1  0.05147000  0.61458000  0.38061000  1.0
  N  N68  1  0.15148000  0.90871000  0.78210000  1.0
  N  N69  1  0.65149000  0.59129000  0.21791000  1.0
  N  N70  1  0.84851000  0.40872000  0.71790000  1.0
  N  N71  1  0.34851000  0.09128000  0.28210000  1.0
  O  O72  1  0.78878000  0.12947000  0.85472000  1.0
  O  O73  1  0.28880000  0.37052000  0.14528000  1.0
  O  O74  1  0.21121000  0.62948000  0.64529000  1.0
  O  O75  1  0.71121000  0.87052000  0.35472000  1.0
  O  O76  1  0.09438000  0.14589000  0.84616000  1.0
  O  O77  1  0.59442000  0.35411000  0.15384000  1.0
  O  O78  1  0.90560000  0.64591000  0.65384000  1.0
  O  O79  1  0.40559000  0.85410000  0.34616000  1.0
