# generated using pymatgen
data_Zn2H39C41N5O14
_symmetry_space_group_name_H-M   'P 1'
_cell_length_a   9.88444000
_cell_length_b   10.90060000
_cell_length_c   10.98990000
_cell_angle_alpha   100.13400000
_cell_angle_beta   96.16950000
_cell_angle_gamma   94.61600000
_symmetry_Int_Tables_number   1
_chemical_formula_structural   Zn2H39C41N5O14
_chemical_formula_sum   'Zn2 H39 C41 N5 O14'
_cell_volume   1152.90575308
_cell_formula_units_Z   1
loop_
 _symmetry_equiv_pos_site_id
 _symmetry_equiv_pos_as_xyz
  1  'x, y, z'
loop_
 _atom_site_type_symbol
 _atom_site_label
 _atom_site_symmetry_multiplicity
 _atom_site_fract_x
 _atom_site_fract_y
 _atom_site_fract_z
 _atom_site_occupancy
  Zn  Zn0  1  0.34113000  0.49926000  0.49178000  1.0
  Zn  Zn1  1  0.64619000  0.52901000  0.53749000  1.0
  H  H2  1  0.69285000  0.58540000  0.93867000  1.0
  H  H3  1  0.33548000  0.74813000  0.34346000  1.0
  H  H4  1  0.68723000  0.57035000  0.16461000  1.0
  H  H5  1  0.70041000  0.17761000  0.61934000  1.0
  H  H6  1  0.79748000  0.68670000  0.72160000  1.0
  H  H7  1  0.95332000  0.86558000  0.83596000  1.0
  H  H8  1  0.14514000  0.94755000  0.97373000  1.0
  H  H9  1  0.73110000  0.94994000  0.62089000  1.0
  H  H10  1  0.09057000  0.04384000  0.86429000  1.0
  H  H11  1  0.26391000  0.06409000  0.93569000  1.0
  H  H12  1  0.18314000  0.19455000  0.35776000  1.0
  H  H13  1  0.05144000  0.19284000  0.23080000  1.0
  H  H14  1  0.00839000  0.19026000  0.38654000  1.0
  H  H15  1  0.91390000  0.26742000  0.79894000  1.0
  H  H16  1  0.98526000  0.33929000  0.68313000  1.0
  H  H17  1  0.81889000  0.37304000  0.72428000  1.0
  H  H18  1  0.17638000  0.63638000  0.20689000  1.0
  H  H19  1  0.22498000  0.77020000  0.14133000  1.0
  H  H20  1  0.05639000  0.68860000  0.09749000  1.0
  H  H21  1  0.92381000  0.29359000  0.98007000  1.0
  H  H22  1  0.82535000  0.40499000  0.14417000  1.0
  H  H23  1  0.90585000  0.51415000  0.06526000  1.0
  H  H24  1  0.98897000  0.48368000  0.20779000  1.0
  H  H25  1  0.98200000  0.06210000  0.51670000  1.0
  H  H26  1  0.78521000  0.96024000  0.40867000  1.0
  H  H27  1  0.86303000  0.81885000  0.38932000  1.0
  H  H28  1  0.28126000  0.73547000  0.63151000  1.0
  H  H29  1  0.87520000  0.91850000  0.27739000  1.0
  H  H30  1  0.43896000  0.24003000  0.10105000  1.0
  H  H31  1  0.33076000  0.12497000  0.15424000  1.0
  H  H32  1  0.41760000  0.25537000  0.26358000  1.0
  H  H33  1  0.31262000  0.13300000  0.73946000  1.0
  H  H34  1  0.18078000  0.23445000  0.77058000  1.0
  H  H35  1  0.32571000  0.28895000  0.70491000  1.0
  H  H36  1  0.21082000  0.53477000  0.78270000  1.0
  H  H37  1  0.73382000  0.31276000  0.47208000  1.0
  H  H38  1  0.86139000  0.25426000  0.23710000  1.0
  H  H39  1  0.68956000  0.28611000  0.25176000  1.0
  H  H40  1  0.75051000  0.14669000  0.29351000  1.0
  C  C41  1  0.54844000  0.75168000  0.51662000  1.0
  C  C42  1  0.61534000  0.10520000  0.58731000  1.0
  C  C43  1  0.59751000  0.53870000  0.09632000  1.0
  C  C44  1  0.48230000  0.48329000  0.13469000  1.0
  C  C45  1  0.48751000  0.14285000  0.55093000  1.0
  C  C46  1  0.90208000  0.69848000  0.70014000  1.0
  C  C47  1  0.99070000  0.79849000  0.76506000  1.0
  C  C48  1  0.48836000  0.54423000  0.75557000  1.0
  C  C49  1  0.12781000  0.81234000  0.73983000  1.0
  C  C50  1  0.17556000  0.72480000  0.65068000  1.0
  C  C51  1  0.08626000  0.62190000  0.58581000  1.0
  C  C52  1  0.94702000  0.60915000  0.60844000  1.0
  C  C53  1  0.90335000  0.41883000  0.46379000  1.0
  C  C54  1  0.48218000  0.27505000  0.53252000  1.0
  C  C55  1  0.48154000  0.48580000  0.27253000  1.0
  C  C56  1  0.04598000  0.43329000  0.44029000  1.0
  C  C57  1  0.22104000  0.49589000  0.86696000  1.0
  C  C58  1  0.30708000  0.83810000  0.38727000  1.0
  C  C59  1  0.10590000  0.44936000  0.91095000  1.0
  C  C60  1  0.17580000  0.86819000  0.36211000  1.0
  C  C61  1  0.11300000  0.38491000  0.01255000  1.0
  C  C62  1  0.12967000  0.97194000  0.44133000  1.0
  C  C63  1  0.24263000  0.37322000  0.07187000  1.0
  C  C64  1  0.59814000  0.55500000  0.97214000  1.0
  C  C65  1  0.23145000  0.06224000  0.51313000  1.0
  C  C66  1  0.36054000  0.44711000  0.04752000  1.0
  C  C67  1  0.37257000  0.04812000  0.51265000  1.0
  C  C68  1  0.35208000  0.49330000  0.93204000  1.0
  C  C69  1  0.40519000  0.92243000  0.47120000  1.0
  C  C70  1  0.63534000  0.97868000  0.58165000  1.0
  C  C71  1  0.47850000  0.53514000  0.89003000  1.0
  C  C72  1  0.53279000  0.88733000  0.51884000  1.0
  C  C73  1  0.17599000  0.99519000  0.89906000  1.0
  C  C74  1  0.08289000  0.22369000  0.33071000  1.0
  C  C75  1  0.92152000  0.35415000  0.75971000  1.0
  C  C76  1  0.13955000  0.71868000  0.17373000  1.0
  C  C77  1  0.92411000  0.44111000  0.12114000  1.0
  C  C78  1  0.87449000  0.91682000  0.37704000  1.0
  C  C79  1  0.36711000  0.22501000  0.16789000  1.0
  C  C80  1  0.25597000  0.20633000  0.70748000  1.0
  C  C81  1  0.77818000  0.24634000  0.29365000  1.0
  N  N82  1  0.85861000  0.51038000  0.54277000  1.0
  N  N83  1  0.81652000  0.31176000  0.42217000  1.0
  N  N84  1  0.13177000  0.52922000  0.50173000  1.0
  N  N85  1  0.99094000  0.33698000  0.05522000  1.0
  N  N86  1  0.99544000  0.98736000  0.45153000  1.0
  O  O87  1  0.44126000  0.68304000  0.52615000  1.0
  O  O88  1  0.36707000  0.50357000  0.31314000  1.0
  O  O89  1  0.37267000  0.30882000  0.48209000  1.0
  O  O90  1  0.59545000  0.34743000  0.56214000  1.0
  O  O91  1  0.59283000  0.47577000  0.33844000  1.0
  O  O92  1  0.22037000  0.90933000  0.80112000  1.0
  O  O93  1  0.10141000  0.35946000  0.35322000  1.0
  O  O94  1  0.38008000  0.50891000  0.67925000  1.0
  O  O95  1  0.97721000  0.46096000  0.85220000  1.0
  O  O96  1  0.08293000  0.79979000  0.26866000  1.0
  O  O97  1  0.24812000  0.29014000  0.15036000  1.0
  O  O98  1  0.18004000  0.15919000  0.58668000  1.0
  O  O99  1  0.66634000  0.71231000  0.51221000  1.0
  O  O100  1  0.60464000  0.57832000  0.72533000  1.0
