# generated using pymatgen
data_NdPH3CO6
_symmetry_space_group_name_H-M   'P 1'
_cell_length_a   6.70034000
_cell_length_b   7.09516000
_cell_length_c   8.31534000
_cell_angle_alpha   114.39400000
_cell_angle_beta   97.61560000
_cell_angle_gamma   90.25680000
_symmetry_Int_Tables_number   1
_chemical_formula_structural   NdPH3CO6
_chemical_formula_sum   'Nd2 P2 H6 C2 O12'
_cell_volume   356.07628724
_cell_formula_units_Z   2
loop_
 _symmetry_equiv_pos_site_id
 _symmetry_equiv_pos_as_xyz
  1  'x, y, z'
loop_
 _atom_site_type_symbol
 _atom_site_label
 _atom_site_symmetry_multiplicity
 _atom_site_fract_x
 _atom_site_fract_y
 _atom_site_fract_z
 _atom_site_occupancy
  Nd  Nd0  1  0.12564000  0.21827000  0.93446000  1.0
  Nd  Nd1  1  0.87438000  0.78172000  0.06553000  1.0
  P  P2  1  0.67424000  0.25305000  0.01172000  1.0
  P  P3  1  0.32577000  0.74692000  0.98828000  1.0
  H  H4  1  0.65210000  0.33488000  0.19399000  1.0
  H  H5  1  0.34789000  0.66512000  0.80598000  1.0
  H  H6  1  0.09322000  0.29231000  0.30967000  1.0
  H  H7  1  0.90678000  0.70771000  0.69033000  1.0
  H  H8  1  0.10237000  0.51571000  0.31085000  1.0
  H  H9  1  0.89763000  0.48430000  0.68917000  1.0
  C  C10  1  0.99306000  0.10819000  0.49909000  1.0
  C  C11  1  0.00695000  0.89183000  0.50089000  1.0
  O  O12  1  0.80517000  0.06356000  0.97368000  1.0
  O  O13  1  0.19484000  0.93643000  0.02634000  1.0
  O  O14  1  0.46499000  0.20202000  0.90273000  1.0
  O  O15  1  0.53499000  0.79800000  0.09729000  1.0
  O  O16  1  0.80541000  0.41402000  0.98300000  1.0
  O  O17  1  0.19456000  0.58598000  0.01702000  1.0
  O  O18  1  0.02372000  0.26253000  0.64929000  1.0
  O  O19  1  0.97629000  0.73747000  0.35069000  1.0
  O  O20  1  0.04717000  0.88674000  0.65198000  1.0
  O  O21  1  0.95284000  0.11327000  0.34803000  1.0
  O  O22  1  0.16131000  0.37857000  0.26220000  1.0
  O  O23  1  0.83870000  0.62141000  0.73782000  1.0
