# generated using pymatgen
data_NaGdH16(C3O2)6
_symmetry_space_group_name_H-M   'P 1'
_cell_length_a   6.81246000
_cell_length_b   7.50300000
_cell_length_c   19.88625679
_cell_angle_alpha   89.99919705
_cell_angle_beta   80.18047786
_cell_angle_gamma   89.99970000
_symmetry_Int_Tables_number   1
_chemical_formula_structural   NaGdH16(C3O2)6
_chemical_formula_sum   'Na2 Gd2 H32 C36 O24'
_cell_volume   1001.57253791
_cell_formula_units_Z   2
loop_
 _symmetry_equiv_pos_site_id
 _symmetry_equiv_pos_as_xyz
  1  'x, y, z'
loop_
 _atom_site_type_symbol
 _atom_site_label
 _atom_site_symmetry_multiplicity
 _atom_site_fract_x
 _atom_site_fract_y
 _atom_site_fract_z
 _atom_site_occupancy
  Na  Na0  1  0.83628000  0.75025000  0.32593000  1.0
  Na  Na1  1  0.16371000  0.25024000  0.67407000  1.0
  Gd  Gd2  1  0.70710000  0.25015000  0.58624000  1.0
  Gd  Gd3  1  0.29290000  0.75015000  0.41375000  1.0
  H  H4  1  0.81019000  0.64752000  0.96808000  1.0
  H  H5  1  0.18981000  0.14753000  0.03192000  1.0
  H  H6  1  0.21966000  0.85171000  0.96764000  1.0
  H  H7  1  0.78034000  0.35171000  0.03236000  1.0
  H  H8  1  0.70172000  0.84859000  0.18785000  1.0
  H  H9  1  0.29831000  0.34858000  0.81214000  1.0
  H  H10  1  0.10750000  0.65085000  0.18781000  1.0
  H  H11  1  0.89251000  0.15084000  0.81219000  1.0
  H  H12  1  0.76372000  0.85168000  0.06112000  1.0
  H  H13  1  0.23629000  0.35168000  0.93887000  1.0
  H  H14  1  0.17210000  0.64746000  0.06100000  1.0
  H  H15  1  0.82791000  0.14746000  0.93900000  1.0
  H  H16  1  0.49521000  0.73140000  0.56263000  1.0
  H  H17  1  0.50479000  0.23140000  0.43738000  1.0
  H  H18  1  0.94182000  0.76906000  0.56274000  1.0
  H  H19  1  0.05817000  0.26906000  0.43727000  1.0
  H  H20  1  0.98052000  0.09150000  0.26432000  1.0
  H  H21  1  0.01947000  0.59149000  0.73568000  1.0
  H  H22  1  0.75428000  0.40881000  0.26440000  1.0
  H  H23  1  0.24573000  0.90881000  0.73560000  1.0
  H  H24  1  0.74621000  0.10282000  0.27262000  1.0
  H  H25  1  0.25379000  0.60282000  0.72738000  1.0
  H  H26  1  0.98041000  0.39821000  0.27265000  1.0
  H  H27  1  0.01959000  0.89821000  0.72735000  1.0
  H  H28  1  0.56316000  0.88029000  0.65488000  1.0
  H  H29  1  0.43683000  0.38032000  0.34512000  1.0
  H  H30  1  0.78180000  0.62013000  0.65497000  1.0
  H  H31  1  0.21819000  0.12014000  0.34503000  1.0
  H  H32  1  0.87348000  0.64575000  0.84171000  1.0
  H  H33  1  0.12651000  0.14576000  0.15829000  1.0
  H  H34  1  0.28424000  0.85429000  0.84128000  1.0
  H  H35  1  0.71578000  0.35430000  0.15871000  1.0
  C  C36  1  0.62149000  0.75010000  0.75704000  1.0
  C  C37  1  0.37851000  0.25012000  0.24296000  1.0
  C  C38  1  0.69531000  0.69443000  0.94025000  1.0
  C  C39  1  0.30469000  0.19443000  0.05975000  1.0
  C  C40  1  0.36248000  0.80489000  0.93999000  1.0
  C  C41  1  0.63751000  0.30490000  0.06001000  1.0
  C  C42  1  0.36329000  0.74989000  0.27115000  1.0
  C  C43  1  0.63671000  0.24986000  0.72885000  1.0
  C  C44  1  0.40073000  0.74976000  0.19549000  1.0
  C  C45  1  0.59927000  0.24975000  0.80451000  1.0
  C  C46  1  0.63136000  0.81298000  0.55592000  1.0
  C  C47  1  0.36864000  0.31297000  0.44408000  1.0
  C  C48  1  0.81241000  0.68747000  0.55600000  1.0
  C  C49  1  0.18759000  0.18747000  0.44400000  1.0
  C  C50  1  0.58677000  0.80365000  0.15968000  1.0
  C  C51  1  0.41324000  0.30364000  0.84032000  1.0
  C  C52  1  0.25047000  0.69577000  0.15963000  1.0
  C  C53  1  0.74953000  0.19576000  0.84037000  1.0
  C  C54  1  0.47238000  0.74944000  0.05211000  1.0
  C  C55  1  0.52763000  0.24944000  0.94789000  1.0
  C  C56  1  0.62121000  0.80398000  0.08876000  1.0
  C  C57  1  0.37880000  0.30398000  0.91124000  1.0
  C  C58  1  0.28689000  0.69516000  0.08871000  1.0
  C  C59  1  0.71311000  0.19516000  0.91129000  1.0
  C  C60  1  0.51028000  0.74951000  0.97690000  1.0
  C  C61  1  0.48972000  0.24952000  0.02310000  1.0
  C  C62  1  0.64821000  0.91395000  0.48874000  1.0
  C  C63  1  0.35178000  0.41394000  0.51126000  1.0
  C  C64  1  0.86276000  0.58653000  0.48884000  1.0
  C  C65  1  0.13724000  0.08653000  0.51116000  1.0
  C  C66  1  0.58315000  0.75001000  0.83300000  1.0
  C  C67  1  0.41685000  0.25002000  0.16700000  1.0
  C  C68  1  0.73114000  0.69315000  0.86935000  1.0
  C  C69  1  0.26888000  0.19316000  0.13064000  1.0
  C  C70  1  0.39853000  0.80663000  0.86910000  1.0
  C  C71  1  0.60147000  0.30665000  0.13090000  1.0
  O  O72  1  0.47927000  0.79023000  0.72499000  1.0
  O  O73  1  0.52072000  0.29025000  0.27501000  1.0
  O  O74  1  0.79583000  0.71002000  0.72517000  1.0
  O  O75  1  0.20415000  0.21004000  0.27483000  1.0
  O  O76  1  0.50888000  0.76318000  0.30410000  1.0
  O  O77  1  0.49112000  0.26315000  0.69590000  1.0
  O  O78  1  0.18512000  0.73666000  0.30427000  1.0
  O  O79  1  0.81487000  0.23663000  0.69573000  1.0
  O  O80  1  0.71021000  0.07256000  0.48732000  1.0
  O  O81  1  0.28977000  0.57256000  0.51268000  1.0
  O  O82  1  0.80224000  0.42790000  0.48736000  1.0
  O  O83  1  0.19775000  0.92788000  0.51264000  1.0
  O  O84  1  0.61889000  0.94122000  0.60964000  1.0
  O  O85  1  0.38112000  0.44123000  0.39036000  1.0
  O  O86  1  0.77113000  0.55931000  0.60973000  1.0
  O  O87  1  0.22886000  0.05932000  0.39027000  1.0
  O  O88  1  0.85876000  0.01996000  0.26539000  1.0
  O  O89  1  0.14124000  0.51995000  0.73461000  1.0
  O  O90  1  0.87482000  0.48071000  0.26536000  1.0
  O  O91  1  0.12519000  0.98070000  0.73464000  1.0
  O  O92  1  0.60022000  0.83351000  0.43745000  1.0
  O  O93  1  0.39976000  0.33351000  0.56256000  1.0
  O  O94  1  0.96200000  0.66701000  0.43760000  1.0
  O  O95  1  0.03800000  0.16699000  0.56240000  1.0
