# generated using pymatgen
data_CuH16C14(IO2)4
_symmetry_space_group_name_H-M   'P 1'
_cell_length_a   9.47862000
_cell_length_b   9.59439000
_cell_length_c   13.44860000
_cell_angle_alpha   85.96070000
_cell_angle_beta   89.86440000
_cell_angle_gamma   65.98400000
_symmetry_Int_Tables_number   1
_chemical_formula_structural   CuH16C14(IO2)4
_chemical_formula_sum   'Cu2 H32 C28 I8 O16'
_cell_volume   1113.92138257
_cell_formula_units_Z   2
loop_
 _symmetry_equiv_pos_site_id
 _symmetry_equiv_pos_as_xyz
  1  'x, y, z'
loop_
 _atom_site_type_symbol
 _atom_site_label
 _atom_site_symmetry_multiplicity
 _atom_site_fract_x
 _atom_site_fract_y
 _atom_site_fract_z
 _atom_site_occupancy
  Cu  Cu0  1  0.39618000  0.09958000  0.76133000  1.0
  Cu  Cu1  1  0.60382000  0.90043000  0.23867000  1.0
  H  H2  1  0.50695000  0.75443000  0.84034000  1.0
  H  H3  1  0.49305000  0.24557000  0.15966000  1.0
  H  H4  1  0.70454000  0.67624000  0.88472000  1.0
  H  H5  1  0.29546000  0.32376000  0.11528000  1.0
  H  H6  1  0.68199000  0.53357000  0.74119000  1.0
  H  H7  1  0.31800000  0.46644000  0.25881000  1.0
  H  H8  1  0.59399000  0.70997000  0.66609000  1.0
  H  H9  1  0.40601000  0.29003000  0.33391000  1.0
  H  H10  1  0.75239000  0.84592000  0.61796000  1.0
  H  H11  1  0.24760000  0.15408000  0.38205000  1.0
  H  H12  1  0.94684000  0.76876000  0.66790000  1.0
  H  H13  1  0.05316000  0.23125000  0.33210000  1.0
  H  H14  1  0.85609000  0.82666000  0.83702000  1.0
  H  H15  1  0.14391000  0.17334000  0.16298000  1.0
  H  H16  1  0.76089000  0.99701000  0.75702000  1.0
  H  H17  1  0.23911000  0.00299000  0.24299000  1.0
  H  H18  1  0.37538000  0.10719000  0.99207000  1.0
  H  H19  1  0.62461000  0.89282000  0.00793000  1.0
  H  H20  1  0.27719000  0.98748000  0.02628000  1.0
  H  H21  1  0.72281000  0.01253000  0.97372000  1.0
  H  H22  1  0.17047000  0.17954000  0.97224000  1.0
  H  H23  1  0.82953000  0.82047000  0.02776000  1.0
  H  H24  1  0.38027000  0.12594000  0.52963000  1.0
  H  H25  1  0.61974000  0.87405000  0.47037000  1.0
  H  H26  1  0.51871000  0.20276000  0.49416000  1.0
  H  H27  1  0.48131000  0.79722000  0.50584000  1.0
  H  H28  1  0.33320000  0.32534000  0.53841000  1.0
  H  H29  1  0.66681000  0.67466000  0.46159000  1.0
  H  H30  1  0.21211000  0.01481000  0.84315000  1.0
  H  H31  1  0.78790000  0.98518000  0.15685000  1.0
  H  H32  1  0.49923000  0.26539000  0.67321000  1.0
  H  H33  1  0.50077000  0.73461000  0.32678000  1.0
  C  C34  1  0.48190000  0.33770000  0.82881000  1.0
  C  C35  1  0.51809000  0.66230000  0.17119000  1.0
  C  C36  1  0.49164000  0.42243000  0.91742000  1.0
  C  C37  1  0.50836000  0.57757000  0.08258000  1.0
  C  C38  1  0.35506000  0.52198000  0.95964000  1.0
  C  C39  1  0.64493000  0.47803000  0.04036000  1.0
  C  C40  1  0.36320000  0.60029000  0.04236000  1.0
  C  C41  1  0.63680000  0.39971000  0.95765000  1.0
  C  C42  1  0.15828000  0.01709000  0.68102000  1.0
  C  C43  1  0.84173000  0.98290000  0.31898000  1.0
  C  C44  1  0.07787000  0.00759000  0.58638000  1.0
  C  C45  1  0.92214000  0.99241000  0.41362000  1.0
  C  C46  1  0.11129000  0.86530000  0.54819000  1.0
  C  C47  1  0.88871000  0.13469000  0.45180000  1.0
  C  C48  1  0.96803000  0.14283000  0.53779000  1.0
  C  C49  1  0.03197000  0.85717000  0.46221000  1.0
  C  C50  1  0.62502000  0.73749000  0.82086000  1.0
  C  C51  1  0.37498000  0.26251000  0.17914000  1.0
  C  C52  1  0.67616000  0.65002000  0.72885000  1.0
  C  C53  1  0.32384000  0.34998000  0.27115000  1.0
  C  C54  1  0.82762000  0.78622000  0.68383000  1.0
  C  C55  1  0.17238000  0.21378000  0.31617000  1.0
  C  C56  1  0.77289000  0.87911000  0.77375000  1.0
  C  C57  1  0.22711000  0.12089000  0.22625000  1.0
  C  C58  1  0.28005000  0.07748000  0.97219000  1.0
  C  C59  1  0.71995000  0.92253000  0.02781000  1.0
  C  C60  1  0.42647000  0.20958000  0.54591000  1.0
  C  C61  1  0.57354000  0.79042000  0.45409000  1.0
  I  I62  1  0.14180000  0.54678000  0.89723000  1.0
  I  I63  1  0.85819000  0.45322000  0.10278000  1.0
  I  I64  1  0.16461000  0.75152000  0.11047000  1.0
  I  I65  1  0.83539000  0.24848000  0.88953000  1.0
  I  I66  1  0.27840000  0.66778000  0.62490000  1.0
  I  I67  1  0.72160000  0.33221000  0.37509000  1.0
  I  I68  1  0.93146000  0.35374000  0.59466000  1.0
  I  I69  1  0.06854000  0.64626000  0.40534000  1.0
  O  O70  1  0.46008000  0.21650000  0.85189000  1.0
  O  O71  1  0.53991000  0.78352000  0.14810000  1.0
  O  O72  1  0.49585000  0.38989000  0.74233000  1.0
  O  O73  1  0.50415000  0.61012000  0.25767000  1.0
  O  O74  1  0.28634000  0.03069000  0.66695000  1.0
  O  O75  1  0.71367000  0.96931000  0.33304000  1.0
  O  O76  1  0.09570000  0.01229000  0.76322000  1.0
  O  O77  1  0.90432000  0.98770000  0.23676000  1.0
  O  O78  1  0.62358000  0.88792000  0.80329000  1.0
  O  O79  1  0.37642000  0.11208000  0.19671000  1.0
  O  O80  1  0.82854000  0.63644000  0.70308000  1.0
  O  O81  1  0.17146000  0.36356000  0.29692000  1.0
  O  O82  1  0.30822000  0.01860000  0.87520000  1.0
  O  O83  1  0.69178000  0.98140000  0.12480000  1.0
  O  O84  1  0.49181000  0.17156000  0.64605000  1.0
  O  O85  1  0.50820000  0.82844000  0.35396000  1.0
