# generated using pymatgen
data_CuSiH16C24(N2F5)2
_symmetry_space_group_name_H-M   'P 1'
_cell_length_a   8.09568000
_cell_length_b   13.55390000
_cell_length_c   13.55380000
_cell_angle_alpha   89.62190000
_cell_angle_beta   85.92380000
_cell_angle_gamma   85.92510000
_symmetry_Int_Tables_number   1
_chemical_formula_structural   CuSiH16C24(N2F5)2
_chemical_formula_sum   'Cu1 Si1 H16 C24 N4 F10'
_cell_volume   1479.71777305
_cell_formula_units_Z   1
loop_
 _symmetry_equiv_pos_site_id
 _symmetry_equiv_pos_as_xyz
  1  'x, y, z'
loop_
 _atom_site_type_symbol
 _atom_site_label
 _atom_site_symmetry_multiplicity
 _atom_site_fract_x
 _atom_site_fract_y
 _atom_site_fract_z
 _atom_site_occupancy
  Cu  Cu0  1  0.49999000  0.50000000  0.50000000  1.0
  Si  Si1  1  0.99999000  0.50000000  0.50000000  1.0
  H  H2  1  0.26191000  0.49999000  0.34344000  1.0
  H  H3  1  0.26833000  0.49986000  0.16214000  1.0
  H  H4  1  0.80487000  0.50003000  0.15753000  1.0
  H  H5  1  0.77624000  0.49998000  0.34044000  1.0
  H  H6  1  0.19512000  0.49998000  0.84247000  1.0
  H  H7  1  0.73165000  0.50013000  0.83785000  1.0
  H  H8  1  0.73807000  0.49999000  0.65656000  1.0
  H  H9  1  0.22374000  0.50001000  0.65956000  1.0
  H  H10  1  0.26192000  0.34343000  0.50000000  1.0
  H  H11  1  0.26833000  0.16214000  0.49986000  1.0
  H  H12  1  0.80486000  0.15753000  0.50003000  1.0
  H  H13  1  0.77624000  0.34044000  0.49998000  1.0
  H  H14  1  0.19513000  0.84247000  0.49997000  1.0
  H  H15  1  0.73166000  0.83785000  0.50013000  1.0
  H  H16  1  0.73808000  0.65656000  0.49999000  1.0
  H  H17  1  0.22375000  0.65956000  0.50002000  1.0
  C  C18  1  0.37988000  0.50000000  0.29948000  1.0
  C  C19  1  0.38480000  0.49993000  0.19694000  1.0
  C  C20  1  0.53882000  0.49999000  0.14166000  1.0
  C  C21  1  0.68174000  0.50002000  0.19518000  1.0
  C  C22  1  0.66702000  0.50000000  0.29786000  1.0
  C  C23  1  0.55796000  0.49998000  0.03407000  1.0
  C  C24  1  0.44203000  0.50003000  0.96593000  1.0
  C  C25  1  0.31825000  0.49998000  0.80482000  1.0
  C  C26  1  0.46117000  0.50002000  0.85834000  1.0
  C  C27  1  0.61518000  0.50007000  0.80305000  1.0
  C  C28  1  0.62010000  0.49999000  0.70051000  1.0
  C  C29  1  0.33297000  0.49999000  0.70214000  1.0
  C  C30  1  0.37988000  0.29947000  0.50001000  1.0
  C  C31  1  0.38481000  0.19694000  0.49993000  1.0
  C  C32  1  0.53882000  0.14166000  0.49998000  1.0
  C  C33  1  0.68174000  0.19519000  0.50002000  1.0
  C  C34  1  0.66701000  0.29786000  0.50000000  1.0
  C  C35  1  0.55797000  0.03407000  0.49998000  1.0
  C  C36  1  0.44203000  0.96593000  0.50001000  1.0
  C  C37  1  0.31825000  0.80481000  0.49998000  1.0
  C  C38  1  0.46117000  0.85834000  0.50001000  1.0
  C  C39  1  0.61519000  0.80306000  0.50006000  1.0
  C  C40  1  0.62011000  0.70052000  0.49999000  1.0
  C  C41  1  0.33298000  0.70213000  0.49999000  1.0
  N  N42  1  0.51822000  0.50004000  0.34930000  1.0
  N  N43  1  0.48177000  0.49995000  0.65069000  1.0
  N  N44  1  0.51822000  0.34930000  0.50005000  1.0
  N  N45  1  0.48177000  0.65069000  0.49995000  1.0
  F  F46  1  0.21452000  0.50071000  0.50072000  1.0
  F  F47  1  0.78546000  0.49928000  0.49928000  1.0
  F  F48  1  0.00000000  0.58956000  0.41044000  1.0
  F  F49  1  0.99998000  0.41043000  0.58956000  1.0
  F  F50  1  0.02234000  0.41057000  0.41056000  1.0
  F  F51  1  0.97764000  0.58942000  0.58944000  1.0
  F  F52  1  0.71953000  0.49988000  0.99704000  1.0
  F  F53  1  0.28046000  0.50013000  0.00296000  1.0
  F  F54  1  0.71953000  0.99704000  0.49989000  1.0
  F  F55  1  0.28046000  0.00296000  0.50010000  1.0
