# generated using pymatgen
data_AgH5C3SIN
_symmetry_space_group_name_H-M   'P 1'
_cell_length_a   8.09484000
_cell_length_b   9.35655000
_cell_length_c   9.57741000
_cell_angle_alpha   104.25800000
_cell_angle_beta   106.58000000
_cell_angle_gamma   103.55600000
_symmetry_Int_Tables_number   1
_chemical_formula_structural   AgH5C3SIN
_chemical_formula_sum   'Ag4 H20 C12 S4 I4 N4'
_cell_volume   636.53924937
_cell_formula_units_Z   4
loop_
 _symmetry_equiv_pos_site_id
 _symmetry_equiv_pos_as_xyz
  1  'x, y, z'
loop_
 _atom_site_type_symbol
 _atom_site_label
 _atom_site_symmetry_multiplicity
 _atom_site_fract_x
 _atom_site_fract_y
 _atom_site_fract_z
 _atom_site_occupancy
  Ag  Ag0  1  0.60131000  0.93422000  0.09589000  1.0
  Ag  Ag1  1  0.39868000  0.06578000  0.90411000  1.0
  Ag  Ag2  1  0.16388000  0.06339000  0.14684000  1.0
  Ag  Ag3  1  0.83612000  0.93661000  0.85317000  1.0
  H  H4  1  0.78750000  0.99335000  0.48597000  1.0
  H  H5  1  0.21248000  0.00664000  0.51403000  1.0
  H  H6  1  0.99327000  0.15663000  0.55851000  1.0
  H  H7  1  0.00672000  0.84335000  0.44149000  1.0
  H  H8  1  0.85285000  0.08455000  0.35735000  1.0
  H  H9  1  0.14713000  0.91544000  0.64265000  1.0
  H  H10  1  0.77608000  0.32488000  0.81438000  1.0
  H  H11  1  0.22392000  0.67512000  0.18562000  1.0
  H  H12  1  0.82231000  0.52067000  0.81516000  1.0
  H  H13  1  0.17769000  0.47932000  0.18484000  1.0
  H  H14  1  0.85986000  0.45616000  0.56719000  1.0
  H  H15  1  0.14015000  0.54384000  0.43281000  1.0
  H  H16  1  0.99484000  0.37362000  0.68513000  1.0
  H  H17  1  0.00515000  0.62637000  0.31486000  1.0
  H  H18  1  0.48290000  0.56126000  0.73120000  1.0
  H  H19  1  0.51712000  0.43875000  0.26881000  1.0
  H  H20  1  0.54787000  0.46652000  0.86829000  1.0
  H  H21  1  0.45214000  0.53347000  0.13171000  1.0
  H  H22  1  0.33393000  0.37581000  0.70736000  1.0
  H  H23  1  0.66607000  0.62419000  0.29264000  1.0
  C  C24  1  0.57419000  0.17296000  0.44071000  1.0
  C  C25  1  0.42582000  0.82704000  0.55929000  1.0
  C  C26  1  0.48087000  0.27918000  0.50787000  1.0
  C  C27  1  0.51915000  0.72084000  0.49215000  1.0
  C  C28  1  0.85275000  0.10548000  0.47582000  1.0
  C  C29  1  0.14723000  0.89451000  0.52418000  1.0
  C  C30  1  0.76172000  0.39765000  0.73973000  1.0
  C  C31  1  0.23829000  0.60235000  0.26028000  1.0
  C  C32  1  0.85527000  0.36828000  0.62545000  1.0
  C  C33  1  0.14473000  0.63172000  0.37455000  1.0
  C  C34  1  0.47712000  0.44743000  0.74582000  1.0
  C  C35  1  0.52289000  0.55258000  0.25419000  1.0
  S  S36  1  0.45080000  0.00243000  0.29609000  1.0
  S  S37  1  0.54919000  0.99757000  0.70391000  1.0
  S  S38  1  0.27054000  0.27674000  0.40966000  1.0
  S  S39  1  0.72947000  0.72327000  0.59034000  1.0
  I  I40  1  0.86493000  0.79373000  0.08813000  1.0
  I  I41  1  0.13506000  0.20628000  0.91187000  1.0
  I  I42  1  0.24764000  0.73614000  0.87847000  1.0
  I  I43  1  0.75236000  0.26386000  0.12154000  1.0
  N  N44  1  0.56801000  0.36829000  0.65713000  1.0
  N  N45  1  0.43198000  0.63170000  0.34285000  1.0
  N  N46  1  0.75456000  0.21253000  0.51025000  1.0
  N  N47  1  0.24543000  0.78747000  0.48975000  1.0
