# generated using pymatgen
data_CdH13C18N3O4
_symmetry_space_group_name_H-M   'P 1'
_cell_length_a   13.91740000
_cell_length_b   13.91740000
_cell_length_c   14.26990000
_cell_angle_alpha   89.99980000
_cell_angle_beta   89.99980000
_cell_angle_gamma   62.79400000
_symmetry_Int_Tables_number   1
_chemical_formula_structural   CdH13C18N3O4
_chemical_formula_sum   'Cd4 H52 C72 N12 O16'
_cell_volume   2458.20949945
_cell_formula_units_Z   4
loop_
 _symmetry_equiv_pos_site_id
 _symmetry_equiv_pos_as_xyz
  1  'x, y, z'
loop_
 _atom_site_type_symbol
 _atom_site_label
 _atom_site_symmetry_multiplicity
 _atom_site_fract_x
 _atom_site_fract_y
 _atom_site_fract_z
 _atom_site_occupancy
  Cd  Cd0  1  0.37253000  0.32493000  0.63437000  1.0
  Cd  Cd1  1  0.62747000  0.67507000  0.13437000  1.0
  Cd  Cd2  1  0.32493000  0.37253000  0.36563000  1.0
  Cd  Cd3  1  0.67507000  0.62747000  0.86563000  1.0
  H  H4  1  0.54261000  0.60414000  0.62999000  1.0
  H  H5  1  0.45739000  0.39586000  0.12999000  1.0
  H  H6  1  0.60414000  0.54261000  0.37001000  1.0
  H  H7  1  0.39586000  0.45739000  0.87001000  1.0
  H  H8  1  0.83793000  0.28418000  0.62756000  1.0
  H  H9  1  0.16207000  0.71582000  0.12756000  1.0
  H  H10  1  0.28419000  0.83792000  0.37245000  1.0
  H  H11  1  0.71581000  0.16208000  0.87245000  1.0
  H  H12  1  0.52029000  0.00014000  0.80651000  1.0
  H  H13  1  0.47971000  0.99986000  0.30651000  1.0
  H  H14  1  0.00015000  0.52029000  0.19349000  1.0
  H  H15  1  0.99986000  0.47971000  0.69349000  1.0
  H  H16  1  0.53948000  0.95052000  0.10568000  1.0
  H  H17  1  0.46052000  0.04948000  0.60568000  1.0
  H  H18  1  0.95052000  0.53948000  0.89432000  1.0
  H  H19  1  0.04948000  0.46052000  0.39432000  1.0
  H  H20  1  0.41827000  0.27268000  0.99123000  1.0
  H  H21  1  0.58173000  0.72732000  0.49123000  1.0
  H  H22  1  0.27268000  0.41827000  0.00877000  1.0
  H  H23  1  0.72732000  0.58172000  0.50877000  1.0
  H  H24  1  0.37162000  0.77322000  0.62723000  1.0
  H  H25  1  0.62837000  0.22678000  0.12723000  1.0
  H  H26  1  0.77322000  0.37163000  0.37277000  1.0
  H  H27  1  0.22678000  0.62838000  0.87277000  1.0
  H  H28  1  0.67697000  0.46377000  0.63068000  1.0
  H  H29  1  0.32303000  0.53622000  0.13068000  1.0
  H  H30  1  0.46378000  0.67697000  0.36932000  1.0
  H  H31  1  0.53622000  0.32303000  0.86932000  1.0
  H  H32  1  0.20183000  0.57890000  0.62704000  1.0
  H  H33  1  0.79817000  0.42110000  0.12704000  1.0
  H  H34  1  0.57890000  0.20183000  0.37295000  1.0
  H  H35  1  0.42110000  0.79817000  0.87296000  1.0
  H  H36  1  0.62081000  0.13955000  0.62331000  1.0
  H  H37  1  0.37919000  0.86045000  0.12331000  1.0
  H  H38  1  0.13955000  0.62081000  0.37669000  1.0
  H  H39  1  0.86045000  0.37919000  0.87669000  1.0
  H  H40  1  0.19424000  0.76238000  0.62462000  1.0
  H  H41  1  0.80575000  0.23761000  0.12462000  1.0
  H  H42  1  0.76239000  0.19425000  0.37538000  1.0
  H  H43  1  0.23761000  0.80576000  0.87538000  1.0
  H  H44  1  0.81153000  0.11612000  0.62441000  1.0
  H  H45  1  0.18847000  0.88388000  0.12441000  1.0
  H  H46  1  0.11612000  0.81153000  0.37559000  1.0
  H  H47  1  0.88388000  0.18847000  0.87559000  1.0
  H  H48  1  0.41591000  0.23981000  0.15721000  1.0
  H  H49  1  0.58409000  0.76019000  0.65721000  1.0
  H  H50  1  0.23981000  0.41591000  0.84279000  1.0
  H  H51  1  0.76019000  0.58409000  0.34279000  1.0
  H  H52  1  0.46801000  0.11497000  0.20398000  1.0
  H  H53  1  0.53199000  0.88503000  0.70398000  1.0
  H  H54  1  0.11497000  0.46802000  0.79602000  1.0
  H  H55  1  0.88503000  0.53198000  0.29601000  1.0
  C  C56  1  0.46608000  0.60056000  0.62760000  1.0
  C  C57  1  0.53392000  0.39944000  0.12760000  1.0
  C  C58  1  0.60057000  0.46608000  0.37240000  1.0
  C  C59  1  0.39943000  0.53392000  0.87240000  1.0
  C  C60  1  0.75724000  0.28957000  0.62702000  1.0
  C  C61  1  0.24276000  0.71043000  0.12702000  1.0
  C  C62  1  0.28957000  0.75724000  0.37298000  1.0
  C  C63  1  0.71043000  0.24276000  0.87298000  1.0
  C  C64  1  0.42823000  0.21671000  0.80758000  1.0
  C  C65  1  0.57177000  0.78329000  0.30758000  1.0
  C  C66  1  0.21671000  0.42823000  0.19242000  1.0
  C  C67  1  0.78329000  0.57177000  0.69242000  1.0
  C  C68  1  0.50882000  0.03216000  0.87727000  1.0
  C  C69  1  0.49119000  0.96784000  0.37727000  1.0
  C  C70  1  0.03216000  0.50882000  0.12273000  1.0
  C  C71  1  0.96784000  0.49119000  0.62272000  1.0
  C  C72  1  0.46455000  0.14369000  0.89093000  1.0
  C  C73  1  0.53545000  0.85631000  0.39093000  1.0
  C  C74  1  0.14369000  0.46455000  0.10907000  1.0
  C  C75  1  0.85631000  0.53545000  0.60906000  1.0
  C  C76  1  0.52026000  0.00523000  0.04593000  1.0
  C  C77  1  0.47974000  0.99477000  0.54592000  1.0
  C  C78  1  0.00523000  0.52026000  0.95408000  1.0
  C  C79  1  0.99477000  0.47975000  0.45407000  1.0
  C  C80  1  0.46325000  0.50116000  0.62756000  1.0
  C  C81  1  0.53675000  0.49884000  0.12756000  1.0
  C  C82  1  0.50116000  0.46325000  0.37244000  1.0
  C  C83  1  0.49884000  0.53675000  0.87244000  1.0
  C  C84  1  0.48037000  0.11728000  0.06063000  1.0
  C  C85  1  0.51963000  0.88272000  0.56063000  1.0
  C  C86  1  0.11728000  0.48037000  0.93937000  1.0
  C  C87  1  0.88272000  0.51963000  0.43937000  1.0
  C  C88  1  0.45221000  0.18561000  0.98160000  1.0
  C  C89  1  0.54779000  0.81439000  0.48160000  1.0
  C  C90  1  0.18562000  0.45221000  0.01840000  1.0
  C  C91  1  0.81439000  0.54779000  0.51840000  1.0
  C  C92  1  0.36929000  0.69589000  0.62654000  1.0
  C  C93  1  0.63071000  0.30411000  0.12654000  1.0
  C  C94  1  0.69589000  0.36929000  0.37346000  1.0
  C  C95  1  0.30411000  0.63071000  0.87346000  1.0
  C  C96  1  0.66704000  0.39058000  0.62811000  1.0
  C  C97  1  0.33296000  0.60941000  0.12811000  1.0
  C  C98  1  0.39059000  0.66704000  0.37189000  1.0
  C  C99  1  0.60941000  0.33296000  0.87189000  1.0
  C  C100  1  0.56378000  0.39623000  0.62726000  1.0
  C  C101  1  0.43622000  0.60377000  0.12726000  1.0
  C  C102  1  0.39623000  0.56378000  0.37274000  1.0
  C  C103  1  0.60377000  0.43622000  0.87274000  1.0
  C  C104  1  0.27540000  0.58835000  0.62669000  1.0
  C  C105  1  0.72460000  0.41164000  0.12669000  1.0
  C  C106  1  0.58836000  0.27540000  0.37331000  1.0
  C  C107  1  0.41165000  0.72460000  0.87331000  1.0
  C  C108  1  0.63785000  0.20872000  0.62456000  1.0
  C  C109  1  0.36215000  0.79128000  0.12456000  1.0
  C  C110  1  0.20872000  0.63785000  0.37544000  1.0
  C  C111  1  0.79128000  0.36215000  0.87544000  1.0
  C  C112  1  0.27190000  0.69000000  0.62563000  1.0
  C  C113  1  0.72810000  0.31000000  0.12563000  1.0
  C  C114  1  0.69000000  0.27191000  0.37437000  1.0
  C  C115  1  0.31000000  0.72810000  0.87437000  1.0
  C  C116  1  0.57787000  0.84474000  0.93856000  1.0
  C  C117  1  0.42213000  0.15526000  0.43856000  1.0
  C  C118  1  0.84474000  0.57788000  0.06144000  1.0
  C  C119  1  0.15526000  0.42213000  0.56144000  1.0
  C  C120  1  0.53567000  0.96337000  0.95482000  1.0
  C  C121  1  0.46433000  0.03662000  0.45482000  1.0
  C  C122  1  0.96338000  0.53567000  0.04518000  1.0
  C  C123  1  0.03662000  0.46434000  0.54517000  1.0
  C  C124  1  0.74298000  0.19662000  0.62516000  1.0
  C  C125  1  0.25703000  0.80338000  0.12516000  1.0
  C  C126  1  0.19662000  0.74297000  0.37484000  1.0
  C  C127  1  0.80338000  0.25703000  0.87484000  1.0
  N  N128  1  0.47118000  0.16035000  0.14950000  1.0
  N  N129  1  0.52882000  0.83965000  0.64950000  1.0
  N  N130  1  0.16035000  0.47118000  0.85050000  1.0
  N  N131  1  0.83965000  0.52882000  0.35050000  1.0
  N  N132  1  0.36838000  0.49675000  0.62753000  1.0
  N  N133  1  0.63162000  0.50325000  0.12753000  1.0
  N  N134  1  0.49675000  0.36838000  0.37247000  1.0
  N  N135  1  0.50325000  0.63163000  0.87247000  1.0
  N  N136  1  0.55126000  0.30587000  0.62553000  1.0
  N  N137  1  0.44875000  0.69413000  0.12553000  1.0
  N  N138  1  0.30587000  0.55125000  0.37447000  1.0
  N  N139  1  0.69413000  0.44875000  0.87447000  1.0
  O  O140  1  0.38861000  0.31895000  0.81866000  1.0
  O  O141  1  0.61139000  0.68105000  0.31866000  1.0
  O  O142  1  0.31895000  0.38861000  0.18133000  1.0
  O  O143  1  0.68105000  0.61139000  0.68133000  1.0
  O  O144  1  0.43862000  0.17348000  0.72672000  1.0
  O  O145  1  0.56138000  0.82652000  0.22672000  1.0
  O  O146  1  0.17349000  0.43862000  0.27328000  1.0
  O  O147  1  0.82652000  0.56138000  0.77328000  1.0
  O  O148  1  0.57255000  0.78514000  0.00374000  1.0
  O  O149  1  0.42744000  0.21486000  0.50374000  1.0
  O  O150  1  0.78513000  0.57257000  0.99626000  1.0
  O  O151  1  0.21487000  0.42745000  0.49626000  1.0
  O  O152  1  0.61468000  0.80813000  0.85673000  1.0
  O  O153  1  0.38532000  0.19187000  0.35673000  1.0
  O  O154  1  0.80813000  0.61468000  0.14327000  1.0
  O  O155  1  0.19187000  0.38532000  0.64327000  1.0
