# generated using pymatgen
data_CdH14C15N3O5
_symmetry_space_group_name_H-M   'P 1'
_cell_length_a   9.78720000
_cell_length_b   11.50790000
_cell_length_c   19.11880000
_cell_angle_alpha   106.50900000
_cell_angle_beta   90.00000000
_cell_angle_gamma   89.99990000
_symmetry_Int_Tables_number   1
_chemical_formula_structural   CdH14C15N3O5
_chemical_formula_sum   'Cd4 H56 C60 N12 O20'
_cell_volume   2064.58098799
_cell_formula_units_Z   4
loop_
 _symmetry_equiv_pos_site_id
 _symmetry_equiv_pos_as_xyz
  1  'x, y, z'
loop_
 _atom_site_type_symbol
 _atom_site_label
 _atom_site_symmetry_multiplicity
 _atom_site_fract_x
 _atom_site_fract_y
 _atom_site_fract_z
 _atom_site_occupancy
  Cd  Cd0  1  0.68345000  0.64992000  0.25648000  1.0
  Cd  Cd1  1  0.18346000  0.35008000  0.24352000  1.0
  Cd  Cd2  1  0.31654000  0.35008000  0.74352000  1.0
  Cd  Cd3  1  0.81654000  0.64992000  0.75648000  1.0
  H  H4  1  0.79251000  0.87671000  0.38312000  1.0
  H  H5  1  0.29251000  0.12329000  0.11688000  1.0
  H  H6  1  0.20749000  0.12329000  0.61688000  1.0
  H  H7  1  0.70749000  0.87671000  0.88312000  1.0
  H  H8  1  0.79687000  0.10416000  0.42294000  1.0
  H  H9  1  0.29686000  0.89584000  0.07706000  1.0
  H  H10  1  0.20314000  0.89584000  0.57706000  1.0
  H  H11  1  0.70313000  0.10416000  0.92294000  1.0
  H  H12  1  0.53219000  0.09644000  0.24105000  1.0
  H  H13  1  0.03219000  0.90356000  0.25895000  1.0
  H  H14  1  0.46781000  0.90356000  0.75895000  1.0
  H  H15  1  0.96781000  0.09644000  0.74105000  1.0
  H  H16  1  0.55019000  0.86938000  0.20477000  1.0
  H  H17  1  0.05019000  0.13062000  0.29523000  1.0
  H  H18  1  0.44981000  0.13062000  0.79523000  1.0
  H  H19  1  0.94981000  0.86938000  0.70477000  1.0
  H  H20  1  0.59024000  0.28823000  0.32205000  1.0
  H  H21  1  0.09024000  0.71177000  0.17795000  1.0
  H  H22  1  0.40976000  0.71176000  0.67795000  1.0
  H  H23  1  0.90976000  0.28824000  0.82205000  1.0
  H  H24  1  0.61708000  0.28872000  0.41318000  1.0
  H  H25  1  0.11708000  0.71128000  0.08682000  1.0
  H  H26  1  0.38292000  0.71128000  0.58682000  1.0
  H  H27  1  0.88292000  0.28872000  0.91318000  1.0
  H  H28  1  0.83148000  0.37628000  0.47321000  1.0
  H  H29  1  0.33148000  0.62372000  0.02679000  1.0
  H  H30  1  0.16852000  0.62372000  0.52679000  1.0
  H  H31  1  0.66852000  0.37628000  0.97321000  1.0
  H  H32  1  0.07827000  0.44468000  0.42236000  1.0
  H  H33  1  0.57827000  0.55532000  0.07764000  1.0
  H  H34  1  0.92173000  0.55532000  0.57764000  1.0
  H  H35  1  0.42172000  0.44468000  0.92236000  1.0
  H  H36  1  0.89498000  0.27508000  0.18298000  1.0
  H  H37  1  0.39498000  0.72492000  0.31702000  1.0
  H  H38  1  0.10502000  0.72492000  0.81702000  1.0
  H  H39  1  0.60502000  0.27508000  0.68299000  1.0
  H  H40  1  0.72349000  0.30644000  0.21181000  1.0
  H  H41  1  0.22349000  0.69356000  0.28819000  1.0
  H  H42  1  0.27651000  0.69356000  0.78819000  1.0
  H  H43  1  0.77651000  0.30644000  0.71181000  1.0
  H  H44  1  0.79651000  0.16258000  0.20775000  1.0
  H  H45  1  0.29651000  0.83743000  0.29225000  1.0
  H  H46  1  0.20349000  0.83742000  0.79225000  1.0
  H  H47  1  0.70349000  0.16258000  0.70775000  1.0
  H  H48  1  0.69482000  0.64064000  0.50616000  1.0
  H  H49  1  0.19482000  0.35936000  0.99384000  1.0
  H  H50  1  0.30518000  0.35936000  0.49384000  1.0
  H  H51  1  0.80518000  0.64064000  0.00616000  1.0
  H  H52  1  0.97003000  0.58826000  0.25778000  1.0
  H  H53  1  0.47003000  0.41174000  0.24222000  1.0
  H  H54  1  0.02997000  0.41174000  0.74222000  1.0
  H  H55  1  0.52997000  0.58826000  0.75778000  1.0
  H  H56  1  0.92146000  0.58305000  0.33398000  1.0
  H  H57  1  0.42146000  0.41695000  0.16601000  1.0
  H  H58  1  0.07854000  0.41695000  0.66602000  1.0
  H  H59  1  0.57854000  0.58305000  0.83398000  1.0
  C  C60  1  0.73868000  0.92946000  0.35250000  1.0
  C  C61  1  0.23867000  0.07054000  0.14750000  1.0
  C  C62  1  0.26133000  0.07054000  0.64750000  1.0
  C  C63  1  0.76132000  0.92946000  0.85250000  1.0
  C  C64  1  0.73931000  0.05558000  0.37461000  1.0
  C  C65  1  0.23931000  0.94442000  0.12539000  1.0
  C  C66  1  0.26068000  0.94442000  0.62539000  1.0
  C  C67  1  0.76068000  0.05558000  0.87460000  1.0
  C  C68  1  0.66384000  0.11857000  0.33491000  1.0
  C  C69  1  0.16384000  0.88143000  0.16509000  1.0
  C  C70  1  0.33616000  0.88143000  0.66510000  1.0
  C  C71  1  0.83616000  0.11857000  0.83490000  1.0
  C  C72  1  0.59306000  0.05111000  0.27325000  1.0
  C  C73  1  0.09306000  0.94889000  0.22675000  1.0
  C  C74  1  0.40694000  0.94889000  0.72675000  1.0
  C  C75  1  0.90694000  0.05111000  0.77325000  1.0
  C  C76  1  0.60108000  0.92517000  0.25360000  1.0
  C  C77  1  0.10108000  0.07483000  0.24640000  1.0
  C  C78  1  0.39892000  0.07483000  0.74640000  1.0
  C  C79  1  0.89892000  0.92517000  0.75360000  1.0
  C  C80  1  0.65819000  0.25518000  0.35771000  1.0
  C  C81  1  0.15819000  0.74482000  0.14229000  1.0
  C  C82  1  0.34181000  0.74482000  0.64229000  1.0
  C  C83  1  0.84181000  0.25518000  0.85771000  1.0
  C  C84  1  0.87022000  0.36496000  0.41856000  1.0
  C  C85  1  0.37021000  0.63504000  0.08144000  1.0
  C  C86  1  0.12978000  0.63504000  0.58144000  1.0
  C  C87  1  0.62978000  0.36496000  0.91856000  1.0
  C  C88  1  0.99036000  0.39843000  0.39278000  1.0
  C  C89  1  0.49036000  0.60157000  0.10721000  1.0
  C  C90  1  0.00964000  0.60157000  0.60722000  1.0
  C  C91  1  0.50963000  0.39843000  0.89279000  1.0
  C  C92  1  0.86647000  0.31006000  0.29688000  1.0
  C  C93  1  0.36648000  0.68994000  0.20312000  1.0
  C  C94  1  0.13353000  0.68994000  0.70312000  1.0
  C  C95  1  0.63352000  0.31006000  0.79688000  1.0
  C  C96  1  0.81737000  0.26029000  0.22081000  1.0
  C  C97  1  0.31737000  0.73970000  0.27919000  1.0
  C  C98  1  0.18263000  0.73971000  0.77919000  1.0
  C  C99  1  0.68263000  0.26030000  0.72081000  1.0
  C  C100  1  0.60939000  0.57866000  0.50345000  1.0
  C  C101  1  0.10938000  0.42134000  0.99655000  1.0
  C  C102  1  0.39062000  0.42134000  0.49655000  1.0
  C  C103  1  0.89062000  0.57866000  0.00345000  1.0
  C  C104  1  0.53435000  0.53920000  0.43879000  1.0
  C  C105  1  0.03435000  0.46080000  0.06120000  1.0
  C  C106  1  0.46565000  0.46080000  0.56120000  1.0
  C  C107  1  0.96565000  0.53920000  0.93880000  1.0
  C  C108  1  0.42300000  0.46067000  0.43586000  1.0
  C  C109  1  0.92300000  0.53933000  0.06414000  1.0
  C  C110  1  0.57700000  0.53933000  0.56414000  1.0
  C  C111  1  0.07700000  0.46067000  0.93586000  1.0
  C  C112  1  0.58192000  0.57485000  0.37322000  1.0
  C  C113  1  0.08192000  0.42515000  0.12678000  1.0
  C  C114  1  0.41808000  0.42515000  0.62678000  1.0
  C  C115  1  0.91808000  0.57485000  0.87322000  1.0
  C  C116  1  0.33624000  0.41933000  0.36897000  1.0
  C  C117  1  0.83624000  0.58068000  0.13103000  1.0
  C  C118  1  0.66376000  0.58067000  0.63103000  1.0
  C  C119  1  0.16376000  0.41933000  0.86897000  1.0
  N  N120  1  0.67100000  0.86524000  0.29281000  1.0
  N  N121  1  0.17100000  0.13476000  0.20719000  1.0
  N  N122  1  0.32900000  0.13476000  0.70719000  1.0
  N  N123  1  0.82900000  0.86524000  0.79281000  1.0
  N  N124  1  0.79315000  0.30913000  0.35760000  1.0
  N  N125  1  0.29315000  0.69087000  0.14240000  1.0
  N  N126  1  0.20685000  0.69087000  0.64240000  1.0
  N  N127  1  0.70685000  0.30913000  0.85760000  1.0
  N  N128  1  0.98697000  0.36390000  0.31727000  1.0
  N  N129  1  0.48697000  0.63610000  0.18273000  1.0
  N  N130  1  0.01303000  0.63610000  0.68273000  1.0
  N  N131  1  0.51303000  0.36390000  0.81727000  1.0
  O  O132  1  0.58022000  0.49555000  0.31062000  1.0
  O  O133  1  0.08022000  0.50445000  0.18938000  1.0
  O  O134  1  0.41978000  0.50445000  0.68938000  1.0
  O  O135  1  0.91978000  0.49555000  0.81062000  1.0
  O  O136  1  0.91646000  0.63393000  0.30108000  1.0
  O  O137  1  0.41646000  0.36607000  0.19892000  1.0
  O  O138  1  0.08354000  0.36607000  0.69892000  1.0
  O  O139  1  0.58354000  0.63393000  0.80108000  1.0
  O  O140  1  0.62912000  0.68097000  0.38263000  1.0
  O  O141  1  0.12912000  0.31903000  0.11737000  1.0
  O  O142  1  0.37088000  0.31903000  0.61737000  1.0
  O  O143  1  0.87088000  0.68097000  0.88263000  1.0
  O  O144  1  0.32735000  0.30613000  0.33840000  1.0
  O  O145  1  0.82735000  0.69386000  0.16160000  1.0
  O  O146  1  0.67265000  0.69387000  0.66160000  1.0
  O  O147  1  0.17265000  0.30613000  0.83840000  1.0
  O  O148  1  0.27395000  0.50024000  0.34730000  1.0
  O  O149  1  0.77395000  0.49976000  0.15270000  1.0
  O  O150  1  0.72605000  0.49976000  0.65270000  1.0
  O  O151  1  0.22605000  0.50024000  0.84730000  1.0
