# generated using pymatgen
data_AlH9C16O7
_symmetry_space_group_name_H-M   'P 1'
_cell_length_a   6.67111000
_cell_length_b   24.11680000
_cell_length_c   25.09390000
_cell_angle_alpha   89.89050000
_cell_angle_beta   89.09540000
_cell_angle_gamma   89.35370000
_symmetry_Int_Tables_number   1
_chemical_formula_structural   AlH9C16O7
_chemical_formula_sum   'Al4 H36 C64 O28'
_cell_volume   4036.48677116
_cell_formula_units_Z   4
loop_
 _symmetry_equiv_pos_site_id
 _symmetry_equiv_pos_as_xyz
  1  'x, y, z'
loop_
 _atom_site_type_symbol
 _atom_site_label
 _atom_site_symmetry_multiplicity
 _atom_site_fract_x
 _atom_site_fract_y
 _atom_site_fract_z
 _atom_site_occupancy
  Al  Al0  1  0.94650000  0.99823000  0.49948000  1.0
  Al  Al1  1  0.44643000  0.00216000  0.49902000  1.0
  Al  Al2  1  0.05349000  0.49792000  0.00095000  1.0
  Al  Al3  1  0.55343000  0.50181000  0.00048000  1.0
  H  H4  1  0.18376000  0.07301000  0.50843000  1.0
  H  H5  1  0.68777000  0.93060000  0.52099000  1.0
  H  H6  1  0.31609000  0.42706000  0.99150000  1.0
  H  H7  1  0.81207000  0.56949000  0.97901000  1.0
  H  H8  1  0.46637000  0.41276000  0.13538000  1.0
  H  H9  1  0.43792000  0.33833000  0.20445000  1.0
  H  H10  1  0.09333000  0.37341000  0.11263000  1.0
  H  H11  1  0.40654000  0.12656000  0.38712000  1.0
  H  H12  1  0.03366000  0.08728000  0.36463000  1.0
  H  H13  1  0.06226000  0.16166000  0.29553000  1.0
  H  H14  1  0.97073000  0.60548000  0.88532000  1.0
  H  H15  1  0.93411000  0.67913000  0.81611000  1.0
  H  H16  1  0.61197000  0.60709000  0.86420000  1.0
  H  H17  1  0.88805000  0.89317000  0.63591000  1.0
  H  H18  1  0.52929000  0.89449000  0.61459000  1.0
  H  H19  1  0.56566000  0.82078000  0.68377000  1.0
  H  H20  1  0.59759000  0.63203000  0.09973000  1.0
  H  H21  1  0.59529000  0.70364000  0.17146000  1.0
  H  H22  1  0.97495000  0.59846000  0.13270000  1.0
  H  H23  1  0.52482000  0.90168000  0.36717000  1.0
  H  H24  1  0.90246000  0.86797000  0.40034000  1.0
  H  H25  1  0.90469000  0.79635000  0.32861000  1.0
  H  H26  1  0.47442000  0.38466000  0.89613000  1.0
  H  H27  1  0.43741000  0.31428000  0.82415000  1.0
  H  H28  1  0.11339000  0.38505000  0.86986000  1.0
  H  H29  1  0.38680000  0.11531000  0.62994000  1.0
  H  H30  1  0.02611000  0.11466000  0.60437000  1.0
  H  H31  1  0.06363000  0.18480000  0.67657000  1.0
  H  H32  1  0.06296000  0.26550000  0.20967000  1.0
  H  H33  1  0.43706000  0.23435000  0.29004000  1.0
  H  H34  1  0.56928000  0.71201000  0.76400000  1.0
  H  H35  1  0.93052000  0.78829000  0.73615000  1.0
  H  H36  1  0.96242000  0.69811000  0.23737000  1.0
  H  H37  1  0.53725000  0.80202000  0.26250000  1.0
  H  H38  1  0.07027000  0.28513000  0.76572000  1.0
  H  H39  1  0.43059000  0.21492000  0.73434000  1.0
  C  C40  1  0.68834000  0.07117000  0.56788000  1.0
  C  C41  1  0.70971000  0.06189000  0.42425000  1.0
  C  C42  1  0.21272000  0.93031000  0.43155000  1.0
  C  C43  1  0.19130000  0.93730000  0.57523000  1.0
  C  C44  1  0.81176000  0.42884000  0.93215000  1.0
  C  C45  1  0.79016000  0.43815000  0.07571000  1.0
  C  C46  1  0.28720000  0.56976000  0.06843000  1.0
  C  C47  1  0.30871000  0.56278000  0.92475000  1.0
  C  C48  1  0.78052000  0.39695000  0.12005000  1.0
  C  C49  1  0.59624000  0.38777000  0.14638000  1.0
  C  C50  1  0.58129000  0.34671000  0.18487000  1.0
  C  C51  1  0.75030000  0.31397000  0.19780000  1.0
  C  C52  1  0.93697000  0.32459000  0.17186000  1.0
  C  C53  1  0.95127000  0.36593000  0.13324000  1.0
  C  C54  1  0.74290000  0.26986000  0.23473000  1.0
  C  C55  1  0.75735000  0.23009000  0.26511000  1.0
  C  C56  1  0.74988000  0.18599000  0.30205000  1.0
  C  C57  1  0.56310000  0.17532000  0.32791000  1.0
  C  C58  1  0.54871000  0.13401000  0.36654000  1.0
  C  C59  1  0.71942000  0.10303000  0.37985000  1.0
  C  C60  1  0.90376000  0.11223000  0.35356000  1.0
  C  C61  1  0.91879000  0.15326000  0.31505000  1.0
  C  C62  1  0.29277000  0.60320000  0.87975000  1.0
  C  C63  1  0.10188000  0.62274000  0.86537000  1.0
  C  C64  1  0.08185000  0.66369000  0.82704000  1.0
  C  C65  1  0.25356000  0.68602000  0.80209000  1.0
  C  C66  1  0.44548000  0.66421000  0.81496000  1.0
  C  C67  1  0.46455000  0.62319000  0.85375000  1.0
  C  C68  1  0.24416000  0.73036000  0.76546000  1.0
  C  C69  1  0.25550000  0.76967000  0.73447000  1.0
  C  C70  1  0.24619000  0.81403000  0.69787000  1.0
  C  C71  1  0.05440000  0.83596000  0.68508000  1.0
  C  C72  1  0.03544000  0.87697000  0.64628000  1.0
  C  C73  1  0.20726000  0.89689000  0.62023000  1.0
  C  C74  1  0.39811000  0.87728000  0.63458000  1.0
  C  C75  1  0.41796000  0.83631000  0.67288000  1.0
  C  C76  1  0.28620000  0.61191000  0.11182000  1.0
  C  C77  1  0.46176000  0.64118000  0.12280000  1.0
  C  C78  1  0.45954000  0.68105000  0.16250000  1.0
  C  C79  1  0.28228000  0.69224000  0.19217000  1.0
  C  C80  1  0.10699000  0.66146000  0.18141000  1.0
  C  C81  1  0.10947000  0.62183000  0.14121000  1.0
  C  C82  1  0.26822000  0.73298000  0.23237000  1.0
  C  C83  1  0.23163000  0.76709000  0.26760000  1.0
  C  C84  1  0.21752000  0.80782000  0.30781000  1.0
  C  C85  1  0.39277000  0.83863000  0.31852000  1.0
  C  C86  1  0.39038000  0.87827000  0.35872000  1.0
  C  C87  1  0.21370000  0.88816000  0.38815000  1.0
  C  C88  1  0.03825000  0.85884000  0.37722000  1.0
  C  C89  1  0.04042000  0.81897000  0.33753000  1.0
  C  C90  1  0.79556000  0.38793000  0.88783000  1.0
  C  C91  1  0.60500000  0.36848000  0.87453000  1.0
  C  C92  1  0.58476000  0.32937000  0.83474000  1.0
  C  C93  1  0.75561000  0.30885000  0.80720000  1.0
  C  C94  1  0.94717000  0.32980000  0.81986000  1.0
  C  C95  1  0.96655000  0.36900000  0.86009000  1.0
  C  C96  1  0.74524000  0.26774000  0.76748000  1.0
  C  C97  1  0.75583000  0.23179000  0.73298000  1.0
  C  C98  1  0.74525000  0.19075000  0.69320000  1.0
  C  C99  1  0.55341000  0.17012000  0.68029000  1.0
  C  C100  1  0.53384000  0.13106000  0.63995000  1.0
  C  C101  1  0.70482000  0.11194000  0.61232000  1.0
  C  C102  1  0.89560000  0.13106000  0.62585000  1.0
  C  C103  1  0.91609000  0.17001000  0.66577000  1.0
  O  O104  1  0.85246000  0.05818000  0.54401000  1.0
  O  O105  1  0.54065000  0.05460000  0.44761000  1.0
  O  O106  1  0.37803000  0.95351000  0.44186000  1.0
  O  O107  1  0.01796000  0.95553000  0.56282000  1.0
  O  O108  1  0.04605000  0.93953000  0.45578000  1.0
  O  O109  1  0.35578000  0.94920000  0.55148000  1.0
  O  O110  1  0.51541000  0.05299000  0.55647000  1.0
  O  O111  1  0.87366000  0.03804000  0.43664000  1.0
  O  O112  1  0.19282000  0.03443000  0.49799000  1.0
  O  O113  1  0.69497000  0.96604000  0.50290000  1.0
  O  O114  1  0.98462000  0.44709000  0.94352000  1.0
  O  O115  1  0.62622000  0.46201000  0.06333000  1.0
  O  O116  1  0.45386000  0.56052000  0.04421000  1.0
  O  O117  1  0.14420000  0.55090000  0.94848000  1.0
  O  O118  1  0.12187000  0.54655000  0.05813000  1.0
  O  O119  1  0.48203000  0.54452000  0.93717000  1.0
  O  O120  1  0.64756000  0.44186000  0.95596000  1.0
  O  O121  1  0.95925000  0.44547000  0.05237000  1.0
  O  O122  1  0.30709000  0.46563000  0.00197000  1.0
  O  O123  1  0.80494000  0.53404000  0.99708000  1.0
  O  O124  1  0.10370000  0.29391000  0.18375000  1.0
  O  O125  1  0.39633000  0.20594000  0.31595000  1.0
  O  O126  1  0.61323000  0.68404000  0.78989000  1.0
  O  O127  1  0.88658000  0.81627000  0.71025000  1.0
  O  O128  1  0.93402000  0.67045000  0.20997000  1.0
  O  O129  1  0.56562000  0.82969000  0.28991000  1.0
  O  O130  1  0.11436000  0.31147000  0.79280000  1.0
  O  O131  1  0.38626000  0.18869000  0.70720000  1.0
