# generated using pymatgen
data_ZnH12(C4N)4
_symmetry_space_group_name_H-M   'P 1'
_cell_length_a   14.37540000
_cell_length_b   14.77520000
_cell_length_c   16.90437587
_cell_angle_alpha   106.90719229
_cell_angle_beta   106.13003456
_cell_angle_gamma   107.19000000
_symmetry_Int_Tables_number   1
_chemical_formula_structural   ZnH12(C4N)4
_chemical_formula_sum   'Zn4 H48 C64 N16'
_cell_volume   3010.73590372
_cell_formula_units_Z   4
loop_
 _symmetry_equiv_pos_site_id
 _symmetry_equiv_pos_as_xyz
  1  'x, y, z'
loop_
 _atom_site_type_symbol
 _atom_site_label
 _atom_site_symmetry_multiplicity
 _atom_site_fract_x
 _atom_site_fract_y
 _atom_site_fract_z
 _atom_site_occupancy
  Zn  Zn0  1  0.46683000  0.86524000  0.87246000  1.0
  Zn  Zn1  1  0.48028000  0.11846000  0.11737000  1.0
  Zn  Zn2  1  0.67312000  0.13140000  0.03593000  1.0
  Zn  Zn3  1  0.32212000  0.87361000  0.99376000  1.0
  H  H4  1  0.79579000  0.86833000  0.00575000  1.0
  H  H5  1  0.44674000  0.41004000  0.11854000  1.0
  H  H6  1  0.26876000  0.47951000  0.05414000  1.0
  H  H7  1  0.40756000  0.56154000  0.10950000  1.0
  H  H8  1  0.58883000  0.82003000  0.57581000  1.0
  H  H9  1  0.67613000  0.14862000  0.70574000  1.0
  H  H10  1  0.55542000  0.74137000  0.41330000  1.0
  H  H11  1  0.67719000  0.16814000  0.56628000  1.0
  H  H12  1  0.53395000  0.75864000  0.26920000  1.0
  H  H13  1  0.62841000  0.08768000  0.40303000  1.0
  H  H14  1  0.75792000  0.50723000  0.42484000  1.0
  H  H15  1  0.32889000  0.15991000  0.97743000  1.0
  H  H16  1  0.85801000  0.30888000  0.20863000  1.0
  H  H17  1  0.96597000  0.48714000  0.28642000  1.0
  H  H18  1  0.11009000  0.64687000  0.41048000  1.0
  H  H19  1  0.97774000  0.79678000  0.70754000  1.0
  H  H20  1  0.08592000  0.16350000  0.06326000  1.0
  H  H21  1  0.19205000  0.17391000  0.95876000  1.0
  H  H22  1  0.80951000  0.96169000  0.73424000  1.0
  H  H23  1  0.84023000  0.85618000  0.68549000  1.0
  H  H24  1  0.75288000  0.88172000  0.83306000  1.0
  H  H25  1  0.23844000  0.61001000  0.95451000  1.0
  H  H26  1  0.72620000  0.13562000  0.84305000  1.0
  H  H27  1  0.79738000  0.78262000  0.79447000  1.0
  H  H28  1  0.49189000  0.66035000  0.85989000  1.0
  H  H29  1  0.41789000  0.78404000  0.13357000  1.0
  H  H30  1  0.33153000  0.88264000  0.70299000  1.0
  H  H31  1  0.44200000  0.77662000  0.61536000  1.0
  H  H32  1  0.53648000  0.73382000  0.66542000  1.0
  H  H33  1  0.43688000  0.74100000  0.70635000  1.0
  H  H34  1  0.39786000  0.45290000  0.77921000  1.0
  H  H35  1  0.53142000  0.31461000  0.78828000  1.0
  H  H36  1  0.41188000  0.20489000  0.75065000  1.0
  H  H37  1  0.09287000  0.88642000  0.98304000  1.0
  H  H38  1  0.41448000  0.30006000  0.70536000  1.0
  H  H39  1  0.79640000  0.69241000  0.64111000  1.0
  H  H40  1  0.73523000  0.65523000  0.52292000  1.0
  H  H41  1  0.76200000  0.56481000  0.56474000  1.0
  H  H42  1  0.18350000  0.77290000  0.56687000  1.0
  H  H43  1  0.61455000  0.36747000  0.29170000  1.0
  H  H44  1  0.00749000  0.26915000  0.10810000  1.0
  H  H45  1  0.95192000  0.21550000  0.98858000  1.0
  H  H46  1  0.88175000  0.26391000  0.04936000  1.0
  H  H47  1  0.30945000  0.20906000  0.13248000  1.0
  H  H48  1  0.11864000  0.85831000  0.84119000  1.0
  H  H49  1  0.60323000  0.25806000  0.91364000  1.0
  H  H50  1  0.30769000  0.32890000  0.06327000  1.0
  H  H51  1  0.65099000  0.10283000  0.27253000  1.0
  C  C52  1  0.81089000  0.94929000  0.02060000  1.0
  C  C53  1  0.56146000  0.88940000  0.74506000  1.0
  C  C54  1  0.18479000  0.86884000  0.82062000  1.0
  C  C55  1  0.58707000  0.02777000  0.22644000  1.0
  C  C56  1  0.54267000  0.22451000  0.93582000  1.0
  C  C57  1  0.18477000  0.85191000  0.73419000  1.0
  C  C58  1  0.44882000  0.23872000  0.93070000  1.0
  C  C59  1  0.62288000  0.97454000  0.73357000  1.0
  C  C60  1  0.16298000  0.06047000  0.04595000  1.0
  C  C61  1  0.35916000  0.45726000  0.96695000  1.0
  C  C62  1  0.36838000  0.49274000  0.90042000  1.0
  C  C63  1  0.55089000  0.93601000  0.23930000  1.0
  C  C64  1  0.39431000  0.43203000  0.83560000  1.0
  C  C65  1  0.41669000  0.34672000  0.83949000  1.0
  C  C66  1  0.41385000  0.31656000  0.91159000  1.0
  C  C67  1  0.78587000  0.30890000  0.21721000  1.0
  C  C68  1  0.38115000  0.37294000  0.97186000  1.0
  C  C69  1  0.37269000  0.39018000  0.06244000  1.0
  C  C70  1  0.34778000  0.48588000  0.05663000  1.0
  C  C71  1  0.62972000  0.98176000  0.65074000  1.0
  C  C72  1  0.57826000  0.92513000  0.32530000  1.0
  C  C73  1  0.57173000  0.81748000  0.41111000  1.0
  C  C74  1  0.77091000  0.38437000  0.27930000  1.0
  C  C75  1  0.55934000  0.82716000  0.33046000  1.0
  C  C76  1  0.61474000  0.01178000  0.40492000  1.0
  C  C77  1  0.62734000  0.00430000  0.48829000  1.0
  C  C78  1  0.60288000  0.90463000  0.49200000  1.0
  C  C79  1  0.30086000  0.63907000  0.93244000  1.0
  C  C80  1  0.60636000  0.89632000  0.57416000  1.0
  C  C81  1  0.65738000  0.08083000  0.64633000  1.0
  C  C82  1  0.65723000  0.09183000  0.56837000  1.0
  C  C83  1  0.85174000  0.48453000  0.34851000  1.0
  C  C84  1  0.09272000  0.79204000  0.64806000  1.0
  C  C85  1  0.36320000  0.59060000  0.90278000  1.0
  C  C86  1  0.90119000  0.68182000  0.57251000  1.0
  C  C87  1  0.98832000  0.76005000  0.64658000  1.0
  C  C88  1  0.10487000  0.75002000  0.56869000  1.0
  C  C89  1  0.01860000  0.66861000  0.49143000  1.0
  C  C90  1  0.91569000  0.63030000  0.49377000  1.0
  C  C91  1  0.66189000  0.33805000  0.26008000  1.0
  C  C92  1  0.83464000  0.53900000  0.42130000  1.0
  C  C93  1  0.95236000  0.52693000  0.34463000  1.0
  C  C94  1  0.03272000  0.61632000  0.41358000  1.0
  C  C95  1  0.92820000  0.93708000  0.88582000  1.0
  C  C96  1  0.29265000  0.88114000  0.74958000  1.0
  C  C97  1  0.96709000  0.01128000  0.97289000  1.0
  C  C98  1  0.07660000  0.09427000  0.00912000  1.0
  C  C99  1  0.10968000  0.11865000  0.93253000  1.0
  C  C100  1  0.04961000  0.05738000  0.84605000  1.0
  C  C101  1  0.96028000  0.97182000  0.82178000  1.0
  C  C102  1  0.84862000  0.91155000  0.74940000  1.0
  C  C103  1  0.42893000  0.66350000  0.88279000  1.0
  C  C104  1  0.81624000  0.86597000  0.81559000  1.0
  C  C105  1  0.46913000  0.86489000  0.15502000  1.0
  C  C106  1  0.87804000  0.11625000  0.04488000  1.0
  C  C107  1  0.40364000  0.17557000  0.96971000  1.0
  C  C108  1  0.89457000  0.02478000  0.01545000  1.0
  C  C109  1  0.49089000  0.78006000  0.67991000  1.0
  C  C110  1  0.44486000  0.28844000  0.76710000  1.0
  C  C111  1  0.79323000  0.64696000  0.57557000  1.0
  C  C112  1  0.93271000  0.22117000  0.04793000  1.0
  C  C113  1  0.67026000  0.05620000  0.82068000  1.0
  C  C114  1  0.16082000  0.96049000  0.02242000  1.0
  C  C115  1  0.27058000  0.12492000  0.09901000  1.0
  N  N116  1  0.74999000  0.99030000  0.05136000  1.0
  N  N117  1  0.69349000  0.22549000  0.16505000  1.0
  N  N118  1  0.32635000  0.73277000  0.92909000  1.0
  N  N119  1  0.61672000  0.24378000  0.19132000  1.0
  N  N120  1  0.40690000  0.74817000  0.89923000  1.0
  N  N121  1  0.45637000  0.91255000  0.09818000  1.0
  N  N122  1  0.79178000  0.09306000  0.06549000  1.0
  N  N123  1  0.35090000  0.90970000  0.83773000  1.0
  N  N124  1  0.46662000  0.13023000  0.99862000  1.0
  N  N125  1  0.63999000  0.02451000  0.87948000  1.0
  N  N126  1  0.25971000  0.96490000  0.05662000  1.0
  N  N127  1  0.32858000  0.06799000  0.10441000  1.0
  N  N128  1  0.57379000  0.92182000  0.83301000  1.0
  N  N129  1  0.28405000  0.90145000  0.88136000  1.0
  N  N130  1  0.55264000  0.16075000  0.97780000  1.0
  N  N131  1  0.52936000  0.01296000  0.14222000  1.0
