# generated using pymatgen
data_Ag2H12C12O7
_symmetry_space_group_name_H-M   'P 1'
_cell_length_a   4.58959000
_cell_length_b   11.73850000
_cell_length_c   12.94990000
_cell_angle_alpha   72.38310000
_cell_angle_beta   85.66800000
_cell_angle_gamma   84.13790000
_symmetry_Int_Tables_number   1
_chemical_formula_structural   Ag2H12C12O7
_chemical_formula_sum   'Ag4 H24 C24 O14'
_cell_volume   660.74426859
_cell_formula_units_Z   2
loop_
 _symmetry_equiv_pos_site_id
 _symmetry_equiv_pos_as_xyz
  1  'x, y, z'
loop_
 _atom_site_type_symbol
 _atom_site_label
 _atom_site_symmetry_multiplicity
 _atom_site_fract_x
 _atom_site_fract_y
 _atom_site_fract_z
 _atom_site_occupancy
  Ag  Ag0  1  0.61898000  0.83745000  0.08467000  1.0
  Ag  Ag1  1  0.38102000  0.16256000  0.91533000  1.0
  Ag  Ag2  1  0.34882000  0.61238000  0.97579000  1.0
  Ag  Ag3  1  0.65119000  0.38762000  0.02421000  1.0
  H  H4  1  0.55123000  0.77697000  0.72004000  1.0
  H  H5  1  0.44877000  0.22303000  0.27996000  1.0
  H  H6  1  0.84302000  0.65128000  0.82324000  1.0
  H  H7  1  0.15697000  0.34872000  0.17676000  1.0
  H  H8  1  0.81537000  0.76509000  0.86524000  1.0
  H  H9  1  0.18464000  0.23491000  0.13477000  1.0
  H  H10  1  0.12741000  0.79254000  0.17631000  1.0
  H  H11  1  0.87260000  0.20746000  0.82369000  1.0
  H  H12  1  0.55654000  0.97149000  0.36888000  1.0
  H  H13  1  0.44347000  0.02851000  0.63112000  1.0
  H  H14  1  0.50807000  0.59479000  0.41168000  1.0
  H  H15  1  0.49194000  0.40521000  0.58832000  1.0
  H  H16  1  0.90612000  0.49089000  0.32752000  1.0
  H  H17  1  0.09389000  0.50910000  0.67248000  1.0
  H  H18  1  0.16441000  0.57176000  0.23485000  1.0
  H  H19  1  0.83559000  0.42823000  0.76515000  1.0
  H  H20  1  0.97349000  0.06809000  0.26225000  1.0
  H  H21  1  0.02652000  0.93191000  0.73775000  1.0
  H  H22  1  0.22022000  0.99329000  0.18860000  1.0
  H  H23  1  0.77978000  0.00671000  0.81139000  1.0
  H  H24  1  0.16666000  0.86552000  0.48470000  1.0
  H  H25  1  0.83334000  0.13448000  0.51530000  1.0
  H  H26  1  0.11820000  0.71427000  0.49275000  1.0
  H  H27  1  0.88180000  0.28573000  0.50724000  1.0
  C  C28  1  0.81777000  0.68244000  0.28718000  1.0
  C  C29  1  0.18222000  0.31756000  0.71282000  1.0
  C  C30  1  0.93510000  0.79263000  0.23215000  1.0
  C  C31  1  0.06490000  0.20737000  0.76785000  1.0
  C  C32  1  0.84404000  0.89757000  0.26159000  1.0
  C  C33  1  0.15596000  0.10243000  0.73841000  1.0
  C  C34  1  0.62648000  0.89123000  0.34455000  1.0
  C  C35  1  0.37352000  0.10877000  0.65545000  1.0
  C  C36  1  0.50335000  0.78325000  0.39825000  1.0
  C  C37  1  0.49666000  0.21675000  0.60175000  1.0
  C  C38  1  0.60046000  0.67948000  0.36929000  1.0
  C  C39  1  0.39955000  0.32052000  0.63071000  1.0
  C  C40  1  0.92914000  0.57116000  0.25785000  1.0
  C  C41  1  0.07086000  0.42884000  0.74214000  1.0
  C  C42  1  0.77854000  0.54969000  0.16551000  1.0
  C  C43  1  0.22146000  0.45031000  0.83449000  1.0
  C  C44  1  0.98526000  0.01190000  0.20750000  1.0
  C  C45  1  0.01474000  0.98811000  0.79250000  1.0
  C  C46  1  0.85890000  0.09166000  0.10116000  1.0
  C  C47  1  0.14110000  0.90834000  0.89885000  1.0
  C  C48  1  0.28128000  0.77715000  0.49157000  1.0
  C  C49  1  0.71872000  0.22285000  0.50842000  1.0
  C  C50  1  0.43758000  0.73092000  0.59772000  1.0
  C  C51  1  0.56242000  0.26908000  0.40228000  1.0
  O  O52  1  0.57050000  0.62425000  0.11961000  1.0
  O  O53  1  0.42950000  0.37575000  0.88039000  1.0
  O  O54  1  0.87198000  0.45589000  0.13928000  1.0
  O  O55  1  0.12802000  0.54411000  0.86072000  1.0
  O  O56  1  0.65748000  0.05641000  0.05944000  1.0
  O  O57  1  0.34251000  0.94360000  0.94057000  1.0
  O  O58  1  0.96969000  0.19221000  0.05905000  1.0
  O  O59  1  0.03031000  0.80780000  0.94096000  1.0
  O  O60  1  0.55762000  0.62881000  0.62999000  1.0
  O  O61  1  0.44237000  0.37118000  0.37001000  1.0
  O  O62  1  0.43721000  0.81337000  0.64979000  1.0
  O  O63  1  0.56278000  0.18663000  0.35020000  1.0
  O  O64  1  0.70524000  0.72174000  0.82632000  1.0
  O  O65  1  0.29476000  0.27826000  0.17368000  1.0
