# generated using pymatgen
data_Zn2H14C10O11
_symmetry_space_group_name_H-M   'P 1'
_cell_length_a   8.25406000
_cell_length_b   8.96657000
_cell_length_c   19.16641467
_cell_angle_alpha   103.44289245
_cell_angle_beta   90.00000000
_cell_angle_gamma   90.00000000
_symmetry_Int_Tables_number   1
_chemical_formula_structural   Zn2H14C10O11
_chemical_formula_sum   'Zn8 H56 C40 O44'
_cell_volume   1379.65358783
_cell_formula_units_Z   4
loop_
 _symmetry_equiv_pos_site_id
 _symmetry_equiv_pos_as_xyz
  1  'x, y, z'
loop_
 _atom_site_type_symbol
 _atom_site_label
 _atom_site_symmetry_multiplicity
 _atom_site_fract_x
 _atom_site_fract_y
 _atom_site_fract_z
 _atom_site_occupancy
  Zn  Zn0  1  0.87861000  0.67383000  0.87541000  1.0
  Zn  Zn1  1  0.37860000  0.32617000  0.62459000  1.0
  Zn  Zn2  1  0.12139000  0.32616000  0.12459000  1.0
  Zn  Zn3  1  0.62139000  0.67383000  0.37541000  1.0
  Zn  Zn4  1  0.72944000  0.24686000  0.50440000  1.0
  Zn  Zn5  1  0.22944000  0.75315000  0.99560000  1.0
  Zn  Zn6  1  0.27056000  0.75314000  0.49560000  1.0
  Zn  Zn7  1  0.77056000  0.24685000  0.00440000  1.0
  H  H8  1  0.85112000  0.89749000  0.57067000  1.0
  H  H9  1  0.35111000  0.10251000  0.92933000  1.0
  H  H10  1  0.14888000  0.10251000  0.42933000  1.0
  H  H11  1  0.64888000  0.89749000  0.07067000  1.0
  H  H12  1  0.95557000  0.79058000  0.66197000  1.0
  H  H13  1  0.45557000  0.20942000  0.83803000  1.0
  H  H14  1  0.04443000  0.20943000  0.33803000  1.0
  H  H15  1  0.54443000  0.79057000  0.16197000  1.0
  H  H16  1  0.91371000  0.63512000  0.58928000  1.0
  H  H17  1  0.41372000  0.36488000  0.91072000  1.0
  H  H18  1  0.08628000  0.36489000  0.41072000  1.0
  H  H19  1  0.58629000  0.63511000  0.08928000  1.0
  H  H20  1  0.83711000  0.58924000  0.70877000  1.0
  H  H21  1  0.33711000  0.41076000  0.79123000  1.0
  H  H22  1  0.16290000  0.41075000  0.29122000  1.0
  H  H23  1  0.66290000  0.58925000  0.20878000  1.0
  H  H24  1  0.76573000  0.02687000  0.68612000  1.0
  H  H25  1  0.26573000  0.97313000  0.81388000  1.0
  H  H26  1  0.23427000  0.97313000  0.31388000  1.0
  H  H27  1  0.73427000  0.02687000  0.18612000  1.0
  H  H28  1  0.51694000  0.97705000  0.74660000  1.0
  H  H29  1  0.01694000  0.02295000  0.75340000  1.0
  H  H30  1  0.48306000  0.02295000  0.25340000  1.0
  H  H31  1  0.98306000  0.97705000  0.24660000  1.0
  H  H32  1  0.46327000  0.82303000  0.67478000  1.0
  H  H33  1  0.96327000  0.17697000  0.82522000  1.0
  H  H34  1  0.53674000  0.17698000  0.32523000  1.0
  H  H35  1  0.03674000  0.82302000  0.17477000  1.0
  H  H36  1  0.77029000  0.84816000  0.76573000  1.0
  H  H37  1  0.27029000  0.15184000  0.73427000  1.0
  H  H38  1  0.22972000  0.15184000  0.23427000  1.0
  H  H39  1  0.72972000  0.84816000  0.26573000  1.0
  H  H40  1  0.94428000  0.23026000  0.60151000  1.0
  H  H41  1  0.44428000  0.76975000  0.89849000  1.0
  H  H42  1  0.05572000  0.76974000  0.39849000  1.0
  H  H43  1  0.55572000  0.23026000  0.10151000  1.0
  H  H44  1  0.05377000  0.26749000  0.53866000  1.0
  H  H45  1  0.55377000  0.73252000  0.96134000  1.0
  H  H46  1  0.94623000  0.73251000  0.46134000  1.0
  H  H47  1  0.44623000  0.26749000  0.03866000  1.0
  H  H48  1  0.71195000  0.99337000  0.39386000  1.0
  H  H49  1  0.21194000  0.00664000  0.10614000  1.0
  H  H50  1  0.28805000  0.00664000  0.60615000  1.0
  H  H51  1  0.78805000  0.99336000  0.89385000  1.0
  H  H52  1  0.87553000  0.98903000  0.43630000  1.0
  H  H53  1  0.37552000  0.01097000  0.06370000  1.0
  H  H54  1  0.12447000  0.01097000  0.56370000  1.0
  H  H55  1  0.62448000  0.98903000  0.93630000  1.0
  H  H56  1  0.78261000  0.36581000  0.38896000  1.0
  H  H57  1  0.28261000  0.63419000  0.11104000  1.0
  H  H58  1  0.21739000  0.63419000  0.61104000  1.0
  H  H59  1  0.71739000  0.36581000  0.88896000  1.0
  H  H60  1  0.77032000  0.50068000  0.45825000  1.0
  H  H61  1  0.27032000  0.49933000  0.04175000  1.0
  H  H62  1  0.22968000  0.49933000  0.54175000  1.0
  H  H63  1  0.72968000  0.50067000  0.95825000  1.0
  C  C64  1  0.64825000  0.75999000  0.53559000  1.0
  C  C65  1  0.14826000  0.24001000  0.96441000  1.0
  C  C66  1  0.35174000  0.24002000  0.46441000  1.0
  C  C67  1  0.85174000  0.75998000  0.03559000  1.0
  C  C68  1  0.76203000  0.83641000  0.59621000  1.0
  C  C69  1  0.26202000  0.16359000  0.90379000  1.0
  C  C70  1  0.23797000  0.16359000  0.40379000  1.0
  C  C71  1  0.73797000  0.83640000  0.09621000  1.0
  C  C72  1  0.85686000  0.72450000  0.63057000  1.0
  C  C73  1  0.35686000  0.27550000  0.86943000  1.0
  C  C74  1  0.14314000  0.27551000  0.36943000  1.0
  C  C75  1  0.64315000  0.72449000  0.13057000  1.0
  C  C76  1  0.75442000  0.65259000  0.68064000  1.0
  C  C77  1  0.25442000  0.34741000  0.81936000  1.0
  C  C78  1  0.24558000  0.34741000  0.31936000  1.0
  C  C79  1  0.74559000  0.65259000  0.18064000  1.0
  C  C80  1  0.67092000  0.95538000  0.65355000  1.0
  C  C81  1  0.17092000  0.04462000  0.84645000  1.0
  C  C82  1  0.32908000  0.04462000  0.34645000  1.0
  C  C83  1  0.82908000  0.95537000  0.15355000  1.0
  C  C84  1  0.56649000  0.88535000  0.70375000  1.0
  C  C85  1  0.06649000  0.11465000  0.79624000  1.0
  C  C86  1  0.43351000  0.11466000  0.29625000  1.0
  C  C87  1  0.93351000  0.88534000  0.20375000  1.0
  C  C88  1  0.66962000  0.77862000  0.73712000  1.0
  C  C89  1  0.16962000  0.22138000  0.76288000  1.0
  C  C90  1  0.33039000  0.22138000  0.26288000  1.0
  C  C91  1  0.83039000  0.77862000  0.23712000  1.0
  C  C92  1  0.64419000  0.52686000  0.63884000  1.0
  C  C93  1  0.14420000  0.47315000  0.86116000  1.0
  C  C94  1  0.35581000  0.47315000  0.36116000  1.0
  C  C95  1  0.85581000  0.52685000  0.13884000  1.0
  C  C96  1  0.58644000  0.06839000  0.61816000  1.0
  C  C97  1  0.08643000  0.93161000  0.88184000  1.0
  C  C98  1  0.41357000  0.93162000  0.38184000  1.0
  C  C99  1  0.91357000  0.06838000  0.11816000  1.0
  C  C100  1  0.58453000  0.72021000  0.79608000  1.0
  C  C101  1  0.08454000  0.27980000  0.70392000  1.0
  C  C102  1  0.41546000  0.27979000  0.20392000  1.0
  C  C103  1  0.91547000  0.72021000  0.29608000  1.0
  O  O104  1  0.44348000  0.76433000  0.81557000  1.0
  O  O105  1  0.94347000  0.23567000  0.68443000  1.0
  O  O106  1  0.55653000  0.23568000  0.18444000  1.0
  O  O107  1  0.05652000  0.76432000  0.31556000  1.0
  O  O108  1  0.95856000  0.20755000  0.54681000  1.0
  O  O109  1  0.45856000  0.79246000  0.95319000  1.0
  O  O110  1  0.04144000  0.79246000  0.45319000  1.0
  O  O111  1  0.54144000  0.20754000  0.04681000  1.0
  O  O112  1  0.66708000  0.63281000  0.82829000  1.0
  O  O113  1  0.16709000  0.36719000  0.67171000  1.0
  O  O114  1  0.33292000  0.36719000  0.17171000  1.0
  O  O115  1  0.83292000  0.63281000  0.32829000  1.0
  O  O116  1  0.80323000  0.05713000  0.41747000  1.0
  O  O117  1  0.30323000  0.94288000  0.08253000  1.0
  O  O118  1  0.19677000  0.94287000  0.58253000  1.0
  O  O119  1  0.69677000  0.05713000  0.91747000  1.0
  O  O120  1  0.80738000  0.39351000  0.43999000  1.0
  O  O121  1  0.30738000  0.60649000  0.06001000  1.0
  O  O122  1  0.19262000  0.60649000  0.56001000  1.0
  O  O123  1  0.69262000  0.39351000  0.93999000  1.0
  O  O124  1  0.69199000  0.45175000  0.57834000  1.0
  O  O125  1  0.19199000  0.54825000  0.92166000  1.0
  O  O126  1  0.30800000  0.54825000  0.42166000  1.0
  O  O127  1  0.80800000  0.45175000  0.07834000  1.0
  O  O128  1  0.51083000  0.50220000  0.66881000  1.0
  O  O129  1  0.01083000  0.49781000  0.83120000  1.0
  O  O130  1  0.48917000  0.49780000  0.33120000  1.0
  O  O131  1  0.98917000  0.50213333  0.16880000  1.0
  O  O132  1  0.49855000  0.76763000  0.54583000  1.0
  O  O133  1  0.99856000  0.23236000  0.95417000  1.0
  O  O134  1  0.50144000  0.23236000  0.45417000  1.0
  O  O135  1  0.00144000  0.76763000  0.04583000  1.0
  O  O136  1  0.71681000  0.69516000  0.47456000  1.0
  O  O137  1  0.21681000  0.30485000  0.02545000  1.0
  O  O138  1  0.28318000  0.30485000  0.52545000  1.0
  O  O139  1  0.78318000  0.69515000  0.97455000  1.0
  O  O140  1  0.65185000  0.09858000  0.56413000  1.0
  O  O141  1  0.15184000  0.90142000  0.93588000  1.0
  O  O142  1  0.34815000  0.90143000  0.43588000  1.0
  O  O143  1  0.84815000  0.09857000  0.06412000  1.0
  O  O144  1  0.45221000  0.13080000  0.64606000  1.0
  O  O145  1  0.95221000  0.86921000  0.85394000  1.0
  O  O146  1  0.54779000  0.86921000  0.35394000  1.0
  O  O147  1  0.04779000  0.13079000  0.14606000  1.0
