# generated using pymatgen
data_AlH9C24(NO3)6
_symmetry_space_group_name_H-M   'P 1'
_cell_length_a   4.14740000
_cell_length_b   28.90805000
_cell_length_c   28.90810000
_cell_angle_alpha   59.99982835
_cell_angle_beta   90.00000000
_cell_angle_gamma   89.99980000
_symmetry_Int_Tables_number   1
_chemical_formula_structural   AlH9C24(NO3)6
_chemical_formula_sum   'Al2 H18 C48 N12 O36'
_cell_volume   3001.54009743
_cell_formula_units_Z   2
loop_
 _symmetry_equiv_pos_site_id
 _symmetry_equiv_pos_as_xyz
  1  'x, y, z'
loop_
 _atom_site_type_symbol
 _atom_site_label
 _atom_site_symmetry_multiplicity
 _atom_site_fract_x
 _atom_site_fract_y
 _atom_site_fract_z
 _atom_site_occupancy
  Al  Al0  1  0.99983000  0.50000000  0.00000000  1.0
  Al  Al1  1  0.99983000  0.16667000  0.66666000  1.0
  H  H2  1  0.48824000  0.35597000  0.41397000  1.0
  H  H3  1  0.51043000  0.20187000  0.42324000  1.0
  H  H4  1  0.51040000  0.46481000  0.24342000  1.0
  H  H5  1  0.48824000  0.31072000  0.25269000  1.0
  H  H6  1  0.50082000  0.27816000  0.33728000  1.0
  H  H7  1  0.50079000  0.38853000  0.32938000  1.0
  H  H8  1  0.48825000  0.23006000  0.85596000  1.0
  H  H9  1  0.51042000  0.37489000  0.70187000  1.0
  H  H10  1  0.51042000  0.29177000  0.96481000  1.0
  H  H11  1  0.48825000  0.43659000  0.81072000  1.0
  H  H12  1  0.50082000  0.38456000  0.77817000  1.0
  H  H13  1  0.50082000  0.28209000  0.88852000  1.0
  H  H14  1  0.48825000  0.91398000  0.73005000  1.0
  H  H15  1  0.51043000  0.92324000  0.87489000  1.0
  H  H16  1  0.51040000  0.74342000  0.79177000  1.0
  H  H17  1  0.48825000  0.75269000  0.93659000  1.0
  H  H18  1  0.50082000  0.83728000  0.88456000  1.0
  H  H19  1  0.50080000  0.82939000  0.78208000  1.0
  C  C20  1  0.49996000  0.58173000  0.95537000  1.0
  C  C21  1  0.49997000  0.46290000  0.08174000  1.0
  C  C22  1  0.49996000  0.45536000  0.96291000  1.0
  C  C23  1  0.49998000  0.20378000  0.58493000  1.0
  C  C24  1  0.49997000  0.21129000  0.70378000  1.0
  C  C25  1  0.49998000  0.08493000  0.71129000  1.0
  C  C26  1  0.50023000  0.23105000  0.52436000  1.0
  C  C27  1  0.50446000  0.28717000  0.49107000  1.0
  C  C28  1  0.49652000  0.31252000  0.43573000  1.0
  C  C29  1  0.50013000  0.28295000  0.40927000  1.0
  C  C30  1  0.50328000  0.22716000  0.44126000  1.0
  C  C31  1  0.49547000  0.20245000  0.49667000  1.0
  C  C32  1  0.50033000  0.30693000  0.35135000  1.0
  C  C33  1  0.50031000  0.35976000  0.31531000  1.0
  C  C34  1  0.50325000  0.43953000  0.22540000  1.0
  C  C35  1  0.50012000  0.38374000  0.25739000  1.0
  C  C36  1  0.49652000  0.35416000  0.23094000  1.0
  C  C37  1  0.50445000  0.37951000  0.17559000  1.0
  C  C38  1  0.50021000  0.43563000  0.14231000  1.0
  C  C39  1  0.49545000  0.46423000  0.16999000  1.0
  C  C40  1  0.50022000  0.24460000  0.73104000  1.0
  C  C41  1  0.50445000  0.22176000  0.78717000  1.0
  C  C42  1  0.49653000  0.25175000  0.81252000  1.0
  C  C43  1  0.50014000  0.30778000  0.78295000  1.0
  C  C44  1  0.50328000  0.33158000  0.72716000  1.0
  C  C45  1  0.49546000  0.30088000  0.70245000  1.0
  C  C46  1  0.50034000  0.34172000  0.80692000  1.0
  C  C47  1  0.50033000  0.32493000  0.85976000  1.0
  C  C48  1  0.50327000  0.33507000  0.93953000  1.0
  C  C49  1  0.50014000  0.35887000  0.88374000  1.0
  C  C50  1  0.49652000  0.41490000  0.85416000  1.0
  C  C51  1  0.50444000  0.44489000  0.87951000  1.0
  C  C52  1  0.50021000  0.42206000  0.93563000  1.0
  C  C53  1  0.49545000  0.36578000  0.96423000  1.0
  C  C54  1  0.50023000  0.02436000  0.74459000  1.0
  C  C55  1  0.50446000  0.99107000  0.72176000  1.0
  C  C56  1  0.49652000  0.93573000  0.75175000  1.0
  C  C57  1  0.50013000  0.90927000  0.80778000  1.0
  C  C58  1  0.50329000  0.94127000  0.83158000  1.0
  C  C59  1  0.49548000  0.99667000  0.80088000  1.0
  C  C60  1  0.50033000  0.85136000  0.84171000  1.0
  C  C61  1  0.50032000  0.81531000  0.82493000  1.0
  C  C62  1  0.50325000  0.72540000  0.83507000  1.0
  C  C63  1  0.50013000  0.75739000  0.85887000  1.0
  C  C64  1  0.49651000  0.73094000  0.91490000  1.0
  C  C65  1  0.50444000  0.67560000  0.94489000  1.0
  C  C66  1  0.50021000  0.64231000  0.92206000  1.0
  C  C67  1  0.49544000  0.66999000  0.86578000  1.0
  N  N68  1  0.48540000  0.14298000  0.52362000  1.0
  N  N69  1  0.51459000  0.32512000  0.51190000  1.0
  N  N70  1  0.51459000  0.34156000  0.15476000  1.0
  N  N71  1  0.48539000  0.52371000  0.14303000  1.0
  N  N72  1  0.48539000  0.33333333  0.64304667  1.0
  N  N73  1  0.51458000  0.16298000  0.82512000  1.0
  N  N74  1  0.51458000  0.50368000  0.84155000  1.0
  N  N75  1  0.48540000  0.33326000  0.02370000  1.0
  N  N76  1  0.48541000  0.02362000  0.83340000  1.0
  N  N77  1  0.51459000  0.01190000  0.66298000  1.0
  N  N78  1  0.51458000  0.65477000  0.00367000  1.0
  N  N79  1  0.48539000  0.64304000  0.83325000  1.0
  O  O80  1  0.26026000  0.45005000  0.99217000  1.0
  O  O81  1  0.26027000  0.55777000  0.95005000  1.0
  O  O82  1  0.26027000  0.49218000  0.05777000  1.0
  O  O83  1  0.73928000  0.48571000  0.95427000  1.0
  O  O84  1  0.73929000  0.45427000  0.06002000  1.0
  O  O85  1  0.73929000  0.56002000  0.98571000  1.0
  O  O86  1  0.26028000  0.10889000  0.71661000  1.0
  O  O87  1  0.26028000  0.17450000  0.60889000  1.0
  O  O88  1  0.26027000  0.21661000  0.67450000  1.0
  O  O89  1  0.73929000  0.10665000  0.68094000  1.0
  O  O90  1  0.73929000  0.18095000  0.71240000  1.0
  O  O91  1  0.73929000  0.21241000  0.60664000  1.0
  O  O92  1  0.27781000  0.11945000  0.55793000  1.0
  O  O93  1  0.67998000  0.12249000  0.50669000  1.0
  O  O94  1  0.72155000  0.31795000  0.54532000  1.0
  O  O95  1  0.32127000  0.36272000  0.49121000  1.0
  O  O96  1  0.72155000  0.34873000  0.12135000  1.0
  O  O97  1  0.32129000  0.30395000  0.17547000  1.0
  O  O98  1  0.27783000  0.54723000  0.10872000  1.0
  O  O99  1  0.67997000  0.54419000  0.15997000  1.0
  O  O100  1  0.27781000  0.32262000  0.61945000  1.0
  O  O101  1  0.67996000  0.37082000  0.62249000  1.0
  O  O102  1  0.72155000  0.13673000  0.81795000  1.0
  O  O103  1  0.32127000  0.14607000  0.86272000  1.0
  O  O104  1  0.72154000  0.52992000  0.84873000  1.0
  O  O105  1  0.32128000  0.52058000  0.80396000  1.0
  O  O106  1  0.27783000  0.34404000  0.04724000  1.0
  O  O107  1  0.67997000  0.29584000  0.04419000  1.0
  O  O108  1  0.27783000  0.05793000  0.82262000  1.0
  O  O109  1  0.67999000  0.00669000  0.87082000  1.0
  O  O110  1  0.72154000  0.04532000  0.63673000  1.0
  O  O111  1  0.32127000  0.99121000  0.64607000  1.0
  O  O112  1  0.72154000  0.62135000  0.02992000  1.0
  O  O113  1  0.32129000  0.67546000  0.02059000  1.0
  O  O114  1  0.27783000  0.60873000  0.84404000  1.0
  O  O115  1  0.67998000  0.65997000  0.79584000  1.0
