# generated using pymatgen
data_AgH30PtC16N5O4
_symmetry_space_group_name_H-M   'P 1'
_cell_length_a   11.11030000
_cell_length_b   11.47920000
_cell_length_c   17.86280000
_cell_angle_alpha   90.00010000
_cell_angle_beta   90.00290000
_cell_angle_gamma   89.99990000
_symmetry_Int_Tables_number   1
_chemical_formula_structural   AgH30PtC16N5O4
_chemical_formula_sum   'Ag4 H120 Pt4 C64 N20 O16'
_cell_volume   2278.17427554
_cell_formula_units_Z   4
loop_
 _symmetry_equiv_pos_site_id
 _symmetry_equiv_pos_as_xyz
  1  'x, y, z'
loop_
 _atom_site_type_symbol
 _atom_site_label
 _atom_site_symmetry_multiplicity
 _atom_site_fract_x
 _atom_site_fract_y
 _atom_site_fract_z
 _atom_site_occupancy
  Ag  Ag0  1  0.69773000  0.34620000  0.25000000  1.0
  Ag  Ag1  1  0.19769000  0.15383000  0.75000000  1.0
  Ag  Ag2  1  0.30230000  0.65380000  0.74999000  1.0
  Ag  Ag3  1  0.80233000  0.84619000  0.24999000  1.0
  H  H4  1  0.92819000  0.11544000  0.49869000  1.0
  H  H5  1  0.42819000  0.38454000  0.50132000  1.0
  H  H6  1  0.07184000  0.88452000  0.99868000  1.0
  H  H7  1  0.57182000  0.61547000  0.00131000  1.0
  H  H8  1  0.07177000  0.88452000  0.50129000  1.0
  H  H9  1  0.57184000  0.61550000  0.49868000  1.0
  H  H10  1  0.92817000  0.11550000  0.00132000  1.0
  H  H11  1  0.42819000  0.38456000  0.99868000  1.0
  H  H12  1  0.03346000  0.06104000  0.43261000  1.0
  H  H13  1  0.53346000  0.43896000  0.56740000  1.0
  H  H14  1  0.96655000  0.93898000  0.93260000  1.0
  H  H15  1  0.46654000  0.56104000  0.06739000  1.0
  H  H16  1  0.96650000  0.93893000  0.56738000  1.0
  H  H17  1  0.46656000  0.56103000  0.43262000  1.0
  H  H18  1  0.03346000  0.06105000  0.06739000  1.0
  H  H19  1  0.53348000  0.43896000  0.93261000  1.0
  H  H20  1  0.08500000  0.14685000  0.50782000  1.0
  H  H21  1  0.58501000  0.35315000  0.49220000  1.0
  H  H22  1  0.91502000  0.85316000  0.00781000  1.0
  H  H23  1  0.41501000  0.64686000  0.99218000  1.0
  H  H24  1  0.91496000  0.85311000  0.49218000  1.0
  H  H25  1  0.41501000  0.64685000  0.50781000  1.0
  H  H26  1  0.08499000  0.14686000  0.99219000  1.0
  H  H27  1  0.58499000  0.35314000  0.00782000  1.0
  H  H28  1  0.18810000  0.27718000  0.41156000  1.0
  H  H29  1  0.68808000  0.22284000  0.58848000  1.0
  H  H30  1  0.81190000  0.72284000  0.91155000  1.0
  H  H31  1  0.31192000  0.77716000  0.08846000  1.0
  H  H32  1  0.81191000  0.72280000  0.58844000  1.0
  H  H33  1  0.31190000  0.77714000  0.41153000  1.0
  H  H34  1  0.18809000  0.27718000  0.08845000  1.0
  H  H35  1  0.68810000  0.22280000  0.91157000  1.0
  H  H36  1  0.12572000  0.20098000  0.33453000  1.0
  H  H37  1  0.62569000  0.29904000  0.66549000  1.0
  H  H38  1  0.87431000  0.79907000  0.83453000  1.0
  H  H39  1  0.37432000  0.70095000  0.16549000  1.0
  H  H40  1  0.87427000  0.79899000  0.66548000  1.0
  H  H41  1  0.37431000  0.70093000  0.33452000  1.0
  H  H42  1  0.12570000  0.20097000  0.16548000  1.0
  H  H43  1  0.62572000  0.29901000  0.83454000  1.0
  H  H44  1  0.10087000  0.35390000  0.34417000  1.0
  H  H45  1  0.60086000  0.14610000  0.65587000  1.0
  H  H46  1  0.89911000  0.64611000  0.84414000  1.0
  H  H47  1  0.39915000  0.85389000  0.15585000  1.0
  H  H48  1  0.89911000  0.64606000  0.65585000  1.0
  H  H49  1  0.39911000  0.85388000  0.34413000  1.0
  H  H50  1  0.10089000  0.35391000  0.15586000  1.0
  H  H51  1  0.60086000  0.14607000  0.84418000  1.0
  H  H52  1  0.05233000  0.35426000  0.51519000  1.0
  H  H53  1  0.55232000  0.14574000  0.48483000  1.0
  H  H54  1  0.94769000  0.64575000  0.01517000  1.0
  H  H55  1  0.44767000  0.85426000  0.98482000  1.0
  H  H56  1  0.94764000  0.64571000  0.48482000  1.0
  H  H57  1  0.44766000  0.85428000  0.51517000  1.0
  H  H58  1  0.05232000  0.35427000  0.98482000  1.0
  H  H59  1  0.55231000  0.14575000  0.01520000  1.0
  H  H60  1  0.97214000  0.43359000  0.44657000  1.0
  H  H61  1  0.47215000  0.06640000  0.55347000  1.0
  H  H62  1  0.02786000  0.56642000  0.94653000  1.0
  H  H63  1  0.52784000  0.93360000  0.05345000  1.0
  H  H64  1  0.02787000  0.56638000  0.55345000  1.0
  H  H65  1  0.52780000  0.93360000  0.44651000  1.0
  H  H66  1  0.97213000  0.43359000  0.05346000  1.0
  H  H67  1  0.47213000  0.06642000  0.94657000  1.0
  H  H68  1  0.89330000  0.34042000  0.50933000  1.0
  H  H69  1  0.39330000  0.15956000  0.49070000  1.0
  H  H70  1  0.10672000  0.65956000  0.00930000  1.0
  H  H71  1  0.60670000  0.84044000  0.99070000  1.0
  H  H72  1  0.10669000  0.65956000  0.49069000  1.0
  H  H73  1  0.60670000  0.84049000  0.50929000  1.0
  H  H74  1  0.89329000  0.34045000  0.99069000  1.0
  H  H75  1  0.39328000  0.15959000  0.00932000  1.0
  H  H76  1  0.48849000  0.36568000  0.36575000  1.0
  H  H77  1  0.98843000  0.13431000  0.63423000  1.0
  H  H78  1  0.51157000  0.63431000  0.86577000  1.0
  H  H79  1  0.01155000  0.86568000  0.13424000  1.0
  H  H80  1  0.51156000  0.63433000  0.63426000  1.0
  H  H81  1  0.01157000  0.86570000  0.36575000  1.0
  H  H82  1  0.48842000  0.36573000  0.13424000  1.0
  H  H83  1  0.98843000  0.13434000  0.86574000  1.0
  H  H84  1  0.29141000  0.47665000  0.36977000  1.0
  H  H85  1  0.79141000  0.02342000  0.63021000  1.0
  H  H86  1  0.70860000  0.52339000  0.86978000  1.0
  H  H87  1  0.20862000  0.97657000  0.13022000  1.0
  H  H88  1  0.70859000  0.52338000  0.63025000  1.0
  H  H89  1  0.20863000  0.97660000  0.36975000  1.0
  H  H90  1  0.29141000  0.47664000  0.13025000  1.0
  H  H91  1  0.79137000  0.02338000  0.86974000  1.0
  H  H92  1  0.93545000  0.07738000  0.34240000  1.0
  H  H93  1  0.43542000  0.42264000  0.65759000  1.0
  H  H94  1  0.06457000  0.92263000  0.84241000  1.0
  H  H95  1  0.56456000  0.57738000  0.15759000  1.0
  H  H96  1  0.06455000  0.92261000  0.65759000  1.0
  H  H97  1  0.56457000  0.57738000  0.34239000  1.0
  H  H98  1  0.93543000  0.07739000  0.15758000  1.0
  H  H99  1  0.43543000  0.42262000  0.84241000  1.0
  H  H100  1  0.63971000  0.98112000  0.35038000  1.0
  H  H101  1  0.13967000  0.51888000  0.64962000  1.0
  H  H102  1  0.36031000  0.01888000  0.85038000  1.0
  H  H103  1  0.86032000  0.48111000  0.14961000  1.0
  H  H104  1  0.36031000  0.01888000  0.64961000  1.0
  H  H105  1  0.86032000  0.48111000  0.35039000  1.0
  H  H106  1  0.63970000  0.98112000  0.14961000  1.0
  H  H107  1  0.13967000  0.51888000  0.85038000  1.0
  H  H108  1  0.65014000  0.11864000  0.37893000  1.0
  H  H109  1  0.15010000  0.38136000  0.62107000  1.0
  H  H110  1  0.34988000  0.88136000  0.87892000  1.0
  H  H111  1  0.84988000  0.61865000  0.12107000  1.0
  H  H112  1  0.34985000  0.88136000  0.62106000  1.0
  H  H113  1  0.84990000  0.61864000  0.37894000  1.0
  H  H114  1  0.65013000  0.11864000  0.12106000  1.0
  H  H115  1  0.15012000  0.38136000  0.87894000  1.0
  H  H116  1  0.53833000  0.08125000  0.32081000  1.0
  H  H117  1  0.03829000  0.41874000  0.67920000  1.0
  H  H118  1  0.46169000  0.91875000  0.82080000  1.0
  H  H119  1  0.96169000  0.58127000  0.17920000  1.0
  H  H120  1  0.46168000  0.91874000  0.67918000  1.0
  H  H121  1  0.96172000  0.58125000  0.32082000  1.0
  H  H122  1  0.53832000  0.08126000  0.17919000  1.0
  H  H123  1  0.03830000  0.41872000  0.82081000  1.0
  Pt  Pt124  1  0.75143000  0.10353000  0.25000000  1.0
  Pt  Pt125  1  0.25141000  0.39648000  0.75000000  1.0
  Pt  Pt126  1  0.24857000  0.89647000  0.74999000  1.0
  Pt  Pt127  1  0.74859000  0.60352000  0.25000000  1.0
  C  C128  1  0.88804000  0.23880000  0.36718000  1.0
  C  C129  1  0.38803000  0.26121000  0.63282000  1.0
  C  C130  1  0.11196000  0.76120000  0.86717000  1.0
  C  C131  1  0.61199000  0.73880000  0.13281000  1.0
  C  C132  1  0.11196000  0.76119000  0.63282000  1.0
  C  C133  1  0.61197000  0.73880000  0.36718000  1.0
  C  C134  1  0.88803000  0.23881000  0.13282000  1.0
  C  C135  1  0.38802000  0.26120000  0.86719000  1.0
  C  C136  1  0.99526000  0.24853000  0.42197000  1.0
  C  C137  1  0.49525000  0.25147000  0.57804000  1.0
  C  C138  1  0.00474000  0.75147000  0.92196000  1.0
  C  C139  1  0.50475000  0.74853000  0.07803000  1.0
  C  C140  1  0.00472000  0.75144000  0.57803000  1.0
  C  C141  1  0.50473000  0.74853000  0.42196000  1.0
  C  C142  1  0.99526000  0.24854000  0.07804000  1.0
  C  C143  1  0.49526000  0.25147000  0.92198000  1.0
  C  C144  1  0.01075000  0.13641000  0.46761000  1.0
  C  C145  1  0.51075000  0.36359000  0.53241000  1.0
  C  C146  1  0.98927000  0.86359000  0.96759000  1.0
  C  C147  1  0.48926000  0.63642000  0.03239000  1.0
  C  C148  1  0.98922000  0.86355000  0.53239000  1.0
  C  C149  1  0.48927000  0.63643000  0.46760000  1.0
  C  C150  1  0.01074000  0.13643000  0.03240000  1.0
  C  C151  1  0.51075000  0.36359000  0.96760000  1.0
  C  C152  1  0.10888000  0.27135000  0.37479000  1.0
  C  C153  1  0.60887000  0.22866000  0.62524000  1.0
  C  C154  1  0.89111000  0.72865000  0.87478000  1.0
  C  C155  1  0.39114000  0.77134000  0.12523000  1.0
  C  C156  1  0.89112000  0.72861000  0.62522000  1.0
  C  C157  1  0.39112000  0.77133000  0.37476000  1.0
  C  C158  1  0.10888000  0.27136000  0.12522000  1.0
  C  C159  1  0.60888000  0.22863000  0.87480000  1.0
  C  C160  1  0.97593000  0.35020000  0.47615000  1.0
  C  C161  1  0.47593000  0.14980000  0.52387000  1.0
  C  C162  1  0.02409000  0.64980000  0.97612000  1.0
  C  C163  1  0.52407000  0.85021000  0.02387000  1.0
  C  C164  1  0.02406000  0.64977000  0.52386000  1.0
  C  C165  1  0.52406000  0.85023000  0.47611000  1.0
  C  C166  1  0.97592000  0.35021000  0.02387000  1.0
  C  C167  1  0.47591000  0.14981000  0.97615000  1.0
  C  C168  1  0.44302000  0.39373000  0.31468000  1.0
  C  C169  1  0.94300000  0.10631000  0.68532000  1.0
  C  C170  1  0.55701000  0.60630000  0.81469000  1.0
  C  C171  1  0.05699000  0.89369000  0.18532000  1.0
  C  C172  1  0.55699000  0.60628000  0.68534000  1.0
  C  C173  1  0.05702000  0.89372000  0.31468000  1.0
  C  C174  1  0.44301000  0.39371000  0.18534000  1.0
  C  C175  1  0.94298000  0.10629000  0.81466000  1.0
  C  C176  1  0.33461000  0.45413000  0.31700000  1.0
  C  C177  1  0.83461000  0.04586000  0.68299000  1.0
  C  C178  1  0.66540000  0.54585000  0.81700000  1.0
  C  C179  1  0.16539000  0.95412000  0.18300000  1.0
  C  C180  1  0.66540000  0.54586000  0.68303000  1.0
  C  C181  1  0.16543000  0.95413000  0.31697000  1.0
  C  C182  1  0.33461000  0.45415000  0.18302000  1.0
  C  C183  1  0.83457000  0.04588000  0.81696000  1.0
  C  C184  1  0.27940000  0.48731000  0.25001000  1.0
  C  C185  1  0.77937000  0.01269000  0.74997000  1.0
  C  C186  1  0.72061000  0.51266000  0.75002000  1.0
  C  C187  1  0.22061000  0.98731000  0.24998000  1.0
  C  C188  1  0.16093000  0.55431000  0.25001000  1.0
  C  C189  1  0.66088000  0.94571000  0.74997000  1.0
  C  C190  1  0.83911000  0.44568000  0.75002000  1.0
  C  C191  1  0.33911000  0.05429000  0.24999000  1.0
  N  N192  1  0.87284000  0.13951000  0.33071000  1.0
  N  N193  1  0.37282000  0.36052000  0.66928000  1.0
  N  N194  1  0.12716000  0.86050000  0.83070000  1.0
  N  N195  1  0.62720000  0.63950000  0.16927000  1.0
  N  N196  1  0.12716000  0.86049000  0.66928000  1.0
  N  N197  1  0.62717000  0.63950000  0.33071000  1.0
  N  N198  1  0.87283000  0.13951000  0.16929000  1.0
  N  N199  1  0.37281000  0.36050000  0.83072000  1.0
  N  N200  1  0.62955000  0.06743000  0.33389000  1.0
  N  N201  1  0.12952000  0.43256000  0.66612000  1.0
  N  N202  1  0.37047000  0.93257000  0.83388000  1.0
  N  N203  1  0.87047000  0.56744000  0.16612000  1.0
  N  N204  1  0.37045000  0.93256000  0.66611000  1.0
  N  N205  1  0.87048000  0.56744000  0.33388000  1.0
  N  N206  1  0.62954000  0.06744000  0.16611000  1.0
  N  N207  1  0.12953000  0.43256000  0.83389000  1.0
  N  N208  1  0.49873000  0.36612000  0.25000000  1.0
  N  N209  1  0.99871000  0.13389000  0.74999000  1.0
  N  N210  1  0.50128000  0.63388000  0.75001000  1.0
  N  N211  1  0.00129000  0.86611000  0.25001000  1.0
  O  O212  1  0.82033000  0.32755000  0.35760000  1.0
  O  O213  1  0.32031000  0.17246000  0.64241000  1.0
  O  O214  1  0.17968000  0.67245000  0.85758000  1.0
  O  O215  1  0.67968000  0.82755000  0.14240000  1.0
  O  O216  1  0.17968000  0.67243000  0.64241000  1.0
  O  O217  1  0.67969000  0.82755000  0.35758000  1.0
  O  O218  1  0.82032000  0.32756000  0.14242000  1.0
  O  O219  1  0.32031000  0.17245000  0.85760000  1.0
  O  O220  1  0.11696000  0.57802000  0.31376000  1.0
  O  O221  1  0.61692000  0.92201000  0.68622000  1.0
  O  O222  1  0.88306000  0.42197000  0.81377000  1.0
  O  O223  1  0.38308000  0.07798000  0.18624000  1.0
  O  O224  1  0.88308000  0.42200000  0.68628000  1.0
  O  O225  1  0.38309000  0.07798000  0.31373000  1.0
  O  O226  1  0.11695000  0.57802000  0.18626000  1.0
  O  O227  1  0.61694000  0.92201000  0.81371000  1.0
