# generated using pymatgen
data_ZnH14C20(NO)6
_symmetry_space_group_name_H-M   'P 1'
_cell_length_a   8.25110000
_cell_length_b   11.12310000
_cell_length_c   11.25540000
_cell_angle_alpha   73.52010000
_cell_angle_beta   74.68730000
_cell_angle_gamma   82.78110000
_symmetry_Int_Tables_number   1
_chemical_formula_structural   ZnH14C20(NO)6
_chemical_formula_sum   'Zn2 H28 C40 N12 O12'
_cell_volume   953.95472240
_cell_formula_units_Z   2
loop_
 _symmetry_equiv_pos_site_id
 _symmetry_equiv_pos_as_xyz
  1  'x, y, z'
loop_
 _atom_site_type_symbol
 _atom_site_label
 _atom_site_symmetry_multiplicity
 _atom_site_fract_x
 _atom_site_fract_y
 _atom_site_fract_z
 _atom_site_occupancy
  Zn  Zn0  1  0.76141000  0.79627000  0.74547000  1.0
  Zn  Zn1  1  0.23859000  0.20373000  0.25453000  1.0
  H  H2  1  0.39913000  0.91701000  0.88358000  1.0
  H  H3  1  0.60088000  0.08298000  0.11642000  1.0
  H  H4  1  0.10898000  0.84535000  0.97977000  1.0
  H  H5  1  0.89102000  0.15465000  0.02023000  1.0
  H  H6  1  0.05174000  0.62387000  0.99521000  1.0
  H  H7  1  0.94825000  0.37613000  0.00479000  1.0
  H  H8  1  0.28811000  0.48344000  0.91408000  1.0
  H  H9  1  0.71188000  0.51656000  0.08592000  1.0
  H  H10  1  0.48870000  0.38322000  0.82613000  1.0
  H  H11  1  0.51130000  0.61678000  0.17387000  1.0
  H  H12  1  0.02520000  0.37516000  0.66566000  1.0
  H  H13  1  0.97481000  0.62484000  0.33434000  1.0
  H  H14  1  0.23863000  0.47474000  0.62029000  1.0
  H  H15  1  0.76137000  0.52526000  0.37971000  1.0
  H  H16  1  0.48179000  0.61455000  0.54840000  1.0
  H  H17  1  0.51821000  0.38545000  0.45160000  1.0
  H  H18  1  0.42229000  0.84224000  0.55123000  1.0
  H  H19  1  0.57771000  0.15776000  0.44877000  1.0
  H  H20  1  0.12981000  0.92023000  0.61782000  1.0
  H  H21  1  0.87019000  0.07977000  0.38218000  1.0
  H  H22  1  0.50725000  0.24103000  0.71140000  1.0
  H  H23  1  0.49275000  0.75897000  0.28860000  1.0
  H  H24  1  0.53101000  0.02278000  0.69748000  1.0
  H  H25  1  0.46899000  0.97722000  0.30252000  1.0
  H  H26  1  0.99203000  0.95550000  0.79524000  1.0
  H  H27  1  0.00797000  0.04450000  0.20476000  1.0
  H  H28  1  0.00610000  0.17884000  0.78577000  1.0
  H  H29  1  0.99390000  0.82116000  0.21423000  1.0
  C  C30  1  0.37074000  0.82219000  0.88908000  1.0
  C  C31  1  0.62926000  0.17781000  0.11092000  1.0
  C  C32  1  0.20832000  0.78116000  0.94407000  1.0
  C  C33  1  0.79169000  0.21884000  0.05592000  1.0
  C  C34  1  0.17769000  0.65805000  0.95317000  1.0
  C  C35  1  0.82231000  0.34195000  0.04682000  1.0
  C  C36  1  0.31011000  0.58018000  0.90654000  1.0
  C  C37  1  0.68989000  0.41982000  0.09346000  1.0
  C  C38  1  0.46882000  0.62876000  0.84985000  1.0
  C  C39  1  0.53118000  0.37124000  0.15015000  1.0
  C  C40  1  0.61584000  0.55193000  0.79734000  1.0
  C  C41  1  0.38416000  0.44807000  0.20266000  1.0
  C  C42  1  0.60797000  0.42860000  0.79277000  1.0
  C  C43  1  0.39204000  0.57140000  0.20723000  1.0
  C  C44  1  0.75719000  0.36318000  0.74698000  1.0
  C  C45  1  0.24281000  0.63682000  0.25302000  1.0
  C  C46  1  0.90868000  0.42419000  0.70353000  1.0
  C  C47  1  0.09133000  0.57581000  0.29647000  1.0
  C  C48  1  0.90588000  0.54870000  0.70742000  1.0
  C  C49  1  0.09412000  0.45130000  0.29258000  1.0
  C  C50  1  0.05619000  0.62450000  0.66092000  1.0
  C  C51  1  0.94381000  0.37550000  0.33908000  1.0
  C  C52  1  0.21846000  0.57372000  0.61925000  1.0
  C  C53  1  0.78154000  0.42628000  0.38076000  1.0
  C  C54  1  0.35334000  0.65123000  0.57960000  1.0
  C  C55  1  0.64666000  0.34877000  0.42040000  1.0
  C  C56  1  0.32245000  0.77723000  0.58025000  1.0
  C  C57  1  0.67755000  0.22277000  0.41975000  1.0
  C  C58  1  0.15707000  0.82132000  0.62017000  1.0
  C  C59  1  0.84293000  0.17868000  0.37984000  1.0
  C  C60  1  0.75715000  0.23070000  0.74708000  1.0
  C  C61  1  0.24285000  0.76930000  0.25292000  1.0
  C  C62  1  0.62065000  0.18334000  0.72635000  1.0
  C  C63  1  0.37935000  0.81666000  0.27365000  1.0
  C  C64  1  0.63080000  0.05905000  0.72210000  1.0
  C  C65  1  0.36920000  0.94095000  0.27790000  1.0
  C  C66  1  0.89061000  0.02324000  0.77179000  1.0
  C  C67  1  0.10939000  0.97676000  0.22821000  1.0
  C  C68  1  0.89562000  0.14797000  0.76922000  1.0
  C  C69  1  0.10438000  0.85203000  0.23078000  1.0
  N  N70  1  0.49781000  0.74844000  0.84121000  1.0
  N  N71  1  0.50219000  0.25156000  0.15879000  1.0
  N  N72  1  0.76214000  0.60810000  0.75454000  1.0
  N  N73  1  0.23787000  0.39189000  0.24546000  1.0
  N  N74  1  0.02707000  0.74681000  0.66147000  1.0
  N  N75  1  0.97293000  0.25319000  0.33854000  1.0
  N  N76  1  0.76249000  0.97970000  0.74558000  1.0
  N  N77  1  0.23751000  0.02030000  0.25442000  1.0
  N  N78  1  0.73655000  0.83009000  0.45936000  1.0
  N  N79  1  0.26345000  0.16992000  0.54065000  1.0
  N  N80  1  0.76234000  0.76796000  0.04442000  1.0
  N  N81  1  0.23765000  0.23204000  0.95559000  1.0
  O  O82  1  0.71093000  0.88037000  0.55403000  1.0
  O  O83  1  0.28907000  0.11963000  0.44597000  1.0
  O  O84  1  0.77230000  0.71388000  0.47620000  1.0
  O  O85  1  0.22769000  0.28612000  0.52380000  1.0
  O  O86  1  0.72338000  0.90039000  0.35290000  1.0
  O  O87  1  0.27661000  0.09961000  0.64710000  1.0
  O  O88  1  0.80986000  0.72289000  0.94555000  1.0
  O  O89  1  0.19014000  0.27712000  0.05445000  1.0
  O  O90  1  0.71123000  0.88051000  0.03299000  1.0
  O  O91  1  0.28877000  0.11949000  0.96701000  1.0
  O  O92  1  0.77001000  0.69356000  0.15167000  1.0
  O  O93  1  0.22998000  0.30644000  0.84833000  1.0
