# generated using pymatgen
data_PrH13C7S2O13
_symmetry_space_group_name_H-M   'P 1'
_cell_length_a   7.94765000
_cell_length_b   10.37450000
_cell_length_c   10.68500000
_cell_angle_alpha   116.17300000
_cell_angle_beta   92.51170000
_cell_angle_gamma   107.52100000
_symmetry_Int_Tables_number   1
_chemical_formula_structural   PrH13C7S2O13
_chemical_formula_sum   'Pr2 H26 C14 S4 O26'
_cell_volume   737.76423721
_cell_formula_units_Z   2
loop_
 _symmetry_equiv_pos_site_id
 _symmetry_equiv_pos_as_xyz
  1  'x, y, z'
loop_
 _atom_site_type_symbol
 _atom_site_label
 _atom_site_symmetry_multiplicity
 _atom_site_fract_x
 _atom_site_fract_y
 _atom_site_fract_z
 _atom_site_occupancy
  Pr  Pr0  1  0.43414000  0.81334000  0.71869000  1.0
  Pr  Pr1  1  0.56586000  0.18667000  0.28132000  1.0
  H  H2  1  0.42624000  0.73701000  0.27557000  1.0
  H  H3  1  0.57376000  0.26299000  0.72442000  1.0
  H  H4  1  0.16384000  0.24286000  0.03982000  1.0
  H  H5  1  0.83617000  0.75714000  0.96018000  1.0
  H  H6  1  0.25470000  0.51444000  0.81983000  1.0
  H  H7  1  0.74530000  0.48556000  0.18017000  1.0
  H  H8  1  0.18400000  0.82999000  0.47427000  1.0
  H  H9  1  0.81600000  0.17001000  0.52573000  1.0
  H  H10  1  0.26336000  0.98937000  0.61333000  1.0
  H  H11  1  0.73664000  0.01062000  0.38667000  1.0
  H  H12  1  0.69637000  0.85110000  0.50771000  1.0
  H  H13  1  0.30363000  0.14889000  0.49229000  1.0
  H  H14  1  0.74927000  0.01519000  0.64026000  1.0
  H  H15  1  0.25073000  0.98481000  0.35975000  1.0
  H  H16  1  0.15550000  0.47663000  0.54052000  1.0
  H  H17  1  0.84450000  0.52337000  0.45948000  1.0
  H  H18  1  0.04346000  0.55977000  0.64543000  1.0
  H  H19  1  0.95654000  0.44023000  0.35457000  1.0
  H  H20  1  0.04395000  0.78661000  0.78634000  1.0
  H  H21  1  0.95605000  0.21339000  0.21367000  1.0
  H  H22  1  0.13548000  0.95115000  0.80554000  1.0
  H  H23  1  0.86452000  0.04885000  0.19446000  1.0
  H  H24  1  0.84501000  0.98840000  0.84189000  1.0
  H  H25  1  0.15499000  0.01160000  0.15811000  1.0
  H  H26  1  0.76949000  0.01324000  0.98218000  1.0
  H  H27  1  0.23051000  0.98676000  0.01782000  1.0
  C  C28  1  0.42780000  0.79351000  0.05136000  1.0
  C  C29  1  0.57220000  0.20650000  0.94864000  1.0
  C  C30  1  0.34891000  0.64039000  0.04796000  1.0
  C  C31  1  0.65109000  0.35961000  0.95204000  1.0
  C  C32  1  0.36213000  0.63239000  0.17530000  1.0
  C  C33  1  0.63788000  0.36761000  0.82470000  1.0
  C  C34  1  0.29541000  0.48980000  0.17068000  1.0
  C  C35  1  0.70459000  0.51021000  0.82932000  1.0
  C  C36  1  0.21215000  0.35422000  0.04232000  1.0
  C  C37  1  0.78785000  0.64578000  0.95768000  1.0
  C  C38  1  0.19644000  0.36526000  0.91724000  1.0
  C  C39  1  0.80356000  0.63474000  0.08276000  1.0
  C  C40  1  0.26517000  0.50675000  0.91830000  1.0
  C  C41  1  0.73483000  0.49326000  0.08169000  1.0
  S  S42  1  0.32396000  0.47720000  0.33010000  1.0
  S  S43  1  0.67604000  0.52279000  0.66990000  1.0
  S  S44  1  0.09037000  0.19430000  0.75246000  1.0
  S  S45  1  0.90963000  0.80570000  0.24754000  1.0
  O  O46  1  0.41519000  0.79615000  0.93427000  1.0
  O  O47  1  0.58481000  0.20385000  0.06573000  1.0
  O  O48  1  0.50275000  0.91094000  0.17251000  1.0
  O  O49  1  0.49725000  0.08906000  0.82749000  1.0
  O  O50  1  0.38707000  0.63498000  0.44683000  1.0
  O  O51  1  0.61293000  0.36502000  0.55317000  1.0
  O  O52  1  0.45372000  0.40047000  0.31919000  1.0
  O  O53  1  0.54628000  0.59953000  0.68081000  1.0
  O  O54  1  0.14380000  0.38401000  0.33668000  1.0
  O  O55  1  0.85620000  0.61599000  0.66332000  1.0
  O  O56  1  0.22264000  0.18185000  0.66027000  1.0
  O  O57  1  0.77735000  0.81814000  0.33973000  1.0
  O  O58  1  0.92800000  0.20869000  0.69634000  1.0
  O  O59  1  0.07200000  0.79131000  0.30366000  1.0
  O  O60  1  0.04158000  0.06871000  0.79017000  1.0
  O  O61  1  0.95842000  0.93129000  0.20983000  1.0
  O  O62  1  0.25545000  0.88181000  0.57182000  1.0
  O  O63  1  0.74455000  0.11819000  0.42818000  1.0
  O  O64  1  0.66859000  0.90747000  0.60072000  1.0
  O  O65  1  0.33141000  0.09253000  0.39928000  1.0
  O  O66  1  0.16606000  0.55743000  0.63730000  1.0
  O  O67  1  0.83394000  0.44258000  0.36269000  1.0
  O  O68  1  0.15991000  0.87399000  0.82779000  1.0
  O  O69  1  0.84009000  0.12601000  0.17221000  1.0
  O  O70  1  0.74606000  0.94157000  0.87864000  1.0
  O  O71  1  0.25394000  0.05843000  0.12136000  1.0
