# generated using pymatgen
data_ZnH22C30N3O8
_symmetry_space_group_name_H-M   'P 1'
_cell_length_a   7.27826000
_cell_length_b   12.16420000
_cell_length_c   16.62700000
_cell_angle_alpha   91.22140000
_cell_angle_beta   101.44200000
_cell_angle_gamma   101.81100000
_symmetry_Int_Tables_number   1
_chemical_formula_structural   ZnH22C30N3O8
_chemical_formula_sum   'Zn2 H44 C60 N6 O16'
_cell_volume   1409.31121298
_cell_formula_units_Z   2
loop_
 _symmetry_equiv_pos_site_id
 _symmetry_equiv_pos_as_xyz
  1  'x, y, z'
loop_
 _atom_site_type_symbol
 _atom_site_label
 _atom_site_symmetry_multiplicity
 _atom_site_fract_x
 _atom_site_fract_y
 _atom_site_fract_z
 _atom_site_occupancy
  Zn  Zn0  1  0.08083000  0.63613000  0.22783000  1.0
  Zn  Zn1  1  0.91917000  0.36387000  0.77217000  1.0
  H  H2  1  0.69840000  0.29562000  0.16993000  1.0
  H  H3  1  0.30161000  0.70438000  0.83007000  1.0
  H  H4  1  0.80306000  0.96551000  0.22169000  1.0
  H  H5  1  0.19695000  0.03449000  0.77831000  1.0
  H  H6  1  0.48415000  0.03051000  0.29437000  1.0
  H  H7  1  0.51585000  0.96949000  0.70563000  1.0
  H  H8  1  0.05489000  0.62614000  0.04174000  1.0
  H  H9  1  0.94511000  0.37387000  0.95825000  1.0
  H  H10  1  0.70222000  0.11615000  0.02474000  1.0
  H  H11  1  0.29777000  0.88385000  0.97526000  1.0
  H  H12  1  0.13807000  0.05448000  0.29399000  1.0
  H  H13  1  0.86193000  0.94552000  0.70601000  1.0
  H  H14  1  0.70343000  0.14856000  0.35564000  1.0
  H  H15  1  0.29656000  0.85144000  0.64436000  1.0
  H  H16  1  0.25209000  0.87123000  0.21284000  1.0
  H  H17  1  0.74791000  0.12877000  0.78716000  1.0
  H  H18  1  0.38460000  0.64720000  0.38763000  1.0
  H  H19  1  0.61540000  0.35280000  0.61237000  1.0
  H  H20  1  0.53413000  0.17535000  0.89134000  1.0
  H  H21  1  0.46586000  0.82465000  0.10866000  1.0
  H  H22  1  0.47363000  0.56993000  0.23439000  1.0
  H  H23  1  0.52637000  0.43006000  0.76561000  1.0
  H  H24  1  0.76700000  0.92884000  0.55647000  1.0
  H  H25  1  0.23300000  0.07117000  0.44353000  1.0
  H  H26  1  0.65035000  0.49737000  0.14105000  1.0
  H  H27  1  0.34964000  0.50261000  0.85895000  1.0
  H  H28  1  0.21382000  0.55861000  0.93779000  1.0
  H  H29  1  0.78618000  0.44139000  0.06221000  1.0
  H  H30  1  0.20733000  0.12450000  0.12820000  1.0
  H  H31  1  0.79268000  0.87551000  0.87180000  1.0
  H  H32  1  0.62952000  0.79532000  0.47675000  1.0
  H  H33  1  0.37048000  0.20469000  0.52325000  1.0
  H  H34  1  0.98139000  0.09405000  0.64113000  1.0
  H  H35  1  0.01861000  0.90596000  0.35887000  1.0
  H  H36  1  0.91422000  0.30317000  0.44983000  1.0
  H  H37  1  0.08579000  0.69684000  0.55017000  1.0
  H  H38  1  0.04432000  0.18875000  0.99534000  1.0
  H  H39  1  0.95569000  0.81125000  0.00466000  1.0
  H  H40  1  0.54474000  0.35742000  0.30379000  1.0
  H  H41  1  0.45525000  0.64259000  0.69621000  1.0
  H  H42  1  0.94325000  0.69179000  0.36502000  1.0
  H  H43  1  0.05674000  0.30821000  0.63498000  1.0
  H  H44  1  0.82134000  0.70511000  0.27656000  1.0
  H  H45  1  0.17865000  0.29489000  0.72344000  1.0
  C  C46  1  0.57906000  0.92899000  0.39467000  1.0
  C  C47  1  0.42094000  0.07102000  0.60533000  1.0
  C  C48  1  0.03633000  0.41885000  0.24944000  1.0
  C  C49  1  0.96366000  0.58115000  0.75056000  1.0
  C  C50  1  0.44896000  0.52061000  0.02953000  1.0
  C  C51  1  0.55104000  0.47939000  0.97047000  1.0
  C  C52  1  0.18626000  0.22478000  0.85602000  1.0
  C  C53  1  0.81373000  0.77522000  0.14398000  1.0
  C  C54  1  0.79494000  0.24251000  0.19688000  1.0
  C  C55  1  0.20506000  0.75749000  0.80312000  1.0
  C  C56  1  0.85448000  0.05674000  0.22645000  1.0
  C  C57  1  0.14552000  0.94326000  0.77355000  1.0
  C  C58  1  0.10549000  0.22423000  0.27382000  1.0
  C  C59  1  0.89451000  0.77578000  0.72618000  1.0
  C  C60  1  0.47057000  0.94748000  0.31833000  1.0
  C  C61  1  0.52943000  0.05252000  0.68167000  1.0
  C  C62  1  0.27948000  0.18515000  0.93531000  1.0
  C  C63  1  0.72051000  0.81485000  0.06469000  1.0
  C  C64  1  0.98024000  0.29263000  0.23891000  1.0
  C  C65  1  0.01975000  0.70737000  0.76109000  1.0
  C  C66  1  0.71227000  0.02337000  0.44750000  1.0
  C  C67  1  0.28773000  0.97663000  0.55250000  1.0
  C  C68  1  0.18798000  0.59691000  0.06040000  1.0
  C  C69  1  0.81203000  0.40309000  0.93960000  1.0
  C  C70  1  0.55813000  0.13221000  0.01772000  1.0
  C  C71  1  0.44187000  0.86779000  0.98228000  1.0
  C  C72  1  0.04020000  0.10716000  0.26735000  1.0
  C  C73  1  0.95980000  0.89284000  0.73265000  1.0
  C  C74  1  0.30707000  0.27062000  0.31814000  1.0
  C  C75  1  0.69292000  0.72938000  0.68186000  1.0
  C  C76  1  0.46248000  0.11717000  0.08304000  1.0
  C  C77  1  0.53752000  0.88283000  0.91696000  1.0
  C  C78  1  0.75882000  0.13122000  0.41866000  1.0
  C  C79  1  0.24118000  0.86878000  0.58134000  1.0
  C  C80  1  0.33914000  0.85889000  0.27204000  1.0
  C  C81  1  0.66086000  0.14111000  0.72796000  1.0
  C  C82  1  0.41380000  0.73378000  0.36970000  1.0
  C  C83  1  0.58621000  0.26622000  0.63030000  1.0
  C  C84  1  0.46481000  0.16475000  0.94376000  1.0
  C  C85  1  0.53518000  0.83525000  0.05624000  1.0
  C  C86  1  0.42021000  0.56534000  0.16812000  1.0
  C  C87  1  0.57979000  0.43465000  0.83188000  1.0
  C  C88  1  0.73305000  0.12572000  0.19114000  1.0
  C  C89  1  0.26696000  0.87427000  0.80886000  1.0
  C  C90  1  0.79544000  0.00990000  0.52945000  1.0
  C  C91  1  0.20456000  0.99010000  0.47055000  1.0
  C  C92  1  0.51868000  0.52431000  0.11476000  1.0
  C  C93  1  0.48131000  0.47568000  0.88524000  1.0
  C  C94  1  0.27844000  0.55856000  0.00278000  1.0
  C  C95  1  0.72157000  0.44144000  0.99723000  1.0
  C  C96  1  0.27728000  0.13592000  0.07590000  1.0
  C  C97  1  0.72273000  0.86408000  0.92410000  1.0
  C  C98  1  0.55058000  0.81789000  0.41903000  1.0
  C  C99  1  0.44941000  0.18211000  0.58097000  1.0
  C  C100  1  0.91440000  0.10222000  0.57730000  1.0
  C  C101  1  0.08560000  0.89779000  0.42270000  1.0
  C  C102  1  0.87820000  0.21878000  0.47133000  1.0
  C  C103  1  0.12180000  0.78122000  0.52867000  1.0
  C  C104  1  0.18730000  0.17113000  0.00200000  1.0
  C  C105  1  0.81271000  0.82887000  0.99800000  1.0
  N  N106  1  0.25675000  0.60089000  0.14201000  1.0
  N  N107  1  0.74325000  0.39911000  0.85799000  1.0
  N  N108  1  0.30766000  0.75382000  0.29775000  1.0
  N  N109  1  0.69234000  0.24618000  0.70225000  1.0
  N  N110  1  0.95455000  0.20574000  0.55000000  1.0
  N  N111  1  0.04546000  0.79426000  0.45000000  1.0
  O  O112  1  0.88737000  0.65056000  0.30997000  1.0
  O  O113  1  0.11262000  0.34944000  0.69002000  1.0
  O  O114  1  0.93471000  0.47217000  0.19820000  1.0
  O  O115  1  0.06529000  0.52783000  0.80180000  1.0
  O  O116  1  0.17407000  0.46619000  0.30569000  1.0
  O  O117  1  0.82593000  0.53381000  0.69431000  1.0
  O  O118  1  0.04256000  0.27018000  0.85865000  1.0
  O  O119  1  0.95744000  0.72982000  0.14135000  1.0
  O  O120  1  0.25355000  0.21215000  0.79257000  1.0
  O  O121  1  0.74644000  0.78785000  0.20743000  1.0
  O  O122  1  0.54510000  0.07561000  0.15554000  1.0
  O  O123  1  0.45490000  0.92439000  0.84446000  1.0
  O  O124  1  0.41899000  0.32487000  0.26888000  1.0
  O  O125  1  0.58100000  0.67514000  0.73112000  1.0
  O  O126  1  0.37070000  0.25297000  0.38957000  1.0
  O  O127  1  0.62930000  0.74702000  0.61043000  1.0
