# generated using pymatgen
data_CuH18C14(NO)6
_symmetry_space_group_name_H-M   'P 1'
_cell_length_a   9.35555000
_cell_length_b   9.60465000
_cell_length_c   10.39590000
_cell_angle_alpha   90.00020000
_cell_angle_beta   90.00000000
_cell_angle_gamma   113.54200000
_symmetry_Int_Tables_number   1
_chemical_formula_structural   CuH18C14(NO)6
_chemical_formula_sum   'Cu2 H36 C28 N12 O12'
_cell_volume   856.39117618
_cell_formula_units_Z   2
loop_
 _symmetry_equiv_pos_site_id
 _symmetry_equiv_pos_as_xyz
  1  'x, y, z'
loop_
 _atom_site_type_symbol
 _atom_site_label
 _atom_site_symmetry_multiplicity
 _atom_site_fract_x
 _atom_site_fract_y
 _atom_site_fract_z
 _atom_site_occupancy
  Cu  Cu0  1  0.50000000  0.00000000  0.50000000  1.0
  Cu  Cu1  1  0.00000000  0.00000000  0.00000000  1.0
  H  H2  1  0.49457000  0.92906000  0.77679000  1.0
  H  H3  1  0.00542000  0.07094000  0.27679000  1.0
  H  H4  1  0.50543000  0.07094000  0.22321000  1.0
  H  H5  1  0.99458000  0.92906000  0.72321000  1.0
  H  H6  1  0.33508000  0.93239000  0.72443000  1.0
  H  H7  1  0.16492000  0.06761000  0.22443000  1.0
  H  H8  1  0.66492000  0.06761000  0.27557000  1.0
  H  H9  1  0.83508000  0.93239000  0.77556000  1.0
  H  H10  1  0.56236000  0.69356000  0.54114000  1.0
  H  H11  1  0.93764000  0.30644000  0.04113000  1.0
  H  H12  1  0.43763000  0.30644000  0.45886000  1.0
  H  H13  1  0.06236000  0.69356000  0.95887000  1.0
  H  H14  1  0.29180000  0.79770000  0.26348000  1.0
  H  H15  1  0.20820000  0.20230000  0.76347000  1.0
  H  H16  1  0.70820000  0.20230000  0.73651000  1.0
  H  H17  1  0.79180000  0.79770000  0.23653000  1.0
  H  H18  1  0.18344000  0.53679000  0.14918000  1.0
  H  H19  1  0.31656000  0.46321000  0.64917000  1.0
  H  H20  1  0.81656000  0.46321000  0.85082000  1.0
  H  H21  1  0.68344000  0.53679000  0.35083000  1.0
  H  H22  1  0.20847000  0.38407000  0.22924000  1.0
  H  H23  1  0.29153000  0.61593000  0.72924000  1.0
  H  H24  1  0.79153000  0.61593000  0.77076000  1.0
  H  H25  1  0.70847000  0.38407000  0.27077000  1.0
  H  H26  1  0.40297000  0.29543000  0.16412000  1.0
  H  H27  1  0.09704000  0.70458000  0.66412000  1.0
  H  H28  1  0.59703000  0.70457000  0.83588000  1.0
  H  H29  1  0.90296000  0.29542000  0.33588000  1.0
  H  H30  1  0.39683000  0.70162000  0.99343000  1.0
  H  H31  1  0.10316000  0.29838000  0.49343000  1.0
  H  H32  1  0.60316000  0.29838000  0.00657000  1.0
  H  H33  1  0.89684000  0.70163000  0.50657000  1.0
  H  H34  1  0.08155000  0.98684000  0.45639000  1.0
  H  H35  1  0.41844000  0.01315000  0.95638000  1.0
  H  H36  1  0.91845000  0.01317000  0.54361000  1.0
  H  H37  1  0.58156000  0.98685000  0.04361000  1.0
  C  C38  1  0.48888000  0.68613000  0.45866000  1.0
  C  C39  1  0.01112000  0.31387000  0.95866000  1.0
  C  C40  1  0.51112000  0.31387000  0.54134000  1.0
  C  C41  1  0.98888000  0.68612000  0.04134000  1.0
  C  C42  1  0.34994000  0.74035000  0.31970000  1.0
  C  C43  1  0.15006000  0.25965000  0.81970000  1.0
  C  C44  1  0.65006000  0.25965000  0.68029000  1.0
  C  C45  1  0.84994000  0.74035000  0.18030000  1.0
  C  C46  1  0.26996000  0.49857000  0.18941000  1.0
  C  C47  1  0.23004000  0.50144000  0.68941000  1.0
  C  C48  1  0.73003000  0.50144000  0.81059000  1.0
  C  C49  1  0.76996000  0.49856000  0.31060000  1.0
  C  C50  1  0.38760000  0.49875000  0.09008000  1.0
  C  C51  1  0.11240000  0.50125000  0.59008000  1.0
  C  C52  1  0.61240000  0.50125000  0.90992000  1.0
  C  C53  1  0.88760000  0.49875000  0.40993000  1.0
  C  C54  1  0.44587000  0.38534000  0.09236000  1.0
  C  C55  1  0.05413000  0.61466000  0.59236000  1.0
  C  C56  1  0.55413000  0.61466000  0.90764000  1.0
  C  C57  1  0.94587000  0.38534000  0.40764000  1.0
  C  C58  1  0.44244000  0.61323000  0.99695000  1.0
  C  C59  1  0.05756000  0.38678000  0.49695000  1.0
  C  C60  1  0.55756000  0.38678000  0.00305000  1.0
  C  C61  1  0.94244000  0.61323000  0.50305000  1.0
  C  C62  1  0.18607000  0.99395000  0.51137000  1.0
  C  C63  1  0.31392000  0.00604000  0.01136000  1.0
  C  C64  1  0.81394000  0.00605000  0.48863000  1.0
  C  C65  1  0.68607000  0.99396000  0.98863000  1.0
  N  N66  1  0.34549000  0.60142000  0.29586000  1.0
  N  N67  1  0.15451000  0.39858000  0.79585000  1.0
  N  N68  1  0.65451000  0.39858000  0.70415000  1.0
  N  N69  1  0.84549000  0.60142000  0.20415000  1.0
  N  N70  1  0.43322000  0.56473000  0.38318000  1.0
  N  N71  1  0.06678000  0.43527000  0.88318000  1.0
  N  N72  1  0.56677000  0.43527000  0.61682000  1.0
  N  N73  1  0.93322000  0.56473000  0.11683000  1.0
  N  N74  1  0.44076000  0.79698000  0.42273000  1.0
  N  N75  1  0.05924000  0.20302000  0.92272000  1.0
  N  N76  1  0.55924000  0.20303000  0.57727000  1.0
  N  N77  1  0.94075000  0.79697000  0.07727000  1.0
  O  O78  1  0.29729000  0.99786000  0.43853000  1.0
  O  O79  1  0.20269000  0.00211000  0.93853000  1.0
  O  O80  1  0.70271000  0.00214000  0.56146000  1.0
  O  O81  1  0.79730000  0.99789000  0.06147000  1.0
  O  O82  1  0.18252000  0.99802000  0.63229000  1.0
  O  O83  1  0.31747000  0.00198000  0.13229000  1.0
  O  O84  1  0.81748000  0.00198000  0.36770000  1.0
  O  O85  1  0.68253000  0.99802000  0.86771000  1.0
  O  O86  1  0.40102000  0.87428000  0.72395000  1.0
  O  O87  1  0.09898000  0.12572000  0.22396000  1.0
  O  O88  1  0.59898000  0.12572000  0.27604000  1.0
  O  O89  1  0.90102000  0.87428000  0.77603000  1.0
