# generated using pymatgen
data_CuH3C5N2
_symmetry_space_group_name_H-M   'P 1'
_cell_length_a   8.06686000
_cell_length_b   8.06679000
_cell_length_c   8.99447000
_cell_angle_alpha   70.02300000
_cell_angle_beta   70.02340000
_cell_angle_gamma   80.52940000
_symmetry_Int_Tables_number   1
_chemical_formula_structural   CuH3C5N2
_chemical_formula_sum   'Cu4 H12 C20 N8'
_cell_volume   516.22960720
_cell_formula_units_Z   4
loop_
 _symmetry_equiv_pos_site_id
 _symmetry_equiv_pos_as_xyz
  1  'x, y, z'
loop_
 _atom_site_type_symbol
 _atom_site_label
 _atom_site_symmetry_multiplicity
 _atom_site_fract_x
 _atom_site_fract_y
 _atom_site_fract_z
 _atom_site_occupancy
  Cu  Cu0  1  0.20558000  0.02579000  0.07140000  1.0
  Cu  Cu1  1  0.97421000  0.79442000  0.42860000  1.0
  Cu  Cu2  1  0.79442000  0.97421000  0.92860000  1.0
  Cu  Cu3  1  0.02579000  0.20558000  0.57140000  1.0
  H  H4  1  0.52134000  0.79283000  0.96372000  1.0
  H  H5  1  0.20718000  0.47865000  0.53628000  1.0
  H  H6  1  0.47866000  0.20717000  0.03628000  1.0
  H  H7  1  0.79282000  0.52135000  0.46373000  1.0
  H  H8  1  0.77694000  0.55780000  0.95852000  1.0
  H  H9  1  0.44220000  0.22306000  0.54148000  1.0
  H  H10  1  0.22306000  0.44220000  0.04148000  1.0
  H  H11  1  0.55780000  0.77694000  0.45852000  1.0
  H  H12  1  0.89815000  0.26633000  0.10594000  1.0
  H  H13  1  0.73367000  0.10185000  0.39407000  1.0
  H  H14  1  0.10185000  0.73367000  0.89406000  1.0
  H  H15  1  0.26633000  0.89815000  0.60593000  1.0
  C  C16  1  0.11570000  0.16904000  0.36667000  1.0
  C  C17  1  0.83096000  0.88429000  0.13334000  1.0
  C  C18  1  0.88430000  0.83096000  0.63334000  1.0
  C  C19  1  0.16904000  0.11570000  0.86666000  1.0
  C  C20  1  0.45955000  0.71570000  0.09251000  1.0
  C  C21  1  0.28430000  0.54045000  0.40749000  1.0
  C  C22  1  0.54045000  0.28430000  0.90749000  1.0
  C  C23  1  0.71570000  0.45955000  0.59251000  1.0
  C  C24  1  0.54056000  0.55358000  0.16702000  1.0
  C  C25  1  0.44642000  0.45944000  0.33297000  1.0
  C  C26  1  0.45944000  0.44642000  0.83298000  1.0
  C  C27  1  0.55358000  0.54056000  0.66703000  1.0
  C  C28  1  0.70500000  0.48343000  0.08497000  1.0
  C  C29  1  0.51657000  0.29500000  0.41503000  1.0
  C  C30  1  0.29500000  0.51657000  0.91503000  1.0
  C  C31  1  0.48343000  0.70500000  0.58497000  1.0
  C  C32  1  0.77165000  0.32254000  0.16763000  1.0
  C  C33  1  0.67746000  0.22835000  0.33237000  1.0
  C  C34  1  0.22835000  0.67746000  0.83237000  1.0
  C  C35  1  0.32254000  0.77165000  0.66763000  1.0
  N  N36  1  0.16592000  0.12903000  0.24341000  1.0
  N  N37  1  0.87097000  0.83408000  0.25659000  1.0
  N  N38  1  0.83409000  0.87097000  0.75658000  1.0
  N  N39  1  0.12903000  0.16592000  0.74341000  1.0
  N  N40  1  0.30640000  0.78287000  0.16934000  1.0
  N  N41  1  0.21713000  0.69360000  0.33066000  1.0
  N  N42  1  0.69360000  0.21713000  0.83066000  1.0
  N  N43  1  0.78287000  0.30640000  0.66934000  1.0
