# generated using pymatgen
data_Zn2H19C35N7O8
_symmetry_space_group_name_H-M   'P 1'
_cell_length_a   9.82572000
_cell_length_b   10.96010000
_cell_length_c   15.81750000
_cell_angle_alpha   92.01320000
_cell_angle_beta   90.11880000
_cell_angle_gamma   90.95640000
_symmetry_Int_Tables_number   1
_chemical_formula_structural   Zn2H19C35N7O8
_chemical_formula_sum   'Zn2 H19 C35 N7 O8'
_cell_volume   1702.10579886
_cell_formula_units_Z   1
loop_
 _symmetry_equiv_pos_site_id
 _symmetry_equiv_pos_as_xyz
  1  'x, y, z'
loop_
 _atom_site_type_symbol
 _atom_site_label
 _atom_site_symmetry_multiplicity
 _atom_site_fract_x
 _atom_site_fract_y
 _atom_site_fract_z
 _atom_site_occupancy
  Zn  Zn0  1  0.63186000  0.49347000  0.49950000  1.0
  Zn  Zn1  1  0.35471000  0.49042000  0.50056000  1.0
  H  H2  1  0.43554000  0.69590000  0.94526000  1.0
  H  H3  1  0.80289000  0.87321000  0.51154000  1.0
  H  H4  1  0.38541000  0.63663000  0.08373000  1.0
  H  H5  1  0.86244000  0.54441000  0.30690000  1.0
  H  H6  1  0.86416000  0.68557000  0.36725000  1.0
  H  H7  1  0.12042000  0.68825000  0.37204000  1.0
  H  H8  1  0.29120000  0.42895000  0.06944000  1.0
  H  H9  1  0.28944000  0.49970000  0.93227000  1.0
  H  H10  1  0.36412000  0.36082000  0.89867000  1.0
  H  H11  1  0.65218000  0.33080000  0.05681000  1.0
  H  H12  1  0.72758000  0.48219000  0.91931000  1.0
  H  H13  1  0.56024000  0.66429000  0.10429000  1.0
  H  H14  1  0.61265000  0.67994000  0.96030000  1.0
  H  H15  1  0.62826000  0.34606000  0.91262000  1.0
  H  H16  1  0.25809000  0.87406000  0.51010000  1.0
  H  H17  1  0.26003000  0.09994000  0.53086000  1.0
  H  H18  1  0.77870000  0.12349000  0.42944000  1.0
  H  H19  1  0.80326000  0.10071000  0.53987000  1.0
  H  H20  1  0.77235000  0.89646000  0.40166000  1.0
  C  C21  1  0.47060000  0.72534000  0.47736000  1.0
  C  C22  1  0.47308000  0.86082000  0.48664000  1.0
  C  C23  1  0.35323000  0.92582000  0.50492000  1.0
  C  C24  1  0.51311000  0.45061000  0.33778000  1.0
  C  C25  1  0.35441000  0.05235000  0.51715000  1.0
  C  C26  1  0.47586000  0.12226000  0.51234000  1.0
  C  C27  1  0.59407000  0.05726000  0.49569000  1.0
  C  C28  1  0.74655000  0.06900000  0.48310000  1.0
  C  C29  1  0.74456000  0.92579000  0.46647000  1.0
  C  C30  1  0.06424000  0.52446000  0.43971000  1.0
  C  C31  1  0.06521000  0.42972000  0.56392000  1.0
  C  C32  1  0.51315000  0.63525000  0.96958000  1.0
  C  C33  1  0.92009000  0.42797000  0.56345000  1.0
  C  C34  1  0.92214000  0.52629000  0.44042000  1.0
  C  C35  1  0.91062000  0.59546000  0.36022000  1.0
  C  C36  1  0.47495000  0.25781000  0.51926000  1.0
  C  C37  1  0.07420000  0.59732000  0.35886000  1.0
  C  C38  1  0.51260000  0.54097000  0.66110000  1.0
  C  C39  1  0.48846000  0.61111000  0.06390000  1.0
  C  C40  1  0.38452000  0.40300000  0.03528000  1.0
  C  C41  1  0.37746000  0.44115000  0.94136000  1.0
  C  C42  1  0.51204000  0.54371000  0.75214000  1.0
  C  C43  1  0.50921000  0.51224000  0.91828000  1.0
  C  C44  1  0.50527000  0.47358000  0.08077000  1.0
  C  C45  1  0.13284000  0.37961000  0.63448000  1.0
  C  C46  1  0.85157000  0.36776000  0.63021000  1.0
  C  C47  1  0.13371000  0.54298000  0.28277000  1.0
  C  C48  1  0.39931000  0.27147000  0.04209000  1.0
  C  C49  1  0.75614000  0.49420000  0.08000000  1.0
  C  C50  1  0.63513000  0.43763000  0.94292000  1.0
  C  C51  1  0.64163000  0.42718000  0.04075000  1.0
  C  C52  1  0.51113000  0.53170000  0.82814000  1.0
  C  C53  1  0.50494000  0.45561000  0.17082000  1.0
  C  C54  1  0.50895000  0.44648000  0.24690000  1.0
  C  C55  1  0.59259000  0.93061000  0.48253000  1.0
  N  N56  1  0.13922000  0.48002000  0.50062000  1.0
  N  N57  1  0.84687000  0.48030000  0.50147000  1.0
  N  N58  1  0.17696000  0.33831000  0.69558000  1.0
  N  N59  1  0.80740000  0.31254000  0.68595000  1.0
  N  N60  1  0.17377000  0.50395000  0.21825000  1.0
  N  N61  1  0.41502000  0.16661000  0.04637000  1.0
  N  N62  1  0.84521000  0.54923000  0.11302000  1.0
  O  O63  1  0.58544000  0.67254000  0.47523000  1.0
  O  O64  1  0.35419000  0.67113000  0.47423000  1.0
  O  O65  1  0.63110000  0.45802000  0.37182000  1.0
  O  O66  1  0.39937000  0.44954000  0.37611000  1.0
  O  O67  1  0.59024000  0.31319000  0.51836000  1.0
  O  O68  1  0.35960000  0.30944000  0.52284000  1.0
  O  O69  1  0.62865000  0.53881000  0.62501000  1.0
  O  O70  1  0.39705000  0.53785000  0.62416000  1.0
