# generated using pymatgen
data_CuH14C14NO7
_symmetry_space_group_name_H-M   'P 1'
_cell_length_a   7.32362000
_cell_length_b   8.36975000
_cell_length_c   11.83220000
_cell_angle_alpha   106.15800000
_cell_angle_beta   90.63210000
_cell_angle_gamma   96.82010000
_symmetry_Int_Tables_number   1
_chemical_formula_structural   CuH14C14NO7
_chemical_formula_sum   'Cu2 H28 C28 N2 O14'
_cell_volume   690.95828434
_cell_formula_units_Z   2
loop_
 _symmetry_equiv_pos_site_id
 _symmetry_equiv_pos_as_xyz
  1  'x, y, z'
loop_
 _atom_site_type_symbol
 _atom_site_label
 _atom_site_symmetry_multiplicity
 _atom_site_fract_x
 _atom_site_fract_y
 _atom_site_fract_z
 _atom_site_occupancy
  Cu  Cu0  1  0.65692000  0.71086000  0.54232000  1.0
  Cu  Cu1  1  0.34308000  0.28914000  0.45768000  1.0
  H  H2  1  0.39128000  0.56391000  0.08195000  1.0
  H  H3  1  0.60873000  0.43609000  0.91805000  1.0
  H  H4  1  0.34454000  0.72166000  0.94102000  1.0
  H  H5  1  0.65546000  0.27834000  0.05898000  1.0
  H  H6  1  0.71295000  0.14077000  0.15793000  1.0
  H  H7  1  0.28704000  0.85923000  0.84208000  1.0
  H  H8  1  0.84008000  0.44294000  0.59037000  1.0
  H  H9  1  0.15993000  0.55707000  0.40964000  1.0
  H  H10  1  0.97437000  0.37438000  0.76126000  1.0
  H  H11  1  0.02563000  0.62562000  0.23874000  1.0
  H  H12  1  0.85168000  0.85568000  0.97745000  1.0
  H  H13  1  0.14832000  0.14432000  0.02255000  1.0
  H  H14  1  0.72140000  0.90349000  0.79466000  1.0
  H  H15  1  0.27861000  0.09652000  0.20534000  1.0
  H  H16  1  0.98372000  0.68028000  0.07498000  1.0
  H  H17  1  0.01626000  0.31972000  0.92502000  1.0
  H  H18  1  0.39955000  0.58242000  0.64794000  1.0
  H  H19  1  0.60045000  0.41758000  0.35206000  1.0
  H  H20  1  0.90939000  0.78727000  0.41950000  1.0
  H  H21  1  0.09061000  0.21273000  0.58050000  1.0
  H  H22  1  0.61413000  0.08311000  0.60971000  1.0
  H  H23  1  0.38587000  0.91689000  0.39028000  1.0
  H  H24  1  0.32423000  0.73392000  0.60669000  1.0
  H  H25  1  0.67578000  0.26608000  0.39331000  1.0
  H  H26  1  0.00275000  0.78011000  0.54143000  1.0
  H  H27  1  0.99725000  0.21988000  0.45857000  1.0
  H  H28  1  0.81783000  0.04892000  0.63855000  1.0
  H  H29  1  0.18218000  0.95108000  0.36145000  1.0
  C  C30  1  0.58851000  0.66490000  0.28815000  1.0
  C  C31  1  0.41149000  0.33510000  0.71185000  1.0
  C  C32  1  0.57860000  0.75858000  0.19773000  1.0
  C  C33  1  0.42141000  0.24141000  0.80226000  1.0
  C  C34  1  0.46151000  0.69069000  0.09781000  1.0
  C  C35  1  0.53849000  0.30931000  0.90219000  1.0
  C  C36  1  0.43236000  0.78313000  0.01955000  1.0
  C  C37  1  0.56763000  0.21687000  0.98045000  1.0
  C  C38  1  0.51660000  0.94939000  0.04040000  1.0
  C  C39  1  0.48340000  0.05061000  0.95960000  1.0
  C  C40  1  0.63892000  0.01484000  0.13956000  1.0
  C  C41  1  0.36107000  0.98516000  0.86044000  1.0
  C  C42  1  0.67337000  0.92074000  0.21590000  1.0
  C  C43  1  0.32662000  0.07926000  0.78409000  1.0
  C  C44  1  0.82376000  0.98968000  0.30967000  1.0
  C  C45  1  0.17623000  0.01032000  0.69034000  1.0
  C  C46  1  0.84352000  0.52968000  0.67810000  1.0
  C  C47  1  0.15650000  0.47033000  0.32191000  1.0
  C  C48  1  0.91801000  0.49265000  0.77466000  1.0
  C  C49  1  0.08198000  0.50735000  0.22534000  1.0
  C  C50  1  0.91933000  0.60783000  0.88716000  1.0
  C  C51  1  0.08067000  0.39217000  0.11285000  1.0
  C  C52  1  0.85240000  0.76066000  0.89317000  1.0
  C  C53  1  0.14760000  0.23935000  0.10683000  1.0
  C  C54  1  0.77856000  0.78845000  0.79271000  1.0
  C  C55  1  0.22144000  0.21155000  0.20729000  1.0
  C  C56  1  0.97905000  0.57472000  0.99552000  1.0
  C  C57  1  0.02094000  0.42529000  0.00448000  1.0
  N  N58  1  0.77137000  0.67343000  0.68691000  1.0
  N  N59  1  0.22864000  0.32658000  0.31309000  1.0
  O  O60  1  0.56082000  0.75238000  0.39409000  1.0
  O  O61  1  0.43918000  0.24762000  0.60591000  1.0
  O  O62  1  0.61599000  0.51372000  0.25637000  1.0
  O  O63  1  0.38402000  0.48627000  0.74362000  1.0
  O  O64  1  0.93923000  0.89208000  0.32073000  1.0
  O  O65  1  0.06077000  0.10793000  0.67926000  1.0
  O  O66  1  0.83415000  0.14371000  0.36803000  1.0
  O  O67  1  0.16585000  0.85629000  0.63197000  1.0
  O  O68  1  0.40561000  0.64230000  0.58331000  1.0
  O  O69  1  0.59439000  0.35770000  0.41669000  1.0
  O  O70  1  0.68631000  0.00260000  0.63017000  1.0
  O  O71  1  0.31369000  0.99740000  0.36983000  1.0
  O  O72  1  0.90377000  0.72005000  0.47739000  1.0
  O  O73  1  0.09624000  0.27995000  0.52261000  1.0
