# generated using pymatgen
data_LiH9C5BrNO2
_symmetry_space_group_name_H-M   'P 1'
_cell_length_a   5.01553000
_cell_length_b   9.63696000
_cell_length_c   15.43770000
_cell_angle_alpha   90.00000000
_cell_angle_beta   90.00080000
_cell_angle_gamma   89.99970000
_symmetry_Int_Tables_number   1
_chemical_formula_structural   LiH9C5BrNO2
_chemical_formula_sum   'Li4 H36 C20 Br4 N4 O8'
_cell_volume   746.17292376
_cell_formula_units_Z   4
loop_
 _symmetry_equiv_pos_site_id
 _symmetry_equiv_pos_as_xyz
  1  'x, y, z'
loop_
 _atom_site_type_symbol
 _atom_site_label
 _atom_site_symmetry_multiplicity
 _atom_site_fract_x
 _atom_site_fract_y
 _atom_site_fract_z
 _atom_site_occupancy
  Li  Li0  1  0.97465000  0.49894000  0.93916000  1.0
  Li  Li1  1  0.47467000  0.00107000  0.43916000  1.0
  Li  Li2  1  0.47466000  0.50104000  0.06082000  1.0
  Li  Li3  1  0.97469000  0.99894000  0.56083000  1.0
  H  H4  1  0.29964000  0.76624000  0.76837000  1.0
  H  H5  1  0.79961000  0.73377000  0.26837000  1.0
  H  H6  1  0.79962000  0.23378000  0.23163000  1.0
  H  H7  1  0.29963000  0.26623000  0.73163000  1.0
  H  H8  1  0.81684000  0.70816000  0.82916000  1.0
  H  H9  1  0.31684000  0.79181000  0.32915000  1.0
  H  H10  1  0.31684000  0.29183000  0.17085000  1.0
  H  H11  1  0.81687000  0.20818000  0.67085000  1.0
  H  H12  1  0.59947000  0.80214000  0.72266000  1.0
  H  H13  1  0.09943000  0.69786000  0.22265000  1.0
  H  H14  1  0.09945000  0.19785000  0.27734000  1.0
  H  H15  1  0.59945000  0.30214000  0.77734000  1.0
  H  H16  1  0.25044000  0.99978000  0.76934000  1.0
  H  H17  1  0.75038000  0.50023000  0.26934000  1.0
  H  H18  1  0.75037000  0.00024000  0.23065000  1.0
  H  H19  1  0.25039000  0.49976000  0.73066000  1.0
  H  H20  1  0.60574000  0.02264000  0.76794000  1.0
  H  H21  1  0.10567000  0.47734000  0.26793000  1.0
  H  H22  1  0.10566000  0.97735000  0.23206000  1.0
  H  H23  1  0.60569000  0.52265000  0.73207000  1.0
  H  H24  1  0.26944000  0.94502000  0.92633000  1.0
  H  H25  1  0.76940000  0.55497000  0.42633000  1.0
  H  H26  1  0.76940000  0.05500000  0.07366000  1.0
  H  H27  1  0.26943000  0.44503000  0.57367000  1.0
  H  H28  1  0.50745000  0.08154000  0.91659000  1.0
  H  H29  1  0.00739000  0.41845000  0.41659000  1.0
  H  H30  1  0.00738000  0.91846000  0.08340000  1.0
  H  H31  1  0.50743000  0.58155000  0.58341000  1.0
  H  H32  1  0.67355000  0.83524000  0.98469000  1.0
  H  H33  1  0.17354000  0.66474000  0.48468000  1.0
  H  H34  1  0.17357000  0.16475000  0.01532000  1.0
  H  H35  1  0.67358000  0.33525000  0.51533000  1.0
  H  H36  1  0.87449000  0.91774000  0.90467000  1.0
  H  H37  1  0.37445000  0.58223000  0.40466000  1.0
  H  H38  1  0.37446000  0.08223000  0.09535000  1.0
  H  H39  1  0.87450000  0.41777000  0.59536000  1.0
  C  C40  1  0.46684000  0.63549000  0.89686000  1.0
  C  C41  1  0.96685000  0.86450000  0.39688000  1.0
  C  C42  1  0.96685000  0.36451000  0.10312000  1.0
  C  C43  1  0.46690000  0.13552000  0.60312000  1.0
  C  C44  1  0.62875000  0.75065000  0.85380000  1.0
  C  C45  1  0.12875000  0.74934000  0.35380000  1.0
  C  C46  1  0.12875000  0.24935000  0.14620000  1.0
  C  C47  1  0.62878000  0.25065000  0.64621000  1.0
  C  C48  1  0.43940000  0.96635000  0.79805000  1.0
  C  C49  1  0.93934000  0.53365000  0.29805000  1.0
  C  C50  1  0.93933000  0.03366000  0.20195000  1.0
  C  C51  1  0.43935000  0.46635000  0.70195000  1.0
  C  C52  1  0.45848000  0.97573000  0.89605000  1.0
  C  C53  1  0.95844000  0.52426000  0.39604000  1.0
  C  C54  1  0.95843000  0.02427000  0.10396000  1.0
  C  C55  1  0.45847000  0.47574000  0.60396000  1.0
  C  C56  1  0.67835000  0.87136000  0.91738000  1.0
  C  C57  1  0.17832000  0.62863000  0.41736000  1.0
  C  C58  1  0.17833000  0.12863000  0.08263000  1.0
  C  C59  1  0.67836000  0.37138000  0.58264000  1.0
  Br  Br60  1  0.96373000  0.26547000  0.85260000  1.0
  Br  Br61  1  0.46367000  0.23456000  0.35262000  1.0
  Br  Br62  1  0.46370000  0.73449000  0.14742000  1.0
  Br  Br63  1  0.96379000  0.76547000  0.64741000  1.0
  N  N64  1  0.48192000  0.81488000  0.77882000  1.0
  N  N65  1  0.98191000  0.68513000  0.27882000  1.0
  N  N66  1  0.98190000  0.18513000  0.22118000  1.0
  N  N67  1  0.48192000  0.31488000  0.72118000  1.0
  O  O68  1  0.21890000  0.62961000  0.88329000  1.0
  O  O69  1  0.71891000  0.87040000  0.38331000  1.0
  O  O70  1  0.71889000  0.37038000  0.11668000  1.0
  O  O71  1  0.21892000  0.12961000  0.61669000  1.0
  O  O72  1  0.60053000  0.55602000  0.94654000  1.0
  O  O73  1  0.10055000  0.94398000  0.44654000  1.0
  O  O74  1  0.10055000  0.44398000  0.05346000  1.0
  O  O75  1  0.60059000  0.05604000  0.55344000  1.0
