# generated using pymatgen
data_H9PbC10Br2N3
_symmetry_space_group_name_H-M   'P 1'
_cell_length_a   8.00225000
_cell_length_b   9.68433000
_cell_length_c   16.05670000
_cell_angle_alpha   89.99830000
_cell_angle_beta   93.87080000
_cell_angle_gamma   89.99930000
_symmetry_Int_Tables_number   1
_chemical_formula_structural   H9PbC10Br2N3
_chemical_formula_sum   'H36 Pb4 C40 Br8 N12'
_cell_volume   1241.49835672
_cell_formula_units_Z   4
loop_
 _symmetry_equiv_pos_site_id
 _symmetry_equiv_pos_as_xyz
  1  'x, y, z'
loop_
 _atom_site_type_symbol
 _atom_site_label
 _atom_site_symmetry_multiplicity
 _atom_site_fract_x
 _atom_site_fract_y
 _atom_site_fract_z
 _atom_site_occupancy
  H  H0  1  0.86704000  0.64406000  0.61580000  1.0
  H  H1  1  0.63296000  0.14406000  0.38418000  1.0
  H  H2  1  0.13292000  0.35592000  0.38419000  1.0
  H  H3  1  0.36715000  0.85591000  0.61581000  1.0
  H  H4  1  0.72683000  0.52351000  0.49166000  1.0
  H  H5  1  0.77319000  0.02351000  0.50831000  1.0
  H  H6  1  0.27314000  0.47647000  0.50831000  1.0
  H  H7  1  0.22690000  0.97646000  0.49170000  1.0
  H  H8  1  0.79471000  0.27399000  0.46986000  1.0
  H  H9  1  0.70529000  0.77400000  0.53013000  1.0
  H  H10  1  0.20527000  0.72600000  0.53012000  1.0
  H  H11  1  0.29471000  0.22600000  0.46989000  1.0
  H  H12  1  0.98348000  0.15248000  0.57678000  1.0
  H  H13  1  0.51652000  0.65248000  0.42321000  1.0
  H  H14  1  0.01654000  0.84751000  0.42320000  1.0
  H  H15  1  0.48339000  0.34753000  0.57683000  1.0
  H  H16  1  0.10763000  0.15523000  0.70138000  1.0
  H  H17  1  0.39239000  0.65522000  0.29862000  1.0
  H  H18  1  0.89232000  0.84475000  0.29861000  1.0
  H  H19  1  0.60765000  0.34476000  0.70139000  1.0
  H  H20  1  0.30180000  0.54430000  0.91755000  1.0
  H  H21  1  0.19817000  0.04429000  0.08245000  1.0
  H  H22  1  0.69820000  0.45571000  0.08241000  1.0
  H  H23  1  0.80182000  0.95575000  0.91762000  1.0
  H  H24  1  0.41566000  0.35055000  0.00764000  1.0
  H  H25  1  0.08429000  0.85056000  0.99235000  1.0
  H  H26  1  0.58433000  0.64944000  0.99233000  1.0
  H  H27  1  0.91571000  0.14948000  0.00768000  1.0
  H  H28  1  0.38411000  0.10766000  0.95203000  1.0
  H  H29  1  0.11587000  0.60766000  0.04794000  1.0
  H  H30  1  0.61581000  0.89234000  0.04795000  1.0
  H  H31  1  0.88414000  0.39239000  0.95206000  1.0
  H  H32  1  0.23627000  0.06974000  0.81344000  1.0
  H  H33  1  0.26363000  0.56970000  0.18653000  1.0
  H  H34  1  0.76358000  0.93026000  0.18654000  1.0
  H  H35  1  0.73640000  0.43029000  0.81345000  1.0
  Pb  Pb36  1  0.15367000  0.65249000  0.75397000  1.0
  Pb  Pb37  1  0.34647000  0.15252000  0.24597000  1.0
  Pb  Pb38  1  0.84648000  0.34745000  0.24598000  1.0
  Pb  Pb39  1  0.65361000  0.84750000  0.75406000  1.0
  C  C40  1  0.88567000  0.53383000  0.60547000  1.0
  C  C41  1  0.61430000  0.03383000  0.39452000  1.0
  C  C42  1  0.11428000  0.46614000  0.39451000  1.0
  C  C43  1  0.38578000  0.96614000  0.60548000  1.0
  C  C44  1  0.80967000  0.46804000  0.53648000  1.0
  C  C45  1  0.69030000  0.96806000  0.46351000  1.0
  C  C46  1  0.19026000  0.53193000  0.46352000  1.0
  C  C47  1  0.30976000  0.03192000  0.53650000  1.0
  C  C48  1  0.84723000  0.32865000  0.52485000  1.0
  C  C49  1  0.65272000  0.82867000  0.47515000  1.0
  C  C50  1  0.15271000  0.67131000  0.47514000  1.0
  C  C51  1  0.34729000  0.17132000  0.52486000  1.0
  C  C52  1  0.95240000  0.26129000  0.58332000  1.0
  C  C53  1  0.54754000  0.76131000  0.41668000  1.0
  C  C54  1  0.04755000  0.73868000  0.41667000  1.0
  C  C55  1  0.45243000  0.23869000  0.58334000  1.0
  C  C56  1  0.01887000  0.33446000  0.65421000  1.0
  C  C57  1  0.48106000  0.83448000  0.34579000  1.0
  C  C58  1  0.98108000  0.66553000  0.34577000  1.0
  C  C59  1  0.51894000  0.16553000  0.65423000  1.0
  C  C60  1  0.28962000  0.43705000  0.89684000  1.0
  C  C61  1  0.21033000  0.93704000  0.10316000  1.0
  C  C62  1  0.71036000  0.56296000  0.10314000  1.0
  C  C63  1  0.78967000  0.06300000  0.89689000  1.0
  C  C64  1  0.35333000  0.33038000  0.94656000  1.0
  C  C65  1  0.14661000  0.83039000  0.05343000  1.0
  C  C66  1  0.64661000  0.66962000  0.05342000  1.0
  C  C67  1  0.85338000  0.16966000  0.94659000  1.0
  C  C68  1  0.33470000  0.19554000  0.91577000  1.0
  C  C69  1  0.16524000  0.69555000  0.08423000  1.0
  C  C70  1  0.66521000  0.80445000  0.08422000  1.0
  C  C71  1  0.83476000  0.30450000  0.91579000  1.0
  C  C72  1  0.25295000  0.17409000  0.83827000  1.0
  C  C73  1  0.24696000  0.67408000  0.16173000  1.0
  C  C74  1  0.74692000  0.82591000  0.16172000  1.0
  C  C75  1  0.75304000  0.32594000  0.83829000  1.0
  C  C76  1  0.19162000  0.28863000  0.79112000  1.0
  C  C77  1  0.30829000  0.78861000  0.20889000  1.0
  C  C78  1  0.80831000  0.71137000  0.20886000  1.0
  C  C79  1  0.69170000  0.21140000  0.79115000  1.0
  Br  Br80  1  0.47427000  0.58869000  0.66299000  1.0
  Br  Br81  1  0.02590000  0.08860000  0.33701000  1.0
  Br  Br82  1  0.52593000  0.41151000  0.33701000  1.0
  Br  Br83  1  0.97420000  0.91145000  0.66299000  1.0
  Br  Br84  1  0.89332000  0.67890000  0.87436000  1.0
  Br  Br85  1  0.60683000  0.17883000  0.12560000  1.0
  Br  Br86  1  0.10704000  0.32111000  0.12562000  1.0
  Br  Br87  1  0.39306000  0.82105000  0.87443000  1.0
  N  N88  1  0.98919000  0.47038000  0.66351000  1.0
  N  N89  1  0.51079000  0.97040000  0.33647000  1.0
  N  N90  1  0.01079000  0.52961000  0.33647000  1.0
  N  N91  1  0.48928000  0.02960000  0.66353000  1.0
  N  N92  1  0.11332000  0.25909000  0.71340000  1.0
  N  N93  1  0.38661000  0.75908000  0.28662000  1.0
  N  N94  1  0.88663000  0.74091000  0.28659000  1.0
  N  N95  1  0.61338000  0.24091000  0.71341000  1.0
  N  N96  1  0.21138000  0.41845000  0.82019000  1.0
  N  N97  1  0.28857000  0.91843000  0.17981000  1.0
  N  N98  1  0.78859000  0.58155000  0.17979000  1.0
  N  N99  1  0.71141000  0.08158000  0.82024000  1.0
