# generated using pymatgen
data_GdH4C6N3O8
_symmetry_space_group_name_H-M   'P 1'
_cell_length_a   7.79314000
_cell_length_b   15.78320000
_cell_length_c   15.78306144
_cell_angle_alpha   119.99887123
_cell_angle_beta   90.00000000
_cell_angle_gamma   89.99970000
_symmetry_Int_Tables_number   1
_chemical_formula_structural   GdH4C6N3O8
_chemical_formula_sum   'Gd6 H24 C36 N18 O48'
_cell_volume   1681.25797099
_cell_formula_units_Z   6
loop_
 _symmetry_equiv_pos_site_id
 _symmetry_equiv_pos_as_xyz
  1  'x, y, z'
loop_
 _atom_site_type_symbol
 _atom_site_label
 _atom_site_symmetry_multiplicity
 _atom_site_fract_x
 _atom_site_fract_y
 _atom_site_fract_z
 _atom_site_occupancy
  Gd  Gd0  1  0.75666000  0.18567000  0.81373000  1.0
  Gd  Gd1  1  0.25665000  0.81434000  0.18628000  1.0
  Gd  Gd2  1  0.75667000  0.62805000  0.81432000  1.0
  Gd  Gd3  1  0.75665000  0.18627000  0.37194000  1.0
  Gd  Gd4  1  0.25666000  0.81372000  0.62806000  1.0
  Gd  Gd5  1  0.25666000  0.37195000  0.18567000  1.0
  H  H6  1  0.76106000  0.37808000  0.75733000  1.0
  H  H7  1  0.26105000  0.62192000  0.24267000  1.0
  H  H8  1  0.76105000  0.37925000  0.62191000  1.0
  H  H9  1  0.76104000  0.24266000  0.62075000  1.0
  H  H10  1  0.26103000  0.75733000  0.37925000  1.0
  H  H11  1  0.26105000  0.62074000  0.37808000  1.0
  H  H12  1  0.34878000  0.51036000  0.02271000  1.0
  H  H13  1  0.84879000  0.48966000  0.97729000  1.0
  H  H14  1  0.34877000  0.51236000  0.48965000  1.0
  H  H15  1  0.34878000  0.97729000  0.48765000  1.0
  H  H16  1  0.84878000  0.02272000  0.51237000  1.0
  H  H17  1  0.84877000  0.48764000  0.51035000  1.0
  H  H18  1  0.68794000  0.12943000  0.95267000  1.0
  H  H19  1  0.18790000  0.87059000  0.04736000  1.0
  H  H20  1  0.68794000  0.82324000  0.87058000  1.0
  H  H21  1  0.68789000  0.04735000  0.17677000  1.0
  H  H22  1  0.18789000  0.95263000  0.82323000  1.0
  H  H23  1  0.18794000  0.17676000  0.12941000  1.0
  H  H24  1  0.71753000  0.03186000  0.85579000  1.0
  H  H25  1  0.21752000  0.96817000  0.14424000  1.0
  H  H26  1  0.71755000  0.82394000  0.96816000  1.0
  H  H27  1  0.71754000  0.14422000  0.17606000  1.0
  H  H28  1  0.21756000  0.85576000  0.82394000  1.0
  H  H29  1  0.21755000  0.17606000  0.03183000  1.0
  C  C30  1  0.66133000  0.40591000  0.81308000  1.0
  C  C31  1  0.16132000  0.59409000  0.18691000  1.0
  C  C32  1  0.66132000  0.40718000  0.59409000  1.0
  C  C33  1  0.66132000  0.18691000  0.59282000  1.0
  C  C34  1  0.16130000  0.81308000  0.40719000  1.0
  C  C35  1  0.16131000  0.59281000  0.40590000  1.0
  C  C36  1  0.49717000  0.53550000  0.92172000  1.0
  C  C37  1  0.99716000  0.46450000  0.07828000  1.0
  C  C38  1  0.49717000  0.38622000  0.46450000  1.0
  C  C39  1  0.49717000  0.07828000  0.61379000  1.0
  C  C40  1  0.99716000  0.92172000  0.38622000  1.0
  C  C41  1  0.99716000  0.61377000  0.53549000  1.0
  C  C42  1  0.43538000  0.47934000  0.96059000  1.0
  C  C43  1  0.93538000  0.52066000  0.03940000  1.0
  C  C44  1  0.43538000  0.48125000  0.52066000  1.0
  C  C45  1  0.43537000  0.03941000  0.51876000  1.0
  C  C46  1  0.93538000  0.96060000  0.48126000  1.0
  C  C47  1  0.93537000  0.51874000  0.47934000  1.0
  C  C48  1  0.49718000  0.38427000  0.92131000  1.0
  C  C49  1  0.99717000  0.61574000  0.07868000  1.0
  C  C50  1  0.49715000  0.53704000  0.61573000  1.0
  C  C51  1  0.49717000  0.07868000  0.46296000  1.0
  C  C52  1  0.99717000  0.92132000  0.53706000  1.0
  C  C53  1  0.99717000  0.46294000  0.38426000  1.0
  C  C54  1  0.45615000  0.32124000  0.96653000  1.0
  C  C55  1  0.95616000  0.67875000  0.03345000  1.0
  C  C56  1  0.45616000  0.64528000  0.67875000  1.0
  C  C57  1  0.45614000  0.03346000  0.35471000  1.0
  C  C58  1  0.95617000  0.96655000  0.64530000  1.0
  C  C59  1  0.95616000  0.35471000  0.32125000  1.0
  C  C60  1  0.45565000  0.64371000  0.96704000  1.0
  C  C61  1  0.95562000  0.35629000  0.03295000  1.0
  C  C62  1  0.45561000  0.32334000  0.35630000  1.0
  C  C63  1  0.45564000  0.03296000  0.67667000  1.0
  C  C64  1  0.95562000  0.96705000  0.32334000  1.0
  C  C65  1  0.95560000  0.67666000  0.64370000  1.0
  N  N66  1  0.60992000  0.34735000  0.84670000  1.0
  N  N67  1  0.10991000  0.65264000  0.15328000  1.0
  N  N68  1  0.60990000  0.49936000  0.65265000  1.0
  N  N69  1  0.60991000  0.15330000  0.50064000  1.0
  N  N70  1  0.10990000  0.84671000  0.49936000  1.0
  N  N71  1  0.10990000  0.50064000  0.34735000  1.0
  N  N72  1  0.61033000  0.49826000  0.84727000  1.0
  N  N73  1  0.11032000  0.50174000  0.15273000  1.0
  N  N74  1  0.61032000  0.34900000  0.50174000  1.0
  N  N75  1  0.61032000  0.15273000  0.65099000  1.0
  N  N76  1  0.11032000  0.84726000  0.34901000  1.0
  N  N77  1  0.11031000  0.65100000  0.49826000  1.0
  N  N78  1  0.09541000  0.22898000  0.77099000  1.0
  N  N79  1  0.59541000  0.77103000  0.22901000  1.0
  N  N80  1  0.09541000  0.54202000  0.77102000  1.0
  N  N81  1  0.09540000  0.22901000  0.45798000  1.0
  N  N82  1  0.59540000  0.77098000  0.54201000  1.0
  N  N83  1  0.59540000  0.45798000  0.22897000  1.0
  O  O84  1  0.53086000  0.23957000  0.93116000  1.0
  O  O85  1  0.03089000  0.76044000  0.06883000  1.0
  O  O86  1  0.53086000  0.69160000  0.76043000  1.0
  O  O87  1  0.53088000  0.06882000  0.30840000  1.0
  O  O88  1  0.03087000  0.93118000  0.69161000  1.0
  O  O89  1  0.03087000  0.30839000  0.23956000  1.0
  O  O90  1  0.35356000  0.35789000  0.03788000  1.0
  O  O91  1  0.85358000  0.64212000  0.96212000  1.0
  O  O92  1  0.35356000  0.67998000  0.64212000  1.0
  O  O93  1  0.35355000  0.96212000  0.32001000  1.0
  O  O94  1  0.85359000  0.03788000  0.68000000  1.0
  O  O95  1  0.85356000  0.32000000  0.35787000  1.0
  O  O96  1  0.52869000  0.68953000  0.93074000  1.0
  O  O97  1  0.02868000  0.31048000  0.06927000  1.0
  O  O98  1  0.52867000  0.24121000  0.31049000  1.0
  O  O99  1  0.52869000  0.06925000  0.75879000  1.0
  O  O100  1  0.02868000  0.93073000  0.24121000  1.0
  O  O101  1  0.02866000  0.75879000  0.68951000  1.0
  O  O102  1  0.35463000  0.67867000  0.03918000  1.0
  O  O103  1  0.85461000  0.32135000  0.96084000  1.0
  O  O104  1  0.35463000  0.36051000  0.32134000  1.0
  O  O105  1  0.35464000  0.96083000  0.63950000  1.0
  O  O106  1  0.85461000  0.03918000  0.36052000  1.0
  O  O107  1  0.85461000  0.63948000  0.67865000  1.0
  O  O108  1  0.07731000  0.18238000  0.81762000  1.0
  O  O109  1  0.57729000  0.81764000  0.18238000  1.0
  O  O110  1  0.07731000  0.63525000  0.81763000  1.0
  O  O111  1  0.07729000  0.18238000  0.36474000  1.0
  O  O112  1  0.57729000  0.81761000  0.63525000  1.0
  O  O113  1  0.57729000  0.36474000  0.18236000  1.0
  O  O114  1  0.95406000  0.25357000  0.74496000  1.0
  O  O115  1  0.45406000  0.74642000  0.25503000  1.0
  O  O116  1  0.95407000  0.49138000  0.74642000  1.0
  O  O117  1  0.95405000  0.25503000  0.50861000  1.0
  O  O118  1  0.45405000  0.74495000  0.49138000  1.0
  O  O119  1  0.45406000  0.50862000  0.25358000  1.0
  O  O120  1  0.23699000  0.24957000  0.75161000  1.0
  O  O121  1  0.73699000  0.75043000  0.24838000  1.0
  O  O122  1  0.23699000  0.50205000  0.75044000  1.0
  O  O123  1  0.23700000  0.24838000  0.49794000  1.0
  O  O124  1  0.73698000  0.75161000  0.50204000  1.0
  O  O125  1  0.73699000  0.49794000  0.24956000  1.0
  O  O126  1  0.77418000  0.09308000  0.90213000  1.0
  O  O127  1  0.27416000  0.90694000  0.09789000  1.0
  O  O128  1  0.77420000  0.80905000  0.90692000  1.0
  O  O129  1  0.77417000  0.09787000  0.19095000  1.0
  O  O130  1  0.27417000  0.90210000  0.80904000  1.0
  O  O131  1  0.27419000  0.19095000  0.09307000  1.0
