# generated using pymatgen
data_ZnH18C14S4(NO)2
_symmetry_space_group_name_H-M   'P 1'
_cell_length_a   7.02075000
_cell_length_b   9.59117000
_cell_length_c   16.70080000
_cell_angle_alpha   93.59910000
_cell_angle_beta   99.10350000
_cell_angle_gamma   92.87170000
_symmetry_Int_Tables_number   1
_chemical_formula_structural   ZnH18C14S4(NO)2
_chemical_formula_sum   'Zn2 H36 C28 S8 N4 O4'
_cell_volume   1106.17182908
_cell_formula_units_Z   2
loop_
 _symmetry_equiv_pos_site_id
 _symmetry_equiv_pos_as_xyz
  1  'x, y, z'
loop_
 _atom_site_type_symbol
 _atom_site_label
 _atom_site_symmetry_multiplicity
 _atom_site_fract_x
 _atom_site_fract_y
 _atom_site_fract_z
 _atom_site_occupancy
  Zn  Zn0  1  0.57128000  0.79499000  0.24673000  1.0
  Zn  Zn1  1  0.42872000  0.20500000  0.75327000  1.0
  H  H2  1  0.64379000  0.49439000  0.49007000  1.0
  H  H3  1  0.35630000  0.50562000  0.50991000  1.0
  H  H4  1  0.16363000  0.63306000  0.40485000  1.0
  H  H5  1  0.83644000  0.36695000  0.59513000  1.0
  H  H6  1  0.89560000  0.67814000  0.09632000  1.0
  H  H7  1  0.10438000  0.32183000  0.90370000  1.0
  H  H8  1  0.34502000  0.44931000  0.01066000  1.0
  H  H9  1  0.65495000  0.55067000  0.98935000  1.0
  H  H10  1  0.27814000  0.89378000  0.34954000  1.0
  H  H11  1  0.72188000  0.10623000  0.65047000  1.0
  H  H12  1  0.62059000  0.19075000  0.40261000  1.0
  H  H13  1  0.37943000  0.80926000  0.59740000  1.0
  H  H14  1  0.53234000  0.22744000  0.49683000  1.0
  H  H15  1  0.46767000  0.77257000  0.50317000  1.0
  H  H16  1  0.42294000  0.30011000  0.40637000  1.0
  H  H17  1  0.57707000  0.69990000  0.59363000  1.0
  H  H18  1  0.10557000  0.16921000  0.44068000  1.0
  H  H19  1  0.89444000  0.83079000  0.55931000  1.0
  H  H20  1  0.10113000  0.98235000  0.43110000  1.0
  H  H21  1  0.89888000  0.01766000  0.56889000  1.0
  H  H22  1  0.23625000  0.07863000  0.51958000  1.0
  H  H23  1  0.76375000  0.92137000  0.48042000  1.0
  H  H24  1  0.46958000  0.05785000  0.16248000  1.0
  H  H25  1  0.53038000  0.94215000  0.83752000  1.0
  H  H26  1  0.64053000  0.32629000  0.07526000  1.0
  H  H27  1  0.35940000  0.67370000  0.92473000  1.0
  H  H28  1  0.42524000  0.23621000  0.09256000  1.0
  H  H29  1  0.57469000  0.76377000  0.90743000  1.0
  H  H30  1  0.49682000  0.21923000  0.99426000  1.0
  H  H31  1  0.50313000  0.78075000  0.00573000  1.0
  H  H32  1  0.93711000  0.17414000  0.06749000  1.0
  H  H33  1  0.06285000  0.82586000  0.93251000  1.0
  H  H34  1  0.79510000  0.07714000  0.98277000  1.0
  H  H35  1  0.20487000  0.92286000  0.01724000  1.0
  H  H36  1  0.89084000  0.98904000  0.07171000  1.0
  H  H37  1  0.10913000  0.01097000  0.92830000  1.0
  C  C38  1  0.77356000  0.65111000  0.37707000  1.0
  C  C39  1  0.22651000  0.34891000  0.62292000  1.0
  C  C40  1  0.88888000  0.57361000  0.43963000  1.0
  C  C41  1  0.11119000  0.42642000  0.56035000  1.0
  C  C42  1  0.80022000  0.49656000  0.49422000  1.0
  C  C43  1  0.19985000  0.50346000  0.50577000  1.0
  C  C44  1  0.09164000  0.57536000  0.44687000  1.0
  C  C45  1  0.90845000  0.42467000  0.55311000  1.0
  C  C46  1  0.28458000  0.64874000  0.12478000  1.0
  C  C47  1  0.71540000  0.35124000  0.87523000  1.0
  C  C48  1  0.13854000  0.57238000  0.06164000  1.0
  C  C49  1  0.86144000  0.42759000  0.93837000  1.0
  C  C50  1  0.94185000  0.60088000  0.05374000  1.0
  C  C51  1  0.05812000  0.39909000  0.94627000  1.0
  C  C52  1  0.19293000  0.47023000  0.00664000  1.0
  C  C53  1  0.80706000  0.52975000  0.99337000  1.0
  C  C54  1  0.38940000  0.98152000  0.35880000  1.0
  C  C55  1  0.61060000  0.01849000  0.64121000  1.0
  C  C56  1  0.49221000  0.20776000  0.43063000  1.0
  C  C57  1  0.50780000  0.79225000  0.56937000  1.0
  C  C58  1  0.19129000  0.07792000  0.45339000  1.0
  C  C59  1  0.80871000  0.92208000  0.54660000  1.0
  C  C60  1  0.60116000  0.02670000  0.13927000  1.0
  C  C61  1  0.39881000  0.97330000  0.86073000  1.0
  C  C62  1  0.54889000  0.22911000  0.06013000  1.0
  C  C63  1  0.45104000  0.77088000  0.93987000  1.0
  C  C64  1  0.83035000  0.08520000  0.04956000  1.0
  C  C65  1  0.16961000  0.91481000  0.95046000  1.0
  S  S66  1  0.88817000  0.76108000  0.32170000  1.0
  S  S67  1  0.11185000  0.23893000  0.67828000  1.0
  S  S68  1  0.52917000  0.62955000  0.35923000  1.0
  S  S69  1  0.47090000  0.37046000  0.64077000  1.0
  S  S70  1  0.22857000  0.79740000  0.17414000  1.0
  S  S71  1  0.77141000  0.20258000  0.82587000  1.0
  S  S72  1  0.50771000  0.58837000  0.14746000  1.0
  S  S73  1  0.49228000  0.41163000  0.85254000  1.0
  N  N74  1  0.35961000  0.08420000  0.41245000  1.0
  N  N75  1  0.64041000  0.91581000  0.58755000  1.0
  N  N76  1  0.65688000  0.10927000  0.08466000  1.0
  N  N77  1  0.34306000  0.89073000  0.91535000  1.0
  O  O78  1  0.53105000  0.98247000  0.32112000  1.0
  O  O79  1  0.46902000  0.01752000  0.67889000  1.0
  O  O80  1  0.68734000  0.92167000  0.16299000  1.0
  O  O81  1  0.31263000  0.07834000  0.83701000  1.0
