# generated using pymatgen
data_AlH5C12SO6F
_symmetry_space_group_name_H-M   'P 1'
_cell_length_a   6.62066000
_cell_length_b   12.49418554
_cell_length_c   17.67960000
_cell_angle_alpha   94.07697089
_cell_angle_beta   98.42610000
_cell_angle_gamma   101.58571063
_symmetry_Int_Tables_number   1
_chemical_formula_structural   AlH5C12SO6F
_chemical_formula_sum   'Al2 H10 C24 S2 O12 F2'
_cell_volume   1409.54478896
_cell_formula_units_Z   2
loop_
 _symmetry_equiv_pos_site_id
 _symmetry_equiv_pos_as_xyz
  1  'x, y, z'
loop_
 _atom_site_type_symbol
 _atom_site_label
 _atom_site_symmetry_multiplicity
 _atom_site_fract_x
 _atom_site_fract_y
 _atom_site_fract_z
 _atom_site_occupancy
  Al  Al0  1  0.00004000  0.50004000  0.50002000  1.0
  Al  Al1  1  0.50001000  0.50004000  0.50000000  1.0
  H  H2  1  0.31920000  0.62030000  0.56545000  1.0
  H  H3  1  0.68075000  0.37986000  0.43446000  1.0
  H  H4  1  0.86006000  0.55816000  0.27807000  1.0
  H  H5  1  0.77828000  0.55552000  0.13563000  1.0
  H  H6  1  0.37144000  0.46855000  0.11783000  1.0
  H  H7  1  0.62824000  0.53104000  0.88216000  1.0
  H  H8  1  0.14010000  0.44196000  0.72192000  1.0
  H  H9  1  0.22181000  0.44455000  0.86436000  1.0
  H  H10  1  0.60636000  0.11392000  0.45648000  1.0
  H  H11  1  0.39366000  0.88618000  0.54354000  1.0
  C  C12  1  0.82296000  0.69645000  0.50828000  1.0
  C  C13  1  0.80810000  0.48501000  0.63600000  1.0
  C  C14  1  0.17705000  0.30364000  0.49173000  1.0
  C  C15  1  0.19182000  0.51497000  0.36398000  1.0
  C  C16  1  0.15880000  0.51750000  0.27873000  1.0
  C  C17  1  0.97136000  0.54055000  0.24184000  1.0
  C  C18  1  0.92539000  0.53823000  0.16263000  1.0
  C  C19  1  0.06799000  0.51140000  0.11609000  1.0
  C  C20  1  0.25796000  0.48973000  0.15181000  1.0
  C  C21  1  0.29986000  0.49330000  0.23124000  1.0
  C  C22  1  0.02062000  0.50398000  0.03502000  1.0
  C  C23  1  0.97929000  0.49586000  0.96498000  1.0
  C  C24  1  0.93192000  0.48845000  0.88390000  1.0
  C  C25  1  0.74180000  0.50992000  0.84819000  1.0
  C  C26  1  0.69995000  0.50642000  0.76875000  1.0
  C  C27  1  0.84110000  0.48236000  0.72125000  1.0
  C  C28  1  0.02870000  0.45947000  0.75814000  1.0
  C  C29  1  0.07460000  0.46171000  0.83735000  1.0
  C  C30  1  0.90521000  0.12234000  0.47664000  1.0
  C  C31  1  0.09479000  0.87775000  0.52339000  1.0
  C  C32  1  0.10941000  0.18508000  0.49278000  1.0
  C  C33  1  0.89060000  0.81502000  0.50724000  1.0
  C  C34  1  0.09896000  0.98984000  0.51228000  1.0
  C  C35  1  0.90102000  0.01024000  0.48776000  1.0
  S  S36  1  0.29296000  0.10749000  0.52303000  1.0
  S  S37  1  0.70705000  0.89261000  0.47701000  1.0
  O  O38  1  0.96797000  0.64478000  0.52511000  1.0
  O  O39  1  0.64136000  0.51048000  0.60421000  1.0
  O  O40  1  0.37254000  0.34624000  0.50733000  1.0
  O  O41  1  0.04541000  0.53588000  0.39814000  1.0
  O  O42  1  0.03204000  0.35534000  0.47488000  1.0
  O  O43  1  0.35867000  0.48956000  0.39581000  1.0
  O  O44  1  0.62748000  0.65385000  0.49269000  1.0
  O  O45  1  0.95461000  0.46418000  0.60183000  1.0
  O  O46  1  0.28328000  0.54721000  0.53816000  1.0
  O  O47  1  0.71678000  0.45289000  0.46185000  1.0
  O  O48  1  0.73741000  0.16465000  0.45259000  1.0
  O  O49  1  0.26261000  0.83544000  0.54743000  1.0
  F  F50  1  0.48542000  0.47059000  0.26131000  1.0
  F  F51  1  0.51435000  0.52902000  0.73866000  1.0
