# generated using pymatgen
data_GdH8C5O8
_symmetry_space_group_name_H-M   'P 1'
_cell_length_a   9.52311326
_cell_length_b   9.65401000
_cell_length_c   13.73197694
_cell_angle_alpha   80.18766976
_cell_angle_beta   69.78593877
_cell_angle_gamma   60.44744766
_symmetry_Int_Tables_number   1
_chemical_formula_structural   GdH8C5O8
_chemical_formula_sum   'Gd4 H32 C20 O32'
_cell_volume   1030.58245088
_cell_formula_units_Z   4
loop_
 _symmetry_equiv_pos_site_id
 _symmetry_equiv_pos_as_xyz
  1  'x, y, z'
loop_
 _atom_site_type_symbol
 _atom_site_label
 _atom_site_symmetry_multiplicity
 _atom_site_fract_x
 _atom_site_fract_y
 _atom_site_fract_z
 _atom_site_occupancy
  Gd  Gd0  1  0.25103000  0.24988000  0.49758000  1.0
  Gd  Gd1  1  0.49900000  0.24992000  0.00242000  1.0
  Gd  Gd2  1  0.74893000  0.75010000  0.50242000  1.0
  Gd  Gd3  1  0.50095000  0.75010000  0.99758000  1.0
  H  H4  1  0.65506000  0.40436000  0.48590000  1.0
  H  H5  1  0.04534000  0.09670000  0.01371000  1.0
  H  H6  1  0.94061000  0.40432000  0.01407000  1.0
  H  H7  1  0.85794000  0.09674000  0.48629000  1.0
  H  H8  1  0.34494000  0.59561000  0.51409000  1.0
  H  H9  1  0.95462000  0.90334000  0.98630000  1.0
  H  H10  1  0.05936000  0.59571000  0.98594000  1.0
  H  H11  1  0.14209000  0.90322000  0.51368000  1.0
  H  H12  1  0.74349000  0.39880000  0.35169000  1.0
  H  H13  1  0.99469000  0.10147000  0.14791000  1.0
  H  H14  1  0.85773000  0.39879000  0.14828000  1.0
  H  H15  1  0.90382000  0.10149000  0.35209000  1.0
  H  H16  1  0.25652000  0.60117000  0.64830000  1.0
  H  H17  1  0.00531000  0.89855000  0.85209000  1.0
  H  H18  1  0.14225000  0.60123000  0.85173000  1.0
  H  H19  1  0.09618000  0.89849000  0.64789000  1.0
  H  H20  1  0.43481000  0.10292000  0.65890000  1.0
  H  H21  1  0.69637000  0.39722000  0.84113000  1.0
  H  H22  1  0.46197000  0.10304000  0.84116000  1.0
  H  H23  1  0.90633000  0.39712000  0.65884000  1.0
  H  H24  1  0.56509000  0.89701000  0.34113000  1.0
  H  H25  1  0.30353000  0.60283000  0.15885000  1.0
  H  H26  1  0.53784000  0.89703000  0.15888000  1.0
  H  H27  1  0.09362000  0.60283000  0.34114000  1.0
  H  H28  1  0.27498000  0.25436000  0.72037000  1.0
  H  H29  1  0.74964000  0.24559000  0.77972000  1.0
  H  H30  1  0.47146000  0.25410000  0.77978000  1.0
  H  H31  1  0.00549000  0.24585000  0.72015000  1.0
  H  H32  1  0.72536000  0.74579000  0.27972000  1.0
  H  H33  1  0.25094000  0.75425000  0.22021000  1.0
  H  H34  1  0.52901000  0.74576000  0.22031000  1.0
  H  H35  1  0.99494000  0.75430000  0.27976000  1.0
  C  C36  1  0.91131000  0.35511000  0.43644000  1.0
  C  C37  1  0.20316000  0.14534000  0.06346000  1.0
  C  C38  1  0.73357000  0.35510000  0.06355000  1.0
  C  C39  1  0.65147000  0.14534000  0.43655000  1.0
  C  C40  1  0.08869000  0.64485000  0.56356000  1.0
  C  C41  1  0.79679000  0.85472000  0.93654000  1.0
  C  C42  1  0.26638000  0.64495000  0.93647000  1.0
  C  C43  1  0.34853000  0.85463000  0.56343000  1.0
  C  C44  1  0.77045000  0.33602000  0.42306000  1.0
  C  C45  1  0.02988000  0.16464000  0.07674000  1.0
  C  C46  1  0.89354000  0.33599000  0.07692000  1.0
  C  C47  1  0.80545000  0.16466000  0.42326000  1.0
  C  C48  1  0.22956000  0.66395000  0.57692000  1.0
  C  C49  1  0.97008000  0.83539000  0.92327000  1.0
  C  C50  1  0.10642000  0.66405000  0.92309000  1.0
  C  C51  1  0.19456000  0.83530000  0.57673000  1.0
  C  C52  1  0.32903000  0.34194000  0.25001000  1.0
  C  C53  1  0.42118000  0.15765000  0.25000000  1.0
  C  C54  1  0.67098000  0.65805000  0.75001000  1.0
  C  C55  1  0.57884000  0.84235000  0.75001000  1.0
  O  O56  1  0.05034000  0.23405000  0.43846000  1.0
  O  O57  1  0.22332000  0.26627000  0.06149000  1.0
  O  O58  1  0.71560000  0.23404000  0.06151000  1.0
  O  O59  1  0.51038000  0.26626000  0.43854000  1.0
  O  O60  1  0.94966000  0.76593000  0.56151000  1.0
  O  O61  1  0.77663000  0.73377000  0.93855000  1.0
  O  O62  1  0.28437000  0.76601000  0.93846000  1.0
  O  O63  1  0.48963000  0.73368000  0.56148000  1.0
  O  O64  1  0.88111000  0.49694000  0.44709000  1.0
  O  O65  1  0.32526000  0.00342000  0.05291000  1.0
  O  O66  1  0.62194000  0.49695000  0.05293000  1.0
  O  O67  1  0.67134000  0.00340000  0.44707000  1.0
  O  O68  1  0.11887000  0.50302000  0.55296000  1.0
  O  O69  1  0.67472000  0.99665000  0.94703000  1.0
  O  O70  1  0.37801000  0.50311000  0.94712000  1.0
  O  O71  1  0.32872000  0.99652000  0.55286000  1.0
  O  O72  1  0.24766000  0.41060000  0.33740000  1.0
  O  O73  1  0.49665000  0.08897000  0.16258000  1.0
  O  O74  1  0.34174000  0.41062000  0.16261000  1.0
  O  O75  1  0.41440000  0.08895000  0.33741000  1.0
  O  O76  1  0.75237000  0.58939000  0.66260000  1.0
  O  O77  1  0.50337000  0.91102000  0.83742000  1.0
  O  O78  1  0.65827000  0.58939000  0.83740000  1.0
  O  O79  1  0.58562000  0.91104000  0.66258000  1.0
  O  O80  1  0.35243000  0.21718000  0.65124000  1.0
  O  O81  1  0.72083000  0.28290000  0.84884000  1.0
  O  O82  1  0.42976000  0.21741000  0.84878000  1.0
  O  O83  1  0.99597000  0.28271000  0.65116000  1.0
  O  O84  1  0.64732000  0.78267000  0.34877000  1.0
  O  O85  1  0.27890000  0.71720000  0.15116000  1.0
  O  O86  1  0.56986000  0.78273000  0.15124000  1.0
  O  O87  1  0.00385000  0.71718000  0.34883000  1.0
