# generated using pymatgen
data_CdH20C18(NO5)2
_symmetry_space_group_name_H-M   'P 1'
_cell_length_a   9.39874626
_cell_length_b   9.40215000
_cell_length_c   14.02260000
_cell_angle_alpha   74.27600000
_cell_angle_beta   74.26551951
_cell_angle_gamma   62.53983870
_symmetry_Int_Tables_number   1
_chemical_formula_structural   CdH20C18(NO5)2
_chemical_formula_sum   'Cd2 H40 C36 N4 O20'
_cell_volume   1042.77223799
_cell_formula_units_Z   2
loop_
 _symmetry_equiv_pos_site_id
 _symmetry_equiv_pos_as_xyz
  1  'x, y, z'
loop_
 _atom_site_type_symbol
 _atom_site_label
 _atom_site_symmetry_multiplicity
 _atom_site_fract_x
 _atom_site_fract_y
 _atom_site_fract_z
 _atom_site_occupancy
  Cd  Cd0  1  0.63310000  0.36690000  0.74999000  1.0
  Cd  Cd1  1  0.36690000  0.63310000  0.25001000  1.0
  H  H2  1  0.39874000  0.28513000  0.74883000  1.0
  H  H3  1  0.71502000  0.60097000  0.75121000  1.0
  H  H4  1  0.60126000  0.71487000  0.25117000  1.0
  H  H5  1  0.28498000  0.39903000  0.24879000  1.0
  H  H6  1  0.53119000  0.11657000  0.79808000  1.0
  H  H7  1  0.88371000  0.46860000  0.70190000  1.0
  H  H8  1  0.46881000  0.88343000  0.20192000  1.0
  H  H9  1  0.11629000  0.53141000  0.29809000  1.0
  H  H10  1  0.93196000  0.03120000  0.39603000  1.0
  H  H11  1  0.96868000  0.06824000  0.10393000  1.0
  H  H12  1  0.06804000  0.96879000  0.60397000  1.0
  H  H13  1  0.03133000  0.93175000  0.89607000  1.0
  H  H14  1  0.93355000  0.88342000  0.27142000  1.0
  H  H15  1  0.11652000  0.06643000  0.22859000  1.0
  H  H16  1  0.06644000  0.11658000  0.72858000  1.0
  H  H17  1  0.88349000  0.93356000  0.77141000  1.0
  H  H18  1  0.66856000  0.91595000  0.24326000  1.0
  H  H19  1  0.08435000  0.33115000  0.25681000  1.0
  H  H20  1  0.33143000  0.08405000  0.75675000  1.0
  H  H21  1  0.91566000  0.66884000  0.74319000  1.0
  H  H22  1  0.40603000  0.09466000  0.34524000  1.0
  H  H23  1  0.90571000  0.59374000  0.15486000  1.0
  H  H24  1  0.59396000  0.90535000  0.65476000  1.0
  H  H25  1  0.09430000  0.40625000  0.84514000  1.0
  H  H26  1  0.42675000  0.23623000  0.46410000  1.0
  H  H27  1  0.76408000  0.57326000  0.03595000  1.0
  H  H28  1  0.57325000  0.76378000  0.53591000  1.0
  H  H29  1  0.23593000  0.42673000  0.96405000  1.0
  H  H30  1  0.56101000  0.28411000  0.54138000  1.0
  H  H31  1  0.71619000  0.43910000  0.95850000  1.0
  H  H32  1  0.43899000  0.71590000  0.45863000  1.0
  H  H33  1  0.28381000  0.56090000  0.04150000  1.0
  H  H34  1  0.77041000  0.39428000  0.51130000  1.0
  H  H35  1  0.60557000  0.23020000  0.98858000  1.0
  H  H36  1  0.22959000  0.60572000  0.48870000  1.0
  H  H37  1  0.39443000  0.76980000  0.01142000  1.0
  H  H38  1  0.88363000  0.28382000  0.41298000  1.0
  H  H39  1  0.71600000  0.11677000  0.08686000  1.0
  H  H40  1  0.11638000  0.71617000  0.58702000  1.0
  H  H41  1  0.28400000  0.88323000  0.91314000  1.0
  C  C42  1  0.82053000  0.03784000  0.38253000  1.0
  C  C43  1  0.96209000  0.17962000  0.11748000  1.0
  C  C44  1  0.17947000  0.96216000  0.61746000  1.0
  C  C45  1  0.03791000  0.82038000  0.88253000  1.0
  C  C46  1  0.81858000  0.95682000  0.31426000  1.0
  C  C47  1  0.04317000  0.18143000  0.18579000  1.0
  C  C48  1  0.18141000  0.04317000  0.68574000  1.0
  C  C49  1  0.95683000  0.81857000  0.81421000  1.0
  C  C50  1  0.66972000  0.97629000  0.29904000  1.0
  C  C51  1  0.02390000  0.33015000  0.20103000  1.0
  C  C52  1  0.33027000  0.02372000  0.70096000  1.0
  C  C53  1  0.97610000  0.66985000  0.79897000  1.0
  C  C54  1  0.52567000  0.07525000  0.35385000  1.0
  C  C55  1  0.92504000  0.47420000  0.14623000  1.0
  C  C56  1  0.47432000  0.92476000  0.64615000  1.0
  C  C57  1  0.07497000  0.52579000  0.85377000  1.0
  C  C58  1  0.53393000  0.15424000  0.42099000  1.0
  C  C59  1  0.84602000  0.46608000  0.07905000  1.0
  C  C60  1  0.46607000  0.84576000  0.57902000  1.0
  C  C61  1  0.15398000  0.53392000  0.92095000  1.0
  C  C62  1  0.68714000  0.21969000  0.50600000  1.0
  C  C63  1  0.78045000  0.31303000  0.99393000  1.0
  C  C64  1  0.31286000  0.78031000  0.49400000  1.0
  C  C65  1  0.21955000  0.68697000  0.00608000  1.0
  C  C66  1  0.78029000  0.09437000  0.59054000  1.0
  C  C67  1  0.90584000  0.21968000  0.90942000  1.0
  C  C68  1  0.21971000  0.90563000  0.40946000  1.0
  C  C69  1  0.09416000  0.78032000  0.09058000  1.0
  C  C70  1  0.75904000  0.34350000  0.45332000  1.0
  C  C71  1  0.65642000  0.24137000  0.04660000  1.0
  C  C72  1  0.24096000  0.65650000  0.54668000  1.0
  C  C73  1  0.34358000  0.75864000  0.95340000  1.0
  C  C74  1  0.65536000  0.48361000  0.38133000  1.0
  C  C75  1  0.51630000  0.34502000  0.11861000  1.0
  C  C76  1  0.34465000  0.51638000  0.61866000  1.0
  C  C77  1  0.48371000  0.65498000  0.88139000  1.0
  N  N78  1  0.67973000  0.13515000  0.43383000  1.0
  N  N79  1  0.86497000  0.32041000  0.06614000  1.0
  N  N80  1  0.32027000  0.86485000  0.56616000  1.0
  N  N81  1  0.13503000  0.67959000  0.93386000  1.0
  O  O82  1  0.78455000  0.15565000  0.66022000  1.0
  O  O83  1  0.84455000  0.21533000  0.83978000  1.0
  O  O84  1  0.21545000  0.84437000  0.33978000  1.0
  O  O85  1  0.15545000  0.78467000  0.16023000  1.0
  O  O86  1  0.84473000  0.94588000  0.58601000  1.0
  O  O87  1  0.05437000  0.15519000  0.91401000  1.0
  O  O88  1  0.15526000  0.05412000  0.41400000  1.0
  O  O89  1  0.94563000  0.84480000  0.08599000  1.0
  O  O90  1  0.53115000  0.47445000  0.36751000  1.0
  O  O91  1  0.52546000  0.46922000  0.13237000  1.0
  O  O92  1  0.46885000  0.52555000  0.63249000  1.0
  O  O93  1  0.47455000  0.53077000  0.86763000  1.0
  O  O94  1  0.40067000  0.30194000  0.15875000  1.0
  O  O95  1  0.69847000  0.59916000  0.34123000  1.0
  O  O96  1  0.59932000  0.69808000  0.84125000  1.0
  O  O97  1  0.30154000  0.40083000  0.65876000  1.0
  O  O98  1  0.46077000  0.22823000  0.80815000  1.0
  O  O99  1  0.77202000  0.53897000  0.69186000  1.0
  O  O100  1  0.53923000  0.77177000  0.19185000  1.0
  O  O101  1  0.22797000  0.46104000  0.30814000  1.0
