# generated using pymatgen
data_CdH17C17N5O4
_symmetry_space_group_name_H-M   'P 1'
_cell_length_a   12.04110000
_cell_length_b   12.05120000
_cell_length_c   15.92530000
_cell_angle_alpha   105.66400000
_cell_angle_beta   105.07700000
_cell_angle_gamma   107.37500000
_symmetry_Int_Tables_number   1
_chemical_formula_structural   CdH17C17N5O4
_chemical_formula_sum   'Cd4 H68 C68 N20 O16'
_cell_volume   1972.17393010
_cell_formula_units_Z   4
loop_
 _symmetry_equiv_pos_site_id
 _symmetry_equiv_pos_as_xyz
  1  'x, y, z'
loop_
 _atom_site_type_symbol
 _atom_site_label
 _atom_site_symmetry_multiplicity
 _atom_site_fract_x
 _atom_site_fract_y
 _atom_site_fract_z
 _atom_site_occupancy
  Cd  Cd0  1  0.19974000  0.82885000  0.37617000  1.0
  Cd  Cd1  1  0.45297000  0.32330000  0.12369000  1.0
  Cd  Cd2  1  0.80026000  0.17115000  0.62383000  1.0
  Cd  Cd3  1  0.54704000  0.67670000  0.87630000  1.0
  H  H4  1  0.58672000  0.11331000  0.42894000  1.0
  H  H5  1  0.75531000  0.29248000  0.42518000  1.0
  H  H6  1  0.69715000  0.38400000  0.30385000  1.0
  H  H7  1  0.03214000  0.75630000  0.50729000  1.0
  H  H8  1  0.26438000  0.11978000  0.54605000  1.0
  H  H9  1  0.14733000  0.13915000  0.67641000  1.0
  H  H10  1  0.92434000  0.80043000  0.61763000  1.0
  H  H11  1  0.93896000  0.95508000  0.67237000  1.0
  H  H12  1  0.14011000  0.00149000  0.79684000  1.0
  H  H13  1  0.01259000  0.87824000  0.79305000  1.0
  H  H14  1  0.48776000  0.36694000  0.44641000  1.0
  H  H15  1  0.58502000  0.50617000  0.44239000  1.0
  H  H16  1  0.38782000  0.39758000  0.30326000  1.0
  H  H17  1  0.29754000  0.39975000  0.37521000  1.0
  H  H18  1  0.21745000  0.56661000  0.39207000  1.0
  H  H19  1  0.49517000  0.85236000  0.36712000  1.0
  H  H20  1  0.56056000  0.64617000  0.34741000  1.0
  H  H21  1  0.68448000  0.65808000  0.07092000  1.0
  H  H22  1  0.86777000  0.83036000  0.07494000  1.0
  H  H23  1  0.08050000  0.89318000  0.19632000  1.0
  H  H24  1  0.24877000  0.02467000  0.99266000  1.0
  H  H25  1  0.57380000  0.21788000  0.95382000  1.0
  H  H26  1  0.46274000  0.97080000  0.82341000  1.0
  H  H27  1  0.18255000  0.80673000  0.88222000  1.0
  H  H28  1  0.28264000  0.76669000  0.82750000  1.0
  H  H29  1  0.20466000  0.84339000  0.70304000  1.0
  H  H30  1  0.08511000  0.71971000  0.70680000  1.0
  H  H31  1  0.92094000  0.54195000  0.05388000  1.0
  H  H32  1  0.06434000  0.64251000  0.05746000  1.0
  H  H33  1  0.09476000  0.58466000  0.19677000  1.0
  H  H34  1  0.02461000  0.42256000  0.12486000  1.0
  H  H35  1  0.17471000  0.32529000  0.10801000  1.0
  H  H36  1  0.48550000  0.62725000  0.13229000  1.0
  H  H37  1  0.29900000  0.71252000  0.15203000  1.0
  H  H38  1  0.41327000  0.88668000  0.57106000  1.0
  H  H39  1  0.24468000  0.70752000  0.57482000  1.0
  H  H40  1  0.30285000  0.61600000  0.69616000  1.0
  H  H41  1  0.96786000  0.24370000  0.49271000  1.0
  H  H42  1  0.73563000  0.88022000  0.45396000  1.0
  H  H43  1  0.85267000  0.86085000  0.32360000  1.0
  H  H44  1  0.07566000  0.19956000  0.38237000  1.0
  H  H45  1  0.06103000  0.04491000  0.32763000  1.0
  H  H46  1  0.85989000  0.99850000  0.20316000  1.0
  H  H47  1  0.98741000  0.12175000  0.20694000  1.0
  H  H48  1  0.51223000  0.63306000  0.55359000  1.0
  H  H49  1  0.41498000  0.49382000  0.55762000  1.0
  H  H50  1  0.61218000  0.60242000  0.69675000  1.0
  H  H51  1  0.70245000  0.60026000  0.62479000  1.0
  H  H52  1  0.78255000  0.43340000  0.60792000  1.0
  H  H53  1  0.50485000  0.14765000  0.63289000  1.0
  H  H54  1  0.43945000  0.35383000  0.65260000  1.0
  H  H55  1  0.31553000  0.34194000  0.92908000  1.0
  H  H56  1  0.13225000  0.16965000  0.92506000  1.0
  H  H57  1  0.91951000  0.10684000  0.80369000  1.0
  H  H58  1  0.75123000  0.97533000  0.00734000  1.0
  H  H59  1  0.42621000  0.78212000  0.04618000  1.0
  H  H60  1  0.53727000  0.02920000  0.17659000  1.0
  H  H61  1  0.81745000  0.19328000  0.11778000  1.0
  H  H62  1  0.71737000  0.23331000  0.17250000  1.0
  H  H63  1  0.79533000  0.15660000  0.29696000  1.0
  H  H64  1  0.91489000  0.28029000  0.29320000  1.0
  H  H65  1  0.07906000  0.45805000  0.94613000  1.0
  H  H66  1  0.93566000  0.35748000  0.94255000  1.0
  H  H67  1  0.90524000  0.41533000  0.80323000  1.0
  H  H68  1  0.97538000  0.57743000  0.87515000  1.0
  H  H69  1  0.82528000  0.67469000  0.89198000  1.0
  H  H70  1  0.51449000  0.37274000  0.86771000  1.0
  H  H71  1  0.70099000  0.28747000  0.84797000  1.0
  C  C72  1  0.34339000  0.00571000  0.32063000  1.0
  C  C73  1  0.44091000  0.11468000  0.31730000  1.0
  C  C74  1  0.56505000  0.15697000  0.37864000  1.0
  C  C75  1  0.65878000  0.25586000  0.37646000  1.0
  C  C76  1  0.62704000  0.30798000  0.31018000  1.0
  C  C77  1  0.41488000  0.17428000  0.25470000  1.0
  C  C78  1  0.28010000  0.14401000  0.19304000  1.0
  C  C79  1  0.08052000  0.85771000  0.53567000  1.0
  C  C80  1  0.19953000  0.04748000  0.55852000  1.0
  C  C81  1  0.14174000  0.05793000  0.62264000  1.0
  C  C82  1  0.99262000  0.89692000  0.66143000  1.0
  C  C83  1  0.07472000  0.90313000  0.75513000  1.0
  C  C84  1  0.49713000  0.46251000  0.45188000  1.0
  C  C85  1  0.38719000  0.45021000  0.37094000  1.0
  C  C86  1  0.30292000  0.61786000  0.38463000  1.0
  C  C87  1  0.44891000  0.76364000  0.37203000  1.0
  C  C88  1  0.48353000  0.66357000  0.36344000  1.0
  C  C89  1  0.68498000  0.52269000  0.17906000  1.0
  C  C90  1  0.79731000  0.62362000  0.18251000  1.0
  C  C91  1  0.77842000  0.68655000  0.12127000  1.0
  C  C92  1  0.87966000  0.78241000  0.12357000  1.0
  C  C93  1  0.99802000  0.81678000  0.18988000  1.0
  C  C94  1  0.91947000  0.66001000  0.24515000  1.0
  C  C95  1  0.95076000  0.58681000  0.30671000  1.0
  C  C96  1  0.32190000  0.04463000  0.96427000  1.0
  C  C97  1  0.48897000  0.14067000  0.94137000  1.0
  C  C98  1  0.43524000  0.01892000  0.87721000  1.0
  C  C99  1  0.23536000  0.83123000  0.83845000  1.0
  C  C100  1  0.14789000  0.81967000  0.74473000  1.0
  C  C101  1  0.01090000  0.54538000  0.04816000  1.0
  C  C102  1  0.07953000  0.51631000  0.12903000  1.0
  C  C103  1  0.23338000  0.41806000  0.11529000  1.0
  C  C104  1  0.39185000  0.57627000  0.12756000  1.0
  C  C105  1  0.30037000  0.61955000  0.13615000  1.0
  C  C106  1  0.65661000  0.99429000  0.67937000  1.0
  C  C107  1  0.55908000  0.88531000  0.68269000  1.0
  C  C108  1  0.43494000  0.84303000  0.62135000  1.0
  C  C109  1  0.34121000  0.74414000  0.62354000  1.0
  C  C110  1  0.37296000  0.69203000  0.68982000  1.0
  C  C111  1  0.58512000  0.82571000  0.74529000  1.0
  C  C112  1  0.71990000  0.85598000  0.80695000  1.0
  C  C113  1  0.91947000  0.14229000  0.46432000  1.0
  C  C114  1  0.80047000  0.95252000  0.44148000  1.0
  C  C115  1  0.85827000  0.94207000  0.37737000  1.0
  C  C116  1  0.00738000  0.10307000  0.33857000  1.0
  C  C117  1  0.92528000  0.09687000  0.24487000  1.0
  C  C118  1  0.50286000  0.53750000  0.54812000  1.0
  C  C119  1  0.61281000  0.54979000  0.62906000  1.0
  C  C120  1  0.69708000  0.38215000  0.61537000  1.0
  C  C121  1  0.55110000  0.23637000  0.62798000  1.0
  C  C122  1  0.51648000  0.33644000  0.63657000  1.0
  C  C123  1  0.31501000  0.47732000  0.82092000  1.0
  C  C124  1  0.20269000  0.37639000  0.81749000  1.0
  C  C125  1  0.22159000  0.31347000  0.87874000  1.0
  C  C126  1  0.12035000  0.21760000  0.87644000  1.0
  C  C127  1  0.00199000  0.18323000  0.81012000  1.0
  C  C128  1  0.08053000  0.34000000  0.75485000  1.0
  C  C129  1  0.04924000  0.41320000  0.69329000  1.0
  C  C130  1  0.67811000  0.95537000  0.03572000  1.0
  C  C131  1  0.51104000  0.85933000  0.05863000  1.0
  C  C132  1  0.56477000  0.98108000  0.12279000  1.0
  C  C133  1  0.76465000  0.16877000  0.16156000  1.0
  C  C134  1  0.85211000  0.18033000  0.25527000  1.0
  C  C135  1  0.98910000  0.45461000  0.95184000  1.0
  C  C136  1  0.92046000  0.48368000  0.87097000  1.0
  C  C137  1  0.76661000  0.58193000  0.88471000  1.0
  C  C138  1  0.60814000  0.42371000  0.87244000  1.0
  C  C139  1  0.69962000  0.38044000  0.86386000  1.0
  N  N140  1  0.16065000  0.92193000  0.50493000  1.0
  N  N141  1  0.06613000  0.93663000  0.60677000  1.0
  N  N142  1  0.38964000  0.57217000  0.37150000  1.0
  N  N143  1  0.33621000  0.73398000  0.38491000  1.0
  N  N144  1  0.50809000  0.26631000  0.25085000  1.0
  N  N145  1  0.41699000  0.15536000  0.99502000  1.0
  N  N146  1  0.32972000  0.95926000  0.89310000  1.0
  N  N147  1  0.20087000  0.51785000  0.12830000  1.0
  N  N148  1  0.34925000  0.45089000  0.11488000  1.0
  N  N149  1  0.01550000  0.75706000  0.24914000  1.0
  N  N150  1  0.83935000  0.07807000  0.49508000  1.0
  N  N151  1  0.93387000  0.06337000  0.39323000  1.0
  N  N152  1  0.61037000  0.42783000  0.62850000  1.0
  N  N153  1  0.66379000  0.26603000  0.61509000  1.0
  N  N154  1  0.49191000  0.73368000  0.74914000  1.0
  N  N155  1  0.58301000  0.84464000  0.00497000  1.0
  N  N156  1  0.67028000  0.04075000  0.10689000  1.0
  N  N157  1  0.79913000  0.48214000  0.87171000  1.0
  N  N158  1  0.65074000  0.54910000  0.88512000  1.0
  N  N159  1  0.98450000  0.24295000  0.75087000  1.0
  O  O160  1  0.31514000  0.02865000  0.39393000  1.0
  O  O161  1  0.30597000  0.89885000  0.25764000  1.0
  O  O162  1  0.26639000  0.18539000  0.12647000  1.0
  O  O163  1  0.19452000  0.08471000  0.21456000  1.0
  O  O164  1  0.63472000  0.42139000  0.10564000  1.0
  O  O165  1  0.64105000  0.54780000  0.24214000  1.0
  O  O166  1  0.05859000  0.63969000  0.37344000  1.0
  O  O167  1  0.87002000  0.47966000  0.28499000  1.0
  O  O168  1  0.68485000  0.97136000  0.60606000  1.0
  O  O169  1  0.69403000  0.10114000  0.74236000  1.0
  O  O170  1  0.73361000  0.81460000  0.87352000  1.0
  O  O171  1  0.80548000  0.91527000  0.78542000  1.0
  O  O172  1  0.36527000  0.57862000  0.89434000  1.0
  O  O173  1  0.35895000  0.45219000  0.75785000  1.0
  O  O174  1  0.94141000  0.36031000  0.62656000  1.0
  O  O175  1  0.12998000  0.52034000  0.71500000  1.0
