# generated using pymatgen
data_AlH11C12NO5
_symmetry_space_group_name_H-M   'P 1'
_cell_length_a   6.62623000
_cell_length_b   11.00011543
_cell_length_c   16.98330000
_cell_angle_alpha   86.51854289
_cell_angle_beta   82.47180000
_cell_angle_gamma   72.58873603
_symmetry_Int_Tables_number   1
_chemical_formula_structural   AlH11C12NO5
_chemical_formula_sum   'Al2 H22 C24 N2 O10'
_cell_volume   1170.69770642
_cell_formula_units_Z   2
loop_
 _symmetry_equiv_pos_site_id
 _symmetry_equiv_pos_as_xyz
  1  'x, y, z'
loop_
 _atom_site_type_symbol
 _atom_site_label
 _atom_site_symmetry_multiplicity
 _atom_site_fract_x
 _atom_site_fract_y
 _atom_site_fract_z
 _atom_site_occupancy
  Al  Al0  1  0.49712000  0.49998000  0.49807000  1.0
  Al  Al1  1  0.00063000  0.49198000  0.49837000  1.0
  H  H2  1  0.17961000  0.64665000  0.45557000  1.0
  H  H3  1  0.75074000  0.42089000  0.59153000  1.0
  H  H4  1  0.87576000  0.45015000  0.74148000  1.0
  H  H5  1  0.82467000  0.44848000  0.89078000  1.0
  H  H6  1  0.38040000  0.57364000  0.89046000  1.0
  H  H7  1  0.43435000  0.57241000  0.74052000  1.0
  H  H8  1  0.55300000  0.55345000  0.10794000  1.0
  H  H9  1  0.23243000  0.43721000  0.10997000  1.0
  H  H10  1  0.18071000  0.42691000  0.25980000  1.0
  H  H11  1  0.50225000  0.54299000  0.25828000  1.0
  H  H12  1  0.33630000  0.11642000  0.62304000  1.0
  H  H13  1  0.15534000  0.09982000  0.55978000  1.0
  H  H14  1  0.28856000  0.87889000  0.58417000  1.0
  H  H15  1  0.50591000  0.89727000  0.62747000  1.0
  H  H16  1  0.29874000  0.89885000  0.43429000  1.0
  H  H17  1  0.54288000  0.88024000  0.37309000  1.0
  H  H18  1  0.23453000  0.11906000  0.41092000  1.0
  H  H19  1  0.50156000  0.09908000  0.36937000  1.0
  H  H20  1  0.71977000  0.09719000  0.56109000  1.0
  H  H21  1  0.77585000  0.11631000  0.45802000  1.0
  H  H22  1  0.86132000  0.89629000  0.43822000  1.0
  H  H23  1  0.86166000  0.87683000  0.54185000  1.0
  C  C24  1  0.63125000  0.72877000  0.50025000  1.0
  C  C25  1  0.80948000  0.48425000  0.35552000  1.0
  C  C26  1  0.37261000  0.26688000  0.49538000  1.0
  C  C27  1  0.19052000  0.50687000  0.64398000  1.0
  C  C28  1  0.15810000  0.51118000  0.73256000  1.0
  C  C29  1  0.98461000  0.47756000  0.77473000  1.0
  C  C30  1  0.95512000  0.47718000  0.85703000  1.0
  C  C31  1  0.09849000  0.51274000  0.89852000  1.0
  C  C32  1  0.27179000  0.54678000  0.85667000  1.0
  C  C33  1  0.30137000  0.54586000  0.77405000  1.0
  C  C34  1  0.68831000  0.52611000  0.14235000  1.0
  C  C35  1  0.89457000  0.49850000  0.10120000  1.0
  C  C36  1  0.07400000  0.46118000  0.14321000  1.0
  C  C37  1  0.04526000  0.45528000  0.22556000  1.0
  C  C38  1  0.83881000  0.48580000  0.26691000  1.0
  C  C39  1  0.66054000  0.52049000  0.22494000  1.0
  C  C40  1  0.32475000  0.07121000  0.56841000  1.0
  C  C41  1  0.41647000  0.92463000  0.57573000  1.0
  C  C42  1  0.56802000  0.87344000  0.50008000  1.0
  C  C43  1  0.44717000  0.92578000  0.42721000  1.0
  C  C44  1  0.40138000  0.07232000  0.42029000  1.0
  C  C45  1  0.44858000  0.12220000  0.49703000  1.0
  C  C46  1  0.68855000  0.07004000  0.50360000  1.0
  C  C47  1  0.76247000  0.92368000  0.49529000  1.0
  N  N48  1  0.08433000  0.51243000  0.98227000  1.0
  N  N49  1  0.90591000  0.50770000  0.01762000  1.0
  O  O50  1  0.48087000  0.67714000  0.50735000  1.0
  O  O51  1  0.97516000  0.46638000  0.39029000  1.0
  O  O52  1  0.17210000  0.31969000  0.50290000  1.0
  O  O53  1  0.37705000  0.49877000  0.60971000  1.0
  O  O54  1  0.51209000  0.32605000  0.48763000  1.0
  O  O55  1  0.02886000  0.50988000  0.60973000  1.0
  O  O56  1  0.82938000  0.66887000  0.49141000  1.0
  O  O57  1  0.62034000  0.50377000  0.38997000  1.0
  O  O58  1  0.22873000  0.55525000  0.46517000  1.0
  O  O59  1  0.76061000  0.44385000  0.53550000  1.0
