# generated using pymatgen
data_H4PdC8N4(OF)2
_symmetry_space_group_name_H-M   'P 1'
_cell_length_a   16.35930000
_cell_length_b   16.35930000
_cell_length_c   16.35930000
_cell_angle_alpha   90.00010000
_cell_angle_beta   90.00010000
_cell_angle_gamma   89.99990000
_symmetry_Int_Tables_number   1
_chemical_formula_structural   H4PdC8N4(OF)2
_chemical_formula_sum   'H48 Pd12 C96 N48 O24 F24'
_cell_volume   4378.18541587
_cell_formula_units_Z   12
loop_
 _symmetry_equiv_pos_site_id
 _symmetry_equiv_pos_as_xyz
  1  'x, y, z'
loop_
 _atom_site_type_symbol
 _atom_site_label
 _atom_site_symmetry_multiplicity
 _atom_site_fract_x
 _atom_site_fract_y
 _atom_site_fract_z
 _atom_site_occupancy
  H  H0  1  0.92672000  0.08195000  0.76089000  1.0
  H  H1  1  0.57328000  0.41804000  0.76089000  1.0
  H  H2  1  0.92672000  0.41805000  0.73911000  1.0
  H  H3  1  0.57328000  0.08195000  0.73911000  1.0
  H  H4  1  0.08195000  0.76089000  0.92672000  1.0
  H  H5  1  0.41805000  0.76089000  0.57328000  1.0
  H  H6  1  0.41804000  0.73911000  0.92672000  1.0
  H  H7  1  0.08195000  0.73911000  0.57327000  1.0
  H  H8  1  0.76089000  0.92673000  0.08195000  1.0
  H  H9  1  0.76089000  0.57328000  0.41805000  1.0
  H  H10  1  0.73911000  0.92672000  0.41805000  1.0
  H  H11  1  0.73911000  0.57328000  0.08195000  1.0
  H  H12  1  0.58195000  0.42672000  0.23911000  1.0
  H  H13  1  0.91805000  0.07328000  0.23911000  1.0
  H  H14  1  0.91805000  0.42672000  0.26089000  1.0
  H  H15  1  0.58195000  0.07328000  0.26089000  1.0
  H  H16  1  0.26089000  0.58196000  0.07328000  1.0
  H  H17  1  0.26089000  0.91805000  0.42672000  1.0
  H  H18  1  0.23911000  0.91805000  0.07328000  1.0
  H  H19  1  0.23911000  0.58195000  0.42672000  1.0
  H  H20  1  0.42672000  0.26089000  0.91805000  1.0
  H  H21  1  0.07328000  0.26089000  0.58195000  1.0
  H  H22  1  0.42672000  0.23911000  0.58195000  1.0
  H  H23  1  0.07327000  0.23911000  0.91805000  1.0
  H  H24  1  0.07328000  0.91805000  0.23911000  1.0
  H  H25  1  0.42673000  0.58195000  0.23911000  1.0
  H  H26  1  0.07328000  0.58195000  0.26089000  1.0
  H  H27  1  0.42672000  0.91804000  0.26089000  1.0
  H  H28  1  0.91804000  0.23911000  0.07328000  1.0
  H  H29  1  0.58195000  0.23911000  0.42672000  1.0
  H  H30  1  0.58196000  0.26089000  0.07328000  1.0
  H  H31  1  0.91805000  0.26089000  0.42672000  1.0
  H  H32  1  0.23911000  0.07328000  0.91805000  1.0
  H  H33  1  0.23911000  0.42673000  0.58195000  1.0
  H  H34  1  0.26089000  0.07328000  0.58195000  1.0
  H  H35  1  0.26089000  0.42672000  0.91805000  1.0
  H  H36  1  0.41805000  0.57328000  0.76089000  1.0
  H  H37  1  0.08196000  0.92672000  0.76089000  1.0
  H  H38  1  0.08195000  0.57328000  0.73911000  1.0
  H  H39  1  0.41805000  0.92672000  0.73911000  1.0
  H  H40  1  0.73911000  0.41805000  0.92672000  1.0
  H  H41  1  0.73911000  0.08195000  0.57328000  1.0
  H  H42  1  0.76089000  0.08195000  0.92672000  1.0
  H  H43  1  0.76089000  0.41805000  0.57328000  1.0
  H  H44  1  0.57328000  0.73911000  0.08195000  1.0
  H  H45  1  0.92672000  0.73911000  0.41805000  1.0
  H  H46  1  0.57328000  0.76089000  0.41805000  1.0
  H  H47  1  0.92672000  0.76089000  0.08195000  1.0
  Pd  Pd48  1  0.75000000  0.25000000  0.50000000  1.0
  Pd  Pd49  1  0.75000000  0.25000000  0.00000000  1.0
  Pd  Pd50  1  0.25000000  0.50000000  0.75000000  1.0
  Pd  Pd51  1  0.25000000  0.00000000  0.75000000  1.0
  Pd  Pd52  1  0.50000000  0.75000000  0.25000000  1.0
  Pd  Pd53  1  0.00000000  0.75000000  0.25000000  1.0
  Pd  Pd54  1  0.25000000  0.75000000  0.50000000  1.0
  Pd  Pd55  1  0.25000000  0.75000000  0.00000000  1.0
  Pd  Pd56  1  0.75000000  0.50000000  0.25000000  1.0
  Pd  Pd57  1  0.75000000  0.00000000  0.25000000  1.0
  Pd  Pd58  1  0.50000000  0.25000000  0.75000000  1.0
  Pd  Pd59  1  0.00000000  0.25000000  0.75000000  1.0
  C  C60  1  0.60982000  0.28959000  0.39308000  1.0
  C  C61  1  0.89018000  0.21041000  0.39308000  1.0
  C  C62  1  0.60982000  0.21041000  0.10692000  1.0
  C  C63  1  0.89019000  0.28959000  0.10692000  1.0
  C  C64  1  0.28959000  0.39308000  0.60982000  1.0
  C  C65  1  0.21041000  0.39308000  0.89018000  1.0
  C  C66  1  0.21041000  0.10692000  0.60982000  1.0
  C  C67  1  0.28959000  0.10692000  0.89019000  1.0
  C  C68  1  0.39308000  0.60982000  0.28959000  1.0
  C  C69  1  0.39308000  0.89018000  0.21041000  1.0
  C  C70  1  0.10692000  0.60982000  0.21041000  1.0
  C  C71  1  0.10692000  0.89019000  0.28959000  1.0
  C  C72  1  0.78959000  0.10981000  0.60692000  1.0
  C  C73  1  0.71041000  0.39018000  0.60692000  1.0
  C  C74  1  0.71041000  0.10982000  0.89308000  1.0
  C  C75  1  0.78959000  0.39018000  0.89308000  1.0
  C  C76  1  0.89308000  0.78959000  0.39018000  1.0
  C  C77  1  0.89308000  0.71041000  0.10982000  1.0
  C  C78  1  0.60692000  0.71041000  0.39019000  1.0
  C  C79  1  0.60692000  0.78959000  0.10982000  1.0
  C  C80  1  0.10982000  0.89308000  0.71041000  1.0
  C  C81  1  0.39018000  0.89308000  0.78959000  1.0
  C  C82  1  0.10981000  0.60692000  0.78959000  1.0
  C  C83  1  0.39018000  0.60692000  0.71041000  1.0
  C  C84  1  0.39019000  0.71041000  0.60692000  1.0
  C  C85  1  0.10982000  0.78959000  0.60692000  1.0
  C  C86  1  0.39018000  0.78959000  0.89308000  1.0
  C  C87  1  0.10981000  0.71041000  0.89308000  1.0
  C  C88  1  0.71041000  0.60692000  0.39018000  1.0
  C  C89  1  0.78959000  0.60692000  0.10982000  1.0
  C  C90  1  0.78959000  0.89308000  0.39018000  1.0
  C  C91  1  0.71041000  0.89308000  0.10981000  1.0
  C  C92  1  0.60692000  0.39018000  0.71041000  1.0
  C  C93  1  0.60692000  0.10982000  0.78959000  1.0
  C  C94  1  0.89308000  0.39018000  0.78959000  1.0
  C  C95  1  0.89308000  0.10982000  0.71041000  1.0
  C  C96  1  0.21041000  0.89018000  0.39308000  1.0
  C  C97  1  0.28959000  0.60982000  0.39308000  1.0
  C  C98  1  0.28959000  0.89018000  0.10692000  1.0
  C  C99  1  0.21041000  0.60982000  0.10692000  1.0
  C  C100  1  0.10692000  0.21041000  0.60982000  1.0
  C  C101  1  0.10692000  0.28959000  0.89018000  1.0
  C  C102  1  0.39308000  0.28959000  0.60981000  1.0
  C  C103  1  0.39308000  0.21041000  0.89018000  1.0
  C  C104  1  0.89019000  0.10692000  0.28959000  1.0
  C  C105  1  0.60982000  0.10692000  0.21041000  1.0
  C  C106  1  0.89018000  0.39308000  0.21041000  1.0
  C  C107  1  0.60982000  0.39308000  0.28959000  1.0
  C  C108  1  0.72813000  0.37335000  0.37335000  1.0
  C  C109  1  0.56888000  0.33200000  0.33200000  1.0
  C  C110  1  0.77188000  0.12665000  0.37335000  1.0
  C  C111  1  0.93112000  0.16800000  0.33200000  1.0
  C  C112  1  0.72812000  0.12665000  0.12665000  1.0
  C  C113  1  0.56888000  0.16800000  0.16800000  1.0
  C  C114  1  0.77187000  0.37335000  0.12665000  1.0
  C  C115  1  0.93112000  0.33200000  0.16800000  1.0
  C  C116  1  0.37335000  0.37335000  0.72812000  1.0
  C  C117  1  0.33200000  0.33200000  0.56888000  1.0
  C  C118  1  0.12665000  0.37335000  0.77187000  1.0
  C  C119  1  0.16800000  0.33200000  0.93112000  1.0
  C  C120  1  0.12665000  0.12665000  0.72812000  1.0
  C  C121  1  0.16800000  0.16800000  0.56888000  1.0
  C  C122  1  0.37335000  0.12665000  0.77188000  1.0
  C  C123  1  0.33200000  0.16800000  0.93112000  1.0
  C  C124  1  0.37335000  0.72813000  0.37335000  1.0
  C  C125  1  0.33200000  0.56888000  0.33200000  1.0
  C  C126  1  0.37335000  0.77188000  0.12665000  1.0
  C  C127  1  0.33200000  0.93112000  0.16800000  1.0
  C  C128  1  0.12665000  0.72813000  0.12665000  1.0
  C  C129  1  0.16800000  0.56888000  0.16800000  1.0
  C  C130  1  0.12665000  0.77188000  0.37335000  1.0
  C  C131  1  0.16800000  0.93112000  0.33200000  1.0
  C  C132  1  0.87335000  0.22812000  0.62665000  1.0
  C  C133  1  0.83200000  0.06888000  0.66800000  1.0
  C  C134  1  0.62665000  0.27187000  0.62665000  1.0
  C  C135  1  0.66800000  0.43112000  0.66800000  1.0
  C  C136  1  0.62665000  0.22812000  0.87335000  1.0
  C  C137  1  0.66800000  0.06888000  0.83200000  1.0
  C  C138  1  0.87335000  0.27187000  0.87335000  1.0
  C  C139  1  0.83200000  0.43112000  0.83200000  1.0
  C  C140  1  0.87335000  0.87335000  0.27188000  1.0
  C  C141  1  0.83200000  0.83200000  0.43112000  1.0
  C  C142  1  0.87335000  0.62665000  0.22812000  1.0
  C  C143  1  0.83200000  0.66800000  0.06888000  1.0
  C  C144  1  0.62665000  0.62665000  0.27188000  1.0
  C  C145  1  0.66800000  0.66800000  0.43112000  1.0
  C  C146  1  0.62665000  0.87335000  0.22812000  1.0
  C  C147  1  0.66800000  0.83200000  0.06888000  1.0
  C  C148  1  0.22812000  0.87335000  0.62665000  1.0
  C  C149  1  0.06888000  0.83200000  0.66800000  1.0
  C  C150  1  0.27188000  0.87335000  0.87335000  1.0
  C  C151  1  0.43112000  0.83200000  0.83200000  1.0
  C  C152  1  0.22812000  0.62665000  0.87335000  1.0
  C  C153  1  0.06888000  0.66800000  0.83200000  1.0
  C  C154  1  0.27188000  0.62665000  0.62665000  1.0
  C  C155  1  0.43112000  0.66800000  0.66800000  1.0
  N  N156  1  0.68673000  0.30975000  0.41229000  1.0
  N  N157  1  0.81327000  0.19025000  0.41229000  1.0
  N  N158  1  0.68673000  0.19025000  0.08771000  1.0
  N  N159  1  0.81327000  0.30975000  0.08771000  1.0
  N  N160  1  0.30975000  0.41229000  0.68673000  1.0
  N  N161  1  0.19025000  0.41229000  0.81327000  1.0
  N  N162  1  0.19025000  0.08771000  0.68673000  1.0
  N  N163  1  0.30975000  0.08771000  0.81327000  1.0
  N  N164  1  0.41229000  0.68673000  0.30975000  1.0
  N  N165  1  0.41229000  0.81327000  0.19025000  1.0
  N  N166  1  0.08771000  0.68673000  0.19025000  1.0
  N  N167  1  0.08771000  0.81327000  0.30975000  1.0
  N  N168  1  0.80975000  0.18673000  0.58771000  1.0
  N  N169  1  0.69025000  0.31327000  0.58771000  1.0
  N  N170  1  0.69025000  0.18673000  0.91229000  1.0
  N  N171  1  0.80975000  0.31327000  0.91229000  1.0
  N  N172  1  0.91229000  0.80975000  0.31327000  1.0
  N  N173  1  0.91229000  0.69025000  0.18673000  1.0
  N  N174  1  0.58771000  0.69025000  0.31327000  1.0
  N  N175  1  0.58771000  0.80975000  0.18673000  1.0
  N  N176  1  0.18673000  0.91229000  0.69025000  1.0
  N  N177  1  0.31327000  0.91229000  0.80975000  1.0
  N  N178  1  0.18673000  0.58771000  0.80975000  1.0
  N  N179  1  0.31327000  0.58771000  0.69025000  1.0
  N  N180  1  0.31327000  0.69025000  0.58771000  1.0
  N  N181  1  0.18673000  0.80975000  0.58771000  1.0
  N  N182  1  0.31327000  0.80975000  0.91229000  1.0
  N  N183  1  0.18673000  0.69025000  0.91229000  1.0
  N  N184  1  0.69025000  0.58771000  0.31327000  1.0
  N  N185  1  0.80975000  0.58771000  0.18673000  1.0
  N  N186  1  0.80975000  0.91229000  0.31327000  1.0
  N  N187  1  0.69025000  0.91229000  0.18673000  1.0
  N  N188  1  0.58771000  0.31327000  0.69025000  1.0
  N  N189  1  0.58771000  0.18673000  0.80975000  1.0
  N  N190  1  0.91229000  0.31327000  0.80975000  1.0
  N  N191  1  0.91229000  0.18673000  0.69025000  1.0
  N  N192  1  0.19025000  0.81327000  0.41229000  1.0
  N  N193  1  0.30975000  0.68673000  0.41229000  1.0
  N  N194  1  0.30975000  0.81327000  0.08771000  1.0
  N  N195  1  0.19025000  0.68673000  0.08771000  1.0
  N  N196  1  0.08771000  0.19025000  0.68673000  1.0
  N  N197  1  0.08771000  0.30975000  0.81327000  1.0
  N  N198  1  0.41229000  0.30975000  0.68673000  1.0
  N  N199  1  0.41229000  0.19025000  0.81327000  1.0
  N  N200  1  0.81327000  0.08771000  0.30975000  1.0
  N  N201  1  0.68673000  0.08771000  0.19025000  1.0
  N  N202  1  0.81327000  0.41229000  0.19025000  1.0
  N  N203  1  0.68673000  0.41229000  0.30975000  1.0
  O  O204  1  0.79818000  0.39393000  0.39393000  1.0
  O  O205  1  0.70183000  0.10607000  0.39393000  1.0
  O  O206  1  0.79817000  0.10607000  0.10607000  1.0
  O  O207  1  0.70183000  0.39393000  0.10607000  1.0
  O  O208  1  0.39393000  0.39393000  0.79817000  1.0
  O  O209  1  0.10607000  0.39393000  0.70183000  1.0
  O  O210  1  0.10607000  0.10607000  0.79817000  1.0
  O  O211  1  0.39393000  0.10607000  0.70183000  1.0
  O  O212  1  0.39393000  0.79817000  0.39393000  1.0
  O  O213  1  0.39393000  0.70183000  0.10607000  1.0
  O  O214  1  0.10607000  0.79817000  0.10608000  1.0
  O  O215  1  0.10608000  0.70183000  0.39393000  1.0
  O  O216  1  0.89393000  0.29817000  0.60608000  1.0
  O  O217  1  0.60608000  0.20183000  0.60607000  1.0
  O  O218  1  0.60607000  0.29817000  0.89392000  1.0
  O  O219  1  0.89393000  0.20182000  0.89393000  1.0
  O  O220  1  0.89393000  0.89393000  0.20183000  1.0
  O  O221  1  0.89393000  0.60607000  0.29817000  1.0
  O  O222  1  0.60607000  0.60607000  0.20183000  1.0
  O  O223  1  0.60607000  0.89393000  0.29817000  1.0
  O  O224  1  0.29817000  0.89393000  0.60607000  1.0
  O  O225  1  0.20183000  0.89393000  0.89392000  1.0
  O  O226  1  0.29817000  0.60608000  0.89393000  1.0
  O  O227  1  0.20183000  0.60607000  0.60607000  1.0
  F  F228  1  0.49030000  0.31330000  0.31330000  1.0
  F  F229  1  0.00970000  0.18671000  0.31329000  1.0
  F  F230  1  0.49030000  0.18671000  0.18671000  1.0
  F  F231  1  0.00970000  0.31329000  0.18670000  1.0
  F  F232  1  0.31330000  0.31330000  0.49030000  1.0
  F  F233  1  0.18670000  0.31330000  0.00970000  1.0
  F  F234  1  0.18671000  0.18671000  0.49030000  1.0
  F  F235  1  0.31329000  0.18671000  0.00970000  1.0
  F  F236  1  0.31330000  0.49030000  0.31330000  1.0
  F  F237  1  0.31330000  0.00970000  0.18671000  1.0
  F  F238  1  0.18671000  0.49031000  0.18671000  1.0
  F  F239  1  0.18670000  0.00970000  0.31329000  1.0
  F  F240  1  0.81329000  0.99030000  0.68671000  1.0
  F  F241  1  0.68670000  0.50970000  0.68670000  1.0
  F  F242  1  0.68671000  0.99030000  0.81329000  1.0
  F  F243  1  0.81330000  0.50970000  0.81330000  1.0
  F  F244  1  0.81329000  0.81329000  0.50970000  1.0
  F  F245  1  0.81329000  0.68671000  0.99030000  1.0
  F  F246  1  0.68670000  0.68670000  0.50970000  1.0
  F  F247  1  0.68670000  0.81330000  0.99030000  1.0
  F  F248  1  0.99030000  0.81329000  0.68671000  1.0
  F  F249  1  0.50970000  0.81329000  0.81330000  1.0
  F  F250  1  0.99030000  0.68670000  0.81330000  1.0
  F  F251  1  0.50970000  0.68670000  0.68670000  1.0
