# generated using pymatgen
data_ZnH12C15(NO)4
_symmetry_space_group_name_H-M   'P 1'
_cell_length_a   8.73783000
_cell_length_b   14.78740000
_cell_length_c   19.34000000
_cell_angle_alpha   90.00000000
_cell_angle_beta   90.00000000
_cell_angle_gamma   90.00000000
_symmetry_Int_Tables_number   1
_chemical_formula_structural   ZnH12C15(NO)4
_chemical_formula_sum   'Zn4 H48 C60 N16 O16'
_cell_volume   2498.91728719
_cell_formula_units_Z   4
loop_
 _symmetry_equiv_pos_site_id
 _symmetry_equiv_pos_as_xyz
  1  'x, y, z'
loop_
 _atom_site_type_symbol
 _atom_site_label
 _atom_site_symmetry_multiplicity
 _atom_site_fract_x
 _atom_site_fract_y
 _atom_site_fract_z
 _atom_site_occupancy
  Zn  Zn0  1  0.63285000  0.95533000  0.07301000  1.0
  Zn  Zn1  1  0.86716000  0.04467000  0.57301000  1.0
  Zn  Zn2  1  0.13284000  0.54467000  0.92699000  1.0
  Zn  Zn3  1  0.36715000  0.45533000  0.42699000  1.0
  H  H4  1  0.28412000  0.12696000  0.50374000  1.0
  H  H5  1  0.21588000  0.87304000  0.00374000  1.0
  H  H6  1  0.78412000  0.37304000  0.49626000  1.0
  H  H7  1  0.71588000  0.62696000  0.99626000  1.0
  H  H8  1  0.85943000  0.96982000  0.31311000  1.0
  H  H9  1  0.64057000  0.03018000  0.81311000  1.0
  H  H10  1  0.35943000  0.53017000  0.68689000  1.0
  H  H11  1  0.14057000  0.46982000  0.18689000  1.0
  H  H12  1  0.24565000  0.29379000  0.50293000  1.0
  H  H13  1  0.25436000  0.70621000  0.00293000  1.0
  H  H14  1  0.74565000  0.20621000  0.49707000  1.0
  H  H15  1  0.75436000  0.79379000  0.99707000  1.0
  H  H16  1  0.15894000  0.86781000  0.41577000  1.0
  H  H17  1  0.34107000  0.13219000  0.91577000  1.0
  H  H18  1  0.65894000  0.63219000  0.58423000  1.0
  H  H19  1  0.84106000  0.36781000  0.08423000  1.0
  H  H20  1  0.22044000  0.97471000  0.38493000  1.0
  H  H21  1  0.27956000  0.02529000  0.88493000  1.0
  H  H22  1  0.72044000  0.52529000  0.61507000  1.0
  H  H23  1  0.77956000  0.47471000  0.11507000  1.0
  H  H24  1  0.85756000  0.95797000  0.18386000  1.0
  H  H25  1  0.64245000  0.04203000  0.68386000  1.0
  H  H26  1  0.35755000  0.54202000  0.81614000  1.0
  H  H27  1  0.14245000  0.45797000  0.31614000  1.0
  H  H28  1  0.64268000  0.16725000  0.35160000  1.0
  H  H29  1  0.85732000  0.83276000  0.85160000  1.0
  H  H30  1  0.14268000  0.33276000  0.64840000  1.0
  H  H31  1  0.35732000  0.66724000  0.14840000  1.0
  H  H32  1  0.58739000  0.33059000  0.35695000  1.0
  H  H33  1  0.91261000  0.66941000  0.85696000  1.0
  H  H34  1  0.08739000  0.16941000  0.64305000  1.0
  H  H35  1  0.41261000  0.83059000  0.14305000  1.0
  H  H36  1  0.39386000  0.01664000  0.17424000  1.0
  H  H37  1  0.10614000  0.98336000  0.67424000  1.0
  H  H38  1  0.89386000  0.48336000  0.82576000  1.0
  H  H39  1  0.60613000  0.51664000  0.32576000  1.0
  H  H40  1  0.37594000  0.03304000  0.30192000  1.0
  H  H41  1  0.12406000  0.96696000  0.80192000  1.0
  H  H42  1  0.87594000  0.46696000  0.69808000  1.0
  H  H43  1  0.62406000  0.53304000  0.19808000  1.0
  H  H44  1  0.72006000  0.01125000  0.41519000  1.0
  H  H45  1  0.77994000  0.98875000  0.91519000  1.0
  H  H46  1  0.22006000  0.48875000  0.58481000  1.0
  H  H47  1  0.27994000  0.51125000  0.08481000  1.0
  H  H48  1  0.29993000  0.89426000  0.52978000  1.0
  H  H49  1  0.20007000  0.10574000  0.02978000  1.0
  H  H50  1  0.79993000  0.60574000  0.47022000  1.0
  H  H51  1  0.70007000  0.39426000  0.97022000  1.0
  C  C52  1  0.31640000  0.93483000  0.48325000  1.0
  C  C53  1  0.18361000  0.06517000  0.98325000  1.0
  C  C54  1  0.81639000  0.56517000  0.51675000  1.0
  C  C55  1  0.68360000  0.43483000  0.01675000  1.0
  C  C56  1  0.61636000  0.00010000  0.31849000  1.0
  C  C57  1  0.88364000  0.99989000  0.81849000  1.0
  C  C58  1  0.11636000  0.49989000  0.68151000  1.0
  C  C59  1  0.38364000  0.50011000  0.18151000  1.0
  C  C60  1  0.44676000  0.98249000  0.48096000  1.0
  C  C61  1  0.05325000  0.01751000  0.98096000  1.0
  C  C62  1  0.94675000  0.51752000  0.51904000  1.0
  C  C63  1  0.55324000  0.48248000  0.01904000  1.0
  C  C64  1  0.46613000  0.13171000  0.42673000  1.0
  C  C65  1  0.03387000  0.86829000  0.92673000  1.0
  C  C66  1  0.96613000  0.36829000  0.57327000  1.0
  C  C67  1  0.53387000  0.63170000  0.07327000  1.0
  C  C68  1  0.35340000  0.16969000  0.47022000  1.0
  C  C69  1  0.14660000  0.83031000  0.97022000  1.0
  C  C70  1  0.85340000  0.33031000  0.52978000  1.0
  C  C71  1  0.64660000  0.66969000  0.02978000  1.0
  C  C72  1  0.75410000  0.97851000  0.28366000  1.0
  C  C73  1  0.74590000  0.02149000  0.78366000  1.0
  C  C74  1  0.25410000  0.52148000  0.71634000  1.0
  C  C75  1  0.24590000  0.47851000  0.21634000  1.0
  C  C76  1  0.33200000  0.26233000  0.47014000  1.0
  C  C77  1  0.16800000  0.73767000  0.97014000  1.0
  C  C78  1  0.83201000  0.23767000  0.52986000  1.0
  C  C79  1  0.66800000  0.76233000  0.02986000  1.0
  C  C80  1  0.18998000  0.93701000  0.43184000  1.0
  C  C81  1  0.31002000  0.06299000  0.93184000  1.0
  C  C82  1  0.68998000  0.56299000  0.56816000  1.0
  C  C83  1  0.81002000  0.43701000  0.06816000  1.0
  C  C84  1  0.04326000  0.97902000  0.46216000  1.0
  C  C85  1  0.45674000  0.02098000  0.96216000  1.0
  C  C86  1  0.54326000  0.52098000  0.53784000  1.0
  C  C87  1  0.95673000  0.47902000  0.03784000  1.0
  C  C88  1  0.75292000  0.97165000  0.21269000  1.0
  C  C89  1  0.74708000  0.02835000  0.71269000  1.0
  C  C90  1  0.25292000  0.52835000  0.78731000  1.0
  C  C91  1  0.24708000  0.47165000  0.28731000  1.0
  C  C92  1  0.55260000  0.19173000  0.38550000  1.0
  C  C93  1  0.94740000  0.80827000  0.88550000  1.0
  C  C94  1  0.05261000  0.30827000  0.61450000  1.0
  C  C95  1  0.44740000  0.69173000  0.11450000  1.0
  C  C96  1  0.52237000  0.28330000  0.38880000  1.0
  C  C97  1  0.97763000  0.71670000  0.88880000  1.0
  C  C98  1  0.02237000  0.21670000  0.61120000  1.0
  C  C99  1  0.47763000  0.78330000  0.11120000  1.0
  C  C100  1  0.49381000  0.00523000  0.20700000  1.0
  C  C101  1  0.00619000  0.99477000  0.70700000  1.0
  C  C102  1  0.99381000  0.49477000  0.79300000  1.0
  C  C103  1  0.50619000  0.50523000  0.29300000  1.0
  C  C104  1  0.48387000  0.01411000  0.27798000  1.0
  C  C105  1  0.01613000  0.98589000  0.77798000  1.0
  C  C106  1  0.98387000  0.48590000  0.72202000  1.0
  C  C107  1  0.51612000  0.51410000  0.22202000  1.0
  C  C108  1  0.56118000  0.98238000  0.53949000  1.0
  C  C109  1  0.93883000  0.01762000  0.03949000  1.0
  C  C110  1  0.06118000  0.51762000  0.46051000  1.0
  C  C111  1  0.43883000  0.48238000  0.96051000  1.0
  N  N112  1  0.61768000  0.00914000  0.38834000  1.0
  N  N113  1  0.88232000  0.99086000  0.88834000  1.0
  N  N114  1  0.11768000  0.49086000  0.61166000  1.0
  N  N115  1  0.38232000  0.50913000  0.11166000  1.0
  N  N116  1  0.48751000  0.03928000  0.42323000  1.0
  N  N117  1  0.01249000  0.96072000  0.92324000  1.0
  N  N118  1  0.98751000  0.46072000  0.57677000  1.0
  N  N119  1  0.51248000  0.53928000  0.07676000  1.0
  N  N120  1  0.41399000  0.31949000  0.43006000  1.0
  N  N121  1  0.08601000  0.68051000  0.93006000  1.0
  N  N122  1  0.91400000  0.18050000  0.56994000  1.0
  N  N123  1  0.58601000  0.81949000  0.06994000  1.0
  N  N124  1  0.62519000  0.98400000  0.17395000  1.0
  N  N125  1  0.87482000  0.01600000  0.67395000  1.0
  N  N126  1  0.12518000  0.51599000  0.82605000  1.0
  N  N127  1  0.37481000  0.48400000  0.32605000  1.0
  O  O128  1  0.03953000  0.98262000  0.52906000  1.0
  O  O129  1  0.46047000  0.01738000  0.02906000  1.0
  O  O130  1  0.53953000  0.51738000  0.47094000  1.0
  O  O131  1  0.96047000  0.48262000  0.97094000  1.0
  O  O132  1  0.94108000  0.00593000  0.42205000  1.0
  O  O133  1  0.55892000  0.99407000  0.92206000  1.0
  O  O134  1  0.44108000  0.49407000  0.57794000  1.0
  O  O135  1  0.05892000  0.50593000  0.07795000  1.0
  O  O136  1  0.54704000  0.93215000  0.59026000  1.0
  O  O137  1  0.95297000  0.06785000  0.09026000  1.0
  O  O138  1  0.04703000  0.56785000  0.40974000  1.0
  O  O139  1  0.45297000  0.43216000  0.90974000  1.0
  O  O140  1  0.67005000  0.04160000  0.52868000  1.0
  O  O141  1  0.82996000  0.95840000  0.02869000  1.0
  O  O142  1  0.17004000  0.45840000  0.47132000  1.0
  O  O143  1  0.32996000  0.54160000  0.97131000  1.0
