# generated using pymatgen
data_NaH9C7(NO3)2
_symmetry_space_group_name_H-M   'P 1'
_cell_length_a   6.53542000
_cell_length_b   6.82550000
_cell_length_c   11.78000000
_cell_angle_alpha   75.86280000
_cell_angle_beta   87.15090000
_cell_angle_gamma   66.79950000
_symmetry_Int_Tables_number   1
_chemical_formula_structural   NaH9C7(NO3)2
_chemical_formula_sum   'Na2 H18 C14 N4 O12'
_cell_volume   467.71617903
_cell_formula_units_Z   2
loop_
 _symmetry_equiv_pos_site_id
 _symmetry_equiv_pos_as_xyz
  1  'x, y, z'
loop_
 _atom_site_type_symbol
 _atom_site_label
 _atom_site_symmetry_multiplicity
 _atom_site_fract_x
 _atom_site_fract_y
 _atom_site_fract_z
 _atom_site_occupancy
  Na  Na0  1  0.72199000  0.58166000  0.94081000  1.0
  Na  Na1  1  0.27800000  0.41835000  0.05919000  1.0
  H  H2  1  0.80076000  0.75305000  0.17184000  1.0
  H  H3  1  0.19924000  0.24695000  0.82816000  1.0
  H  H4  1  0.75405000  0.94616000  0.25291000  1.0
  H  H5  1  0.24594000  0.05384000  0.74708000  1.0
  H  H6  1  0.66577000  0.86803000  0.45719000  1.0
  H  H7  1  0.33423000  0.13196000  0.54281000  1.0
  H  H8  1  0.79508000  0.19223000  0.62750000  1.0
  H  H9  1  0.20493000  0.80777000  0.37250000  1.0
  H  H10  1  0.86031000  0.10247000  0.43083000  1.0
  H  H11  1  0.13970000  0.89754000  0.56917000  1.0
  H  H12  1  0.57349000  0.03803000  0.83674000  1.0
  H  H13  1  0.42650000  0.96197000  0.16327000  1.0
  H  H14  1  0.83991000  0.93753000  0.84511000  1.0
  H  H15  1  0.16009000  0.06248000  0.15489000  1.0
  H  H16  1  0.69037000  0.13569000  0.97525000  1.0
  H  H17  1  0.30962000  0.86432000  0.02475000  1.0
  H  H18  1  0.76920000  0.18852000  0.08738000  1.0
  H  H19  1  0.23079000  0.81149000  0.91261000  1.0
  C  C20  1  0.80623000  0.42826000  0.33497000  1.0
  C  C21  1  0.19377000  0.57174000  0.66504000  1.0
  C  C22  1  0.74848000  0.65018000  0.34009000  1.0
  C  C23  1  0.25153000  0.34982000  0.65991000  1.0
  C  C24  1  0.71079000  0.70020000  0.45044000  1.0
  C  C25  1  0.28922000  0.29981000  0.54955000  1.0
  C  C26  1  0.72937000  0.53555000  0.55032000  1.0
  C  C27  1  0.27064000  0.46444000  0.44967000  1.0
  C  C28  1  0.78165000  0.31723000  0.54741000  1.0
  C  C29  1  0.21835000  0.68276000  0.45259000  1.0
  C  C30  1  0.81766000  0.26934000  0.43856000  1.0
  C  C31  1  0.18236000  0.73065000  0.56144000  1.0
  C  C32  1  0.87065000  0.35423000  0.22356000  1.0
  C  C33  1  0.12936000  0.64576000  0.77644000  1.0
  N  N34  1  0.72456000  0.81566000  0.24103000  1.0
  N  N35  1  0.27544000  0.18434000  0.75896000  1.0
  N  N36  1  0.69001000  0.59502000  0.66286000  1.0
  N  N37  1  0.30999000  0.40497000  0.33715000  1.0
  O  O38  1  0.89564000  0.48839000  0.13306000  1.0
  O  O39  1  0.10437000  0.51162000  0.86693000  1.0
  O  O40  1  0.90511000  0.15474000  0.22561000  1.0
  O  O41  1  0.09489000  0.84525000  0.77439000  1.0
  O  O42  1  0.63836000  0.79042000  0.66454000  1.0
  O  O43  1  0.36163000  0.20959000  0.33546000  1.0
  O  O44  1  0.70967000  0.44709000  0.75306000  1.0
  O  O45  1  0.29033000  0.55291000  0.24695000  1.0
  O  O46  1  0.70587000  0.95702000  0.89219000  1.0
  O  O47  1  0.29413000  0.04299000  0.10781000  1.0
  O  O48  1  0.66354000  0.25199000  0.01830000  1.0
  O  O49  1  0.33645000  0.74802000  0.98170000  1.0
