# generated using pymatgen
data_CdH28C28(N5O3)2
_symmetry_space_group_name_H-M   'P 1'
_cell_length_a   8.41806000
_cell_length_b   9.10361000
_cell_length_c   19.38500000
_cell_angle_alpha   90.00000000
_cell_angle_beta   90.00000000
_cell_angle_gamma   102.56500000
_symmetry_Int_Tables_number   1
_chemical_formula_structural   CdH28C28(N5O3)2
_chemical_formula_sum   'Cd2 H56 C56 N20 O12'
_cell_volume   1449.98483212
_cell_formula_units_Z   2
loop_
 _symmetry_equiv_pos_site_id
 _symmetry_equiv_pos_as_xyz
  1  'x, y, z'
loop_
 _atom_site_type_symbol
 _atom_site_label
 _atom_site_symmetry_multiplicity
 _atom_site_fract_x
 _atom_site_fract_y
 _atom_site_fract_z
 _atom_site_occupancy
  Cd  Cd0  1  0.00000000  0.00000000  0.50000000  1.0
  Cd  Cd1  1  0.00000000  0.50000000  0.00000000  1.0
  H  H2  1  0.69524000  0.19229000  0.54020000  1.0
  H  H3  1  0.30476000  0.30771000  0.04020000  1.0
  H  H4  1  0.30476000  0.80771000  0.45980000  1.0
  H  H5  1  0.69524000  0.69229000  0.95980000  1.0
  H  H6  1  0.04873000  0.57329000  0.60226000  1.0
  H  H7  1  0.95127000  0.92671000  0.10226000  1.0
  H  H8  1  0.95127000  0.42671000  0.39774000  1.0
  H  H9  1  0.04873000  0.07329000  0.89774000  1.0
  H  H10  1  0.20004000  0.33314000  0.57855000  1.0
  H  H11  1  0.79996000  0.16686000  0.07855000  1.0
  H  H12  1  0.79996000  0.66686000  0.42145000  1.0
  H  H13  1  0.20004000  0.83314000  0.92145000  1.0
  H  H14  1  0.60793000  0.43460000  0.54563000  1.0
  H  H15  1  0.39206000  0.06539000  0.04562000  1.0
  H  H16  1  0.39207000  0.56540000  0.45438000  1.0
  H  H17  1  0.60793000  0.93461000  0.95438000  1.0
  H  H18  1  0.75751000  0.60474000  0.55742000  1.0
  H  H19  1  0.24249000  0.89526000  0.05742000  1.0
  H  H20  1  0.24249000  0.39526000  0.44258000  1.0
  H  H21  1  0.75751000  0.10474000  0.94258000  1.0
  H  H22  1  0.83866000  0.70444000  0.67234000  1.0
  H  H23  1  0.16134000  0.79555000  0.17234000  1.0
  H  H24  1  0.16134000  0.29556000  0.32766000  1.0
  H  H25  1  0.83866000  0.20444000  0.82766000  1.0
  H  H26  1  0.76871000  0.71371000  0.79638000  1.0
  H  H27  1  0.23130000  0.78628000  0.29638000  1.0
  H  H28  1  0.23130000  0.28629000  0.20362000  1.0
  H  H29  1  0.76870000  0.21371000  0.70362000  1.0
  H  H30  1  0.54684000  0.51721000  0.84663000  1.0
  H  H31  1  0.45316000  0.98279000  0.34663000  1.0
  H  H32  1  0.45316000  0.48279000  0.15337000  1.0
  H  H33  1  0.54684000  0.01720000  0.65337000  1.0
  H  H34  1  0.46216000  0.30496000  0.64704000  1.0
  H  H35  1  0.53784000  0.19504000  0.14704000  1.0
  H  H36  1  0.53784000  0.69504000  0.35296000  1.0
  H  H37  1  0.46216000  0.80496000  0.85296000  1.0
  H  H38  1  0.29982000  0.19782000  0.74000000  1.0
  H  H39  1  0.70018000  0.30218000  0.24000000  1.0
  H  H40  1  0.70018000  0.80218000  0.26000000  1.0
  H  H41  1  0.29982000  0.69782000  0.76000000  1.0
  H  H42  1  0.40436000  0.21647000  0.82044000  1.0
  H  H43  1  0.59564000  0.28353000  0.32044000  1.0
  H  H44  1  0.59564000  0.78353000  0.17956000  1.0
  H  H45  1  0.40436000  0.71647000  0.67956000  1.0
  H  H46  1  0.10391000  0.40531000  0.72250000  1.0
  H  H47  1  0.89609000  0.09469000  0.22250000  1.0
  H  H48  1  0.89610000  0.59469000  0.27750000  1.0
  H  H49  1  0.10391000  0.90531000  0.77750000  1.0
  H  H50  1  0.92844000  0.51659000  0.82460000  1.0
  H  H51  1  0.07156000  0.98341000  0.32460000  1.0
  H  H52  1  0.07156000  0.48341000  0.17540000  1.0
  H  H53  1  0.92844000  0.01659000  0.67540000  1.0
  H  H54  1  0.28601000  0.32138000  0.91850000  1.0
  H  H55  1  0.71399000  0.17862000  0.41850000  1.0
  H  H56  1  0.71399000  0.67862000  0.08150000  1.0
  H  H57  1  0.28601000  0.82138000  0.58150000  1.0
  C  C58  1  0.81455000  0.25991000  0.55298000  1.0
  C  C59  1  0.18545000  0.24008000  0.05297000  1.0
  C  C60  1  0.18545000  0.74009000  0.44703000  1.0
  C  C61  1  0.81455000  0.75992000  0.94703000  1.0
  C  C62  1  0.00043000  0.45809000  0.58646000  1.0
  C  C63  1  0.99957000  0.04191000  0.08646000  1.0
  C  C64  1  0.99957000  0.54191000  0.41354000  1.0
  C  C65  1  0.00043000  0.95809000  0.91354000  1.0
  C  C66  1  0.07315000  0.33908000  0.57413000  1.0
  C  C67  1  0.92685000  0.16091000  0.07413000  1.0
  C  C68  1  0.92686000  0.66091000  0.42587000  1.0
  C  C69  1  0.07314000  0.83909000  0.92587000  1.0
  C  C70  1  0.70874000  0.49205000  0.57830000  1.0
  C  C71  1  0.29126000  0.00794000  0.07829000  1.0
  C  C72  1  0.29126000  0.50795000  0.42171000  1.0
  C  C73  1  0.70874000  0.99206000  0.92171000  1.0
  C  C74  1  0.65702000  0.50262000  0.65220000  1.0
  C  C75  1  0.34298000  0.99738000  0.15220000  1.0
  C  C76  1  0.34298000  0.49738000  0.34780000  1.0
  C  C77  1  0.65702000  0.00262000  0.84780000  1.0
  C  C78  1  0.74245000  0.61746000  0.69439000  1.0
  C  C79  1  0.25755000  0.88254000  0.19439000  1.0
  C  C80  1  0.25755000  0.38255000  0.30561000  1.0
  C  C81  1  0.74245000  0.11746000  0.80561000  1.0
  C  C82  1  0.70237000  0.62287000  0.76402000  1.0
  C  C83  1  0.29764000  0.87713000  0.26402000  1.0
  C  C84  1  0.29764000  0.37713000  0.23598000  1.0
  C  C85  1  0.70236000  0.12287000  0.73598000  1.0
  C  C86  1  0.57685000  0.51351000  0.79201000  1.0
  C  C87  1  0.42315000  0.98649000  0.29201000  1.0
  C  C88  1  0.42315000  0.48649000  0.20799000  1.0
  C  C89  1  0.57685000  0.01351000  0.70799000  1.0
  C  C90  1  0.48876000  0.39931000  0.74987000  1.0
  C  C91  1  0.51124000  0.10069000  0.24987000  1.0
  C  C92  1  0.51124000  0.60069000  0.25013000  1.0
  C  C93  1  0.48876000  0.89931000  0.75013000  1.0
  C  C94  1  0.52886000  0.39489000  0.68005000  1.0
  C  C95  1  0.47114000  0.10511000  0.18005000  1.0
  C  C96  1  0.47114000  0.60511000  0.31995000  1.0
  C  C97  1  0.52886000  0.89489000  0.81995000  1.0
  C  C98  1  0.35499000  0.27846000  0.77993000  1.0
  C  C99  1  0.64501000  0.22154000  0.27993000  1.0
  C  C100  1  0.64501000  0.72155000  0.22007000  1.0
  C  C101  1  0.35499000  0.77845000  0.72007000  1.0
  C  C102  1  0.11474000  0.40664000  0.77828000  1.0
  C  C103  1  0.88526000  0.09336000  0.27828000  1.0
  C  C104  1  0.88526000  0.59335000  0.22172000  1.0
  C  C105  1  0.11474000  0.90665000  0.72172000  1.0
  C  C106  1  0.02948000  0.46114000  0.82936000  1.0
  C  C107  1  0.97052000  0.03886000  0.32936000  1.0
  C  C108  1  0.97052000  0.53886000  0.17064000  1.0
  C  C109  1  0.02949000  0.96114000  0.67064000  1.0
  C  C110  1  0.20805000  0.35901000  0.88082000  1.0
  C  C111  1  0.79195000  0.14099000  0.38082000  1.0
  C  C112  1  0.79195000  0.64099000  0.11918000  1.0
  C  C113  1  0.20805000  0.85901000  0.61918000  1.0
  N  N114  1  0.95593000  0.21638000  0.55304000  1.0
  N  N115  1  0.04407000  0.28362000  0.05304000  1.0
  N  N116  1  0.04407000  0.78362000  0.44696000  1.0
  N  N117  1  0.95592000  0.71638000  0.94696000  1.0
  N  N118  1  0.83705000  0.40605000  0.57239000  1.0
  N  N119  1  0.16295000  0.09394000  0.07239000  1.0
  N  N120  1  0.16295000  0.59395000  0.42761000  1.0
  N  N121  1  0.83705000  0.90606000  0.92761000  1.0
  N  N122  1  0.22682000  0.34127000  0.81196000  1.0
  N  N123  1  0.77318000  0.15873000  0.31196000  1.0
  N  N124  1  0.77318000  0.65873000  0.18804000  1.0
  N  N125  1  0.22682000  0.84127000  0.68804000  1.0
  N  N126  1  0.08869000  0.43031000  0.89295000  1.0
  N  N127  1  0.91131000  0.06969000  0.39295000  1.0
  N  N128  1  0.91131000  0.56969000  0.10705000  1.0
  N  N129  1  0.08869000  0.93031000  0.60705000  1.0
  N  N130  1  0.60498000  0.81791000  0.51992000  1.0
  N  N131  1  0.39501000  0.68208000  0.01992000  1.0
  N  N132  1  0.39502000  0.18208000  0.48008000  1.0
  N  N133  1  0.60499000  0.31792000  0.98008000  1.0
  O  O134  1  0.73868000  0.86895000  0.55208000  1.0
  O  O135  1  0.26131000  0.63104000  0.05208000  1.0
  O  O136  1  0.26132000  0.13104000  0.44792000  1.0
  O  O137  1  0.73868000  0.36895000  0.94792000  1.0
  O  O138  1  0.59007000  0.85109000  0.45731000  1.0
  O  O139  1  0.40993000  0.64891000  0.95731000  1.0
  O  O140  1  0.40993000  0.14891000  0.54269000  1.0
  O  O141  1  0.59007000  0.35109000  0.04269000  1.0
  O  O142  1  0.48957000  0.73281000  0.55192000  1.0
  O  O143  1  0.51042000  0.76719000  0.05193000  1.0
  O  O144  1  0.51043000  0.26719000  0.44807000  1.0
  O  O145  1  0.48957000  0.23281000  0.94807000  1.0
