# generated using pymatgen
data_AlC12S3(ClO2)3
_symmetry_space_group_name_H-M   'P 1'
_cell_length_a   3.96915000
_cell_length_b   20.15010000
_cell_length_c   20.15005000
_cell_angle_alpha   120.00024625
_cell_angle_beta   90.00020000
_cell_angle_gamma   89.99980000
_symmetry_Int_Tables_number   1
_chemical_formula_structural   AlC12S3(ClO2)3
_chemical_formula_sum   'Al2 C24 S6 Cl6 O12'
_cell_volume   1395.66246844
_cell_formula_units_Z   2
loop_
 _symmetry_equiv_pos_site_id
 _symmetry_equiv_pos_as_xyz
  1  'x, y, z'
loop_
 _atom_site_type_symbol
 _atom_site_label
 _atom_site_symmetry_multiplicity
 _atom_site_fract_x
 _atom_site_fract_y
 _atom_site_fract_z
 _atom_site_occupancy
  Al  Al0  1  0.99912000  1.00000000  0.50000000  1.0
  Al  Al1  1  0.99913000  0.33334000  0.16667000  1.0
  C  C2  1  0.49904000  0.05844000  0.61745000  1.0
  C  C3  1  0.49905000  0.88255000  0.44099000  1.0
  C  C4  1  0.49903000  0.05901000  0.44156000  1.0
  C  C5  1  0.49904000  0.45079000  0.22568000  1.0
  C  C6  1  0.49905000  0.27432000  0.22510000  1.0
  C  C7  1  0.49906000  0.27490000  0.04922000  1.0
  C  C8  1  0.50991000  0.74910000  0.32029000  1.0
  C  C9  1  0.50992000  0.58425000  0.34639000  1.0
  C  C10  1  0.50083000  0.79772000  0.39887000  1.0
  C  C11  1  0.50083000  0.53561000  0.26780000  1.0
  C  C12  1  0.49609000  0.66224000  0.36568000  1.0
  C  C13  1  0.49608000  0.67110000  0.30099000  1.0
  C  C14  1  0.50991000  0.17972000  0.42881000  1.0
  C  C15  1  0.50992000  0.15362000  0.23786000  1.0
  C  C16  1  0.50082000  0.10113000  0.39885000  1.0
  C  C17  1  0.50083000  0.23220000  0.26781000  1.0
  C  C18  1  0.49609000  0.13432000  0.29656000  1.0
  C  C19  1  0.49609000  0.19901000  0.37010000  1.0
  C  C20  1  0.50990000  0.07120000  0.75091000  1.0
  C  C21  1  0.50992000  0.26214000  0.91576000  1.0
  C  C22  1  0.50082000  0.10115000  0.70228000  1.0
  C  C23  1  0.50083000  0.23219000  0.96439000  1.0
  C  C24  1  0.49609000  0.20344000  0.83776000  1.0
  C  C25  1  0.49609000  0.12990000  0.82891000  1.0
  S  S26  1  0.48141000  0.74884000  0.44956000  1.0
  S  S27  1  0.48139000  0.58450000  0.21712000  1.0
  S  S28  1  0.48141000  0.05044000  0.29928000  1.0
  S  S29  1  0.48140000  0.28288000  0.36738000  1.0
  S  S30  1  0.48141000  0.20071000  0.75116000  1.0
  S  S31  1  0.48140000  0.13263000  0.91551000  1.0
  Cl  Cl32  1  0.51583000  0.77786000  0.25356000  1.0
  Cl  Cl33  1  0.51586000  0.55549000  0.41312000  1.0
  Cl  Cl34  1  0.51583000  0.24645000  0.52430000  1.0
  Cl  Cl35  1  0.51586000  0.08689000  0.14237000  1.0
  Cl  Cl36  1  0.51583000  0.97570000  0.72215000  1.0
  Cl  Cl37  1  0.51585000  0.35763000  0.94452000  1.0
  O  O38  1  0.26401000  0.01017000  0.42597000  1.0
  O  O39  1  0.26401000  0.07403000  0.58420000  1.0
  O  O40  1  0.26402000  0.91580000  0.48983000  1.0
  O  O41  1  0.73310000  0.07413000  0.49029000  1.0
  O  O42  1  0.73311000  0.91617000  0.42587000  1.0
  O  O43  1  0.73311000  0.00971000  0.58384000  1.0
  O  O44  1  0.26403000  0.25931000  0.08247000  1.0
  O  O45  1  0.26401000  0.41754000  0.17684000  1.0
  O  O46  1  0.26403000  0.32317000  0.24070000  1.0
  O  O47  1  0.73312000  0.32363000  0.08283000  1.0
  O  O48  1  0.73312000  0.25920000  0.17637000  1.0
  O  O49  1  0.73311000  0.41717000  0.24080000  1.0
