# generated using pymatgen
data_LaH10C9N3O8
_symmetry_space_group_name_H-M   'P 1'
_cell_length_a   8.76559000
_cell_length_b   9.26181000
_cell_length_c   9.69385000
_cell_angle_alpha   67.97820000
_cell_angle_beta   83.62050000
_cell_angle_gamma   79.85260000
_symmetry_Int_Tables_number   1
_chemical_formula_structural   LaH10C9N3O8
_chemical_formula_sum   'La2 H20 C18 N6 O16'
_cell_volume   717.29105978
_cell_formula_units_Z   2
loop_
 _symmetry_equiv_pos_site_id
 _symmetry_equiv_pos_as_xyz
  1  'x, y, z'
loop_
 _atom_site_type_symbol
 _atom_site_label
 _atom_site_symmetry_multiplicity
 _atom_site_fract_x
 _atom_site_fract_y
 _atom_site_fract_z
 _atom_site_occupancy
  La  La0  1  0.53391000  0.25374000  0.47766000  1.0
  La  La1  1  0.46609000  0.74626000  0.52233000  1.0
  H  H2  1  0.81960000  0.74345000  0.26107000  1.0
  H  H3  1  0.18041000  0.25655000  0.73893000  1.0
  H  H4  1  0.91606000  0.62930000  0.42279000  1.0
  H  H5  1  0.08396000  0.37069000  0.57719000  1.0
  H  H6  1  0.60958000  0.18259000  0.97784000  1.0
  H  H7  1  0.39042000  0.81741000  0.02215000  1.0
  H  H8  1  0.79958000  0.11691000  0.04418000  1.0
  H  H9  1  0.20042000  0.88308000  0.95582000  1.0
  H  H10  1  0.88289000  0.74043000  0.81777000  1.0
  H  H11  1  0.11710000  0.25957000  0.18225000  1.0
  H  H12  1  0.01829000  0.77035000  0.66461000  1.0
  H  H13  1  0.98170000  0.22964000  0.33541000  1.0
  H  H14  1  0.77598000  0.21024000  0.72192000  1.0
  H  H15  1  0.22401000  0.78975000  0.27808000  1.0
  H  H16  1  0.63231000  0.34102000  0.73415000  1.0
  H  H17  1  0.36768000  0.65898000  0.26585000  1.0
  H  H18  1  0.51057000  0.46013000  0.15028000  1.0
  H  H19  1  0.48944000  0.53991000  0.84970000  1.0
  H  H20  1  0.33018000  0.48183000  0.19170000  1.0
  H  H21  1  0.66982000  0.51816000  0.80828000  1.0
  C  C22  1  0.75836000  0.51109000  0.36430000  1.0
  C  C23  1  0.24165000  0.48891000  0.63568000  1.0
  C  C24  1  0.87818000  0.62407000  0.32032000  1.0
  C  C25  1  0.12183000  0.37593000  0.67966000  1.0
  C  C26  1  0.01136000  0.58674000  0.23107000  1.0
  C  C27  1  0.98864000  0.41327000  0.76890000  1.0
  C  C28  1  0.61513000  0.06783000  0.21582000  1.0
  C  C29  1  0.38487000  0.93218000  0.78419000  1.0
  C  C30  1  0.68228000  0.08490000  0.05770000  1.0
  C  C31  1  0.31772000  0.91510000  0.94231000  1.0
  C  C32  1  0.68772000  0.94388000  0.02455000  1.0
  C  C33  1  0.31227000  0.05613000  0.97545000  1.0
  C  C34  1  0.77876000  0.87419000  0.60772000  1.0
  C  C35  1  0.22123000  0.12583000  0.39229000  1.0
  C  C36  1  0.91533000  0.82856000  0.71023000  1.0
  C  C37  1  0.08467000  0.17143000  0.28979000  1.0
  C  C38  1  0.95273000  0.96147000  0.73609000  1.0
  C  C39  1  0.04728000  0.03854000  0.26394000  1.0
  N  N40  1  0.11963000  0.55662000  0.16025000  1.0
  N  N41  1  0.88037000  0.44339000  0.83972000  1.0
  N  N42  1  0.68991000  0.82885000  0.00118000  1.0
  N  N43  1  0.31007000  0.17114000  0.99882000  1.0
  N  N44  1  0.97556000  0.07134000  0.75773000  1.0
  N  N45  1  0.02444000  0.92864000  0.24229000  1.0
  O  O46  1  0.72956000  0.76082000  0.59290000  1.0
  O  O47  1  0.27042000  0.23919000  0.40712000  1.0
  O  O48  1  0.72587000  0.01876000  0.54733000  1.0
  O  O49  1  0.27415000  0.98124000  0.45268000  1.0
  O  O50  1  0.63111000  0.55508000  0.42432000  1.0
  O  O51  1  0.36890000  0.44491000  0.57568000  1.0
  O  O52  1  0.59257000  0.19341000  0.24339000  1.0
  O  O53  1  0.40743000  0.80657000  0.75661000  1.0
  O  O54  1  0.78532000  0.38180000  0.34442000  1.0
  O  O55  1  0.21469000  0.61820000  0.65557000  1.0
  O  O56  1  0.58864000  0.93353000  0.30399000  1.0
  O  O57  1  0.41136000  0.06645000  0.69601000  1.0
  O  O58  1  0.66937000  0.25729000  0.69339000  1.0
  O  O59  1  0.33063000  0.74271000  0.30660000  1.0
  O  O60  1  0.43318000  0.49185000  0.21799000  1.0
  O  O61  1  0.56682000  0.50814000  0.78201000  1.0
