# generated using pymatgen
data_Al4H15C36O20F
_symmetry_space_group_name_H-M   'P 1'
_cell_length_a   6.66512000
_cell_length_b   16.43300000
_cell_length_c   18.78490000
_cell_angle_alpha   105.93720000
_cell_angle_beta   89.72810000
_cell_angle_gamma   89.72370000
_symmetry_Int_Tables_number   1
_chemical_formula_structural   Al4H15C36O20F
_chemical_formula_sum   'Al4 H15 C36 O20 F1'
_cell_volume   1978.32602114
_cell_formula_units_Z   1
loop_
 _symmetry_equiv_pos_site_id
 _symmetry_equiv_pos_as_xyz
  1  'x, y, z'
loop_
 _atom_site_type_symbol
 _atom_site_label
 _atom_site_symmetry_multiplicity
 _atom_site_fract_x
 _atom_site_fract_y
 _atom_site_fract_z
 _atom_site_occupancy
  Al  Al0  1  0.88967000  0.50475000  0.49642000  1.0
  Al  Al1  1  0.38888000  0.50736000  0.49676000  1.0
  Al  Al2  1  0.38295000  0.00493000  0.99658000  1.0
  Al  Al3  1  0.88327000  0.00699000  0.99679000  1.0
  H  H4  1  0.41110000  0.73943000  0.65627000  1.0
  H  H5  1  0.41512000  0.85536000  0.77346000  1.0
  H  H6  1  0.78482000  0.71880000  0.87418000  1.0
  H  H7  1  0.65156000  0.66479000  0.71095000  1.0
  H  H8  1  0.78740000  0.60030000  0.75653000  1.0
  H  H9  1  0.91786000  0.35609000  0.26991000  1.0
  H  H10  1  0.90743000  0.23869000  0.15358000  1.0
  H  H11  1  0.29085000  0.10950000  0.26785000  1.0
  H  H12  1  0.15004000  0.16040000  0.21109000  1.0
  H  H13  1  0.15377000  0.29554000  0.31642000  1.0
  H  H14  1  0.65306000  0.78446000  0.82814000  1.0
  H  H15  1  0.64310000  0.60759000  0.48434000  1.0
  H  H16  1  0.14648000  0.39326000  0.46922000  1.0
  H  H17  1  0.63931000  0.89630000  0.95816000  1.0
  H  H18  1  0.13632000  0.10441000  0.97883000  1.0
  C  C19  1  0.63112000  0.42120000  0.58186000  1.0
  C  C20  1  0.64610000  0.39284000  0.38341000  1.0
  C  C21  1  0.14444000  0.59411000  0.41169000  1.0
  C  C22  1  0.12808000  0.61913000  0.60832000  1.0
  C  C23  1  0.97237000  0.69983000  0.73015000  1.0
  C  C24  1  0.12804000  0.68817000  0.67842000  1.0
  C  C25  1  0.28792000  0.74625000  0.69593000  1.0
  C  C26  1  0.29035000  0.81110000  0.76174000  1.0
  C  C27  1  0.13285000  0.82207000  0.81424000  1.0
  C  C28  1  0.97421000  0.76520000  0.79599000  1.0
  C  C29  1  0.77649000  0.73863000  0.82293000  1.0
  C  C30  1  0.77586000  0.66409000  0.74884000  1.0
  C  C31  1  0.12721000  0.87394000  0.13646000  1.0
  C  C32  1  0.12872000  0.83015000  0.17986000  1.0
  C  C33  1  0.13028000  0.78189000  0.22697000  1.0
  C  C34  1  0.13142000  0.73711000  0.26999000  1.0
  C  C35  1  0.13414000  0.68868000  0.31694000  1.0
  C  C36  1  0.13792000  0.64448000  0.35998000  1.0
  C  C37  1  0.63341000  0.37157000  0.63427000  1.0
  C  C38  1  0.63298000  0.32796000  0.67781000  1.0
  C  C39  1  0.63194000  0.27985000  0.72504000  1.0
  C  C40  1  0.63109000  0.23533000  0.76830000  1.0
  C  C41  1  0.63167000  0.18701000  0.81536000  1.0
  C  C42  1  0.63380000  0.14296000  0.85856000  1.0
  C  C43  1  0.47651000  0.26905000  0.29500000  1.0
  C  C44  1  0.63667000  0.32504000  0.31240000  1.0
  C  C45  1  0.79181000  0.31249000  0.25925000  1.0
  C  C46  1  0.78528000  0.24699000  0.19379000  1.0
  C  C47  1  0.62390000  0.18972000  0.17741000  1.0
  C  C48  1  0.47089000  0.20227000  0.23038000  1.0
  C  C49  1  0.27378000  0.16788000  0.25064000  1.0
  C  C50  1  0.26983000  0.24876000  0.31895000  1.0
  C  C51  1  0.62217000  0.12007000  0.10760000  1.0
  C  C52  1  0.63880000  0.09266000  0.91032000  1.0
  C  C53  1  0.14006000  0.88988000  0.88500000  1.0
  C  C54  1  0.12500000  0.92352000  0.08404000  1.0
  O  O55  1  0.48065000  0.41258000  0.41829000  1.0
  O  O56  1  0.79792000  0.42930000  0.55137000  1.0
  O  O57  1  0.96070000  0.58355000  0.58777000  1.0
  O  O58  1  0.81749000  0.42433000  0.40420000  1.0
  O  O59  1  0.97761000  0.58230000  0.44062000  1.0
  O  O60  1  0.46222000  0.45144000  0.57054000  1.0
  O  O61  1  0.63972000  0.55764000  0.50230000  1.0
  O  O62  1  0.31649000  0.56698000  0.42394000  1.0
  O  O63  1  0.29414000  0.60143000  0.57332000  1.0
  O  O64  1  0.14118000  0.45448000  0.48752000  1.0
  O  O65  1  0.81059000  0.06538000  0.92292000  1.0
  O  O66  1  0.45439000  0.08483000  0.08736000  1.0
  O  O67  1  0.29207000  0.93164000  0.05376000  1.0
  O  O68  1  0.47134000  0.08115000  0.93912000  1.0
  O  O69  1  0.31090000  0.92219000  0.90619000  1.0
  O  O70  1  0.78788000  0.10173000  0.07261000  1.0
  O  O71  1  0.63475000  0.95459000  0.98818000  1.0
  O  O72  1  0.97416000  0.90990000  0.92004000  1.0
  O  O73  1  0.95620000  0.95362000  0.07232000  1.0
  O  O74  1  0.13333000  0.05771000  0.00115000  1.0
  F  F75  1  0.25202000  0.23384000  0.38895000  1.0
