# generated using pymatgen
data_AlH8C15O5F
_symmetry_space_group_name_H-M   'P 1'
_cell_length_a   6.75233000
_cell_length_b   15.39470000
_cell_length_c   17.81324300
_cell_angle_alpha   92.27199545
_cell_angle_beta   100.87567003
_cell_angle_gamma   101.95920000
_symmetry_Int_Tables_number   1
_chemical_formula_structural   AlH8C15O5F
_chemical_formula_sum   'Al2 H16 C30 O10 F2'
_cell_volume   1772.97666600
_cell_formula_units_Z   2
loop_
 _symmetry_equiv_pos_site_id
 _symmetry_equiv_pos_as_xyz
  1  'x, y, z'
loop_
 _atom_site_type_symbol
 _atom_site_label
 _atom_site_symmetry_multiplicity
 _atom_site_fract_x
 _atom_site_fract_y
 _atom_site_fract_z
 _atom_site_occupancy
  Al  Al0  1  0.00000000  0.50001000  0.50000000  1.0
  Al  Al1  1  0.50000000  0.50001000  0.50000000  1.0
  H  H2  1  0.17151000  0.41282000  0.42570000  1.0
  H  H3  1  0.82849000  0.58719000  0.57430000  1.0
  H  H4  1  0.04605000  0.49728000  0.73148000  1.0
  H  H5  1  0.11650000  0.49831000  0.87481000  1.0
  H  H6  1  0.75467000  0.49825000  0.87469000  1.0
  H  H7  1  0.68110000  0.49719000  0.73136000  1.0
  H  H8  1  0.24532000  0.50181000  0.12533000  1.0
  H  H9  1  0.31893000  0.50289000  0.26866000  1.0
  H  H10  1  0.95391000  0.50268000  0.26851000  1.0
  H  H11  1  0.88344000  0.50166000  0.12518000  1.0
  H  H12  1  0.69730000  0.76852000  0.49711000  1.0
  H  H13  1  0.30270000  0.23149000  0.50289000  1.0
  H  H14  1  0.93610000  0.22567000  0.50297000  1.0
  H  H15  1  0.85061000  0.06396000  0.50137000  1.0
  H  H16  1  0.06389000  0.77434000  0.49703000  1.0
  H  H17  1  0.14939000  0.93605000  0.49863000  1.0
  C  C18  1  0.67481000  0.33969000  0.50172000  1.0
  C  C19  1  0.68191000  0.50114000  0.36184000  1.0
  C  C20  1  0.32517000  0.66033000  0.49827000  1.0
  C  C21  1  0.31809000  0.49888000  0.63816000  1.0
  C  C22  1  0.35979000  0.49780000  0.72329000  1.0
  C  C23  1  0.20040000  0.49780000  0.76373000  1.0
  C  C24  1  0.23958000  0.49827000  0.84310000  1.0
  C  C25  1  0.44055000  0.49874000  0.88418000  1.0
  C  C26  1  0.59995000  0.49824000  0.84302000  1.0
  C  C27  1  0.55945000  0.49775000  0.76367000  1.0
  C  C28  1  0.48169000  0.49956000  0.96506000  1.0
  C  C29  1  0.51825000  0.50043000  0.03494000  1.0
  C  C30  1  0.55941000  0.50127000  0.11582000  1.0
  C  C31  1  0.40003000  0.50181000  0.15699000  1.0
  C  C32  1  0.44056000  0.50231000  0.23635000  1.0
  C  C33  1  0.64020000  0.50221000  0.27671000  1.0
  C  C34  1  0.79956000  0.50219000  0.23626000  1.0
  C  C35  1  0.76036000  0.50171000  0.15689000  1.0
  C  C36  1  0.37359000  0.75920000  0.49752000  1.0
  C  C37  1  0.62640000  0.24081000  0.50248000  1.0
  C  C38  1  0.57522000  0.80476000  0.49773000  1.0
  C  C39  1  0.62070000  0.89666000  0.49865000  1.0
  C  C40  1  0.42478000  0.19525000  0.50227000  1.0
  C  C41  1  0.37931000  0.10335000  0.50135000  1.0
  C  C42  1  0.77775000  0.19117000  0.50233000  1.0
  C  C43  1  0.72776000  0.09895000  0.50147000  1.0
  C  C44  1  0.22224000  0.80884000  0.49767000  1.0
  C  C45  1  0.27223000  0.90106000  0.49853000  1.0
  C  C46  1  0.47480000  0.95063000  0.49934000  1.0
  C  C47  1  0.52520000  0.04939000  0.50066000  1.0
  O  O48  1  0.86111000  0.37753000  0.50107000  1.0
  O  O49  1  0.52958000  0.50030000  0.39482000  1.0
  O  O50  1  0.47554000  0.62181000  0.49934000  1.0
  O  O51  1  0.13401000  0.50015000  0.60510000  1.0
  O  O52  1  0.13888000  0.62248000  0.49893000  1.0
  O  O53  1  0.47042000  0.49971000  0.60518000  1.0
  O  O54  1  0.52445000  0.37820000  0.50065000  1.0
  O  O55  1  0.86600000  0.49988000  0.39490000  1.0
  O  O56  1  0.21438000  0.46057000  0.46620000  1.0
  O  O57  1  0.78562000  0.53944000  0.53380000  1.0
  F  F58  1  0.82351000  0.93357000  0.49890000  1.0
  F  F59  1  0.17649000  0.06644000  0.50110000  1.0
