# generated using pymatgen
data_Al4H32(C9O5)5
_symmetry_space_group_name_H-M   'P 1'
_cell_length_a   6.78231000
_cell_length_b   17.07500000
_cell_length_c   18.19290000
_cell_angle_alpha   105.78070000
_cell_angle_beta   89.79800000
_cell_angle_gamma   89.80420000
_symmetry_Int_Tables_number   1
_chemical_formula_structural   Al4H32(C9O5)5
_chemical_formula_sum   'Al4 H32 C45 O25'
_cell_volume   2027.43964644
_cell_formula_units_Z   1
loop_
 _symmetry_equiv_pos_site_id
 _symmetry_equiv_pos_as_xyz
  1  'x, y, z'
loop_
 _atom_site_type_symbol
 _atom_site_label
 _atom_site_symmetry_multiplicity
 _atom_site_fract_x
 _atom_site_fract_y
 _atom_site_fract_z
 _atom_site_occupancy
  Al  Al0  1  0.88733000  0.50112000  0.49866000  1.0
  Al  Al1  1  0.38787000  0.50377000  0.49942000  1.0
  Al  Al2  1  0.37598000  0.00143000  0.99648000  1.0
  Al  Al3  1  0.87510000  0.00211000  0.99410000  1.0
  H  H4  1  0.39909000  0.72807000  0.64930000  1.0
  H  H5  1  0.67037000  0.79452000  0.84190000  1.0
  H  H6  1  0.81744000  0.73415000  0.88662000  1.0
  H  H7  1  0.65536000  0.67957000  0.72225000  1.0
  H  H8  1  0.92678000  0.33092000  0.28274000  1.0
  H  H9  1  0.91837000  0.21343000  0.16592000  1.0
  H  H10  1  0.19690000  0.22062000  0.18300000  1.0
  H  H11  1  0.11390000  0.28903000  0.48288000  1.0
  H  H12  1  0.34746000  0.31148000  0.45004000  1.0
  H  H13  1  0.44789000  0.16475000  0.42120000  1.0
  H  H14  1  0.36877000  0.20155000  0.51782000  1.0
  H  H15  1  0.20875000  0.13934000  0.44890000  1.0
  H  H16  1  0.12665000  0.34064000  0.19350000  1.0
  H  H17  1  0.38018000  0.35567000  0.21896000  1.0
  H  H18  1  0.30833000  0.49710000  0.29477000  1.0
  H  H19  1  0.20765000  0.48176000  0.20166000  1.0
  H  H20  1  0.04991000  0.48090000  0.27970000  1.0
  H  H21  1  0.56687000  0.84244000  0.71012000  1.0
  H  H22  1  0.90119000  0.60524000  0.87309000  1.0
  H  H23  1  0.05622000  0.58123000  0.79037000  1.0
  H  H24  1  0.90516000  0.44399000  0.74542000  1.0
  H  H25  1  0.99317000  0.45915000  0.84041000  1.0
  H  H26  1  0.73631000  0.46762000  0.82357000  1.0
  H  H27  1  0.31307000  0.09827000  0.30719000  1.0
  H  H28  1  0.29359000  0.02224000  0.21852000  1.0
  H  H29  1  0.93355000  0.00402000  0.24862000  1.0
  H  H30  1  0.09179000  0.98412000  0.31943000  1.0
  H  H31  1  0.96164000  0.07900000  0.33764000  1.0
  H  H32  1  0.64172000  0.60040000  0.48795000  1.0
  H  H33  1  0.14026000  0.41308000  0.43199000  1.0
  H  H34  1  0.62907000  0.90509000  0.00930000  1.0
  H  H35  1  0.12338000  0.09714000  0.05424000  1.0
  C  C36  1  0.62921000  0.41485000  0.58160000  1.0
  C  C37  1  0.64438000  0.38978000  0.38464000  1.0
  C  C38  1  0.14097000  0.59860000  0.42111000  1.0
  C  C39  1  0.12890000  0.60874000  0.61481000  1.0
  C  C40  1  0.97380000  0.70136000  0.73463000  1.0
  C  C41  1  0.12555000  0.68243000  0.68104000  1.0
  C  C42  1  0.27871000  0.73981000  0.69096000  1.0
  C  C43  1  0.27870000  0.81249000  0.74986000  1.0
  C  C44  1  0.12678000  0.82915000  0.80624000  1.0
  C  C45  1  0.97761000  0.77155000  0.79620000  1.0
  C  C46  1  0.79188000  0.75024000  0.83293000  1.0
  C  C47  1  0.77661000  0.67328000  0.76021000  1.0
  C  C48  1  0.12233000  0.86193000  0.13158000  1.0
  C  C49  1  0.12380000  0.82163000  0.17802000  1.0
  C  C50  1  0.12599000  0.77844000  0.22946000  1.0
  C  C51  1  0.12905000  0.73864000  0.27679000  1.0
  C  C52  1  0.13294000  0.69412000  0.32711000  1.0
  C  C53  1  0.13682000  0.65222000  0.37219000  1.0
  C  C54  1  0.62763000  0.36094000  0.63012000  1.0
  C  C55  1  0.62306000  0.31560000  0.67210000  1.0
  C  C56  1  0.62020000  0.26736000  0.71922000  1.0
  C  C57  1  0.61870000  0.22376000  0.76334000  1.0
  C  C58  1  0.61837000  0.17702000  0.81181000  1.0
  C  C59  1  0.61892000  0.13449000  0.85634000  1.0
  C  C60  1  0.47315000  0.26331000  0.30110000  1.0
  C  C61  1  0.63755000  0.31410000  0.31975000  1.0
  C  C62  1  0.79686000  0.29319000  0.26920000  1.0
  C  C63  1  0.79326000  0.22650000  0.20473000  1.0
  C  C64  1  0.62754000  0.17684000  0.18530000  1.0
  C  C65  1  0.46640000  0.19903000  0.23454000  1.0
  C  C66  1  0.24379000  0.19678000  0.23052000  1.0
  C  C67  1  0.25099000  0.26919000  0.30989000  1.0
  C  C68  1  0.62353000  0.11007000  0.11314000  1.0
  C  C69  1  0.62292000  0.08582000  0.90976000  1.0
  C  C70  1  0.12954000  0.89748000  0.87770000  1.0
  C  C71  1  0.12395000  0.91145000  0.07885000  1.0
  C  C72  1  0.23518000  0.26417000  0.44310000  1.0
  C  C73  1  0.31982000  0.18766000  0.45806000  1.0
  C  C74  1  0.22839000  0.37282000  0.23894000  1.0
  C  C75  1  0.19711000  0.46365000  0.25506000  1.0
  C  C76  1  0.43417000  0.87161000  0.74352000  1.0
  C  C77  1  0.91053000  0.56963000  0.81254000  1.0
  C  C78  1  0.88462000  0.47976000  0.80494000  1.0
  C  C79  1  0.21033000  0.06863000  0.26170000  1.0
  C  C80  1  0.03898000  0.03169000  0.29386000  1.0
  O  O81  1  0.48010000  0.41574000  0.41656000  1.0
  O  O82  1  0.79592000  0.42774000  0.55461000  1.0
  O  O83  1  0.96482000  0.57439000  0.59343000  1.0
  O  O84  1  0.81136000  0.42314000  0.40379000  1.0
  O  O85  1  0.97388000  0.58151000  0.44496000  1.0
  O  O86  1  0.46226000  0.44313000  0.56933000  1.0
  O  O87  1  0.63880000  0.55217000  0.50640000  1.0
  O  O88  1  0.31141000  0.57369000  0.43427000  1.0
  O  O89  1  0.29628000  0.58782000  0.58367000  1.0
  O  O90  1  0.13856000  0.45397000  0.48155000  1.0
  O  O91  1  0.79290000  0.06630000  0.92851000  1.0
  O  O92  1  0.45446000  0.08279000  0.08814000  1.0
  O  O93  1  0.29416000  0.93072000  0.05972000  1.0
  O  O94  1  0.45706000  0.06870000  0.93407000  1.0
  O  O95  1  0.29521000  0.91982000  0.90828000  1.0
  O  O96  1  0.78982000  0.08635000  0.08191000  1.0
  O  O97  1  0.62671000  0.95213000  0.98906000  1.0
  O  O98  1  0.96098000  0.92318000  0.90492000  1.0
  O  O99  1  0.95584000  0.93028000  0.05743000  1.0
  O  O100  1  0.12511000  0.05053000  0.00946000  1.0
  O  O101  1  0.14905000  0.24806000  0.36733000  1.0
  O  O102  1  0.18780000  0.34939000  0.30789000  1.0
  O  O103  1  0.42105000  0.94548000  0.76741000  1.0
  O  O104  1  0.75696000  0.59469000  0.76953000  1.0
  O  O105  1  0.13209000  0.12709000  0.22528000  1.0
