# generated using pymatgen
data_Zr3H12C22(NO8)2
_symmetry_space_group_name_H-M   'P 1'
_cell_length_a   13.12060000
_cell_length_b   17.19450000
_cell_length_c   17.29090000
_cell_angle_alpha   83.57730000
_cell_angle_beta   69.19660000
_cell_angle_gamma   68.97140000
_symmetry_Int_Tables_number   1
_chemical_formula_structural   Zr3H12C22(NO8)2
_chemical_formula_sum   'Zr6 H24 C44 N4 O32'
_cell_volume   3403.14841358
_cell_formula_units_Z   2
loop_
 _symmetry_equiv_pos_site_id
 _symmetry_equiv_pos_as_xyz
  1  'x, y, z'
loop_
 _atom_site_type_symbol
 _atom_site_label
 _atom_site_symmetry_multiplicity
 _atom_site_fract_x
 _atom_site_fract_y
 _atom_site_fract_z
 _atom_site_occupancy
  Zr  Zr0  1  0.00056000  0.11281000  0.98996000  1.0
  Zr  Zr1  1  0.00578000  0.94854000  0.13511000  1.0
  Zr  Zr2  1  0.12595000  0.95938000  0.82779000  1.0
  Zr  Zr3  1  0.13555000  0.79743000  0.97437000  1.0
  Zr  Zr4  1  0.26491000  0.94645000  0.97491000  1.0
  Zr  Zr5  1  0.86848000  0.96162000  0.98977000  1.0
  H  H6  1  0.17740000  0.43301000  0.97757000  1.0
  H  H7  1  0.29025000  0.53866000  0.97763000  1.0
  H  H8  1  0.93949000  0.47649000  0.01294000  1.0
  H  H9  1  0.83042000  0.37006000  0.00796000  1.0
  H  H10  1  0.17273000  0.96168000  0.45994000  1.0
  H  H11  1  0.28847000  0.95498000  0.56554000  1.0
  H  H12  1  0.95696000  0.94727000  0.50702000  1.0
  H  H13  1  0.85004000  0.93663000  0.40138000  1.0
  H  H14  1  0.81570000  0.09032000  0.11900000  1.0
  H  H15  1  0.22208000  0.82164000  0.09864000  1.0
  H  H16  1  0.01284000  0.83432000  0.86495000  1.0
  H  H17  1  0.21785000  0.07466000  0.85538000  1.0
  H  H18  1  0.95313000  0.83567000  0.24430000  1.0
  H  H19  1  0.07616000  0.76586000  0.14452000  1.0
  H  H20  1  0.28226000  0.68873000  0.85301000  1.0
  H  H21  1  0.21077000  0.78829000  0.79103000  1.0
  H  H22  1  0.05894000  0.07679000  0.72650000  1.0
  H  H23  1  0.05210000  0.14327000  0.82041000  1.0
  H  H24  1  0.95980000  0.22477000  0.09519000  1.0
  H  H25  1  0.85109000  0.03681000  0.28719000  1.0
  H  H26  1  0.15473000  0.83571000  0.72063000  1.0
  H  H27  1  0.93646000  0.21710000  0.87396000  1.0
  H  H28  1  0.98170000  0.03391000  0.26660000  1.0
  H  H29  1  0.05252000  0.70128000  0.09647000  1.0
  C  C30  1  0.33888000  0.33464000  0.97927000  1.0
  C  C31  1  0.26501000  0.41653000  0.97815000  1.0
  C  C32  1  0.32347000  0.47108000  0.97765000  1.0
  C  C33  1  0.43460000  0.42318000  0.97836000  1.0
  C  C34  1  0.78708000  0.57389000  0.99549000  1.0
  C  C35  1  0.85638000  0.49237000  0.00448000  1.0
  C  C36  1  0.80035000  0.43734000  0.00146000  1.0
  C  C37  1  0.69523000  0.48458000  0.99022000  1.0
  C  C38  1  0.33696000  0.95655000  0.36253000  1.0
  C  C39  1  0.26198000  0.95833000  0.44387000  1.0
  C  C40  1  0.32145000  0.95471000  0.49840000  1.0
  C  C41  1  0.43440000  0.95078000  0.45105000  1.0
  C  C42  1  0.79282000  0.95107000  0.60393000  1.0
  C  C43  1  0.86943000  0.94690000  0.52279000  1.0
  C  C44  1  0.81381000  0.94232000  0.46832000  1.0
  C  C45  1  0.70151000  0.94411000  0.51536000  1.0
  C  C46  1  0.24111000  0.13729000  0.98432000  1.0
  C  C47  1  0.73583000  0.95301000  0.18771000  1.0
  C  C48  1  0.23874000  0.95399000  0.16748000  1.0
  C  C49  1  0.73270000  0.15570000  0.98307000  1.0
  C  C50  1  0.89021000  0.96666000  0.79592000  1.0
  C  C51  1  0.40491000  0.74736000  0.96408000  1.0
  C  C52  1  0.89028000  0.76784000  0.99522000  1.0
  C  C53  1  0.39995000  0.94121000  0.77864000  1.0
  C  C54  1  0.81086000  0.95743000  0.67713000  1.0
  C  C55  1  0.84109000  0.96351000  0.73472000  1.0
  C  C56  1  0.59472000  0.94623000  0.66227000  1.0
  C  C57  1  0.50594000  0.94210000  0.71455000  1.0
  C  C58  1  0.53949000  0.95143000  0.30396000  1.0
  C  C59  1  0.63004000  0.95129000  0.25093000  1.0
  C  C60  1  0.31642000  0.95733000  0.28885000  1.0
  C  C61  1  0.28611000  0.95753000  0.22965000  1.0
  C  C62  1  0.52755000  0.94688000  0.47367000  1.0
  C  C63  1  0.61033000  0.94416000  0.49236000  1.0
  C  C64  1  0.80796000  0.64757000  0.99581000  1.0
  C  C65  1  0.83966000  0.70593000  0.99746000  1.0
  C  C66  1  0.50996000  0.68345000  0.96730000  1.0
  C  C67  1  0.59665000  0.63181000  0.97650000  1.0
  C  C68  1  0.62745000  0.21910000  0.97966000  1.0
  C  C69  1  0.53845000  0.27456000  0.97954000  1.0
  C  C70  1  0.31942000  0.26014000  0.98085000  1.0
  C  C71  1  0.29104000  0.19944000  0.98286000  1.0
  C  C72  1  0.52558000  0.44516000  0.98049000  1.0
  C  C73  1  0.60653000  0.46221000  0.98432000  1.0
  N  N74  1  0.44419000  0.33885000  0.97892000  1.0
  N  N75  1  0.68685000  0.56906000  0.98638000  1.0
  N  N76  1  0.44407000  0.95203000  0.36704000  1.0
  N  N77  1  0.68907000  0.94852000  0.59925000  1.0
  O  O78  1  0.13374000  0.16692000  0.99175000  1.0
  O  O79  1  0.30515000  0.06054000  0.97752000  1.0
  O  O80  1  0.81860000  0.95010000  0.21237000  1.0
  O  O81  1  0.73729000  0.95780000  0.11362000  1.0
  O  O82  1  0.13057000  0.96200000  0.19579000  1.0
  O  O83  1  0.30468000  0.94191000  0.09232000  1.0
  O  O84  1  0.81790000  0.17914000  0.97298000  1.0
  O  O85  1  0.73016000  0.08160000  0.99718000  1.0
  O  O86  1  0.91198000  0.20223000  0.07909000  1.0
  O  O87  1  0.01684000  0.18606000  0.86989000  1.0
  O  O88  1  0.91788000  0.04618000  0.24486000  1.0
  O  O89  1  0.02691000  0.83755000  0.20534000  1.0
  O  O90  1  0.09817000  0.01477000  0.04685000  1.0
  O  O91  1  0.88387000  0.04922000  0.08238000  1.0
  O  O92  1  0.99585000  0.96533000  0.76602000  1.0
  O  O93  1  0.82888000  0.96899000  0.87192000  1.0
  O  O94  1  0.32383000  0.72382000  0.96169000  1.0
  O  O95  1  0.40172000  0.82211000  0.96556000  1.0
  O  O96  1  0.99438000  0.73919000  0.99687000  1.0
  O  O97  1  0.83076000  0.84426000  0.99058000  1.0
  O  O98  1  0.31750000  0.94185000  0.75600000  1.0
  O  O99  1  0.39953000  0.94141000  0.85262000  1.0
  O  O100  1  0.20553000  0.83816000  0.74913000  1.0
  O  O101  1  0.10748000  0.07071000  0.75975000  1.0
  O  O102  1  0.20474000  0.72898000  0.86153000  1.0
  O  O103  1  0.11253000  0.72318000  0.09455000  1.0
  O  O104  1  0.02830000  0.86962000  0.89619000  1.0
  O  O105  1  0.20178000  0.88803000  0.91331000  1.0
  O  O106  1  0.98072000  0.02183000  0.92474000  1.0
  O  O107  1  0.17968000  0.85759000  0.06456000  1.0
  O  O108  1  0.17435000  0.04173000  0.89207000  1.0
  O  O109  1  0.98449000  0.89150000  0.04783000  1.0
