# generated using pymatgen
data_Cu2H20C15N2O7
_symmetry_space_group_name_H-M   'P 1'
_cell_length_a   7.02078000
_cell_length_b   9.33295999
_cell_length_c   15.36670000
_cell_angle_alpha   104.53293157
_cell_angle_beta   90.00330000
_cell_angle_gamma   112.08578390
_symmetry_Int_Tables_number   1
_chemical_formula_structural   Cu2H20C15N2O7
_chemical_formula_sum   'Cu4 H40 C30 N4 O14'
_cell_volume   898.14394301
_cell_formula_units_Z   2
loop_
 _symmetry_equiv_pos_site_id
 _symmetry_equiv_pos_as_xyz
  1  'x, y, z'
loop_
 _atom_site_type_symbol
 _atom_site_label
 _atom_site_symmetry_multiplicity
 _atom_site_fract_x
 _atom_site_fract_y
 _atom_site_fract_z
 _atom_site_occupancy
  Cu  Cu0  1  0.49077000  0.09809000  0.09687000  1.0
  Cu  Cu1  1  0.39246000  0.90180000  0.40316000  1.0
  Cu  Cu2  1  0.50903000  0.90171000  0.90301000  1.0
  Cu  Cu3  1  0.60744000  0.09833000  0.59688000  1.0
  H  H4  1  0.67789000  0.28577000  0.27923000  1.0
  H  H5  1  0.39268000  0.71421000  0.22089000  1.0
  H  H6  1  0.32199000  0.71398000  0.72066000  1.0
  H  H7  1  0.60743000  0.28604000  0.77919000  1.0
  H  H8  1  0.84652000  0.58128000  0.36297000  1.0
  H  H9  1  0.26594000  0.41870000  0.13709000  1.0
  H  H10  1  0.15341000  0.41850000  0.63692000  1.0
  H  H11  1  0.73429000  0.58147000  0.86296000  1.0
  H  H12  1  0.92756000  0.78313000  0.27340000  1.0
  H  H13  1  0.14440000  0.21679000  0.22661000  1.0
  H  H14  1  0.07240000  0.21662000  0.72652000  1.0
  H  H15  1  0.85596000  0.78346000  0.77343000  1.0
  H  H16  1  0.81881000  0.68500000  0.10643000  1.0
  H  H17  1  0.13339000  0.31482000  0.39351000  1.0
  H  H18  1  0.18087000  0.31468000  0.89349000  1.0
  H  H19  1  0.86671000  0.68544000  0.60652000  1.0
  H  H20  1  0.64450000  0.47314000  0.97822000  1.0
  H  H21  1  0.17113000  0.52683000  0.52181000  1.0
  H  H22  1  0.35541000  0.52670000  0.02169000  1.0
  H  H23  1  0.82884000  0.47326000  0.47823000  1.0
  H  H24  1  0.43686000  0.30887000  0.00011000  1.0
  H  H25  1  0.12781000  0.69112000  0.49990000  1.0
  H  H26  1  0.56282000  0.69118000  0.99982000  1.0
  H  H27  1  0.87194000  0.30888000  0.50012000  1.0
  H  H28  1  0.64474000  0.22204000  0.88547000  1.0
  H  H29  1  0.42249000  0.77794000  0.61453000  1.0
  H  H30  1  0.35421000  0.77754000  0.11442000  1.0
  H  H31  1  0.57708000  0.22234000  0.38553000  1.0
  H  H32  1  0.87116000  0.32106000  0.96348000  1.0
  H  H33  1  0.54983000  0.67879000  0.53655000  1.0
  H  H34  1  0.12822000  0.67847000  0.03613000  1.0
  H  H35  1  0.45003000  0.32152000  0.46369000  1.0
  H  H36  1  0.06220000  0.07692000  0.96196000  1.0
  H  H37  1  0.98446000  0.92262000  0.53861000  1.0
  H  H38  1  0.93878000  0.92106000  0.04088000  1.0
  H  H39  1  0.01711000  0.07848000  0.45976000  1.0
  H  H40  1  0.91593000  0.14952000  0.00980000  1.0
  H  H41  1  0.76602000  0.85087000  0.49027000  1.0
  H  H42  1  0.08631000  0.85232000  0.99040000  1.0
  H  H43  1  0.23405000  0.14805000  0.50962000  1.0
  C  C44  1  0.70625000  0.38049000  0.24555000  1.0
  C  C45  1  0.32618000  0.61950000  0.25453000  1.0
  C  C46  1  0.29363000  0.61928000  0.75434000  1.0
  C  C47  1  0.67398000  0.38073000  0.74553000  1.0
  C  C48  1  0.80267000  0.54259000  0.29040000  1.0
  C  C49  1  0.26042000  0.45739000  0.20963000  1.0
  C  C50  1  0.19726000  0.45716000  0.70951000  1.0
  C  C51  1  0.73980000  0.54285000  0.79042000  1.0
  C  C52  1  0.84482000  0.65543000  0.24083000  1.0
  C  C53  1  0.18934000  0.34451000  0.25914000  1.0
  C  C54  1  0.15510000  0.34433000  0.75908000  1.0
  C  C55  1  0.81097000  0.65573000  0.74091000  1.0
  C  C56  1  0.78568000  0.60115000  0.14805000  1.0
  C  C57  1  0.18414000  0.39867000  0.35190000  1.0
  C  C58  1  0.21414000  0.39858000  0.85188000  1.0
  C  C59  1  0.81601000  0.60156000  0.64813000  1.0
  C  C60  1  0.68166000  0.43697000  0.10720000  1.0
  C  C61  1  0.24440000  0.56289000  0.39281000  1.0
  C  C62  1  0.31816000  0.56281000  0.89270000  1.0
  C  C63  1  0.75566000  0.43732000  0.60725000  1.0
  C  C64  1  0.60643000  0.37260000  0.00863000  1.0
  C  C65  1  0.23359000  0.62732000  0.49138000  1.0
  C  C66  1  0.39327000  0.62723000  0.99129000  1.0
  C  C67  1  0.76631000  0.37282000  0.50867000  1.0
  C  C68  1  0.70158000  0.25836000  0.95732000  1.0
  C  C69  1  0.44297000  0.74151000  0.54269000  1.0
  C  C70  1  0.29781000  0.74130000  0.04252000  1.0
  C  C71  1  0.55686000  0.25873000  0.45741000  1.0
  C  C72  1  0.38445000  0.00001000  0.25016000  1.0
  C  C73  1  0.61502000  0.99996000  0.74977000  1.0
  N  N74  1  0.64413000  0.32890000  0.15630000  1.0
  N  N75  1  0.31516000  0.67100000  0.34375000  1.0
  N  N76  1  0.35573000  0.67087000  0.84361000  1.0
  N  N77  1  0.68489000  0.32920000  0.65631000  1.0
  O  O78  1  0.64646000  0.11759000  0.98853000  1.0
  O  O79  1  0.52871000  0.88230000  0.51148000  1.0
  O  O80  1  0.35307000  0.88214000  0.01134000  1.0
  O  O81  1  0.47113000  0.11792000  0.48860000  1.0
  O  O82  1  0.30627000  0.04347000  0.18839000  1.0
  O  O83  1  0.26224000  0.95635000  0.31169000  1.0
  O  O84  1  0.69302000  0.95615000  0.81141000  1.0
  O  O85  1  0.73746000  0.04391000  0.68836000  1.0
  O  O86  1  0.56575000  0.00023000  0.25039000  1.0
  O  O87  1  0.43379000  0.99983000  0.74952000  1.0
  O  O88  1  0.06541000  0.17014000  0.00927000  1.0
  O  O89  1  0.89505000  0.83039000  0.49065000  1.0
  O  O90  1  0.93688000  0.83261000  0.99046000  1.0
  O  O91  1  0.10445000  0.16791000  0.50957000  1.0
