# generated using pymatgen
data_ZnH6(C5N3)2
_symmetry_space_group_name_H-M   'P 1'
_cell_length_a   7.25186000
_cell_length_b   15.21440000
_cell_length_c   18.71000000
_cell_angle_alpha   89.99970000
_cell_angle_beta   89.99960000
_cell_angle_gamma   86.77610000
_symmetry_Int_Tables_number   1
_chemical_formula_structural   ZnH6(C5N3)2
_chemical_formula_sum   'Zn4 H24 C40 N24'
_cell_volume   2061.05777783
_cell_formula_units_Z   4
loop_
 _symmetry_equiv_pos_site_id
 _symmetry_equiv_pos_as_xyz
  1  'x, y, z'
loop_
 _atom_site_type_symbol
 _atom_site_label
 _atom_site_symmetry_multiplicity
 _atom_site_fract_x
 _atom_site_fract_y
 _atom_site_fract_z
 _atom_site_occupancy
  Zn  Zn0  1  0.64062000  0.97721000  0.07920000  1.0
  Zn  Zn1  1  0.64062000  0.47721000  0.42080000  1.0
  Zn  Zn2  1  0.35938000  0.52279000  0.57920000  1.0
  Zn  Zn3  1  0.35938000  0.02280000  0.92080000  1.0
  H  H4  1  0.66212000  0.61336000  0.66761000  1.0
  H  H5  1  0.05409000  0.98501000  0.82715000  1.0
  H  H6  1  0.66211000  0.11337000  0.83240000  1.0
  H  H7  1  0.03137000  0.12981000  0.26137000  1.0
  H  H8  1  0.03136000  0.62980000  0.23863000  1.0
  H  H9  1  0.94590000  0.01499000  0.17285000  1.0
  H  H10  1  0.33788000  0.38663000  0.33239000  1.0
  H  H11  1  0.98117000  0.58583000  0.47260000  1.0
  H  H12  1  0.01883000  0.41417000  0.52741000  1.0
  H  H13  1  0.96863000  0.37020000  0.76137000  1.0
  H  H14  1  0.94589000  0.51499000  0.32715000  1.0
  H  H15  1  0.40963000  0.62354000  0.34268000  1.0
  H  H16  1  0.59038000  0.87647000  0.84267000  1.0
  H  H17  1  0.40962000  0.12353000  0.15733000  1.0
  H  H18  1  0.01884000  0.91417000  0.97259000  1.0
  H  H19  1  0.52895000  0.26018000  0.74749000  1.0
  H  H20  1  0.05410000  0.48501000  0.67284000  1.0
  H  H21  1  0.33789000  0.88663000  0.16760000  1.0
  H  H22  1  0.96862000  0.87019000  0.73864000  1.0
  H  H23  1  0.52895000  0.76019000  0.75250000  1.0
  H  H24  1  0.59037000  0.37646000  0.65732000  1.0
  H  H25  1  0.47104000  0.23981000  0.24750000  1.0
  H  H26  1  0.47105000  0.73982000  0.25251000  1.0
  H  H27  1  0.98117000  0.08583000  0.02741000  1.0
  C  C28  1  0.41977000  0.30833000  0.73165000  1.0
  C  C29  1  0.75858000  0.19482000  0.26098000  1.0
  C  C30  1  0.11892000  0.41675000  0.48450000  1.0
  C  C31  1  0.19322000  0.23791000  0.81165000  1.0
  C  C32  1  0.84555000  0.56680000  0.30982000  1.0
  C  C33  1  0.19322000  0.73791000  0.68835000  1.0
  C  C34  1  0.96186000  0.84055000  0.12066000  1.0
  C  C35  1  0.15444000  0.93319000  0.80982000  1.0
  C  C36  1  0.71976000  0.09637000  0.88439000  1.0
  C  C37  1  0.11893000  0.91675000  0.01550000  1.0
  C  C38  1  0.11133000  0.88290000  0.08505000  1.0
  C  C39  1  0.80678000  0.76209000  0.18835000  1.0
  C  C40  1  0.58023000  0.69167000  0.26834000  1.0
  C  C41  1  0.24142000  0.80519000  0.73902000  1.0
  C  C42  1  0.54543000  0.12699000  0.18202000  1.0
  C  C43  1  0.80678000  0.26209000  0.31165000  1.0
  C  C44  1  0.88867000  0.11710000  0.91495000  1.0
  C  C45  1  0.28023000  0.40364000  0.38438000  1.0
  C  C46  1  0.84556000  0.06681000  0.19018000  1.0
  C  C47  1  0.88108000  0.08326000  0.98450000  1.0
  C  C48  1  0.10745000  0.37011000  0.73915000  1.0
  C  C49  1  0.28024000  0.90363000  0.11561000  1.0
  C  C50  1  0.58022000  0.19166000  0.23166000  1.0
  C  C51  1  0.75857000  0.69481000  0.23902000  1.0
  C  C52  1  0.03815000  0.15945000  0.87934000  1.0
  C  C53  1  0.03814000  0.65945000  0.62066000  1.0
  C  C54  1  0.10745000  0.87011000  0.76084000  1.0
  C  C55  1  0.15445000  0.43320000  0.69018000  1.0
  C  C56  1  0.11133000  0.38290000  0.41495000  1.0
  C  C57  1  0.24142000  0.30518000  0.76098000  1.0
  C  C58  1  0.45457000  0.87301000  0.81798000  1.0
  C  C59  1  0.88867000  0.61710000  0.58505000  1.0
  C  C60  1  0.41977000  0.80834000  0.76834000  1.0
  C  C61  1  0.96186000  0.34055000  0.37934000  1.0
  C  C62  1  0.71977000  0.59636000  0.61562000  1.0
  C  C63  1  0.54543000  0.62700000  0.31798000  1.0
  C  C64  1  0.89255000  0.12989000  0.23916000  1.0
  C  C65  1  0.88108000  0.58325000  0.51550000  1.0
  C  C66  1  0.45457000  0.37300000  0.68202000  1.0
  C  C67  1  0.89255000  0.62989000  0.26084000  1.0
  N  N68  1  0.37819000  0.94835000  0.06812000  1.0
  N  N69  1  0.31915000  0.18028000  0.84070000  1.0
  N  N70  1  0.21969000  0.63000000  0.61539000  1.0
  N  N71  1  0.21969000  0.13001000  0.88461000  1.0
  N  N72  1  0.01661000  0.72737000  0.66601000  1.0
  N  N73  1  0.68085000  0.81972000  0.15930000  1.0
  N  N74  1  0.27869000  0.95650000  0.00605000  1.0
  N  N75  1  0.72132000  0.54349000  0.50605000  1.0
  N  N76  1  0.78031000  0.87000000  0.11539000  1.0
  N  N77  1  0.32471000  0.93486000  0.83898000  1.0
  N  N78  1  0.68085000  0.31972000  0.34070000  1.0
  N  N79  1  0.67528000  0.56514000  0.33899000  1.0
  N  N80  1  0.62181000  0.55164000  0.56813000  1.0
  N  N81  1  0.78031000  0.37000000  0.38461000  1.0
  N  N82  1  0.62181000  0.05165000  0.93188000  1.0
  N  N83  1  0.98338000  0.77263000  0.16600000  1.0
  N  N84  1  0.31915000  0.68028000  0.65930000  1.0
  N  N85  1  0.67528000  0.06514000  0.16102000  1.0
  N  N86  1  0.37818000  0.44836000  0.43187000  1.0
  N  N87  1  0.32472000  0.43486000  0.66101000  1.0
  N  N88  1  0.72132000  0.04350000  0.99395000  1.0
  N  N89  1  0.27868000  0.45651000  0.49395000  1.0
  N  N90  1  0.01662000  0.22737000  0.83400000  1.0
  N  N91  1  0.98339000  0.27263000  0.33400000  1.0
