# generated using pymatgen
data_YH9C12(NO)6
_symmetry_space_group_name_H-M   'P 1'
_cell_length_a   10.40040000
_cell_length_b   11.36380000
_cell_length_c   16.36890000
_cell_angle_alpha   99.92760000
_cell_angle_beta   104.80000000
_cell_angle_gamma   108.69100000
_symmetry_Int_Tables_number   1
_chemical_formula_structural   YH9C12(NO)6
_chemical_formula_sum   'Y4 H36 C48 N24 O24'
_cell_volume   1702.12668978
_cell_formula_units_Z   4
loop_
 _symmetry_equiv_pos_site_id
 _symmetry_equiv_pos_as_xyz
  1  'x, y, z'
loop_
 _atom_site_type_symbol
 _atom_site_label
 _atom_site_symmetry_multiplicity
 _atom_site_fract_x
 _atom_site_fract_y
 _atom_site_fract_z
 _atom_site_occupancy
  Y  Y0  1  0.97595000  0.21066000  0.23784000  1.0
  Y  Y1  1  0.02405000  0.78934000  0.76216000  1.0
  Y  Y2  1  0.26228000  0.54689000  0.25971000  1.0
  Y  Y3  1  0.73772000  0.45311000  0.74029000  1.0
  H  H4  1  0.80156000  0.46838000  0.54379000  1.0
  H  H5  1  0.19844000  0.53162000  0.45621000  1.0
  H  H6  1  0.82612000  0.29199000  0.89434000  1.0
  H  H7  1  0.17388000  0.70801000  0.10566000  1.0
  H  H8  1  0.95119000  0.77973000  0.96841000  1.0
  H  H9  1  0.04881000  0.22027000  0.03159000  1.0
  H  H10  1  0.00143000  0.92374000  0.17424000  1.0
  H  H11  1  0.99857000  0.07626000  0.82576000  1.0
  H  H12  1  0.59342000  0.56476000  0.40002000  1.0
  H  H13  1  0.40659000  0.43524000  0.59998000  1.0
  H  H14  1  0.79089000  0.37013000  0.32627000  1.0
  H  H15  1  0.20911000  0.62987000  0.67374000  1.0
  H  H16  1  0.06197000  0.19814000  0.48999000  1.0
  H  H17  1  0.93804000  0.80186000  0.51001000  1.0
  H  H18  1  0.05658000  0.26897000  0.64415000  1.0
  H  H19  1  0.94342000  0.73103000  0.35585000  1.0
  H  H20  1  0.92191000  0.55561000  0.18320000  1.0
  H  H21  1  0.07809000  0.44439000  0.81680000  1.0
  H  H22  1  0.78194000  0.60290000  0.05097000  1.0
  H  H23  1  0.21806000  0.39710000  0.94903000  1.0
  H  H24  1  0.68487000  0.05373000  0.99585000  1.0
  H  H25  1  0.31513000  0.94627000  0.00415000  1.0
  H  H26  1  0.69463000  0.96428000  0.84630000  1.0
  H  H27  1  0.30537000  0.03572000  0.15370000  1.0
  H  H28  1  0.24631000  0.04172000  0.44426000  1.0
  H  H29  1  0.75369000  0.95828000  0.55574000  1.0
  H  H30  1  0.35882000  0.88097000  0.40672000  1.0
  H  H31  1  0.64118000  0.11903000  0.59328000  1.0
  H  H32  1  0.44801000  0.77207000  0.57004000  1.0
  H  H33  1  0.55199000  0.22793000  0.42996000  1.0
  H  H34  1  0.63404000  0.75415000  0.69637000  1.0
  H  H35  1  0.36596000  0.24585000  0.30363000  1.0
  H  H36  1  0.40607000  0.38909000  0.09961000  1.0
  H  H37  1  0.59393000  0.61091000  0.90039000  1.0
  H  H38  1  0.54900000  0.25953000  0.05698000  1.0
  H  H39  1  0.45100000  0.74047000  0.94302000  1.0
  C  C40  1  0.92634000  0.29670000  0.43667000  1.0
  C  C41  1  0.07366000  0.70330000  0.56333000  1.0
  C  C42  1  0.00305000  0.25748000  0.50624000  1.0
  C  C43  1  0.99695000  0.74252000  0.49376000  1.0
  C  C44  1  0.99995000  0.29555000  0.58912000  1.0
  C  C45  1  0.00005000  0.70445000  0.41088000  1.0
  C  C46  1  0.91910000  0.37278000  0.60652000  1.0
  C  C47  1  0.08089000  0.62722000  0.39348000  1.0
  C  C48  1  0.95027000  0.39803000  0.10375000  1.0
  C  C49  1  0.04973000  0.60197000  0.89625000  1.0
  C  C50  1  0.89575000  0.49890000  0.11599000  1.0
  C  C51  1  0.10425000  0.50110000  0.88401000  1.0
  C  C52  1  0.81977000  0.52382000  0.04480000  1.0
  C  C53  1  0.18023000  0.47618000  0.95520000  1.0
  C  C54  1  0.79569000  0.44993000  0.95767000  1.0
  C  C55  1  0.20431000  0.55007000  0.04233000  1.0
  C  C56  1  0.82100000  0.96331000  0.06152000  1.0
  C  C57  1  0.17900000  0.03669000  0.93848000  1.0
  C  C58  1  0.74266000  0.99071000  0.98550000  1.0
  C  C59  1  0.25734000  0.00929000  0.01450000  1.0
  C  C60  1  0.74804000  0.94271000  0.90495000  1.0
  C  C61  1  0.25196000  0.05729000  0.09505000  1.0
  C  C62  1  0.83309000  0.86626000  0.89589000  1.0
  C  C63  1  0.16691000  0.13374000  0.10411000  1.0
  C  C64  1  0.11450000  0.00159000  0.30878000  1.0
  C  C65  1  0.88550000  0.99841000  0.69122000  1.0
  C  C66  1  0.21863000  0.98378000  0.37728000  1.0
  C  C67  1  0.78137000  0.01622000  0.62272000  1.0
  C  C68  1  0.27985000  0.89810000  0.35704000  1.0
  C  C69  1  0.72015000  0.10190000  0.64296000  1.0
  C  C70  1  0.23795000  0.82396000  0.26718000  1.0
  C  C71  1  0.76205000  0.17604000  0.73282000  1.0
  C  C72  1  0.50489000  0.66632000  0.47086000  1.0
  C  C73  1  0.49511000  0.33368000  0.52914000  1.0
  C  C74  1  0.52025000  0.72400000  0.55990000  1.0
  C  C75  1  0.47975000  0.27600000  0.44010000  1.0
  C  C76  1  0.61876000  0.71295000  0.62780000  1.0
  C  C77  1  0.38124000  0.28705000  0.37220000  1.0
  C  C78  1  0.70645000  0.64335000  0.60995000  1.0
  C  C79  1  0.29355000  0.35665000  0.39005000  1.0
  C  C80  1  0.53090000  0.44745000  0.23862000  1.0
  C  C81  1  0.46910000  0.55255000  0.76138000  1.0
  C  C82  1  0.49556000  0.38172000  0.14756000  1.0
  C  C83  1  0.50444000  0.61828000  0.85244000  1.0
  C  C84  1  0.57246000  0.31235000  0.12469000  1.0
  C  C85  1  0.42755000  0.68765000  0.87531000  1.0
  C  C86  1  0.68857000  0.30536000  0.19118000  1.0
  C  C87  1  0.31143000  0.69464000  0.80882000  1.0
  N  N88  1  0.85551000  0.40732000  0.53624000  1.0
  N  N89  1  0.14449000  0.59268000  0.46376000  1.0
  N  N90  1  0.85592000  0.37243000  0.45356000  1.0
  N  N91  1  0.14408000  0.62757000  0.54644000  1.0
  N  N92  1  0.91998000  0.32305000  0.02410000  1.0
  N  N93  1  0.08002000  0.67695000  0.97590000  1.0
  N  N94  1  0.84129000  0.34927000  0.95503000  1.0
  N  N95  1  0.15871000  0.65073000  0.04497000  1.0
  N  N96  1  0.88703000  0.88106000  0.05153000  1.0
  N  N97  1  0.11297000  0.11894000  0.94847000  1.0
  N  N98  1  0.89009000  0.83594000  0.97010000  1.0
  N  N99  1  0.10991000  0.16407000  0.02990000  1.0
  N  N100  1  0.07867000  0.92129000  0.22756000  1.0
  N  N101  1  0.92134000  0.07871000  0.77244000  1.0
  N  N102  1  0.13600000  0.83540000  0.20426000  1.0
  N  N103  1  0.86399000  0.16460000  0.79574000  1.0
  N  N104  1  0.59973000  0.60890000  0.46243000  1.0
  N  N105  1  0.40027000  0.39110000  0.53757000  1.0
  N  N106  1  0.69697000  0.59359000  0.52809000  1.0
  N  N107  1  0.30303000  0.40641000  0.47191000  1.0
  N  N108  1  0.64099000  0.44444000  0.30020000  1.0
  N  N109  1  0.35901000  0.55556000  0.69980000  1.0
  N  N110  1  0.71424000  0.37533000  0.27420000  1.0
  N  N111  1  0.28576000  0.62467000  0.72580000  1.0
  O  O112  1  0.90530000  0.40727000  0.68122000  1.0
  O  O113  1  0.09470000  0.59273000  0.31878000  1.0
  O  O114  1  0.92256000  0.26282000  0.35593000  1.0
  O  O115  1  0.07744000  0.73718000  0.64407000  1.0
  O  O116  1  0.03624000  0.38069000  0.17143000  1.0
  O  O117  1  0.96377000  0.61931000  0.82857000  1.0
  O  O118  1  0.74024000  0.47657000  0.88820000  1.0
  O  O119  1  0.25976000  0.52343000  0.11180000  1.0
  O  O120  1  0.83282000  0.01887000  0.14076000  1.0
  O  O121  1  0.16718000  0.98113000  0.85924000  1.0
  O  O122  1  0.85607000  0.82948000  0.82493000  1.0
  O  O123  1  0.14393000  0.17052000  0.17507000  1.0
  O  O124  1  0.05935000  0.08579000  0.32133000  1.0
  O  O125  1  0.94065000  0.91421000  0.67867000  1.0
  O  O126  1  0.29464000  0.74264000  0.24341000  1.0
  O  O127  1  0.70536000  0.25736000  0.75659000  1.0
  O  O128  1  0.40981000  0.66652000  0.40417000  1.0
  O  O129  1  0.59019000  0.33348000  0.59583000  1.0
  O  O130  1  0.79654000  0.62402000  0.67431000  1.0
  O  O131  1  0.20346000  0.37598000  0.32569000  1.0
  O  O132  1  0.45779000  0.51039000  0.26525000  1.0
  O  O133  1  0.54221000  0.48961000  0.73475000  1.0
  O  O134  1  0.76289000  0.23991000  0.17521000  1.0
  O  O135  1  0.23710000  0.76008000  0.82479000  1.0
