# generated using pymatgen
data_UAg2H18C34(N2O5)2
_symmetry_space_group_name_H-M   'P 1'
_cell_length_a   7.30147000
_cell_length_b   11.78676120
_cell_length_c   18.41860000
_cell_angle_alpha   106.15782734
_cell_angle_beta   90.00140000
_cell_angle_gamma   108.02706797
_symmetry_Int_Tables_number   1
_chemical_formula_structural   UAg2H18C34(N2O5)2
_chemical_formula_sum   'U2 Ag4 H36 C68 N8 O20'
_cell_volume   1441.31040971
_cell_formula_units_Z   2
loop_
 _symmetry_equiv_pos_site_id
 _symmetry_equiv_pos_as_xyz
  1  'x, y, z'
loop_
 _atom_site_type_symbol
 _atom_site_label
 _atom_site_symmetry_multiplicity
 _atom_site_fract_x
 _atom_site_fract_y
 _atom_site_fract_z
 _atom_site_occupancy
  U  U0  1  0.51777000  0.99997000  0.25001000  1.0
  U  U1  1  0.48223000  0.00003000  0.74999000  1.0
  Ag  Ag2  1  0.01168000  0.78745000  0.15814000  1.0
  Ag  Ag3  1  0.22455000  0.21261000  0.34172000  1.0
  Ag  Ag4  1  0.98832000  0.21255000  0.84186000  1.0
  Ag  Ag5  1  0.77544000  0.78739000  0.65828000  1.0
  H  H6  1  0.82467000  0.76925000  0.98783000  1.0
  H  H7  1  0.05533000  0.23093000  0.51204000  1.0
  H  H8  1  0.17532000  0.23074000  0.01216000  1.0
  H  H9  1  0.94467000  0.76907000  0.48796000  1.0
  H  H10  1  0.65883000  0.60801000  0.86859000  1.0
  H  H11  1  0.05119000  0.39225000  0.63136000  1.0
  H  H12  1  0.34116000  0.39198000  0.13141000  1.0
  H  H13  1  0.94882000  0.60775000  0.36864000  1.0
  H  H14  1  0.57219000  0.37961000  0.86290000  1.0
  H  H15  1  0.19276000  0.62062000  0.63702000  1.0
  H  H16  1  0.42782000  0.62039000  0.13710000  1.0
  H  H17  1  0.80724000  0.37938000  0.36298000  1.0
  H  H18  1  0.84322000  0.24540000  0.17248000  1.0
  H  H19  1  0.59806000  0.75474000  0.32745000  1.0
  H  H20  1  0.15680000  0.75461000  0.82752000  1.0
  H  H21  1  0.40195000  0.24527000  0.67255000  1.0
  H  H22  1  0.05463000  0.42116000  0.27751000  1.0
  H  H23  1  0.63332000  0.57890000  0.22235000  1.0
  H  H24  1  0.94539000  0.57885000  0.72249000  1.0
  H  H25  1  0.36667000  0.42110000  0.77765000  1.0
  H  H26  1  0.13089000  0.64155000  0.26898000  1.0
  H  H27  1  0.48889000  0.35851000  0.23082000  1.0
  H  H28  1  0.86912000  0.35845000  0.73102000  1.0
  H  H29  1  0.51111000  0.64149000  0.76918000  1.0
  H  H30  1  0.57334000  0.22299000  0.92848000  1.0
  H  H31  1  0.35079000  0.77723000  0.57149000  1.0
  H  H32  1  0.42665000  0.77700000  0.07152000  1.0
  H  H33  1  0.64921000  0.22277000  0.42851000  1.0
  H  H34  1  0.66386000  0.17320000  0.04338000  1.0
  H  H35  1  0.49088000  0.82698000  0.45656000  1.0
  H  H36  1  0.33616000  0.82681000  0.95663000  1.0
  H  H37  1  0.50912000  0.17302000  0.54345000  1.0
  H  H38  1  0.34950000  0.03435000  0.02735000  1.0
  H  H39  1  0.31552000  0.96614000  0.47275000  1.0
  H  H40  1  0.65050000  0.96565000  0.97265000  1.0
  H  H41  1  0.68448000  0.03387000  0.52724000  1.0
  C  C42  1  0.78852000  0.67067000  0.98372000  1.0
  C  C43  1  0.11810000  0.32952000  0.51621000  1.0
  C  C44  1  0.21147000  0.32932000  0.01627000  1.0
  C  C45  1  0.88190000  0.67048000  0.48379000  1.0
  C  C46  1  0.69303000  0.57893000  0.91659000  1.0
  C  C47  1  0.11453000  0.42130000  0.58336000  1.0
  C  C48  1  0.30697000  0.42106000  0.08341000  1.0
  C  C49  1  0.88547000  0.57870000  0.41664000  1.0
  C  C50  1  0.64587000  0.45473000  0.91361000  1.0
  C  C51  1  0.19148000  0.54548000  0.58634000  1.0
  C  C52  1  0.35412000  0.54526000  0.08639000  1.0
  C  C53  1  0.80851000  0.45451000  0.41366000  1.0
  C  C54  1  0.69773000  0.42348000  0.97760000  1.0
  C  C55  1  0.27456000  0.57672000  0.52235000  1.0
  C  C56  1  0.30226000  0.57651000  0.02241000  1.0
  C  C57  1  0.72544000  0.42328000  0.47765000  1.0
  C  C58  1  0.79857000  0.52271000  0.04237000  1.0
  C  C59  1  0.27622000  0.47745000  0.45758000  1.0
  C  C60  1  0.20143000  0.47729000  0.95763000  1.0
  C  C61  1  0.72379000  0.52255000  0.54242000  1.0
  C  C62  1  0.86227000  0.49305000  0.10726000  1.0
  C  C63  1  0.36931000  0.50710000  0.39265000  1.0
  C  C64  1  0.13774000  0.50695000  0.89274000  1.0
  C  C65  1  0.63069000  0.49290000  0.60735000  1.0
  C  C66  1  0.81164000  0.36601000  0.10661000  1.0
  C  C67  1  0.44563000  0.63415000  0.39328000  1.0
  C  C68  1  0.18836000  0.63399000  0.89340000  1.0
  C  C69  1  0.55437000  0.36585000  0.60672000  1.0
  C  C70  1  0.88017000  0.34112000  0.17036000  1.0
  C  C71  1  0.53910000  0.65900000  0.32955000  1.0
  C  C72  1  0.11984000  0.65888000  0.82965000  1.0
  C  C73  1  0.46091000  0.34100000  0.67045000  1.0
  C  C74  1  0.99587000  0.43872000  0.22896000  1.0
  C  C75  1  0.55706000  0.56137000  0.27090000  1.0
  C  C76  1  0.00413000  0.56128000  0.77104000  1.0
  C  C77  1  0.44295000  0.43864000  0.72909000  1.0
  C  C78  1  0.03932000  0.56123000  0.22449000  1.0
  C  C79  1  0.47787000  0.43887000  0.27536000  1.0
  C  C80  1  0.96069000  0.43877000  0.77551000  1.0
  C  C81  1  0.52213000  0.56113000  0.72464000  1.0
  C  C82  1  0.65077000  0.29689000  0.97894000  1.0
  C  C83  1  0.35409000  0.70331000  0.52099000  1.0
  C  C84  1  0.34924000  0.70311000  0.02106000  1.0
  C  C85  1  0.64592000  0.29669000  0.47901000  1.0
  C  C86  1  0.70173000  0.26929000  0.04168000  1.0
  C  C87  1  0.43254000  0.73088000  0.45823000  1.0
  C  C88  1  0.29827000  0.73071000  0.95832000  1.0
  C  C89  1  0.56746000  0.26912000  0.54177000  1.0
  C  C90  1  0.07734000  0.02241000  0.07487000  1.0
  C  C91  1  0.05500000  0.97759000  0.42514000  1.0
  C  C92  1  0.92266000  0.97759000  0.92513000  1.0
  C  C93  1  0.94500000  0.02241000  0.57486000  1.0
  C  C94  1  0.87948000  0.00268000  0.05883000  1.0
  C  C95  1  0.87670000  0.99711000  0.44113000  1.0
  C  C96  1  0.12051000  0.99732000  0.94117000  1.0
  C  C97  1  0.12331000  0.00290000  0.55887000  1.0
  C  C98  1  0.19582000  0.01810000  0.01534000  1.0
  C  C99  1  0.17788000  0.98210000  0.48470000  1.0
  C  C100  1  0.80418000  0.98190000  0.98466000  1.0
  C  C101  1  0.82211000  0.01790000  0.51530000  1.0
  C  C102  1  0.17087000  0.06095000  0.15492000  1.0
  C  C103  1  0.11019000  0.93911000  0.34510000  1.0
  C  C104  1  0.82913000  0.93905000  0.84508000  1.0
  C  C105  1  0.88980000  0.06089000  0.65490000  1.0
  C  C106  1  0.74692000  0.99534000  0.11989000  1.0
  C  C107  1  0.75137000  0.00437000  0.38009000  1.0
  C  C108  1  0.25308000  0.00466000  0.88011000  1.0
  C  C109  1  0.24862000  0.99563000  0.61991000  1.0
  N  N110  1  0.83947000  0.64431000  0.04488000  1.0
  N  N111  1  0.19561000  0.35588000  0.45508000  1.0
  N  N112  1  0.16053000  0.35569000  0.95512000  1.0
  N  N113  1  0.80439000  0.64412000  0.54492000  1.0
  N  N114  1  0.97279000  0.58732000  0.16597000  1.0
  N  N115  1  0.38545000  0.41283000  0.33391000  1.0
  N  N116  1  0.02721000  0.41268000  0.83402000  1.0
  N  N117  1  0.61455000  0.58717000  0.66609000  1.0
  O  O118  1  0.24103000  0.98109000  0.17128000  1.0
  O  O119  1  0.26023000  0.01906000  0.32885000  1.0
  O  O120  1  0.75896000  0.01890000  0.82872000  1.0
  O  O121  1  0.73976000  0.98093000  0.67115000  1.0
  O  O122  1  0.18413000  0.16633000  0.19724000  1.0
  O  O123  1  0.01822000  0.83381000  0.30272000  1.0
  O  O124  1  0.81586000  0.83367000  0.80276000  1.0
  O  O125  1  0.98177000  0.16619000  0.69728000  1.0
  O  O126  1  0.79113000  0.96130000  0.17571000  1.0
  O  O127  1  0.82945000  0.03815000  0.32416000  1.0
  O  O128  1  0.20886000  0.03870000  0.82429000  1.0
  O  O129  1  0.17055000  0.96185000  0.67584000  1.0
  O  O130  1  0.59058000  0.02154000  0.11677000  1.0
  O  O131  1  0.56896000  0.97845000  0.38331000  1.0
  O  O132  1  0.40941000  0.97846000  0.88323000  1.0
  O  O133  1  0.43104000  0.02155000  0.61669000  1.0
  O  O134  1  0.43248000  0.83063000  0.22289000  1.0
  O  O135  1  0.60200000  0.16935000  0.27717000  1.0
  O  O136  1  0.56751000  0.16936000  0.77711000  1.0
  O  O137  1  0.39800000  0.83065000  0.72283000  1.0
