# generated using pymatgen
data_Cd3H52C78N8O13
_symmetry_space_group_name_H-M   'P 1'
_cell_length_a   14.83550000
_cell_length_b   15.59190000
_cell_length_c   19.25650000
_cell_angle_alpha   112.84900000
_cell_angle_beta   111.58200000
_cell_angle_gamma   92.46270000
_symmetry_Int_Tables_number   1
_chemical_formula_structural   Cd3H52C78N8O13
_chemical_formula_sum   'Cd6 H104 C156 N16 O26'
_cell_volume   3726.19080762
_cell_formula_units_Z   2
loop_
 _symmetry_equiv_pos_site_id
 _symmetry_equiv_pos_as_xyz
  1  'x, y, z'
loop_
 _atom_site_type_symbol
 _atom_site_label
 _atom_site_symmetry_multiplicity
 _atom_site_fract_x
 _atom_site_fract_y
 _atom_site_fract_z
 _atom_site_occupancy
  Cd  Cd0  1  0.75253000  0.26264000  0.06384000  1.0
  Cd  Cd1  1  0.18862000  0.19877000  0.93612000  1.0
  Cd  Cd2  1  0.96507000  0.81397000  0.17987000  1.0
  Cd  Cd3  1  0.28516000  0.63425000  0.82020000  1.0
  Cd  Cd4  1  0.03651000  0.27478000  0.07602000  1.0
  Cd  Cd5  1  0.46072000  0.19884000  0.92404000  1.0
  H  H6  1  0.80996000  0.97066000  0.14214000  1.0
  H  H7  1  0.16793000  0.82852000  0.85784000  1.0
  H  H8  1  0.80368000  0.44697000  0.03020000  1.0
  H  H9  1  0.27316000  0.41673000  0.96974000  1.0
  H  H10  1  0.09504000  0.64380000  0.16183000  1.0
  H  H11  1  0.43320000  0.48210000  0.83823000  1.0
  H  H12  1  0.05059000  0.07030000  0.08824000  1.0
  H  H13  1  0.46224000  0.98221000  0.91174000  1.0
  H  H14  1  0.93317000  0.33536000  0.19986000  1.0
  H  H15  1  0.23342000  0.13540000  0.80015000  1.0
  H  H16  1  0.94052000  0.22344000  0.15662000  1.0
  H  H17  1  0.28401000  0.06681000  0.84344000  1.0
  H  H18  1  0.53426000  0.19637000  0.79106000  1.0
  H  H19  1  0.24301000  0.40558000  0.20907000  1.0
  H  H20  1  0.48129000  0.15290000  0.64286000  1.0
  H  H21  1  0.33846000  0.51040000  0.35725000  1.0
  H  H22  1  0.78667000  0.23205000  0.68684000  1.0
  H  H23  1  0.59972000  0.54467000  0.31299000  1.0
  H  H24  1  0.83826000  0.28094000  0.83731000  1.0
  H  H25  1  0.50076000  0.44307000  0.16255000  1.0
  H  H26  1  0.46218000  0.21361000  0.54945000  1.0
  H  H27  1  0.41277000  0.66403000  0.45048000  1.0
  H  H28  1  0.51118000  0.08407000  0.32842000  1.0
  H  H29  1  0.68267000  0.75551000  0.67158000  1.0
  H  H30  1  0.72641000  0.10478000  0.55974000  1.0
  H  H31  1  0.66666667  0.54492000  0.44019000  1.0
  H  H32  1  0.64509000  0.11000000  0.31170000  1.0
  H  H33  1  0.83324000  0.79826000  0.68826000  1.0
  H  H34  1  0.74845000  0.03568000  0.23944000  1.0
  H  H35  1  0.00897000  0.79626000  0.76048000  1.0
  H  H36  1  0.85093000  0.89571000  0.39790000  1.0
  H  H37  1  0.95304000  0.49776000  0.60214000  1.0
  H  H38  1  0.74822000  0.97104000  0.47218000  1.0
  H  H39  1  0.77606000  0.49877000  0.52788000  1.0
  H  H40  1  0.34243000  0.03408000  0.27691000  1.0
  H  H41  1  0.56542000  0.75700000  0.72304000  1.0
  H  H42  1  0.21073000  0.07832000  0.18232000  1.0
  H  H43  1  0.52836000  0.89590000  0.81765000  1.0
  H  H44  1  0.26696000  0.35479000  0.38134000  1.0
  H  H45  1  0.38534000  0.97320000  0.61852000  1.0
  H  H46  1  0.40264000  0.31209000  0.47647000  1.0
  H  H47  1  0.42587000  0.83529000  0.52343000  1.0
  H  H48  1  0.01473000  0.10018000  0.78953000  1.0
  H  H49  1  0.72530000  0.31096000  0.21066000  1.0
  H  H50  1  0.92461000  0.99007000  0.64091000  1.0
  H  H51  1  0.78366000  0.34936000  0.35926000  1.0
  H  H52  1  0.66733000  0.92983000  0.68244000  1.0
  H  H53  1  0.48491000  0.24728000  0.31758000  1.0
  H  H54  1  0.76129000  0.03701000  0.83291000  1.0
  H  H55  1  0.42849000  0.20413000  0.16717000  1.0
  H  H56  1  0.85598000  0.82130000  0.54983000  1.0
  H  H57  1  0.80601000  0.27142000  0.45026000  1.0
  H  H58  1  0.58362000  0.71879000  0.32848000  1.0
  H  H59  1  0.75502000  0.39045000  0.67161000  1.0
  H  H60  1  0.60035000  0.93837000  0.55598000  1.0
  H  H61  1  0.54442000  0.38259000  0.44410000  1.0
  H  H62  1  0.43173000  0.68076000  0.30921000  1.0
  H  H63  1  0.62237000  0.37182000  0.69080000  1.0
  H  H64  1  0.25503000  0.68075000  0.24281000  1.0
  H  H65  1  0.51213000  0.43825000  0.75716000  1.0
  H  H66  1  0.31174000  0.98007000  0.39976000  1.0
  H  H67  1  0.41198000  0.58056000  0.60025000  1.0
  H  H68  1  0.49052000  0.98095000  0.46856000  1.0
  H  H69  1  0.52189000  0.51262000  0.53145000  1.0
  H  H70  1  0.67973000  0.69166000  0.26983000  1.0
  H  H71  1  0.90986000  0.42159000  0.73021000  1.0
  H  H72  1  0.73361000  0.55548000  0.18559000  1.0
  H  H73  1  0.04806000  0.36962000  0.81435000  1.0
  H  H74  1  0.92392000  0.53525000  0.40547000  1.0
  H  H75  1  0.01812000  0.12959000  0.59427000  1.0
  H  H76  1  0.86699000  0.66706000  0.49018000  1.0
  H  H77  1  0.87643000  0.17676000  0.50973000  1.0
  H  H78  1  0.79727000  0.14342000  0.18850000  1.0
  H  H79  1  0.10879000  0.95486000  0.81151000  1.0
  H  H80  1  0.69560000  0.02660000  0.92895000  1.0
  H  H81  1  0.26679000  0.09772000  0.07103000  1.0
  H  H82  1  0.71635000  0.86756000  0.85303000  1.0
  H  H83  1  0.36331000  0.01459000  0.14710000  1.0
  H  H84  1  0.70884000  0.69607000  0.77344000  1.0
  H  H85  1  0.43527000  0.92254000  0.22658000  1.0
  H  H86  1  0.74370000  0.59004000  0.84307000  1.0
  H  H87  1  0.40058000  0.74691000  0.15687000  1.0
  H  H88  1  0.77384000  0.82046000  0.07053000  1.0
  H  H89  1  0.20339000  0.75003000  0.92946000  1.0
  H  H90  1  0.71556000  0.48592000  0.91050000  1.0
  H  H91  1  0.30489000  0.57539000  0.08946000  1.0
  H  H92  1  0.89954000  0.59961000  0.16687000  1.0
  H  H93  1  0.23245000  0.43272000  0.83309000  1.0
  H  H94  1  0.10334000  0.51048000  0.20687000  1.0
  H  H95  1  0.39648000  0.30372000  0.79332000  1.0
  H  H96  1  0.00981000  0.37697000  0.94780000  1.0
  H  H97  1  0.56185000  0.42952000  0.05241000  1.0
  H  H98  1  0.98794000  0.47021000  0.86876000  1.0
  H  H99  1  0.61915000  0.60172000  0.13134000  1.0
  H  H100  1  0.95244000  0.56881000  0.79062000  1.0
  H  H101  1  0.66173000  0.77844000  0.20937000  1.0
  H  H102  1  0.95817000  0.74027000  0.86194000  1.0
  H  H103  1  0.59601000  0.87850000  0.13806000  1.0
  H  H104  1  0.06668000  0.72368000  0.09537000  1.0
  H  H105  1  0.47114000  0.62849000  0.90470000  1.0
  H  H106  1  0.03407000  0.92188000  0.95744000  1.0
  H  H107  1  0.57629000  0.96476000  0.04270000  1.0
  H  H108  1  0.01820000  0.02301000  0.18960000  1.0
  H  H109  1  0.32860000  0.83351000  0.81033000  1.0
  C  C110  1  0.71816000  0.26092000  0.91223000  1.0
  C  C111  1  0.30561000  0.34852000  0.08776000  1.0
  C  C112  1  0.68937000  0.24258000  0.82416000  1.0
  C  C113  1  0.36496000  0.41831000  0.17578000  1.0
  C  C114  1  0.58912000  0.20717000  0.76873000  1.0
  C  C115  1  0.32023000  0.43852000  0.23129000  1.0
  C  C116  1  0.55960000  0.18211000  0.68498000  1.0
  C  C117  1  0.37452000  0.49722000  0.31502000  1.0
  C  C118  1  0.62995000  0.18963000  0.65375000  1.0
  C  C119  1  0.47616000  0.53579000  0.34615000  1.0
  C  C120  1  0.73080000  0.22531000  0.70968000  1.0
  C  C121  1  0.52099000  0.51523000  0.29017000  1.0
  C  C122  1  0.76015000  0.25320000  0.79424000  1.0
  C  C123  1  0.46570000  0.45859000  0.20561000  1.0
  C  C124  1  0.59711000  0.16051000  0.56412000  1.0
  C  C125  1  0.53301000  0.59627000  0.43578000  1.0
  C  C126  1  0.50697000  0.17724000  0.51814000  1.0
  C  C127  1  0.48882000  0.65889000  0.48181000  1.0
  C  C128  1  0.47513000  0.14973000  0.43301000  1.0
  C  C129  1  0.54209000  0.71652000  0.56694000  1.0
  C  C130  1  0.53489000  0.10470000  0.39442000  1.0
  C  C131  1  0.64045000  0.71010000  0.60555000  1.0
  C  C132  1  0.62552000  0.08838000  0.43889000  1.0
  C  C133  1  0.68663000  0.64935000  0.56104000  1.0
  C  C134  1  0.65573000  0.11632000  0.52393000  1.0
  C  C135  1  0.63183000  0.59226000  0.47598000  1.0
  C  C136  1  0.68822000  0.04486000  0.39665000  1.0
  C  C137  1  0.79159000  0.64812000  0.60329000  1.0
  C  C138  1  0.68919000  0.06236000  0.33053000  1.0
  C  C139  1  0.85858000  0.73180000  0.66944000  1.0
  C  C140  1  0.74783000  0.02125000  0.29021000  1.0
  C  C141  1  0.95755000  0.73103000  0.70975000  1.0
  C  C142  1  0.80587000  0.96048000  0.31389000  1.0
  C  C143  1  0.99197000  0.64661000  0.68607000  1.0
  C  C144  1  0.80598000  0.94349000  0.38027000  1.0
  C  C145  1  0.92575000  0.56318000  0.61976000  1.0
  C  C146  1  0.74858000  0.98584000  0.42149000  1.0
  C  C147  1  0.82712000  0.56426000  0.57855000  1.0
  C  C148  1  0.86451000  0.91166000  0.26808000  1.0
  C  C149  1  0.09642000  0.64360000  0.73187000  1.0
  C  C150  1  0.38474000  0.17107000  0.38255000  1.0
  C  C151  1  0.50210000  0.78833000  0.61738000  1.0
  C  C152  1  0.32740000  0.10514000  0.29980000  1.0
  C  C153  1  0.52755000  0.80519000  0.70015000  1.0
  C  C154  1  0.25229000  0.12950000  0.24679000  1.0
  C  C155  1  0.50546000  0.88258000  0.75316000  1.0
  C  C156  1  0.23112000  0.22035000  0.27530000  1.0
  C  C157  1  0.45576000  0.94491000  0.72464000  1.0
  C  C158  1  0.28407000  0.28451000  0.35920000  1.0
  C  C159  1  0.42468000  0.92512000  0.64072000  1.0
  C  C160  1  0.35953000  0.26008000  0.41230000  1.0
  C  C161  1  0.44703000  0.84754000  0.58763000  1.0
  C  C162  1  0.15820000  0.25114000  0.21689000  1.0
  C  C163  1  0.44137000  0.03419000  0.78305000  1.0
  C  C164  1  0.94774000  0.14186000  0.91090000  1.0
  C  C165  1  0.53690000  0.23112000  0.08917000  1.0
  C  C166  1  0.89471000  0.07373000  0.82145000  1.0
  C  C167  1  0.57336000  0.25239000  0.17862000  1.0
  C  C168  1  0.93982000  0.06025000  0.76663000  1.0
  C  C169  1  0.67325000  0.29385000  0.23349000  1.0
  C  C170  1  0.88878000  0.99878000  0.68284000  1.0
  C  C171  1  0.70593000  0.31609000  0.31727000  1.0
  C  C172  1  0.78981000  0.95107000  0.65109000  1.0
  C  C173  1  0.63869000  0.30009000  0.34898000  1.0
  C  C174  1  0.74417000  0.96598000  0.70605000  1.0
  C  C175  1  0.53812000  0.25992000  0.29398000  1.0
  C  C176  1  0.79636000  0.02538000  0.79021000  1.0
  C  C177  1  0.50625000  0.23517000  0.20984000  1.0
  C  C178  1  0.73430000  0.88740000  0.56187000  1.0
  C  C179  1  0.67236000  0.32560000  0.43819000  1.0
  C  C180  1  0.77912000  0.82376000  0.51757000  1.0
  C  C181  1  0.76142000  0.30619000  0.48251000  1.0
  C  C182  1  0.72539000  0.76173000  0.43327000  1.0
  C  C183  1  0.79204000  0.32848000  0.56681000  1.0
  C  C184  1  0.62653000  0.76684000  0.39375000  1.0
  C  C185  1  0.73272000  0.37318000  0.60633000  1.0
  C  C186  1  0.58009000  0.82991000  0.43636000  1.0
  C  C187  1  0.64370000  0.39365000  0.56369000  1.0
  C  C188  1  0.63499000  0.88958000  0.52096000  1.0
  C  C189  1  0.61403000  0.36876000  0.47911000  1.0
  C  C190  1  0.47473000  0.83098000  0.39411000  1.0
  C  C191  1  0.58057000  0.43708000  0.60589000  1.0
  C  C192  1  0.40671000  0.74721000  0.32908000  1.0
  C  C193  1  0.57751000  0.41840000  0.67091000  1.0
  C  C194  1  0.30657000  0.74692000  0.29187000  1.0
  C  C195  1  0.51462000  0.45536000  0.70812000  1.0
  C  C196  1  0.27151000  0.83069000  0.31732000  1.0
  C  C197  1  0.45407000  0.51364000  0.68267000  1.0
  C  C198  1  0.33920000  0.91487000  0.38109000  1.0
  C  C199  1  0.45805000  0.53401000  0.61891000  1.0
  C  C200  1  0.43903000  0.91479000  0.41933000  1.0
  C  C201  1  0.51967000  0.49572000  0.58070000  1.0
  C  C202  1  0.16453000  0.83243000  0.27738000  1.0
  C  C203  1  0.38701000  0.55530000  0.72262000  1.0
  C  C204  1  0.76779000  0.68883000  0.38614000  1.0
  C  C205  1  0.88151000  0.30259000  0.61386000  1.0
  C  C206  1  0.73249000  0.65711000  0.29989000  1.0
  C  C207  1  0.93248000  0.35698000  0.70011000  1.0
  C  C208  1  0.76245000  0.58173000  0.25258000  1.0
  C  C209  1  0.00978000  0.32890000  0.74736000  1.0
  C  C210  1  0.83047000  0.53608000  0.28959000  1.0
  C  C211  1  0.04071000  0.24625000  0.71026000  1.0
  C  C212  1  0.87014000  0.56981000  0.37607000  1.0
  C  C213  1  0.99383000  0.19355000  0.62377000  1.0
  C  C214  1  0.83870000  0.64478000  0.42353000  1.0
  C  C215  1  0.91494000  0.22114000  0.57638000  1.0
  C  C216  1  0.85323000  0.44976000  0.23438000  1.0
  C  C217  1  0.11872000  0.21512000  0.76544000  1.0
  C  C218  1  0.77632000  0.09316000  0.12445000  1.0
  C  C219  1  0.15199000  0.96867000  0.87556000  1.0
  C  C220  1  0.72497000  0.02928000  0.99042000  1.0
  C  C221  1  0.23468000  0.03886000  0.00959000  1.0
  C  C222  1  0.74934000  0.95727000  0.01486000  1.0
  C  C223  1  0.23455000  0.94241000  0.98517000  1.0
  C  C224  1  0.74593000  0.85678000  0.96792000  1.0
  C  C225  1  0.27808000  0.88889000  0.03213000  1.0
  C  C226  1  0.72716000  0.82035000  0.88348000  1.0
  C  C227  1  0.34376000  0.93691000  0.11656000  1.0
  C  C228  1  0.72354000  0.72428000  0.83893000  1.0
  C  C229  1  0.38458000  0.88531000  0.16106000  1.0
  C  C230  1  0.74224000  0.66388000  0.87782000  1.0
  C  C231  1  0.36432000  0.78602000  0.12217000  1.0
  C  C232  1  0.76352000  0.69918000  0.96256000  1.0
  C  C233  1  0.30094000  0.73661000  0.03742000  1.0
  C  C234  1  0.76223000  0.79474000  0.00596000  1.0
  C  C235  1  0.25634000  0.78881000  0.99403000  1.0
  C  C236  1  0.78901000  0.63789000  0.00512000  1.0
  C  C237  1  0.28387000  0.63275000  0.99486000  1.0
  C  C238  1  0.76210000  0.53971000  0.97254000  1.0
  C  C239  1  0.28947000  0.56714000  0.02742000  1.0
  C  C240  1  0.85716000  0.59731000  0.10653000  1.0
  C  C241  1  0.25046000  0.49077000  0.89342000  1.0
  C  C242  1  0.08194000  0.50026000  0.14342000  1.0
  C  C243  1  0.43851000  0.35702000  0.85674000  1.0
  C  C244  1  0.03367000  0.43470000  0.00926000  1.0
  C  C245  1  0.52432000  0.42571000  0.99091000  1.0
  C  C246  1  0.04792000  0.53245000  0.03472000  1.0
  C  C247  1  0.51306000  0.49793000  0.96539000  1.0
  C  C248  1  0.02866000  0.58942000  0.98798000  1.0
  C  C249  1  0.54049000  0.60164000  0.01209000  1.0
  C  C250  1  0.99650000  0.54673000  0.90141000  1.0
  C  C251  1  0.59498000  0.64554000  0.09864000  1.0
  C  C252  1  0.97517000  0.60189000  0.85753000  1.0
  C  C253  1  0.61757000  0.74458000  0.14247000  1.0
  C  C254  1  0.98038000  0.69925000  0.89782000  1.0
  C  C255  1  0.58237000  0.80161000  0.10219000  1.0
  C  C256  1  0.01026000  0.74296000  0.98400000  1.0
  C  C257  1  0.52607000  0.75915000  0.01603000  1.0
  C  C258  1  0.03771000  0.68800000  0.02810000  1.0
  C  C259  1  0.50941000  0.66008000  0.97196000  1.0
  C  C260  1  0.01279000  0.84362000  0.02892000  1.0
  C  C261  1  0.48374000  0.81491000  0.97113000  1.0
  C  C262  1  0.02495000  0.91892000  0.00973000  1.0
  C  C263  1  0.51505000  0.90941000  0.99030000  1.0
  C  C264  1  0.01732000  0.97351000  0.13116000  1.0
  C  C265  1  0.38606000  0.84248000  0.86881000  1.0
  N  N266  1  0.74222000  0.11300000  0.05902000  1.0
  N  N267  1  0.18334000  0.05396000  0.94098000  1.0
  N  N268  1  0.78104000  0.00037000  0.10025000  1.0
  N  N269  1  0.18092000  0.90011000  0.89977000  1.0
  N  N270  1  0.84932000  0.67263000  0.08954000  1.0
  N  N271  1  0.25974000  0.58310000  0.91045000  1.0
  N  N272  1  0.80539000  0.51609000  0.03717000  1.0
  N  N273  1  0.26800000  0.47889000  0.96277000  1.0
  N  N274  1  0.05460000  0.41617000  0.07729000  1.0
  N  N275  1  0.47724000  0.33910000  0.92289000  1.0
  N  N276  1  0.07935000  0.57154000  0.12016000  1.0
  N  N277  1  0.45912000  0.45154000  0.87993000  1.0
  N  N278  1  0.00708000  0.87974000  0.10522000  1.0
  N  N279  1  0.40177000  0.77469000  0.89479000  1.0
  N  N280  1  0.02760000  0.99951000  0.07475000  1.0
  N  N281  1  0.45269000  0.92493000  0.92524000  1.0
  O  O282  1  0.79850000  0.31878000  0.96993000  1.0
  O  O283  1  0.32804000  0.34872000  0.02996000  1.0
  O  O284  1  0.65923000  0.21392000  0.92652000  1.0
  O  O285  1  0.23261000  0.28712000  0.07360000  1.0
  O  O286  1  0.90518000  0.84759000  0.28350000  1.0
  O  O287  1  0.12164000  0.56410000  0.71662000  1.0
  O  O288  1  0.87148000  0.93505000  0.21242000  1.0
  O  O289  1  0.15908000  0.72270000  0.78740000  1.0
  O  O290  1  0.14836000  0.33584000  0.24022000  1.0
  O  O291  1  0.40821000  0.09552000  0.75967000  1.0
  O  O292  1  0.10836000  0.18704000  0.14009000  1.0
  O  O293  1  0.46849000  0.04702000  0.85989000  1.0
  O  O294  1  0.91146000  0.14276000  0.96144000  1.0
  O  O295  1  0.45005000  0.18154000  0.03861000  1.0
  O  O296  1  0.02847000  0.20119000  0.93519000  1.0
  O  O297  1  0.59339000  0.26617000  0.06493000  1.0
  O  O298  1  0.13699000  0.91003000  0.29184000  1.0
  O  O299  1  0.34485000  0.61833000  0.70809000  1.0
  O  O300  1  0.10165000  0.75079000  0.22650000  1.0
  O  O301  1  0.37523000  0.52464000  0.77363000  1.0
  O  O302  1  0.92188000  0.41275000  0.26665000  1.0
  O  O303  1  0.15511000  0.14589000  0.73316000  1.0
  O  O304  1  0.79842000  0.41741000  0.15622000  1.0
  O  O305  1  0.14212000  0.26095000  0.84363000  1.0
  O  O306  1  0.92548000  0.27717000  0.14378000  1.0
  O  O307  1  0.28181000  0.13337000  0.85621000  1.0
