# generated using pymatgen
data_CuH18C12(N2O3)2
_symmetry_space_group_name_H-M   'P 1'
_cell_length_a   9.10493000
_cell_length_b   10.22120000
_cell_length_c   18.39520000
_cell_angle_alpha   90.00040000
_cell_angle_beta   90.00070000
_cell_angle_gamma   89.99780000
_symmetry_Int_Tables_number   1
_chemical_formula_structural   CuH18C12(N2O3)2
_chemical_formula_sum   'Cu4 H72 C48 N16 O24'
_cell_volume   1711.91820817
_cell_formula_units_Z   4
loop_
 _symmetry_equiv_pos_site_id
 _symmetry_equiv_pos_as_xyz
  1  'x, y, z'
loop_
 _atom_site_type_symbol
 _atom_site_label
 _atom_site_symmetry_multiplicity
 _atom_site_fract_x
 _atom_site_fract_y
 _atom_site_fract_z
 _atom_site_occupancy
  Cu  Cu0  1  0.42974000  0.48955000  0.76482000  1.0
  Cu  Cu1  1  0.57024000  0.98957000  0.73519000  1.0
  Cu  Cu2  1  0.07022000  0.51044000  0.26484000  1.0
  Cu  Cu3  1  0.92981000  0.01044000  0.23516000  1.0
  H  H4  1  0.04952000  0.57441000  0.86083000  1.0
  H  H5  1  0.95045000  0.07441000  0.63917000  1.0
  H  H6  1  0.45048000  0.42555000  0.36083000  1.0
  H  H7  1  0.54956000  0.92558000  0.13916000  1.0
  H  H8  1  0.14887000  0.42825000  0.87511000  1.0
  H  H9  1  0.85110000  0.92825000  0.62489000  1.0
  H  H10  1  0.35117000  0.57174000  0.37512000  1.0
  H  H11  1  0.64886000  0.07176000  0.12487000  1.0
  H  H12  1  0.97839000  0.42087000  0.76725000  1.0
  H  H13  1  0.02159000  0.92086000  0.73274000  1.0
  H  H14  1  0.52158000  0.57906000  0.26722000  1.0
  H  H15  1  0.47845000  0.07909000  0.23278000  1.0
  H  H16  1  0.08399000  0.54396000  0.72449000  1.0
  H  H17  1  0.91596000  0.04396000  0.77551000  1.0
  H  H18  1  0.41590000  0.45597000  0.22450000  1.0
  H  H19  1  0.58413000  0.95598000  0.27549000  1.0
  H  H20  1  0.20385000  0.77926000  0.85445000  1.0
  H  H21  1  0.79613000  0.27926000  0.64553000  1.0
  H  H22  1  0.29608000  0.22076000  0.35456000  1.0
  H  H23  1  0.70395000  0.72078000  0.14543000  1.0
  H  H24  1  0.19289000  0.72174000  0.76313000  1.0
  H  H25  1  0.80711000  0.22175000  0.73685000  1.0
  H  H26  1  0.30718000  0.27818000  0.26323000  1.0
  H  H27  1  0.69285000  0.77819000  0.23676000  1.0
  H  H28  1  0.09956000  0.37265000  0.62694000  1.0
  H  H29  1  0.90044000  0.87263000  0.87305000  1.0
  H  H30  1  0.40032000  0.62732000  0.12694000  1.0
  H  H31  1  0.59970000  0.12734000  0.37305000  1.0
  H  H32  1  0.27097000  0.29036000  0.63557000  1.0
  H  H33  1  0.72901000  0.79037000  0.86442000  1.0
  H  H34  1  0.22888000  0.70958000  0.13561000  1.0
  H  H35  1  0.77115000  0.20956000  0.36440000  1.0
  H  H36  1  0.27438000  0.58922000  0.95346000  1.0
  H  H37  1  0.72558000  0.08919000  0.54653000  1.0
  H  H38  1  0.22556000  0.41082000  0.45348000  1.0
  H  H39  1  0.77446000  0.91086000  0.04651000  1.0
  H  H40  1  0.43782000  0.64956000  0.91010000  1.0
  H  H41  1  0.56215000  0.14957000  0.58989000  1.0
  H  H42  1  0.06213000  0.35050000  0.41011000  1.0
  H  H43  1  0.93789000  0.85050000  0.08987000  1.0
  H  H44  1  0.23405000  0.16598000  0.72350000  1.0
  H  H45  1  0.76595000  0.66598000  0.77650000  1.0
  H  H46  1  0.26592000  0.83397000  0.22350000  1.0
  H  H47  1  0.73411000  0.33398000  0.27651000  1.0
  H  H48  1  0.04486000  0.20729000  0.73715000  1.0
  H  H49  1  0.95513000  0.70729000  0.76284000  1.0
  H  H50  1  0.45510000  0.79265000  0.23714000  1.0
  H  H51  1  0.54493000  0.29266000  0.26286000  1.0
  H  H52  1  0.47777000  0.20127000  0.02369000  1.0
  H  H53  1  0.52212000  0.70125000  0.47634000  1.0
  H  H54  1  0.02228000  0.79879000  0.52370000  1.0
  H  H55  1  0.97781000  0.29882000  0.97633000  1.0
  H  H56  1  0.56031000  0.22309000  0.93696000  1.0
  H  H57  1  0.43963000  0.72310000  0.56308000  1.0
  H  H58  1  0.93970000  0.77698000  0.43698000  1.0
  H  H59  1  0.06035000  0.27697000  0.06305000  1.0
  H  H60  1  0.38944000  0.03891000  0.93256000  1.0
  H  H61  1  0.61051000  0.53890000  0.56746000  1.0
  H  H62  1  0.11059000  0.96114000  0.43255000  1.0
  H  H63  1  0.88946000  0.46116000  0.06747000  1.0
  H  H64  1  0.23997000  0.13791000  0.96351000  1.0
  H  H65  1  0.75996000  0.63790000  0.53650000  1.0
  H  H66  1  0.26005000  0.86215000  0.46349000  1.0
  H  H67  1  0.74001000  0.36216000  0.03652000  1.0
  H  H68  1  0.34085000  0.39969000  0.00930000  1.0
  H  H69  1  0.65907000  0.89965000  0.49070000  1.0
  H  H70  1  0.15917000  0.60036000  0.50929000  1.0
  H  H71  1  0.84089000  0.10040000  0.99070000  1.0
  H  H72  1  0.39096000  0.18413000  0.82201000  1.0
  H  H73  1  0.60900000  0.68413000  0.67801000  1.0
  H  H74  1  0.10903000  0.81594000  0.32200000  1.0
  H  H75  1  0.89102000  0.31596000  0.17802000  1.0
  C  C76  1  0.13630000  0.51123000  0.83779000  1.0
  C  C77  1  0.86366000  0.01122000  0.66220000  1.0
  C  C78  1  0.36369000  0.48876000  0.33781000  1.0
  C  C79  1  0.63634000  0.98878000  0.16219000  1.0
  C  C80  1  0.09057000  0.46192000  0.76297000  1.0
  C  C81  1  0.90940000  0.96191000  0.73703000  1.0
  C  C82  1  0.40938000  0.53803000  0.26297000  1.0
  C  C83  1  0.59065000  0.03805000  0.23702000  1.0
  C  C84  1  0.26010000  0.71991000  0.81274000  1.0
  C  C85  1  0.73988000  0.21992000  0.68724000  1.0
  C  C86  1  0.23989000  0.28007000  0.31281000  1.0
  C  C87  1  0.76014000  0.78008000  0.18717000  1.0
  C  C88  1  0.40697000  0.78314000  0.79267000  1.0
  C  C89  1  0.59302000  0.28316000  0.70732000  1.0
  C  C90  1  0.09304000  0.21685000  0.29270000  1.0
  C  C91  1  0.90699000  0.71685000  0.20729000  1.0
  C  C92  1  0.20752000  0.37515000  0.65475000  1.0
  C  C93  1  0.79247000  0.87515000  0.84525000  1.0
  C  C94  1  0.29237000  0.62480000  0.15476000  1.0
  C  C95  1  0.70765000  0.12480000  0.34524000  1.0
  C  C96  1  0.28922000  0.49613000  0.62752000  1.0
  C  C97  1  0.71079000  0.99614000  0.87248000  1.0
  C  C98  1  0.21070000  0.50381000  0.12754000  1.0
  C  C99  1  0.78929000  0.00378000  0.37245000  1.0
  C  C100  1  0.35146000  0.57464000  0.90805000  1.0
  C  C101  1  0.64850000  0.07464000  0.59194000  1.0
  C  C102  1  0.14850000  0.42540000  0.40807000  1.0
  C  C103  1  0.85153000  0.92542000  0.09192000  1.0
  C  C104  1  0.42592000  0.44226000  0.91052000  1.0
  C  C105  1  0.57402000  0.94226000  0.58948000  1.0
  C  C106  1  0.07405000  0.55778000  0.41053000  1.0
  C  C107  1  0.92599000  0.05779000  0.08947000  1.0
  C  C108  1  0.15869000  0.23001000  0.75343000  1.0
  C  C109  1  0.84129000  0.73001000  0.74657000  1.0
  C  C110  1  0.34127000  0.76995000  0.25343000  1.0
  C  C111  1  0.65876000  0.26995000  0.24657000  1.0
  C  C112  1  0.16928000  0.19586000  0.83425000  1.0
  C  C113  1  0.83068000  0.69583000  0.66575000  1.0
  C  C114  1  0.33071000  0.80414000  0.33425000  1.0
  C  C115  1  0.66934000  0.30416000  0.16576000  1.0
  C  C116  1  0.45700000  0.22992000  0.96722000  1.0
  C  C117  1  0.54291000  0.72991000  0.53281000  1.0
  C  C118  1  0.04302000  0.77014000  0.46722000  1.0
  C  C119  1  0.95705000  0.27015000  0.03280000  1.0
  C  C120  1  0.34300000  0.13848000  0.93250000  1.0
  C  C121  1  0.65692000  0.63847000  0.56751000  1.0
  C  C122  1  0.15701000  0.86157000  0.43249000  1.0
  C  C123  1  0.84305000  0.36158000  0.06752000  1.0
  N  N124  1  0.27779000  0.58344000  0.83613000  1.0
  N  N125  1  0.72216000  0.08344000  0.66387000  1.0
  N  N126  1  0.22218000  0.41657000  0.33615000  1.0
  N  N127  1  0.77785000  0.91658000  0.16384000  1.0
  N  N128  1  0.19518000  0.36558000  0.73378000  1.0
  N  N129  1  0.80477000  0.86558000  0.76622000  1.0
  N  N130  1  0.30476000  0.63437000  0.23379000  1.0
  N  N131  1  0.69528000  0.13438000  0.26621000  1.0
  N  N132  1  0.40642000  0.36511000  0.96731000  1.0
  N  N133  1  0.59350000  0.86510000  0.53270000  1.0
  N  N134  1  0.09359000  0.63495000  0.46731000  1.0
  N  N135  1  0.90647000  0.13498000  0.03269000  1.0
  N  N136  1  0.30704000  0.17641000  0.85866000  1.0
  N  N137  1  0.69290000  0.67641000  0.64135000  1.0
  N  N138  1  0.19295000  0.82363000  0.35866000  1.0
  N  N139  1  0.80709000  0.32364000  0.14136000  1.0
  O  O140  1  0.40107000  0.90757000  0.78566000  1.0
  O  O141  1  0.59895000  0.40760000  0.71435000  1.0
  O  O142  1  0.09897000  0.09240000  0.28567000  1.0
  O  O143  1  0.90104000  0.59242000  0.21433000  1.0
  O  O144  1  0.51764000  0.71164000  0.78381000  1.0
  O  O145  1  0.48234000  0.21168000  0.71618000  1.0
  O  O146  1  0.98237000  0.28834000  0.28384000  1.0
  O  O147  1  0.01766000  0.78832000  0.21614000  1.0
  O  O148  1  0.36064000  0.56707000  0.67299000  1.0
  O  O149  1  0.63939000  0.06710000  0.82701000  1.0
  O  O150  1  0.13928000  0.43287000  0.17302000  1.0
  O  O151  1  0.86074000  0.93285000  0.32698000  1.0
  O  O152  1  0.28539000  0.51869000  0.56042000  1.0
  O  O153  1  0.71463000  0.01871000  0.93958000  1.0
  O  O154  1  0.21455000  0.48122000  0.06044000  1.0
  O  O155  1  0.78541000  0.98117000  0.43955000  1.0
  O  O156  1  0.50242000  0.40891000  0.85566000  1.0
  O  O157  1  0.49754000  0.90894000  0.64435000  1.0
  O  O158  1  0.99754000  0.59112000  0.35567000  1.0
  O  O159  1  0.00250000  0.09110000  0.14433000  1.0
  O  O160  1  0.05613000  0.18441000  0.87209000  1.0
  O  O161  1  0.94383000  0.68436000  0.62790000  1.0
  O  O162  1  0.44388000  0.81558000  0.37209000  1.0
  O  O163  1  0.55617000  0.31561000  0.12792000  1.0
