# generated using pymatgen
data_DyH10C7O11
_symmetry_space_group_name_H-M   'P 1'
_cell_length_a   8.54343000
_cell_length_b   8.84848000
_cell_length_c   9.72450000
_cell_angle_alpha   96.79240000
_cell_angle_beta   112.57900000
_cell_angle_gamma   110.15800000
_symmetry_Int_Tables_number   1
_chemical_formula_structural   DyH10C7O11
_chemical_formula_sum   'Dy2 H20 C14 O22'
_cell_volume   610.00156207
_cell_formula_units_Z   2
loop_
 _symmetry_equiv_pos_site_id
 _symmetry_equiv_pos_as_xyz
  1  'x, y, z'
loop_
 _atom_site_type_symbol
 _atom_site_label
 _atom_site_symmetry_multiplicity
 _atom_site_fract_x
 _atom_site_fract_y
 _atom_site_fract_z
 _atom_site_occupancy
  Dy  Dy0  1  0.28835000  0.55277000  0.36741000  1.0
  Dy  Dy1  1  0.71165000  0.44723000  0.63259000  1.0
  H  H2  1  0.61834000  0.59255000  0.30337000  1.0
  H  H3  1  0.38166000  0.40745000  0.69663000  1.0
  H  H4  1  0.46308000  0.87764000  0.56229000  1.0
  H  H5  1  0.53692000  0.12236000  0.43772000  1.0
  H  H6  1  0.27350000  0.87689000  0.45280000  1.0
  H  H7  1  0.72650000  0.12311000  0.54720000  1.0
  H  H8  1  0.15321000  0.41716000  0.83813000  1.0
  H  H9  1  0.84679000  0.58285000  0.16187000  1.0
  H  H10  1  0.94203000  0.26734000  0.11350000  1.0
  H  H11  1  0.05798000  0.73266000  0.88650000  1.0
  H  H12  1  0.22073000  0.22590000  0.00386000  1.0
  H  H13  1  0.77927000  0.77410000  0.99614000  1.0
  H  H14  1  0.43125000  0.60353000  0.89447000  1.0
  H  H15  1  0.56875000  0.39648000  0.10553000  1.0
  H  H16  1  0.58986000  0.78176000  0.14944000  1.0
  H  H17  1  0.41013000  0.21824000  0.85057000  1.0
  H  H18  1  0.97924000  0.06099000  0.23020000  1.0
  H  H19  1  0.02077000  0.93902000  0.76980000  1.0
  H  H20  1  0.12603000  0.93165000  0.10756000  1.0
  H  H21  1  0.87398000  0.06836000  0.89244000  1.0
  C  C22  1  0.06242000  0.47722000  0.56901000  1.0
  C  C23  1  0.93757000  0.52276000  0.43098000  1.0
  C  C24  1  0.29653000  0.70289000  0.08702000  1.0
  C  C25  1  0.70347000  0.29711000  0.91299000  1.0
  C  C26  1  0.42657000  0.53511000  0.98159000  1.0
  C  C27  1  0.57343000  0.46489000  0.01841000  1.0
  C  C28  1  0.27920000  0.18253000  0.35217000  1.0
  C  C29  1  0.72081000  0.81747000  0.64783000  1.0
  C  C30  1  0.46804000  0.66578000  0.12525000  1.0
  C  C31  1  0.53195000  0.33422000  0.87475000  1.0
  C  C32  1  0.09655000  0.14050000  0.21151000  1.0
  C  C33  1  0.90346000  0.85950000  0.78849000  1.0
  C  C34  1  0.09642000  0.03625000  0.07150000  1.0
  C  C35  1  0.90358000  0.96375000  0.92850000  1.0
  O  O36  1  0.20186000  0.46092000  0.56274000  1.0
  O  O37  1  0.79813000  0.53906000  0.43725000  1.0
  O  O38  1  0.49988000  0.60613000  0.26028000  1.0
  O  O39  1  0.50012000  0.39387000  0.73973000  1.0
  O  O40  1  0.24805000  0.75685000  0.97094000  1.0
  O  O41  1  0.75194000  0.24315000  0.02907000  1.0
  O  O42  1  0.01455000  0.45951000  0.67596000  1.0
  O  O43  1  0.98545000  0.54048000  0.32403000  1.0
  O  O44  1  0.39817000  0.33960000  0.41583000  1.0
  O  O45  1  0.60183000  0.66040000  0.58417000  1.0
  O  O46  1  0.31202000  0.06481000  0.39695000  1.0
  O  O47  1  0.68798000  0.93519000  0.60305000  1.0
  O  O48  1  0.32492000  0.80777000  0.51212000  1.0
  O  O49  1  0.67508000  0.19223000  0.48788000  1.0
  O  O50  1  0.21244000  0.67120000  0.17144000  1.0
  O  O51  1  0.78756000  0.32880000  0.82857000  1.0
  O  O52  1  0.24751000  0.39660000  0.92270000  1.0
  O  O53  1  0.75248000  0.60340000  0.07730000  1.0
  O  O54  1  0.08192000  0.29212000  0.18863000  1.0
  O  O55  1  0.91809000  0.70789000  0.81137000  1.0
  O  O56  1  0.24251000  0.13120000  0.03937000  1.0
  O  O57  1  0.75749000  0.86880000  0.96063000  1.0
