# generated using pymatgen
data_CdH16C12S(NO2)4
_symmetry_space_group_name_H-M   'P 1'
_cell_length_a   6.74834000
_cell_length_b   10.11470000
_cell_length_c   12.65200000
_cell_angle_alpha   89.99980000
_cell_angle_beta   89.86540000
_cell_angle_gamma   89.99990000
_symmetry_Int_Tables_number   1
_chemical_formula_structural   CdH16C12S(NO2)4
_chemical_formula_sum   'Cd2 H32 C24 S2 N8 O16'
_cell_volume   863.59067953
_cell_formula_units_Z   2
loop_
 _symmetry_equiv_pos_site_id
 _symmetry_equiv_pos_as_xyz
  1  'x, y, z'
loop_
 _atom_site_type_symbol
 _atom_site_label
 _atom_site_symmetry_multiplicity
 _atom_site_fract_x
 _atom_site_fract_y
 _atom_site_fract_z
 _atom_site_occupancy
  Cd  Cd0  1  0.75372000  0.43748000  0.01140000  1.0
  Cd  Cd1  1  0.24628000  0.93748000  0.98860000  1.0
  H  H2  1  0.83236000  0.79102000  0.68179000  1.0
  H  H3  1  0.16764000  0.29102000  0.31821000  1.0
  H  H4  1  0.58822000  0.15259000  0.32542000  1.0
  H  H5  1  0.41178000  0.65259000  0.67458000  1.0
  H  H6  1  0.78045000  0.39048000  0.26546000  1.0
  H  H7  1  0.21955000  0.89048000  0.73454000  1.0
  H  H8  1  0.82156000  0.51774000  0.43039000  1.0
  H  H9  1  0.17844000  0.01774000  0.56961000  1.0
  H  H10  1  0.83486000  0.87306000  0.23948000  1.0
  H  H11  1  0.16514000  0.37306000  0.76052000  1.0
  H  H12  1  0.79735000  0.73077000  0.08232000  1.0
  H  H13  1  0.20265000  0.23077000  0.91768000  1.0
  H  H14  1  0.86473000  0.89850000  0.43091000  1.0
  H  H15  1  0.13527000  0.39850000  0.56909000  1.0
  H  H16  1  0.68053000  0.15267000  0.92389000  1.0
  H  H17  1  0.31947000  0.65267000  0.07611000  1.0
  H  H18  1  0.66403000  0.02708000  0.75665000  1.0
  H  H19  1  0.33597000  0.52708000  0.24335000  1.0
  H  H20  1  0.67888000  0.40162000  0.59094000  1.0
  H  H21  1  0.32112000  0.90161000  0.40906000  1.0
  H  H22  1  0.71336000  0.51091000  0.76513000  1.0
  H  H23  1  0.28663000  0.01091000  0.23487000  1.0
  H  H24  1  0.65205000  0.02028000  0.56589000  1.0
  H  H25  1  0.34795000  0.52028000  0.43411000  1.0
  H  H26  1  0.11594000  0.56868000  0.95072000  1.0
  H  H27  1  0.88406000  0.06868000  0.04928000  1.0
  H  H28  1  0.19850000  0.43966000  0.00899000  1.0
  H  H29  1  0.80150000  0.93966000  0.99101000  1.0
  H  H30  1  0.99073000  0.24092000  0.12733000  1.0
  H  H31  1  0.00927000  0.74092000  0.87267000  1.0
  H  H32  1  0.75485000  0.22088000  0.14178000  1.0
  H  H33  1  0.24515000  0.72088000  0.85822000  1.0
  C  C34  1  0.79552000  0.49741000  0.26254000  1.0
  C  C35  1  0.20448000  0.99741000  0.73746000  1.0
  C  C36  1  0.81571000  0.56927000  0.35505000  1.0
  C  C37  1  0.18429000  0.06927000  0.64495000  1.0
  C  C38  1  0.82986000  0.70780000  0.35002000  1.0
  C  C39  1  0.17015000  0.20780000  0.64998000  1.0
  C  C40  1  0.82451000  0.76631000  0.24941000  1.0
  C  C41  1  0.17549000  0.26631000  0.75059000  1.0
  C  C42  1  0.80470000  0.68721000  0.16067000  1.0
  C  C43  1  0.19530000  0.18721000  0.83933000  1.0
  C  C44  1  0.84780000  0.79166000  0.44264000  1.0
  C  C45  1  0.15220000  0.29166000  0.55736000  1.0
  C  C46  1  0.68543000  0.20393000  0.84848000  1.0
  C  C47  1  0.31457000  0.70393000  0.15152000  1.0
  C  C48  1  0.67393000  0.13445000  0.75429000  1.0
  C  C49  1  0.32607000  0.63445000  0.24570000  1.0
  C  C50  1  0.67095000  0.20334000  0.65795000  1.0
  C  C51  1  0.32905000  0.70334000  0.34205000  1.0
  C  C52  1  0.68316000  0.34215000  0.66255000  1.0
  C  C53  1  0.31684000  0.84215000  0.33745000  1.0
  C  C54  1  0.69939000  0.40387000  0.75995000  1.0
  C  C55  1  0.30061000  0.90387000  0.24005000  1.0
  C  C56  1  0.65255000  0.12842000  0.56046000  1.0
  C  C57  1  0.34745000  0.62842000  0.43954000  1.0
  S  S58  1  0.38610000  0.24461000  0.13319000  1.0
  S  S59  1  0.61390000  0.74461000  0.86681000  1.0
  N  N60  1  0.78924000  0.55439000  0.16601000  1.0
  N  N61  1  0.21076000  0.05439000  0.83399000  1.0
  N  N62  1  0.83740000  0.74126000  0.53631000  1.0
  N  N63  1  0.16260000  0.24126000  0.46368000  1.0
  N  N64  1  0.69980000  0.33678000  0.85238000  1.0
  N  N65  1  0.30019000  0.83678000  0.14762000  1.0
  N  N66  1  0.63530000  0.18771000  0.47054000  1.0
  N  N67  1  0.36470000  0.68771000  0.52946000  1.0
  O  O68  1  0.85467000  0.83726000  0.61294000  1.0
  O  O69  1  0.14535000  0.33727000  0.38705000  1.0
  O  O70  1  0.61759000  0.09775000  0.38902000  1.0
  O  O71  1  0.38241000  0.59775000  0.61098000  1.0
  O  O72  1  0.40943000  0.37274000  0.07531000  1.0
  O  O73  1  0.59057000  0.87274000  0.92469000  1.0
  O  O74  1  0.55150000  0.23111000  0.21089000  1.0
  O  O75  1  0.44850000  0.73111000  0.78911000  1.0
  O  O76  1  0.19375000  0.24464000  0.19240000  1.0
  O  O77  1  0.80625000  0.74464000  0.80761000  1.0
  O  O78  1  0.39194000  0.13346000  0.05733000  1.0
  O  O79  1  0.60806000  0.63346000  0.94268000  1.0
  O  O80  1  0.08835000  0.47351000  0.96481000  1.0
  O  O81  1  0.91165000  0.97351000  0.03519000  1.0
  O  O82  1  0.86259000  0.23089000  0.08730000  1.0
  O  O83  1  0.13741000  0.73089000  0.91270000  1.0
