# generated using pymatgen
data_CdH8(C2O)5
_symmetry_space_group_name_H-M   'P 1'
_cell_length_a   7.01636000
_cell_length_b   10.36550000
_cell_length_c   13.11810000
_cell_angle_alpha   77.40700000
_cell_angle_beta   90.00050000
_cell_angle_gamma   90.00010000
_symmetry_Int_Tables_number   1
_chemical_formula_structural   CdH8(C2O)5
_chemical_formula_sum   'Cd4 H32 C40 O20'
_cell_volume   931.10292555
_cell_formula_units_Z   4
loop_
 _symmetry_equiv_pos_site_id
 _symmetry_equiv_pos_as_xyz
  1  'x, y, z'
loop_
 _atom_site_type_symbol
 _atom_site_label
 _atom_site_symmetry_multiplicity
 _atom_site_fract_x
 _atom_site_fract_y
 _atom_site_fract_z
 _atom_site_occupancy
  Cd  Cd0  1  0.98408000  0.33924000  0.60353000  1.0
  Cd  Cd1  1  0.48408000  0.16076000  0.89647000  1.0
  Cd  Cd2  1  0.01592000  0.66076000  0.39647000  1.0
  Cd  Cd3  1  0.51592000  0.83924000  0.10353000  1.0
  H  H4  1  0.92497000  0.42174000  0.93437000  1.0
  H  H5  1  0.42497000  0.07826000  0.56564000  1.0
  H  H6  1  0.07504000  0.57826000  0.06563000  1.0
  H  H7  1  0.57503000  0.92174000  0.43437000  1.0
  H  H8  1  0.71344000  0.51329000  0.88769000  1.0
  H  H9  1  0.21344000  0.98671000  0.61231000  1.0
  H  H10  1  0.28656000  0.48671000  0.11231000  1.0
  H  H11  1  0.78655000  0.01329000  0.38769000  1.0
  H  H12  1  0.75503000  0.55301000  0.03883000  1.0
  H  H13  1  0.25503000  0.94700000  0.46118000  1.0
  H  H14  1  0.24497000  0.44699000  0.96117000  1.0
  H  H15  1  0.74497000  0.05301000  0.53882000  1.0
  H  H16  1  0.70390000  0.58914000  0.21454000  1.0
  H  H17  1  0.20390000  0.91087000  0.28546000  1.0
  H  H18  1  0.29610000  0.41087000  0.78546000  1.0
  H  H19  1  0.79610000  0.08913000  0.71454000  1.0
  H  H20  1  0.47017000  0.19724000  0.31181000  1.0
  H  H21  1  0.97017000  0.30276000  0.18819000  1.0
  H  H22  1  0.52983000  0.80276000  0.68819000  1.0
  H  H23  1  0.02983000  0.69724000  0.81181000  1.0
  H  H24  1  0.53241000  0.15548000  0.13822000  1.0
  H  H25  1  0.03241000  0.34452000  0.36178000  1.0
  H  H26  1  0.46759000  0.84452000  0.86178000  1.0
  H  H27  1  0.96759000  0.65548000  0.63822000  1.0
  H  H28  1  0.50058000  0.53219000  0.37187000  1.0
  H  H29  1  0.00059000  0.96781000  0.12813000  1.0
  H  H30  1  0.49942000  0.46781000  0.62813000  1.0
  H  H31  1  0.99941000  0.03219000  0.87187000  1.0
  H  H32  1  0.40447000  0.37024000  0.41408000  1.0
  H  H33  1  0.90447000  0.12975000  0.08592000  1.0
  H  H34  1  0.59554000  0.62975000  0.58592000  1.0
  H  H35  1  0.09554000  0.87024000  0.91408000  1.0
  C  C36  1  0.79604000  0.36958000  0.80220000  1.0
  C  C37  1  0.29605000  0.13042000  0.69781000  1.0
  C  C38  1  0.20396000  0.63043000  0.19780000  1.0
  C  C39  1  0.70395000  0.86958000  0.30219000  1.0
  C  C40  1  0.78002000  0.41470000  0.90414000  1.0
  C  C41  1  0.28003000  0.08530000  0.59587000  1.0
  C  C42  1  0.21998000  0.58530000  0.09586000  1.0
  C  C43  1  0.71997000  0.91470000  0.40413000  1.0
  C  C44  1  0.64432000  0.35158000  0.07574000  1.0
  C  C45  1  0.14432000  0.14842000  0.42426000  1.0
  C  C46  1  0.35568000  0.64842000  0.92426000  1.0
  C  C47  1  0.85568000  0.85158000  0.57574000  1.0
  C  C48  1  0.69485000  0.47303000  0.09765000  1.0
  C  C49  1  0.19485000  0.02697000  0.40235000  1.0
  C  C50  1  0.30515000  0.52697000  0.90235000  1.0
  C  C51  1  0.80514000  0.97303000  0.59765000  1.0
  C  C52  1  0.66191000  0.49461000  0.19771000  1.0
  C  C53  1  0.16190000  0.00540000  0.30230000  1.0
  C  C54  1  0.33810000  0.50539000  0.80229000  1.0
  C  C55  1  0.83809000  0.99460000  0.69770000  1.0
  C  C56  1  0.57750000  0.39801000  0.27567000  1.0
  C  C57  1  0.07751000  0.10199000  0.22433000  1.0
  C  C58  1  0.42250000  0.60199000  0.72433000  1.0
  C  C59  1  0.92249000  0.89801000  0.77567000  1.0
  C  C60  1  0.53300000  0.27571000  0.25240000  1.0
  C  C61  1  0.03299000  0.22430000  0.24760000  1.0
  C  C62  1  0.46700000  0.72429000  0.74760000  1.0
  C  C63  1  0.96700000  0.77570000  0.75240000  1.0
  C  C64  1  0.56556000  0.25199000  0.15355000  1.0
  C  C65  1  0.06556000  0.24802000  0.34645000  1.0
  C  C66  1  0.43444000  0.74801000  0.84645000  1.0
  C  C67  1  0.93443000  0.75198000  0.65355000  1.0
  C  C68  1  0.53084000  0.42639000  0.38131000  1.0
  C  C69  1  0.03084000  0.07361000  0.11869000  1.0
  C  C70  1  0.46917000  0.57360000  0.61869000  1.0
  C  C71  1  0.96916000  0.92639000  0.88131000  1.0
  C  C72  1  0.69219000  0.39100000  0.45934000  1.0
  C  C73  1  0.19219000  0.10901000  0.04066000  1.0
  C  C74  1  0.30782000  0.60900000  0.54066000  1.0
  C  C75  1  0.80781000  0.89099000  0.95934000  1.0
  O  O76  1  0.90764000  0.43811000  0.73608000  1.0
  O  O77  1  0.40764000  0.06189000  0.76392000  1.0
  O  O78  1  0.09236000  0.56189000  0.26392000  1.0
  O  O79  1  0.59236000  0.93811000  0.23608000  1.0
  O  O80  1  0.70352000  0.27023000  0.78635000  1.0
  O  O81  1  0.20352000  0.22977000  0.71366000  1.0
  O  O82  1  0.29648000  0.72977000  0.21365000  1.0
  O  O83  1  0.79648000  0.77023000  0.28634000  1.0
  O  O84  1  0.67045000  0.32199000  0.97844000  1.0
  O  O85  1  0.17046000  0.17801000  0.52156000  1.0
  O  O86  1  0.32955000  0.67801000  0.02156000  1.0
  O  O87  1  0.82954000  0.82199000  0.47843000  1.0
  O  O88  1  0.70496000  0.27627000  0.51720000  1.0
  O  O89  1  0.20496000  0.22374000  0.98281000  1.0
  O  O90  1  0.29504000  0.72373000  0.48280000  1.0
  O  O91  1  0.79504000  0.77626000  0.01719000  1.0
  O  O92  1  0.81637000  0.47998000  0.46724000  1.0
  O  O93  1  0.31637000  0.02003000  0.03276000  1.0
  O  O94  1  0.18363000  0.52003000  0.53276000  1.0
  O  O95  1  0.68363000  0.97997000  0.96724000  1.0
