# generated using pymatgen
data_Dy2MnH32C36N6(ClO8)2
_symmetry_space_group_name_H-M   'P 1'
_cell_length_a   9.33152000
_cell_length_b   15.50190000
_cell_length_c   18.22830000
_cell_angle_alpha   89.99980000
_cell_angle_beta   90.54200000
_cell_angle_gamma   89.99950000
_symmetry_Int_Tables_number   1
_chemical_formula_structural   Dy2MnH32C36N6(ClO8)2
_chemical_formula_sum   'Dy4 Mn2 H64 C72 N12 Cl4 O32'
_cell_volume   2636.72027016
_cell_formula_units_Z   2
loop_
 _symmetry_equiv_pos_site_id
 _symmetry_equiv_pos_as_xyz
  1  'x, y, z'
loop_
 _atom_site_type_symbol
 _atom_site_label
 _atom_site_symmetry_multiplicity
 _atom_site_fract_x
 _atom_site_fract_y
 _atom_site_fract_z
 _atom_site_occupancy
  Dy  Dy0  1  0.29902000  0.57864000  0.49616000  1.0
  Dy  Dy1  1  0.20098000  0.07864000  0.00384000  1.0
  Dy  Dy2  1  0.70100000  0.42135000  0.50384000  1.0
  Dy  Dy3  1  0.79899000  0.92135000  0.99616000  1.0
  Mn  Mn4  1  0.50003000  0.50000000  1.00000000  1.0
  Mn  Mn5  1  0.00000000  0.00000000  0.50000000  1.0
  H  H6  1  0.07372000  0.62010000  0.59813000  1.0
  H  H7  1  0.42627000  0.12010000  0.90188000  1.0
  H  H8  1  0.92630000  0.37990000  0.40187000  1.0
  H  H9  1  0.57371000  0.87990000  0.09813000  1.0
  H  H10  1  0.01959000  0.52370000  0.58073000  1.0
  H  H11  1  0.48042000  0.02370000  0.91927000  1.0
  H  H12  1  0.98042000  0.47630000  0.41927000  1.0
  H  H13  1  0.51957000  0.97630000  0.08073000  1.0
  H  H14  1  0.43730000  0.83438000  0.97379000  1.0
  H  H15  1  0.06271000  0.33437000  0.52620000  1.0
  H  H16  1  0.56268000  0.16563000  0.02621000  1.0
  H  H17  1  0.93734000  0.66562000  0.47379000  1.0
  H  H18  1  0.55522000  0.68752000  0.97130000  1.0
  H  H19  1  0.94479000  0.18752000  0.52870000  1.0
  H  H20  1  0.44478000  0.31249000  0.02871000  1.0
  H  H21  1  0.05525000  0.81248000  0.47129000  1.0
  H  H22  1  0.24814000  0.76772000  0.53802000  1.0
  H  H23  1  0.25187000  0.26772000  0.96198000  1.0
  H  H24  1  0.75187000  0.23228000  0.46197000  1.0
  H  H25  1  0.74813000  0.73228000  0.03803000  1.0
  H  H26  1  0.33432000  0.72925000  0.60486000  1.0
  H  H27  1  0.16568000  0.22925000  0.89514000  1.0
  H  H28  1  0.66567000  0.27076000  0.39514000  1.0
  H  H29  1  0.83432000  0.77076000  0.10486000  1.0
  H  H30  1  0.03820000  0.70663000  0.01923000  1.0
  H  H31  1  0.46182000  0.20662000  0.48077000  1.0
  H  H32  1  0.96180000  0.29336000  0.98077000  1.0
  H  H33  1  0.53823000  0.79335000  0.51923000  1.0
  H  H34  1  0.17327000  0.56581000  0.02029000  1.0
  H  H35  1  0.32674000  0.06580000  0.47972000  1.0
  H  H36  1  0.82675000  0.43418000  0.97971000  1.0
  H  H37  1  0.67328000  0.93418000  0.52029000  1.0
  H  H38  1  0.27717000  0.54284000  0.73666000  1.0
  H  H39  1  0.22282000  0.04284000  0.76334000  1.0
  H  H40  1  0.72282000  0.45716000  0.26335000  1.0
  H  H41  1  0.77717000  0.95716000  0.23665000  1.0
  H  H42  1  0.72766000  0.48941000  0.87058000  1.0
  H  H43  1  0.77234000  0.98941000  0.62942000  1.0
  H  H44  1  0.27235000  0.51061000  0.12942000  1.0
  H  H45  1  0.22764000  0.01060000  0.37058000  1.0
  H  H46  1  0.72588000  0.47996000  0.73214000  1.0
  H  H47  1  0.77411000  0.97995000  0.76786000  1.0
  H  H48  1  0.27411000  0.52005000  0.26785000  1.0
  H  H49  1  0.22588000  0.02003000  0.23214000  1.0
  H  H50  1  0.29227000  0.53824000  0.87508000  1.0
  H  H51  1  0.20773000  0.03824000  0.62493000  1.0
  H  H52  1  0.70774000  0.46177000  0.12493000  1.0
  H  H53  1  0.79225000  0.96176000  0.37507000  1.0
  H  H54  1  0.19392000  0.77891000  0.30071000  1.0
  H  H55  1  0.30608000  0.27891000  0.19929000  1.0
  H  H56  1  0.80609000  0.22110000  0.69929000  1.0
  H  H57  1  0.69390000  0.72109000  0.80071000  1.0
  H  H58  1  0.08052000  0.83016000  0.18232000  1.0
  H  H59  1  0.41948000  0.33016000  0.31768000  1.0
  H  H60  1  0.91949000  0.16985000  0.81768000  1.0
  H  H61  1  0.58051000  0.66984000  0.68232000  1.0
  H  H62  1  0.80587000  0.62118000  0.17470000  1.0
  H  H63  1  0.69413000  0.12117000  0.32530000  1.0
  H  H64  1  0.19414000  0.37883000  0.82530000  1.0
  H  H65  1  0.30584000  0.87882000  0.67470000  1.0
  H  H66  1  0.91102000  0.55971000  0.29194000  1.0
  H  H67  1  0.58897000  0.05971000  0.20805000  1.0
  H  H68  1  0.08899000  0.44030000  0.70806000  1.0
  H  H69  1  0.41100000  0.94028000  0.79194000  1.0
  C  C70  1  0.22998000  0.78071000  0.99685000  1.0
  C  C71  1  0.27003000  0.28071000  0.50315000  1.0
  C  C72  1  0.77001000  0.21929000  0.00315000  1.0
  C  C73  1  0.73002000  0.71928000  0.49685000  1.0
  C  C74  1  0.37655000  0.77563000  0.98329000  1.0
  C  C75  1  0.12346000  0.27563000  0.51672000  1.0
  C  C76  1  0.62344000  0.22437000  0.01672000  1.0
  C  C77  1  0.87659000  0.72436000  0.48328000  1.0
  C  C78  1  0.15826000  0.86708000  0.99671000  1.0
  C  C79  1  0.34172000  0.36708000  0.50329000  1.0
  C  C80  1  0.84168000  0.13291000  0.00328000  1.0
  C  C81  1  0.65833000  0.63291000  0.49672000  1.0
  C  C82  1  0.44167000  0.69526000  0.98311000  1.0
  C  C83  1  0.05834000  0.19526000  0.51689000  1.0
  C  C84  1  0.55833000  0.30475000  0.01690000  1.0
  C  C85  1  0.94170000  0.80474000  0.48310000  1.0
  C  C86  1  0.15329000  0.70489000  0.00994000  1.0
  C  C87  1  0.34671000  0.20488000  0.49007000  1.0
  C  C88  1  0.84670000  0.29510000  0.99006000  1.0
  C  C89  1  0.65332000  0.79509000  0.50994000  1.0
  C  C90  1  0.49317000  0.50925000  0.64214000  1.0
  C  C91  1  0.00679000  0.00923000  0.85787000  1.0
  C  C92  1  0.50678000  0.49077000  0.35787000  1.0
  C  C93  1  0.99318000  0.99075000  0.14213000  1.0
  C  C94  1  0.22758000  0.62714000  0.01086000  1.0
  C  C95  1  0.27243000  0.12713000  0.48915000  1.0
  C  C96  1  0.77243000  0.37286000  0.98915000  1.0
  C  C97  1  0.72760000  0.87285000  0.51085000  1.0
  C  C98  1  0.06065000  0.66517000  0.30480000  1.0
  C  C99  1  0.43934000  0.16517000  0.19520000  1.0
  C  C100  1  0.93937000  0.33484000  0.69520000  1.0
  C  C101  1  0.56062000  0.83483000  0.80480000  1.0
  C  C102  1  0.37728000  0.52805000  0.76513000  1.0
  C  C103  1  0.12271000  0.02804000  0.73487000  1.0
  C  C104  1  0.62272000  0.47196000  0.23488000  1.0
  C  C105  1  0.87728000  0.97195000  0.26513000  1.0
  C  C106  1  0.12773000  0.63279000  0.37491000  1.0
  C  C107  1  0.37227000  0.13279000  0.12509000  1.0
  C  C108  1  0.87231000  0.36722000  0.62508000  1.0
  C  C109  1  0.62767000  0.86720000  0.87492000  1.0
  C  C110  1  0.62913000  0.49780000  0.83870000  1.0
  C  C111  1  0.87086000  0.99779000  0.66129000  1.0
  C  C112  1  0.37088000  0.50222000  0.16129000  1.0
  C  C113  1  0.12912000  0.00221000  0.33871000  1.0
  C  C114  1  0.49992000  0.50945000  0.72470000  1.0
  C  C115  1  0.00007000  0.00944000  0.77530000  1.0
  C  C116  1  0.50007000  0.49056000  0.27530000  1.0
  C  C117  1  0.99992000  0.99055000  0.22470000  1.0
  C  C118  1  0.62840000  0.49375000  0.76242000  1.0
  C  C119  1  0.87159000  0.99375000  0.73758000  1.0
  C  C120  1  0.37160000  0.50626000  0.23757000  1.0
  C  C121  1  0.12839000  0.00624000  0.26242000  1.0
  C  C122  1  0.38615000  0.52751000  0.84115000  1.0
  C  C123  1  0.11385000  0.02751000  0.65885000  1.0
  C  C124  1  0.61386000  0.47250000  0.15886000  1.0
  C  C125  1  0.88613000  0.97250000  0.34114000  1.0
  C  C126  1  0.10878000  0.74237000  0.27370000  1.0
  C  C127  1  0.39122000  0.24237000  0.22630000  1.0
  C  C128  1  0.89124000  0.25764000  0.72630000  1.0
  C  C129  1  0.60875000  0.75763000  0.77370000  1.0
  C  C130  1  0.04509000  0.77086000  0.20869000  1.0
  C  C131  1  0.45491000  0.27086000  0.29131000  1.0
  C  C132  1  0.95492000  0.22915000  0.79131000  1.0
  C  C133  1  0.54507000  0.72914000  0.70869000  1.0
  C  C134  1  0.89201000  0.65404000  0.20461000  1.0
  C  C135  1  0.60799000  0.15404000  0.29539000  1.0
  C  C136  1  0.10801000  0.34597000  0.79539000  1.0
  C  C137  1  0.39198000  0.84596000  0.70461000  1.0
  C  C138  1  0.95080000  0.61991000  0.26899000  1.0
  C  C139  1  0.54919000  0.11991000  0.23100000  1.0
  C  C140  1  0.04922000  0.38010000  0.73101000  1.0
  C  C141  1  0.45077000  0.88009000  0.76900000  1.0
  N  N142  1  0.36951000  0.62212000  0.99801000  1.0
  N  N143  1  0.13050000  0.12213000  0.50200000  1.0
  N  N144  1  0.63051000  0.37788000  0.00200000  1.0
  N  N145  1  0.86952000  0.87787000  0.49800000  1.0
  N  N146  1  0.50994000  0.51290000  0.87760000  1.0
  N  N147  1  0.99006000  0.01290000  0.62240000  1.0
  N  N148  1  0.49007000  0.48712000  0.12240000  1.0
  N  N149  1  0.00992000  0.98711000  0.37760000  1.0
  N  N150  1  0.93759000  0.72847000  0.17496000  1.0
  N  N151  1  0.56240000  0.22847000  0.32504000  1.0
  N  N152  1  0.06242000  0.27154000  0.82504000  1.0
  N  N153  1  0.43757000  0.77153000  0.67496000  1.0
  Cl  Cl154  1  0.73626000  0.58571000  0.01467000  1.0
  Cl  Cl155  1  0.76375000  0.08571000  0.48534000  1.0
  Cl  Cl156  1  0.26376000  0.41430000  0.98533000  1.0
  Cl  Cl157  1  0.23625000  0.91430000  0.51467000  1.0
  O  O158  1  0.08301000  0.57157000  0.56479000  1.0
  O  O159  1  0.41699000  0.07157000  0.93521000  1.0
  O  O160  1  0.91700000  0.42843000  0.43520000  1.0
  O  O161  1  0.58299000  0.92843000  0.06479000  1.0
  O  O162  1  0.59751000  0.47524000  0.60912000  1.0
  O  O163  1  0.90246000  0.97521000  0.89086000  1.0
  O  O164  1  0.40245000  0.52478000  0.39086000  1.0
  O  O165  1  0.09752000  0.02479000  0.10913000  1.0
  O  O166  1  0.23908000  0.93276000  0.99561000  1.0
  O  O167  1  0.26092000  0.43275000  0.50439000  1.0
  O  O168  1  0.76088000  0.06724000  0.00439000  1.0
  O  O169  1  0.73916000  0.56723000  0.49560000  1.0
  O  O170  1  0.38378000  0.54457000  0.61330000  1.0
  O  O171  1  0.11619000  0.04455000  0.88671000  1.0
  O  O172  1  0.61618000  0.45544000  0.38672000  1.0
  O  O173  1  0.88380000  0.95543000  0.11329000  1.0
  O  O174  1  0.09831000  0.55752000  0.39902000  1.0
  O  O175  1  0.40168000  0.05752000  0.10098000  1.0
  O  O176  1  0.90169000  0.44249000  0.60099000  1.0
  O  O177  1  0.59829000  0.94248000  0.89901000  1.0
  O  O178  1  0.21565000  0.68206000  0.40859000  1.0
  O  O179  1  0.28435000  0.18207000  0.09140000  1.0
  O  O180  1  0.78443000  0.31793000  0.59138000  1.0
  O  O181  1  0.71555000  0.81792000  0.90863000  1.0
  O  O182  1  0.02265000  0.86756000  0.99797000  1.0
  O  O183  1  0.47736000  0.36756000  0.50203000  1.0
  O  O184  1  0.97732000  0.13242000  0.00201000  1.0
  O  O185  1  0.52271000  0.63240000  0.49798000  1.0
  O  O186  1  0.26484000  0.71268000  0.56403000  1.0
  O  O187  1  0.23517000  0.21268000  0.93596000  1.0
  O  O188  1  0.73518000  0.28732000  0.43596000  1.0
  O  O189  1  0.76482000  0.78732000  0.06404000  1.0
