# generated using pymatgen
data_MoH13C11(NO)3
_symmetry_space_group_name_H-M   'P 1'
_cell_length_a   9.61164000
_cell_length_b   12.25210000
_cell_length_c   12.35850000
_cell_angle_alpha   90.00000000
_cell_angle_beta   112.86500000
_cell_angle_gamma   90.00000000
_symmetry_Int_Tables_number   1
_chemical_formula_structural   MoH13C11(NO)3
_chemical_formula_sum   'Mo4 H52 C44 N12 O12'
_cell_volume   1341.01244823
_cell_formula_units_Z   4
loop_
 _symmetry_equiv_pos_site_id
 _symmetry_equiv_pos_as_xyz
  1  'x, y, z'
loop_
 _atom_site_type_symbol
 _atom_site_label
 _atom_site_symmetry_multiplicity
 _atom_site_fract_x
 _atom_site_fract_y
 _atom_site_fract_z
 _atom_site_occupancy
  Mo  Mo0  1  0.84815000  0.85111000  0.00070000  1.0
  Mo  Mo1  1  0.15185000  0.35111000  0.99930000  1.0
  Mo  Mo2  1  0.15257000  0.64890000  0.00067000  1.0
  Mo  Mo3  1  0.84743000  0.14890000  0.99933000  1.0
  H  H4  1  0.25151000  0.82673000  0.20014000  1.0
  H  H5  1  0.74849000  0.32673000  0.79986000  1.0
  H  H6  1  0.94845000  0.67327000  0.20016000  1.0
  H  H7  1  0.05155000  0.17327000  0.79984000  1.0
  H  H8  1  0.24865000  0.17280000  0.19324000  1.0
  H  H9  1  0.75135000  0.67280000  0.80676000  1.0
  H  H10  1  0.94445000  0.32720000  0.19318000  1.0
  H  H11  1  0.05555000  0.82720000  0.80682000  1.0
  H  H12  1  0.50699000  0.92243000  0.27054000  1.0
  H  H13  1  0.49301000  0.42243000  0.72946000  1.0
  H  H14  1  0.76346000  0.57750000  0.27069000  1.0
  H  H15  1  0.23654000  0.07750000  0.72931000  1.0
  H  H16  1  0.66203000  0.09187000  0.30827000  1.0
  H  H17  1  0.33797000  0.59187000  0.69173000  1.0
  H  H18  1  0.64629000  0.40802000  0.30849000  1.0
  H  H19  1  0.35371000  0.90802000  0.69151000  1.0
  H  H20  1  0.49890000  0.17288000  0.27016000  1.0
  H  H21  1  0.50110000  0.67288000  0.72984000  1.0
  H  H22  1  0.77130000  0.32706000  0.27027000  1.0
  H  H23  1  0.22870000  0.82706000  0.72973000  1.0
  H  H24  1  0.57304000  0.15335000  0.09894000  1.0
  H  H25  1  0.42696000  0.65335000  0.90106000  1.0
  H  H26  1  0.52589000  0.34666000  0.09911000  1.0
  H  H27  1  0.47411000  0.84667000  0.90089000  1.0
  H  H28  1  0.39716000  0.08786000  0.06524000  1.0
  H  H29  1  0.60284000  0.58786000  0.93476000  1.0
  H  H30  1  0.66812000  0.41214000  0.06540000  1.0
  H  H31  1  0.33188000  0.91214000  0.93460000  1.0
  H  H32  1  0.56584000  0.00940000  0.10651000  1.0
  H  H33  1  0.43416000  0.50940000  0.89349000  1.0
  H  H34  1  0.54080000  0.49061000  0.10678000  1.0
  H  H35  1  0.45920000  0.99061000  0.89322000  1.0
  H  H36  1  0.41595000  0.16267000  0.42777000  1.0
  H  H37  1  0.58405000  0.66267000  0.57223000  1.0
  H  H38  1  0.01178000  0.33730000  0.42777000  1.0
  H  H39  1  0.98823000  0.83730000  0.57223000  1.0
  H  H40  1  0.49409000  0.16448000  0.64501000  1.0
  H  H41  1  0.50591000  0.66448000  0.35499000  1.0
  H  H42  1  0.15102000  0.33555000  0.64500000  1.0
  H  H43  1  0.84898000  0.83555000  0.35500000  1.0
  H  H44  1  0.62588000  0.00511000  0.76393000  1.0
  H  H45  1  0.37412000  0.50511000  0.23607000  1.0
  H  H46  1  0.13817000  0.49493000  0.76394000  1.0
  H  H47  1  0.86183000  0.99493000  0.23606000  1.0
  H  H48  1  0.68225000  0.84369000  0.66792000  1.0
  H  H49  1  0.31775000  0.34369000  0.33208000  1.0
  H  H50  1  0.98576000  0.65634000  0.66795000  1.0
  H  H51  1  0.01423000  0.15634000  0.33205000  1.0
  H  H52  1  0.60799000  0.84180000  0.44989000  1.0
  H  H53  1  0.39201000  0.34180000  0.55011000  1.0
  H  H54  1  0.84203000  0.65823000  0.44994000  1.0
  H  H55  1  0.15797000  0.15823000  0.55006000  1.0
  C  C56  1  0.21175000  0.91076000  0.18812000  1.0
  C  C57  1  0.78825000  0.41076000  0.81188000  1.0
  C  C58  1  0.97620000  0.58926000  0.18810000  1.0
  C  C59  1  0.02380000  0.08926000  0.81190000  1.0
  C  C60  1  0.21084000  0.08838000  0.18542000  1.0
  C  C61  1  0.78915000  0.58838000  0.81459000  1.0
  C  C62  1  0.97443000  0.41163000  0.18537000  1.0
  C  C63  1  0.02557000  0.91163000  0.81463000  1.0
  C  C64  1  0.46815000  0.00022000  0.29360000  1.0
  C  C65  1  0.53185000  0.50022000  0.70640000  1.0
  C  C66  1  0.82540000  0.49975000  0.29369000  1.0
  C  C67  1  0.17460000  0.99975000  0.70631000  1.0
  C  C68  1  0.54094000  0.09415000  0.25232000  1.0
  C  C69  1  0.45906000  0.59415000  0.74768000  1.0
  C  C70  1  0.71141000  0.40577000  0.25248000  1.0
  C  C71  1  0.28859000  0.90577000  0.74751000  1.0
  C  C72  1  0.51725000  0.08547000  0.12352000  1.0
  C  C73  1  0.48275000  0.58547000  0.87648000  1.0
  C  C74  1  0.60631000  0.41451000  0.12372000  1.0
  C  C75  1  0.39369000  0.91451000  0.87628000  1.0
  C  C76  1  0.50657000  0.00150000  0.42455000  1.0
  C  C77  1  0.49343000  0.50150000  0.57544000  1.0
  C  C78  1  0.91796000  0.49848000  0.42463000  1.0
  C  C79  1  0.08204000  0.99848000  0.57537000  1.0
  C  C80  1  0.47392000  0.09215000  0.47980000  1.0
  C  C81  1  0.52608000  0.59215000  0.52020000  1.0
  C  C82  1  0.00583000  0.40781000  0.47981000  1.0
  C  C83  1  0.99417000  0.90781000  0.52019000  1.0
  C  C84  1  0.51700000  0.09340000  0.60138000  1.0
  C  C85  1  0.48300000  0.59339000  0.39862000  1.0
  C  C86  1  0.08444000  0.40660000  0.60138000  1.0
  C  C87  1  0.91556000  0.90660000  0.39862000  1.0
  C  C88  1  0.59208000  0.00389000  0.66902000  1.0
  C  C89  1  0.40792000  0.50389000  0.33098000  1.0
  C  C90  1  0.07705000  0.49612000  0.66903000  1.0
  C  C91  1  0.92295000  0.99612000  0.33097000  1.0
  C  C92  1  0.62407000  0.91317000  0.61437000  1.0
  C  C93  1  0.37593000  0.41317000  0.38563000  1.0
  C  C94  1  0.99038000  0.58683000  0.61442000  1.0
  C  C95  1  0.00962000  0.08683000  0.38558000  1.0
  C  C96  1  0.58169000  0.91217000  0.49281000  1.0
  C  C97  1  0.41831000  0.41217000  0.50718000  1.0
  C  C98  1  0.91120000  0.58783000  0.49288000  1.0
  C  C99  1  0.08880000  0.08783000  0.50712000  1.0
  N  N100  1  0.07189000  0.94319000  0.12701000  1.0
  N  N101  1  0.92811000  0.44319000  0.87299000  1.0
  N  N102  1  0.05508000  0.55686000  0.12703000  1.0
  N  N103  1  0.94492000  0.05686000  0.87297000  1.0
  N  N104  1  0.07160000  0.05486000  0.12524000  1.0
  N  N105  1  0.92840000  0.55486000  0.87476000  1.0
  N  N106  1  0.05354000  0.44519000  0.12520000  1.0
  N  N107  1  0.94647000  0.94519000  0.87480000  1.0
  N  N108  1  0.30236000  0.99999000  0.22608000  1.0
  N  N109  1  0.69764000  0.49998000  0.77392000  1.0
  N  N110  1  0.92351000  0.50002000  0.22601000  1.0
  N  N111  1  0.07650000  0.00002000  0.77399000  1.0
  O  O112  1  0.78637000  0.00002000  0.00001000  1.0
  O  O113  1  0.21363000  0.50002000  0.99999000  1.0
  O  O114  1  0.00216000  0.75003000  0.00431000  1.0
  O  O115  1  0.99784000  0.25003000  0.99569000  1.0
  O  O116  1  0.81002000  0.80297000  0.11788000  1.0
  O  O117  1  0.18998000  0.30297000  0.88212000  1.0
  O  O118  1  0.30779000  0.69707000  0.11783000  1.0
  O  O119  1  0.69221000  0.19707000  0.88217000  1.0
  O  O120  1  0.70260000  0.80402000  0.87563000  1.0
  O  O121  1  0.29740000  0.30402000  0.12436000  1.0
  O  O122  1  0.17313000  0.69605000  0.87562000  1.0
  O  O123  1  0.82687000  0.19606000  0.12438000  1.0
