# generated using pymatgen
data_NaBH8(CO)4
_symmetry_space_group_name_H-M   'P 1'
_cell_length_a   5.72743000
_cell_length_b   7.94395000
_cell_length_c   8.28233501
_cell_angle_alpha   61.35895343
_cell_angle_beta   82.91023267
_cell_angle_gamma   75.07760000
_symmetry_Int_Tables_number   1
_chemical_formula_structural   NaBH8(CO)4
_chemical_formula_sum   'Na2 B2 H16 C8 O8'
_cell_volume   319.57026412
_cell_formula_units_Z   2
loop_
 _symmetry_equiv_pos_site_id
 _symmetry_equiv_pos_as_xyz
  1  'x, y, z'
loop_
 _atom_site_type_symbol
 _atom_site_label
 _atom_site_symmetry_multiplicity
 _atom_site_fract_x
 _atom_site_fract_y
 _atom_site_fract_z
 _atom_site_occupancy
  Na  Na0  1  0.24960000  0.08119000  0.83750000  1.0
  Na  Na1  1  0.75040000  0.91881000  0.16250000  1.0
  B  B2  1  0.25047000  0.87952000  0.24093000  1.0
  B  B3  1  0.74953000  0.12049000  0.75906000  1.0
  H  H4  1  0.94281000  0.30488000  0.19074000  1.0
  H  H5  1  0.44181000  0.49588000  0.80889000  1.0
  H  H6  1  0.05719000  0.69512000  0.80926000  1.0
  H  H7  1  0.55819000  0.50412000  0.19111000  1.0
  H  H8  1  0.21555000  0.31809000  0.05855000  1.0
  H  H9  1  0.71435000  0.37711000  0.94131000  1.0
  H  H10  1  0.78445000  0.68191000  0.94145000  1.0
  H  H11  1  0.28564000  0.62289000  0.05869000  1.0
  H  H12  1  0.39525000  0.17729000  0.35944000  1.0
  H  H13  1  0.89463000  0.53655000  0.64065000  1.0
  H  H14  1  0.60475000  0.82271000  0.64056000  1.0
  H  H15  1  0.10538000  0.46344000  0.35936000  1.0
  H  H16  1  0.14887000  0.06764000  0.47169000  1.0
  H  H17  1  0.64832000  0.53941000  0.52817000  1.0
  H  H18  1  0.85113000  0.93236000  0.52831000  1.0
  H  H19  1  0.35168000  0.46060000  0.47183000  1.0
  C  C20  1  0.11786000  0.21767000  0.17229000  1.0
  C  C21  1  0.61686000  0.39013000  0.82754000  1.0
  C  C22  1  0.88214000  0.78233000  0.82771000  1.0
  C  C23  1  0.38314000  0.60987000  0.17246000  1.0
  C  C24  1  0.26746000  0.10048000  0.34989000  1.0
  C  C25  1  0.76667000  0.45042000  0.65002000  1.0
  C  C26  1  0.73254000  0.89952000  0.65011000  1.0
  C  C27  1  0.23333000  0.54958000  0.34998000  1.0
  O  O28  1  0.08004000  0.07184000  0.12968000  1.0
  O  O29  1  0.57921000  0.20168000  0.87030000  1.0
  O  O30  1  0.91996000  0.92816000  0.87032000  1.0
  O  O31  1  0.42079000  0.79831000  0.12970000  1.0
  O  O32  1  0.39660000  0.92377000  0.34429000  1.0
  O  O33  1  0.89561000  0.26804000  0.65560000  1.0
  O  O34  1  0.60340000  0.07623000  0.65571000  1.0
  O  O35  1  0.10440000  0.73196000  0.34440000  1.0
