# generated using pymatgen
data_Cu2PH14C17Br2N
_symmetry_space_group_name_H-M   'P 1'
_cell_length_a   7.10666000
_cell_length_b   10.36890000
_cell_length_c   13.03880000
_cell_angle_alpha   81.10600000
_cell_angle_beta   82.50700000
_cell_angle_gamma   83.95670000
_symmetry_Int_Tables_number   1
_chemical_formula_structural   Cu2PH14C17Br2N
_chemical_formula_sum   'Cu4 P2 H28 C34 Br4 N2'
_cell_volume   937.58773928
_cell_formula_units_Z   2
loop_
 _symmetry_equiv_pos_site_id
 _symmetry_equiv_pos_as_xyz
  1  'x, y, z'
loop_
 _atom_site_type_symbol
 _atom_site_label
 _atom_site_symmetry_multiplicity
 _atom_site_fract_x
 _atom_site_fract_y
 _atom_site_fract_z
 _atom_site_occupancy
  Cu  Cu0  1  0.06720000  0.10219000  0.43151000  1.0
  Cu  Cu1  1  0.93281000  0.89780000  0.56849000  1.0
  Cu  Cu2  1  0.69443000  0.05013000  0.45407000  1.0
  Cu  Cu3  1  0.30559000  0.94985000  0.54593000  1.0
  P  P4  1  0.95886000  0.20738000  0.28788000  1.0
  P  P5  1  0.04115000  0.79263000  0.71213000  1.0
  H  H6  1  0.95195000  0.39852000  0.42150000  1.0
  H  H7  1  0.04808000  0.60148000  0.57848000  1.0
  H  H8  1  0.73184000  0.59513000  0.45651000  1.0
  H  H9  1  0.26820000  0.40487000  0.54348000  1.0
  H  H10  1  0.43909000  0.64753000  0.36835000  1.0
  H  H11  1  0.56093000  0.35247000  0.63166000  1.0
  H  H12  1  0.37067000  0.50957000  0.23927000  1.0
  H  H13  1  0.62933000  0.49042000  0.76075000  1.0
  H  H14  1  0.59318000  0.31881000  0.19969000  1.0
  H  H15  1  0.40680000  0.68118000  0.80033000  1.0
  H  H16  1  0.30574000  0.08533000  0.18912000  1.0
  H  H17  1  0.69426000  0.91467000  0.81087000  1.0
  H  H18  1  0.53036000  0.15727000  0.03315000  1.0
  H  H19  1  0.46963000  0.84275000  0.96684000  1.0
  H  H20  1  0.48519000  0.38303000  0.93587000  1.0
  H  H21  1  0.51479000  0.61698000  0.06413000  1.0
  H  H22  1  0.21514000  0.53620000  0.99551000  1.0
  H  H23  1  0.78485000  0.46381000  0.00450000  1.0
  H  H24  1  0.98480000  0.46300000  0.14869000  1.0
  H  H25  1  0.01519000  0.53701000  0.85132000  1.0
  H  H26  1  0.93328000  0.14337000  0.06960000  1.0
  H  H27  1  0.06669000  0.85665000  0.93039000  1.0
  H  H28  1  0.79405000  0.95266000  0.01825000  1.0
  H  H29  1  0.20593000  0.04735000  0.98174000  1.0
  H  H30  1  0.62175000  0.79907000  0.15934000  1.0
  H  H31  1  0.37825000  0.20093000  0.84065000  1.0
  H  H32  1  0.58257000  0.84895000  0.34332000  1.0
  H  H33  1  0.41745000  0.15102000  0.65668000  1.0
  C  C34  1  0.78909000  0.34777000  0.30673000  1.0
  C  C35  1  0.21091000  0.65223000  0.69328000  1.0
  C  C36  1  0.82704000  0.42568000  0.37955000  1.0
  C  C37  1  0.17297000  0.57433000  0.62045000  1.0
  C  C38  1  0.70373000  0.53478000  0.39965000  1.0
  C  C39  1  0.29629000  0.46522000  0.60035000  1.0
  C  C40  1  0.53955000  0.56523000  0.34908000  1.0
  C  C41  1  0.46046000  0.43477000  0.65092000  1.0
  C  C42  1  0.50124000  0.48807000  0.27676000  1.0
  C  C43  1  0.49876000  0.51192000  0.72324000  1.0
  C  C44  1  0.62626000  0.37995000  0.25469000  1.0
  C  C45  1  0.37375000  0.62004000  0.74532000  1.0
  C  C46  1  0.12700000  0.26845000  0.17706000  1.0
  C  C47  1  0.87298000  0.73155000  0.82295000  1.0
  C  C48  1  0.28390000  0.18340000  0.14534000  1.0
  C  C49  1  0.71609000  0.81660000  0.85466000  1.0
  C  C50  1  0.41080000  0.22430000  0.05829000  1.0
  C  C51  1  0.58919000  0.77570000  0.94171000  1.0
  C  C52  1  0.38605000  0.35096000  0.00386000  1.0
  C  C53  1  0.61394000  0.64906000  0.99615000  1.0
  C  C54  1  0.23421000  0.43711000  0.03733000  1.0
  C  C55  1  0.76577000  0.56291000  0.96267000  1.0
  C  C56  1  0.10469000  0.39610000  0.12334000  1.0
  C  C57  1  0.89529000  0.60390000  0.87666000  1.0
  C  C58  1  0.83687000  0.09195000  0.23295000  1.0
  C  C59  1  0.16314000  0.90804000  0.76706000  1.0
  C  C60  1  0.85684000  0.07472000  0.12786000  1.0
  C  C61  1  0.14315000  0.92529000  0.87213000  1.0
  C  C62  1  0.77925000  0.96889000  0.09965000  1.0
  C  C63  1  0.22074000  0.03112000  0.90034000  1.0
  C  C64  1  0.68077000  0.88475000  0.17717000  1.0
  C  C65  1  0.31924000  0.11525000  0.82282000  1.0
  C  C66  1  0.65997000  0.91067000  0.27990000  1.0
  C  C67  1  0.34004000  0.08933000  0.72009000  1.0
  Br  Br68  1  0.37455000  0.18583000  0.44823000  1.0
  Br  Br69  1  0.62545000  0.81415000  0.55176000  1.0
  Br  Br70  1  0.83082000  0.13929000  0.59110000  1.0
  Br  Br71  1  0.16919000  0.86070000  0.40889000  1.0
  N  N72  1  0.73748000  0.01100000  0.30778000  1.0
  N  N73  1  0.26251000  0.98899000  0.69222000  1.0
