# generated using pymatgen
data_CdH16C24(NO2)2
_symmetry_space_group_name_H-M   'P 1'
_cell_length_a   9.59168000
_cell_length_b   14.76950000
_cell_length_c   17.99720000
_cell_angle_alpha   90.00000000
_cell_angle_beta   90.00020000
_cell_angle_gamma   95.39840000
_symmetry_Int_Tables_number   1
_chemical_formula_structural   CdH16C24(NO2)2
_chemical_formula_sum   'Cd4 H64 C96 N8 O16'
_cell_volume   2538.25271660
_cell_formula_units_Z   4
loop_
 _symmetry_equiv_pos_site_id
 _symmetry_equiv_pos_as_xyz
  1  'x, y, z'
loop_
 _atom_site_type_symbol
 _atom_site_label
 _atom_site_symmetry_multiplicity
 _atom_site_fract_x
 _atom_site_fract_y
 _atom_site_fract_z
 _atom_site_occupancy
  Cd  Cd0  1  0.13228000  0.48433000  0.41830000  1.0
  Cd  Cd1  1  0.86772000  0.01567000  0.91830000  1.0
  Cd  Cd2  1  0.86772000  0.51567000  0.58170000  1.0
  Cd  Cd3  1  0.13229000  0.98433000  0.08170000  1.0
  H  H4  1  0.06626000  0.72679000  0.62956000  1.0
  H  H5  1  0.93374000  0.77320000  0.12956000  1.0
  H  H6  1  0.93374000  0.27320000  0.37044000  1.0
  H  H7  1  0.06626000  0.22680000  0.87044000  1.0
  H  H8  1  0.43036000  0.90876000  0.68705000  1.0
  H  H9  1  0.56964000  0.59124000  0.18704000  1.0
  H  H10  1  0.56964000  0.09124000  0.31295000  1.0
  H  H11  1  0.43036000  0.40876000  0.81295000  1.0
  H  H12  1  0.56508000  0.84187000  0.58704000  1.0
  H  H13  1  0.43492000  0.65813000  0.08704000  1.0
  H  H14  1  0.43492000  0.15813000  0.41296000  1.0
  H  H15  1  0.56508000  0.34187000  0.91296000  1.0
  H  H16  1  0.44789000  0.71945000  0.50595000  1.0
  H  H17  1  0.55211000  0.78056000  0.00595000  1.0
  H  H18  1  0.55211000  0.28056000  0.49405000  1.0
  H  H19  1  0.44789000  0.21945000  0.99405000  1.0
  H  H20  1  0.91214000  0.81912000  0.85870000  1.0
  H  H21  1  0.08786000  0.68088000  0.35870000  1.0
  H  H22  1  0.08786000  0.18088000  0.14130000  1.0
  H  H23  1  0.91214000  0.31912000  0.64130000  1.0
  H  H24  1  0.03666000  0.74113000  0.75884000  1.0
  H  H25  1  0.96333000  0.75887000  0.25884000  1.0
  H  H26  1  0.96333000  0.25887000  0.24115000  1.0
  H  H27  1  0.03666000  0.24114000  0.74116000  1.0
  H  H28  1  0.25314000  0.00248000  0.70481000  1.0
  H  H29  1  0.74686000  0.49752000  0.20481000  1.0
  H  H30  1  0.74686000  0.99752000  0.29519000  1.0
  H  H31  1  0.25314000  0.50248000  0.79520000  1.0
  H  H32  1  0.11831000  0.06968000  0.80658000  1.0
  H  H33  1  0.88170000  0.43032000  0.30658000  1.0
  H  H34  1  0.88170000  0.93032000  0.19342000  1.0
  H  H35  1  0.11831000  0.56968000  0.69342000  1.0
  H  H36  1  0.52788000  0.44455000  0.25585000  1.0
  H  H37  1  0.47212000  0.05545000  0.75585000  1.0
  H  H38  1  0.47212000  0.55545000  0.74415000  1.0
  H  H39  1  0.52788000  0.94455000  0.24415000  1.0
  H  H40  1  0.67409000  0.35860000  0.17167000  1.0
  H  H41  1  0.32591000  0.14141000  0.67167000  1.0
  H  H42  1  0.32591000  0.64140000  0.82833000  1.0
  H  H43  1  0.67409000  0.85860000  0.32833000  1.0
  H  H44  1  0.36075000  0.12905000  0.18130000  1.0
  H  H45  1  0.63925000  0.37095000  0.68130000  1.0
  H  H46  1  0.63925000  0.87095000  0.81870000  1.0
  H  H47  1  0.36075000  0.62905000  0.31870000  1.0
  H  H48  1  0.22229000  0.21474000  0.26822000  1.0
  H  H49  1  0.77771000  0.28526000  0.76822000  1.0
  H  H50  1  0.77771000  0.78526000  0.73178000  1.0
  H  H51  1  0.22229000  0.71474000  0.23178000  1.0
  H  H52  1  0.86250000  0.21670000  0.98113000  1.0
  H  H53  1  0.13750000  0.28331000  0.48113000  1.0
  H  H54  1  0.13750000  0.78330000  0.01887000  1.0
  H  H55  1  0.86249000  0.71669000  0.51887000  1.0
  H  H56  1  0.73711000  0.30659000  0.07173000  1.0
  H  H57  1  0.26288000  0.19341000  0.57172000  1.0
  H  H58  1  0.26289000  0.69340000  0.92828000  1.0
  H  H59  1  0.73711000  0.80659000  0.42827000  1.0
  H  H60  1  0.50077000  0.05405000  0.13699000  1.0
  H  H61  1  0.49922000  0.44595000  0.63699000  1.0
  H  H62  1  0.49922000  0.94595000  0.86301000  1.0
  H  H63  1  0.50077000  0.55404000  0.36301000  1.0
  H  H64  1  0.63208000  0.97755000  0.04211000  1.0
  H  H65  1  0.36792000  0.52245000  0.54211000  1.0
  H  H66  1  0.36792000  0.02245000  0.95789000  1.0
  H  H67  1  0.63207000  0.47755000  0.45789000  1.0
  C  C68  1  0.18539000  0.64146000  0.51458000  1.0
  C  C69  1  0.81461000  0.85854000  0.01458000  1.0
  C  C70  1  0.81461000  0.35854000  0.48542000  1.0
  C  C71  1  0.18539000  0.14146000  0.98542000  1.0
  C  C72  1  0.25111000  0.71636000  0.56314000  1.0
  C  C73  1  0.74889000  0.78364000  0.06314000  1.0
  C  C74  1  0.74889000  0.28364000  0.43686000  1.0
  C  C75  1  0.25111000  0.21636000  0.93686000  1.0
  C  C76  1  0.17541000  0.75276000  0.62062000  1.0
  C  C77  1  0.82459000  0.74724000  0.12062000  1.0
  C  C78  1  0.82459000  0.24724000  0.37938000  1.0
  C  C79  1  0.17541000  0.25276000  0.87938000  1.0
  C  C80  1  0.23837000  0.82379000  0.66465000  1.0
  C  C81  1  0.76163000  0.67621000  0.16465000  1.0
  C  C82  1  0.76163000  0.17621000  0.33535000  1.0
  C  C83  1  0.23837000  0.32379000  0.83535000  1.0
  C  C84  1  0.37908000  0.85573000  0.65163000  1.0
  C  C85  1  0.62092000  0.64427000  0.15163000  1.0
  C  C86  1  0.62092000  0.14427000  0.34837000  1.0
  C  C87  1  0.37908000  0.35573000  0.84837000  1.0
  C  C88  1  0.45523000  0.81791000  0.59555000  1.0
  C  C89  1  0.54477000  0.68209000  0.09555000  1.0
  C  C90  1  0.54477000  0.18209000  0.40445000  1.0
  C  C91  1  0.45523000  0.31791000  0.90445000  1.0
  C  C92  1  0.39115000  0.74919000  0.55078000  1.0
  C  C93  1  0.60885000  0.75081000  0.05078000  1.0
  C  C94  1  0.60885000  0.25081000  0.44922000  1.0
  C  C95  1  0.39115000  0.24919000  0.94922000  1.0
  C  C96  1  0.98962000  0.85691000  0.82334000  1.0
  C  C97  1  0.01039000  0.64310000  0.32334000  1.0
  C  C98  1  0.01038000  0.14309000  0.17666000  1.0
  C  C99  1  0.98962000  0.35691000  0.67666000  1.0
  C  C100  1  0.05990000  0.81398000  0.76786000  1.0
  C  C101  1  0.94010000  0.68602000  0.26786000  1.0
  C  C102  1  0.94010000  0.18602000  0.23214000  1.0
  C  C103  1  0.05990000  0.31398000  0.73214000  1.0
  C  C104  1  0.15886000  0.86529000  0.72376000  1.0
  C  C105  1  0.84114000  0.63471000  0.22376000  1.0
  C  C106  1  0.84114000  0.13471000  0.27623000  1.0
  C  C107  1  0.15886000  0.36529000  0.77624000  1.0
  C  C108  1  0.17985000  0.95908000  0.73834000  1.0
  C  C109  1  0.82014000  0.54092000  0.23834000  1.0
  C  C110  1  0.82014000  0.04092000  0.26166000  1.0
  C  C111  1  0.17986000  0.45908000  0.76166000  1.0
  C  C112  1  0.10473000  0.99701000  0.79435000  1.0
  C  C113  1  0.89527000  0.50299000  0.29435000  1.0
  C  C114  1  0.89528000  0.00299000  0.20565000  1.0
  C  C115  1  0.10473000  0.49701000  0.70565000  1.0
  C  C116  1  0.27370000  0.38841000  0.31377000  1.0
  C  C117  1  0.72630000  0.11159000  0.81377000  1.0
  C  C118  1  0.72630000  0.61159000  0.68623000  1.0
  C  C119  1  0.27370000  0.88841000  0.18623000  1.0
  C  C120  1  0.36393000  0.33579000  0.26505000  1.0
  C  C121  1  0.63607000  0.16421000  0.76505000  1.0
  C  C122  1  0.63607000  0.66420000  0.73495000  1.0
  C  C123  1  0.36393000  0.83579000  0.23495000  1.0
  C  C124  1  0.49275000  0.37549000  0.23843000  1.0
  C  C125  1  0.50724000  0.12451000  0.73843000  1.0
  C  C126  1  0.50724000  0.62451000  0.76157000  1.0
  C  C127  1  0.49276000  0.87549000  0.26157000  1.0
  C  C128  1  0.57321000  0.32726000  0.19113000  1.0
  C  C129  1  0.42679000  0.17274000  0.69113000  1.0
  C  C130  1  0.42679000  0.67274000  0.80887000  1.0
  C  C131  1  0.57321000  0.82726000  0.30887000  1.0
  C  C132  1  0.52690000  0.23832000  0.16836000  1.0
  C  C133  1  0.47310000  0.26168000  0.66836000  1.0
  C  C134  1  0.47310000  0.76168000  0.83164000  1.0
  C  C135  1  0.52690000  0.73831000  0.33164000  1.0
  C  C136  1  0.39961000  0.19788000  0.19734000  1.0
  C  C137  1  0.60039000  0.30212000  0.69734000  1.0
  C  C138  1  0.60040000  0.80212000  0.80266000  1.0
  C  C139  1  0.39961000  0.69788000  0.30266000  1.0
  C  C140  1  0.32041000  0.24591000  0.24540000  1.0
  C  C141  1  0.67959000  0.25409000  0.74540000  1.0
  C  C142  1  0.67958000  0.75409000  0.75460000  1.0
  C  C143  1  0.32041000  0.74591000  0.25460000  1.0
  C  C144  1  0.78181000  0.18392000  0.01740000  1.0
  C  C145  1  0.21819000  0.31608000  0.51740000  1.0
  C  C146  1  0.21819000  0.81608000  0.98260000  1.0
  C  C147  1  0.78181000  0.68391000  0.48260000  1.0
  C  C148  1  0.71178000  0.23321000  0.06882000  1.0
  C  C149  1  0.28822000  0.26679000  0.56881000  1.0
  C  C150  1  0.28822000  0.76679000  0.93119000  1.0
  C  C151  1  0.71178000  0.73321000  0.43118000  1.0
  C  C152  1  0.60766000  0.18875000  0.11462000  1.0
  C  C153  1  0.39234000  0.31125000  0.61462000  1.0
  C  C154  1  0.39234000  0.81125000  0.88538000  1.0
  C  C155  1  0.60766000  0.68875000  0.38538000  1.0
  C  C156  1  0.58049000  0.09432000  0.10481000  1.0
  C  C157  1  0.41951000  0.40568000  0.60481000  1.0
  C  C158  1  0.41951000  0.90568000  0.89519000  1.0
  C  C159  1  0.58049000  0.59432000  0.39518000  1.0
  C  C160  1  0.65402000  0.05039000  0.05160000  1.0
  C  C161  1  0.34598000  0.44961000  0.55160000  1.0
  C  C162  1  0.34598000  0.94961000  0.94840000  1.0
  C  C163  1  0.65401000  0.55038000  0.44840000  1.0
  N  N164  1  0.01086000  0.94683000  0.83654000  1.0
  N  N165  1  0.98914000  0.55317000  0.33654000  1.0
  N  N166  1  0.98914000  0.05317000  0.16346000  1.0
  N  N167  1  0.01086000  0.44683000  0.66346000  1.0
  N  N168  1  0.75368000  0.09362000  0.00849000  1.0
  N  N169  1  0.24632000  0.40638000  0.50849000  1.0
  N  N170  1  0.24632000  0.90638000  0.99151000  1.0
  N  N171  1  0.75368000  0.59362000  0.49151000  1.0
  O  O172  1  0.25261000  0.62155000  0.45648000  1.0
  O  O173  1  0.74740000  0.87846000  0.95648000  1.0
  O  O174  1  0.74740000  0.37846000  0.54352000  1.0
  O  O175  1  0.25261000  0.12155000  0.04352000  1.0
  O  O176  1  0.31935000  0.46973000  0.33150000  1.0
  O  O177  1  0.68065000  0.03027000  0.83150000  1.0
  O  O178  1  0.68065000  0.53027000  0.66850000  1.0
  O  O179  1  0.31935000  0.96973000  0.16851000  1.0
  O  O180  1  0.15611000  0.35057000  0.33593000  1.0
  O  O181  1  0.84389000  0.14943000  0.83593000  1.0
  O  O182  1  0.84388000  0.64942000  0.66407000  1.0
  O  O183  1  0.15612000  0.85058000  0.16407000  1.0
  O  O184  1  0.06860000  0.59993000  0.53313000  1.0
  O  O185  1  0.93141000  0.90008000  0.03314000  1.0
  O  O186  1  0.93141000  0.40007000  0.46686000  1.0
  O  O187  1  0.06860000  0.09992000  0.96687000  1.0
