# generated using pymatgen
data_Hg2H15C10S2I3N4
_symmetry_space_group_name_H-M   'P 1'
_cell_length_a   8.34191000
_cell_length_b   11.83750000
_cell_length_c   21.18800000
_cell_angle_alpha   97.99100000
_cell_angle_beta   90.00000000
_cell_angle_gamma   90.00000000
_symmetry_Int_Tables_number   1
_chemical_formula_structural   Hg2H15C10S2I3N4
_chemical_formula_sum   'Hg8 H60 C40 S8 I12 N16'
_cell_volume   2071.94304829
_cell_formula_units_Z   4
loop_
 _symmetry_equiv_pos_site_id
 _symmetry_equiv_pos_as_xyz
  1  'x, y, z'
loop_
 _atom_site_type_symbol
 _atom_site_label
 _atom_site_symmetry_multiplicity
 _atom_site_fract_x
 _atom_site_fract_y
 _atom_site_fract_z
 _atom_site_occupancy
  Hg  Hg0  1  0.14877000  0.19121000  0.62677000  1.0
  Hg  Hg1  1  0.64877000  0.80879000  0.87323000  1.0
  Hg  Hg2  1  0.85123000  0.80880000  0.37323000  1.0
  Hg  Hg3  1  0.35123000  0.19121000  0.12677000  1.0
  Hg  Hg4  1  0.77114000  0.46944000  0.52474000  1.0
  Hg  Hg5  1  0.27114000  0.53056000  0.97526000  1.0
  Hg  Hg6  1  0.22886000  0.53056000  0.47527000  1.0
  Hg  Hg7  1  0.72886000  0.46944000  0.02473000  1.0
  H  H8  1  0.44795000  0.36028000  0.59802000  1.0
  H  H9  1  0.94795000  0.63973000  0.90198000  1.0
  H  H10  1  0.55205000  0.63973000  0.40198000  1.0
  H  H11  1  0.05205000  0.36028000  0.09802000  1.0
  H  H12  1  0.53349000  0.19206000  0.49858000  1.0
  H  H13  1  0.03350000  0.80794000  0.00142000  1.0
  H  H14  1  0.46651000  0.80794000  0.50143000  1.0
  H  H15  1  0.96650000  0.19206000  0.99858000  1.0
  H  H16  1  0.72428000  0.20319000  0.79770000  1.0
  H  H17  1  0.22427000  0.79681000  0.70230000  1.0
  H  H18  1  0.27573000  0.79681000  0.20230000  1.0
  H  H19  1  0.77573000  0.20319000  0.29770000  1.0
  H  H20  1  0.46919000  0.10904000  0.85571000  1.0
  H  H21  1  0.96919000  0.89095000  0.64429000  1.0
  H  H22  1  0.53081000  0.89096000  0.14429000  1.0
  H  H23  1  0.03081000  0.10904000  0.35571000  1.0
  H  H24  1  0.74541000  0.35990000  0.72905000  1.0
  H  H25  1  0.24541000  0.64010000  0.77095000  1.0
  H  H26  1  0.25459000  0.64010000  0.27095000  1.0
  H  H27  1  0.75459000  0.35990000  0.22906000  1.0
  H  H28  1  0.56603000  0.42657000  0.70491000  1.0
  H  H29  1  0.06603000  0.57343000  0.79509000  1.0
  H  H30  1  0.43397000  0.57343000  0.29509000  1.0
  H  H31  1  0.93397000  0.42657000  0.20491000  1.0
  H  H32  1  0.87226000  0.01883000  0.56020000  1.0
  H  H33  1  0.37227000  0.98117000  0.93980000  1.0
  H  H34  1  0.12773000  0.98117000  0.43980000  1.0
  H  H35  1  0.62773000  0.01883000  0.06020000  1.0
  H  H36  1  0.80468000  0.06055000  0.48632000  1.0
  H  H37  1  0.30469000  0.93945000  0.01368000  1.0
  H  H38  1  0.19531000  0.93945000  0.51368000  1.0
  H  H39  1  0.69531000  0.06054000  0.98632000  1.0
  H  H40  1  0.67917000  0.97538000  0.52944000  1.0
  H  H41  1  0.17918000  0.02463000  0.97056000  1.0
  H  H42  1  0.32083000  0.02463000  0.47056000  1.0
  H  H43  1  0.82082000  0.97537000  0.02944000  1.0
  H  H44  1  0.08545000  0.23674000  0.79721000  1.0
  H  H45  1  0.58545000  0.76326000  0.70279000  1.0
  H  H46  1  0.91455000  0.76326000  0.20279000  1.0
  H  H47  1  0.41455000  0.23674000  0.29721000  1.0
  H  H48  1  0.16167000  0.18813000  0.86790000  1.0
  H  H49  1  0.66167000  0.81187000  0.63210000  1.0
  H  H50  1  0.83833000  0.81187000  0.13210000  1.0
  H  H51  1  0.33833000  0.18813000  0.36790000  1.0
  H  H52  1  0.14846000  0.09143000  0.79494000  1.0
  H  H53  1  0.64846000  0.90857000  0.70506000  1.0
  H  H54  1  0.85154000  0.90857000  0.20506000  1.0
  H  H55  1  0.35154000  0.09143000  0.29494000  1.0
  H  H56  1  0.77601000  0.54164000  0.64974000  1.0
  H  H57  1  0.27601000  0.45836000  0.85026000  1.0
  H  H58  1  0.22399000  0.45836000  0.35026000  1.0
  H  H59  1  0.72399000  0.54164000  0.14974000  1.0
  H  H60  1  0.96681000  0.57102000  0.61516000  1.0
  H  H61  1  0.46681000  0.42898000  0.88484000  1.0
  H  H62  1  0.03319000  0.42898000  0.38484000  1.0
  H  H63  1  0.53319000  0.57102000  0.11516000  1.0
  H  H64  1  0.92129000  0.42902000  0.63013000  1.0
  H  H65  1  0.42129000  0.57098000  0.86986000  1.0
  H  H66  1  0.07871000  0.57098000  0.36987000  1.0
  H  H67  1  0.57871000  0.42902000  0.13013000  1.0
  C  C68  1  0.73555000  0.18779000  0.63072000  1.0
  C  C69  1  0.23555000  0.81221000  0.86928000  1.0
  C  C70  1  0.26445000  0.81221000  0.36928000  1.0
  C  C71  1  0.76445000  0.18779000  0.13072000  1.0
  C  C72  1  0.53700000  0.29315000  0.59521000  1.0
  C  C73  1  0.03701000  0.70685000  0.90479000  1.0
  C  C74  1  0.46299000  0.70685000  0.40479000  1.0
  C  C75  1  0.96300000  0.29315000  0.09521000  1.0
  C  C76  1  0.36790000  0.28474000  0.75602000  1.0
  C  C77  1  0.86790000  0.71525000  0.74398000  1.0
  C  C78  1  0.63210000  0.71526000  0.24398000  1.0
  C  C79  1  0.13210000  0.28474000  0.25602000  1.0
  C  C80  1  0.57890000  0.21034000  0.54674000  1.0
  C  C81  1  0.07890000  0.78966000  0.95326000  1.0
  C  C82  1  0.42110000  0.78966000  0.45326000  1.0
  C  C83  1  0.92110000  0.21034000  0.04674000  1.0
  C  C84  1  0.59676000  0.21581000  0.79353000  1.0
  C  C85  1  0.09675000  0.78419000  0.70647000  1.0
  C  C86  1  0.40324000  0.78419000  0.20647000  1.0
  C  C87  1  0.90324000  0.21581000  0.29353000  1.0
  C  C88  1  0.47131000  0.16982000  0.82206000  1.0
  C  C89  1  0.97130000  0.83018000  0.67794000  1.0
  C  C90  1  0.52869000  0.83018000  0.17794000  1.0
  C  C91  1  0.02869000  0.16982000  0.32206000  1.0
  C  C92  1  0.62438000  0.34521000  0.70949000  1.0
  C  C93  1  0.12439000  0.65479000  0.79051000  1.0
  C  C94  1  0.37562000  0.65479000  0.29051000  1.0
  C  C95  1  0.87561000  0.34521000  0.20949000  1.0
  C  C96  1  0.76857000  0.04405000  0.53386000  1.0
  C  C97  1  0.26857000  0.95596000  0.96614000  1.0
  C  C98  1  0.23143000  0.95596000  0.46614000  1.0
  C  C99  1  0.73143000  0.04404000  0.03386000  1.0
  C  C100  1  0.17180000  0.18008000  0.81587000  1.0
  C  C101  1  0.67180000  0.81992000  0.68413000  1.0
  C  C102  1  0.82820000  0.81992000  0.18413000  1.0
  C  C103  1  0.32820000  0.18008000  0.31587000  1.0
  C  C104  1  0.87140000  0.50802000  0.61693000  1.0
  C  C105  1  0.37140000  0.49198000  0.88307000  1.0
  C  C106  1  0.12860000  0.49198000  0.38307000  1.0
  C  C107  1  0.62860000  0.50802000  0.11693000  1.0
  S  S108  1  0.23981000  0.36101000  0.71577000  1.0
  S  S109  1  0.73981000  0.63899000  0.78423000  1.0
  S  S110  1  0.76019000  0.63899000  0.28423000  1.0
  S  S111  1  0.26019000  0.36101000  0.21577000  1.0
  S  S112  1  0.87373000  0.13795000  0.67877000  1.0
  S  S113  1  0.37373000  0.86205000  0.82123000  1.0
  S  S114  1  0.12627000  0.86206000  0.32123000  1.0
  S  S115  1  0.62627000  0.13794000  0.17877000  1.0
  I  I116  1  0.35397000  0.01112000  0.64419000  1.0
  I  I117  1  0.85396000  0.98888000  0.85581000  1.0
  I  I118  1  0.64603000  0.98888000  0.35581000  1.0
  I  I119  1  0.14604000  0.01112000  0.14419000  1.0
  I  I120  1  0.10495000  0.25887000  0.50670000  1.0
  I  I121  1  0.60496000  0.74113000  0.99330000  1.0
  I  I122  1  0.89504000  0.74113000  0.49330000  1.0
  I  I123  1  0.39505000  0.25887000  0.00670000  1.0
  I  I124  1  0.63427000  0.40313000  0.41088000  1.0
  I  I125  1  0.13427000  0.59687000  0.08912000  1.0
  I  I126  1  0.36573000  0.59687000  0.58912000  1.0
  I  I127  1  0.86573000  0.40313000  0.91088000  1.0
  N  N128  1  0.63473000  0.27915000  0.64650000  1.0
  N  N129  1  0.13473000  0.72085000  0.85350000  1.0
  N  N130  1  0.36527000  0.72085000  0.35350000  1.0
  N  N131  1  0.86527000  0.27915000  0.14650000  1.0
  N  N132  1  0.33223000  0.21278000  0.79892000  1.0
  N  N133  1  0.83223000  0.78722000  0.70108000  1.0
  N  N134  1  0.66777000  0.78722000  0.20108000  1.0
  N  N135  1  0.16777000  0.21278000  0.29892000  1.0
  N  N136  1  0.53242000  0.28630000  0.75309000  1.0
  N  N137  1  0.03242000  0.71371000  0.74691000  1.0
  N  N138  1  0.46758000  0.71371000  0.24692000  1.0
  N  N139  1  0.96758000  0.28629000  0.25308000  1.0
  N  N140  1  0.70007000  0.14664000  0.56900000  1.0
  N  N141  1  0.20007000  0.85337000  0.93100000  1.0
  N  N142  1  0.29993000  0.85337000  0.43100000  1.0
  N  N143  1  0.79993000  0.14663000  0.06900000  1.0
