# generated using pymatgen
data_CdP2H32C31(ClO)2
_symmetry_space_group_name_H-M   'P 1'
_cell_length_a   10.11370000
_cell_length_b   11.17080000
_cell_length_c   13.73340000
_cell_angle_alpha   90.00000000
_cell_angle_beta   90.00040000
_cell_angle_gamma   108.36600000
_symmetry_Int_Tables_number   1
_chemical_formula_structural   CdP2H32C31(ClO)2
_chemical_formula_sum   'Cd2 P4 H64 C62 Cl4 O4'
_cell_volume   1472.54144210
_cell_formula_units_Z   2
loop_
 _symmetry_equiv_pos_site_id
 _symmetry_equiv_pos_as_xyz
  1  'x, y, z'
loop_
 _atom_site_type_symbol
 _atom_site_label
 _atom_site_symmetry_multiplicity
 _atom_site_fract_x
 _atom_site_fract_y
 _atom_site_fract_z
 _atom_site_occupancy
  Cd  Cd0  1  0.88388000  0.79222000  0.74886000  1.0
  Cd  Cd1  1  0.11612000  0.20778000  0.24886000  1.0
  P  P2  1  0.26221000  0.16970000  0.10081000  1.0
  P  P3  1  0.73779000  0.83030000  0.60081000  1.0
  P  P4  1  0.77816000  0.87867000  0.89350000  1.0
  P  P5  1  0.22184000  0.12133000  0.39350000  1.0
  H  H6  1  0.09509000  0.33189000  0.06027000  1.0
  H  H7  1  0.90491000  0.66811000  0.56027000  1.0
  H  H8  1  0.02552000  0.41404000  0.90696000  1.0
  H  H9  1  0.97448000  0.58596000  0.40696000  1.0
  H  H10  1  0.10518000  0.35917000  0.74753000  1.0
  H  H11  1  0.89483000  0.64083000  0.24754000  1.0
  H  H12  1  0.25862000  0.22267000  0.74023000  1.0
  H  H13  1  0.74138000  0.77732000  0.24022000  1.0
  H  H14  1  0.32783000  0.13976000  0.89198000  1.0
  H  H15  1  0.67217000  0.86024000  0.39197000  1.0
  H  H16  1  0.41177000  0.36252000  0.23631000  1.0
  H  H17  1  0.58824000  0.63748000  0.73631000  1.0
  H  H18  1  0.65980000  0.44866000  0.28272000  1.0
  H  H19  1  0.34021000  0.55135000  0.78272000  1.0
  H  H20  1  0.83897000  0.37730000  0.19542000  1.0
  H  H21  1  0.16104000  0.62270000  0.69542000  1.0
  H  H22  1  0.76739000  0.22521000  0.05858000  1.0
  H  H23  1  0.23261000  0.77479000  0.55859000  1.0
  H  H24  1  0.52076000  0.13894000  0.01123000  1.0
  H  H25  1  0.47924000  0.86106000  0.51123000  1.0
  H  H26  1  0.31044000  0.99621000  0.01328000  1.0
  H  H27  1  0.68955000  0.00379000  0.51328000  1.0
  H  H28  1  0.31216000  0.98321000  0.14189000  1.0
  H  H29  1  0.68784000  0.01678000  0.64189000  1.0
  H  H30  1  0.04739000  0.92132000  0.14188000  1.0
  H  H31  1  0.95261000  0.07868000  0.64188000  1.0
  H  H32  1  0.09864000  0.93603000  0.92224000  1.0
  H  H33  1  0.90136000  0.06397000  0.42223000  1.0
  H  H34  1  0.21694000  0.79137000  0.90256000  1.0
  H  H35  1  0.78306000  0.20863000  0.40256000  1.0
  H  H36  1  0.10091000  0.64186000  0.86809000  1.0
  H  H37  1  0.89908000  0.35814000  0.36809000  1.0
  H  H38  1  0.23178000  0.65227000  0.95841000  1.0
  H  H39  1  0.76822000  0.34773000  0.45841000  1.0
  H  H40  1  0.03431000  0.53231000  0.08622000  1.0
  H  H41  1  0.96569000  0.46770000  0.58622000  1.0
  H  H42  1  0.91333000  0.51741000  0.98766000  1.0
  H  H43  1  0.08667000  0.48259000  0.48766000  1.0
  H  H44  1  0.88975000  0.59086000  0.09769000  1.0
  H  H45  1  0.11025000  0.40913000  0.59769000  1.0
  H  H46  1  0.95466000  0.06036000  0.96262000  1.0
  H  H47  1  0.04534000  0.93964000  0.46262000  1.0
  H  H48  1  0.86246000  0.95648000  0.05482000  1.0
  H  H49  1  0.13754000  0.04352000  0.55482000  1.0
  H  H50  1  0.56744000  0.89019000  0.03928000  1.0
  H  H51  1  0.43256000  0.10982000  0.53928000  1.0
  H  H52  1  0.37774000  0.72227000  0.11943000  1.0
  H  H53  1  0.62227000  0.27773000  0.61943000  1.0
  H  H54  1  0.35272000  0.49766000  0.09186000  1.0
  H  H55  1  0.64728000  0.50235000  0.59186000  1.0
  H  H56  1  0.51519000  0.43813000  0.97791000  1.0
  H  H57  1  0.48481000  0.56188000  0.47791000  1.0
  H  H58  1  0.70022000  0.60496000  0.89273000  1.0
  H  H59  1  0.29978000  0.39504000  0.39274000  1.0
  H  H60  1  0.88215000  0.15403000  0.86083000  1.0
  H  H61  1  0.11785000  0.84597000  0.36083000  1.0
  H  H62  1  0.76756000  0.30635000  0.80435000  1.0
  H  H63  1  0.23243000  0.69365000  0.30435000  1.0
  H  H64  1  0.51451000  0.23375000  0.76626000  1.0
  H  H65  1  0.48548000  0.76625000  0.26626000  1.0
  H  H66  1  0.37810000  0.00430000  0.77729000  1.0
  H  H67  1  0.62189000  0.99569000  0.27729000  1.0
  H  H68  1  0.49074000  0.85249000  0.83740000  1.0
  H  H69  1  0.50926000  0.14751000  0.33741000  1.0
  C  C70  1  0.21651000  0.23009000  0.98659000  1.0
  C  C71  1  0.78349000  0.76991000  0.48659000  1.0
  C  C72  1  0.13113000  0.30788000  0.99019000  1.0
  C  C73  1  0.86887000  0.69212000  0.49019000  1.0
  C  C74  1  0.09266000  0.35470000  0.90421000  1.0
  C  C75  1  0.90734000  0.64530000  0.40421000  1.0
  C  C76  1  0.13837000  0.32437000  0.81432000  1.0
  C  C77  1  0.86164000  0.67564000  0.31432000  1.0
  C  C78  1  0.22392000  0.24772000  0.81028000  1.0
  C  C79  1  0.77608000  0.75228000  0.31028000  1.0
  C  C80  1  0.26261000  0.20069000  0.89608000  1.0
  C  C81  1  0.73739000  0.79931000  0.39608000  1.0
  C  C82  1  0.48948000  0.33217000  0.19705000  1.0
  C  C83  1  0.51053000  0.66783000  0.69704000  1.0
  C  C84  1  0.62971000  0.38124000  0.22299000  1.0
  C  C85  1  0.37030000  0.61877000  0.72298000  1.0
  C  C86  1  0.72973000  0.34216000  0.17382000  1.0
  C  C87  1  0.27027000  0.65784000  0.67382000  1.0
  C  C88  1  0.68960000  0.25615000  0.09695000  1.0
  C  C89  1  0.31040000  0.74386000  0.59695000  1.0
  C  C90  1  0.54976000  0.20689000  0.07073000  1.0
  C  C91  1  0.45024000  0.79312000  0.57073000  1.0
  C  C92  1  0.44811000  0.24332000  0.12176000  1.0
  C  C93  1  0.55189000  0.75668000  0.62176000  1.0
  C  C94  1  0.25392000  0.00454000  0.08014000  1.0
  C  C95  1  0.74608000  0.99546000  0.58014000  1.0
  C  C96  1  0.10923000  0.90689000  0.07929000  1.0
  C  C97  1  0.89077000  0.09311000  0.57929000  1.0
  C  C98  1  0.02671000  0.89950000  0.98375000  1.0
  C  C99  1  0.97328000  0.10051000  0.48375000  1.0
  C  C100  1  0.05473000  0.70483000  0.00817000  1.0
  C  C101  1  0.94527000  0.29517000  0.50817000  1.0
  C  C102  1  0.15805000  0.69719000  0.92957000  1.0
  C  C103  1  0.84195000  0.30281000  0.42957000  1.0
  C  C104  1  0.96823000  0.57785000  0.04748000  1.0
  C  C105  1  0.03177000  0.42215000  0.54748000  1.0
  C  C106  1  0.91197000  0.96072000  0.98306000  1.0
  C  C107  1  0.08803000  0.03928000  0.48306000  1.0
  C  C108  1  0.64537000  0.75844000  0.95976000  1.0
  C  C109  1  0.35463000  0.24156000  0.45976000  1.0
  C  C110  1  0.55611000  0.79123000  0.02543000  1.0
  C  C111  1  0.44389000  0.20878000  0.52544000  1.0
  C  C112  1  0.45062000  0.69688000  0.07170000  1.0
  C  C113  1  0.54938000  0.30312000  0.57170000  1.0
  C  C114  1  0.43567000  0.56992000  0.05480000  1.0
  C  C115  1  0.56433000  0.43008000  0.55480000  1.0
  C  C116  1  0.52586000  0.53702000  0.99084000  1.0
  C  C117  1  0.47414000  0.46297000  0.49085000  1.0
  C  C118  1  0.63002000  0.63093000  0.94291000  1.0
  C  C119  1  0.36997000  0.36907000  0.44291000  1.0
  C  C120  1  0.69354000  0.99293000  0.85693000  1.0
  C  C121  1  0.30646000  0.00707000  0.35694000  1.0
  C  C122  1  0.77095000  0.12064000  0.84517000  1.0
  C  C123  1  0.22905000  0.87936000  0.34518000  1.0
  C  C124  1  0.70672000  0.20709000  0.81290000  1.0
  C  C125  1  0.29328000  0.79291000  0.31290000  1.0
  C  C126  1  0.56487000  0.16599000  0.79048000  1.0
  C  C127  1  0.43513000  0.83401000  0.29048000  1.0
  C  C128  1  0.48802000  0.03806000  0.79785000  1.0
  C  C129  1  0.51198000  0.96194000  0.29786000  1.0
  C  C130  1  0.55170000  0.95183000  0.83131000  1.0
  C  C131  1  0.44830000  0.04817000  0.33131000  1.0
  Cl  Cl132  1  0.85739000  0.56322000  0.74780000  1.0
  Cl  Cl133  1  0.14261000  0.43678000  0.24780000  1.0
  Cl  Cl134  1  0.12578000  0.92835000  0.72241000  1.0
  Cl  Cl135  1  0.87421000  0.07165000  0.22241000  1.0
  O  O136  1  0.96025000  0.76653000  0.97210000  1.0
  O  O137  1  0.03975000  0.23347000  0.47210000  1.0
  O  O138  1  0.12581000  0.78376000  0.08827000  1.0
  O  O139  1  0.87419000  0.21624000  0.58827000  1.0
