# generated using pymatgen
data_SmH22C21S3N3O8
_symmetry_space_group_name_H-M   'P 1'
_cell_length_a   9.07282000
_cell_length_b   11.73370000
_cell_length_c   12.05830000
_cell_angle_alpha   80.17860000
_cell_angle_beta   74.17170000
_cell_angle_gamma   84.41230000
_symmetry_Int_Tables_number   1
_chemical_formula_structural   SmH22C21S3N3O8
_chemical_formula_sum   'Sm2 H44 C42 S6 N6 O16'
_cell_volume   1215.17419715
_cell_formula_units_Z   2
loop_
 _symmetry_equiv_pos_site_id
 _symmetry_equiv_pos_as_xyz
  1  'x, y, z'
loop_
 _atom_site_type_symbol
 _atom_site_label
 _atom_site_symmetry_multiplicity
 _atom_site_fract_x
 _atom_site_fract_y
 _atom_site_fract_z
 _atom_site_occupancy
  Sm  Sm0  1  0.23308000  0.51427000  0.49163000  1.0
  Sm  Sm1  1  0.76692000  0.48573000  0.50838000  1.0
  H  H2  1  0.60721000  0.36806000  0.92164000  1.0
  H  H3  1  0.39280000  0.63194000  0.07835000  1.0
  H  H4  1  0.45747000  0.47064000  0.79206000  1.0
  H  H5  1  0.54253000  0.52936000  0.20794000  1.0
  H  H6  1  0.04583000  0.40998000  0.04442000  1.0
  H  H7  1  0.95417000  0.59002000  0.95558000  1.0
  H  H8  1  0.17955000  0.30967000  0.18915000  1.0
  H  H9  1  0.82046000  0.69033000  0.81084000  1.0
  H  H10  1  0.30874000  0.16863000  0.29302000  1.0
  H  H11  1  0.69126000  0.83137000  0.70697000  1.0
  H  H12  1  0.47631000  0.16640000  0.34298000  1.0
  H  H13  1  0.52369000  0.83360000  0.65702000  1.0
  H  H14  1  0.32967000  0.91976000  0.99586000  1.0
  H  H15  1  0.67033000  0.08024000  0.00414000  1.0
  H  H16  1  0.37542000  0.07639000  0.09484000  1.0
  H  H17  1  0.62458000  0.92361000  0.90516000  1.0
  H  H18  1  0.05906000  0.95432000  0.40148000  1.0
  H  H19  1  0.94094000  0.04568000  0.59852000  1.0
  H  H20  1  0.99333000  0.79711000  0.31673000  1.0
  H  H21  1  0.00667000  0.20289000  0.68327000  1.0
  H  H22  1  0.90379000  0.67448000  0.23391000  1.0
  H  H23  1  0.09621000  0.32552000  0.76609000  1.0
  H  H24  1  0.99911000  0.56365000  0.15574000  1.0
  H  H25  1  0.00089000  0.43635000  0.84426000  1.0
  H  H26  1  0.38077000  0.12418000  0.54984000  1.0
  H  H27  1  0.61923000  0.87582000  0.45016000  1.0
  H  H28  1  0.30551000  0.97935000  0.45206000  1.0
  H  H29  1  0.69449000  0.02065000  0.54794000  1.0
  H  H30  1  0.10849000  0.78008000  0.76723000  1.0
  H  H31  1  0.89151000  0.21992000  0.23277000  1.0
  H  H32  1  0.16377000  0.92137000  0.87941000  1.0
  H  H33  1  0.83623000  0.07863000  0.12059000  1.0
  H  H34  1  0.54371000  0.23975000  0.76055000  1.0
  H  H35  1  0.45629000  0.76025000  0.23945000  1.0
  H  H36  1  0.56276000  0.14996000  0.65483000  1.0
  H  H37  1  0.43724000  0.85003000  0.34517000  1.0
  H  H38  1  0.36698000  0.59256000  0.66602000  1.0
  H  H39  1  0.63302000  0.40744000  0.33398000  1.0
  H  H40  1  0.23161000  0.52579000  0.75783000  1.0
  H  H41  1  0.76839000  0.47420000  0.24217000  1.0
  H  H42  1  0.14546000  0.76504000  0.54487000  1.0
  H  H43  1  0.85454000  0.23496000  0.45513000  1.0
  H  H44  1  0.99223000  0.70459000  0.54639000  1.0
  H  H45  1  0.00777000  0.29541000  0.45361000  1.0
  C  C46  1  0.40728000  0.32939000  0.06827000  1.0
  C  C47  1  0.59273000  0.67061000  0.93173000  1.0
  C  C48  1  0.48273000  0.37579000  0.95374000  1.0
  C  C49  1  0.51727000  0.62421000  0.04626000  1.0
  C  C50  1  0.39739000  0.43306000  0.87999000  1.0
  C  C51  1  0.60261000  0.56694000  0.12001000  1.0
  C  C52  1  0.17132000  0.40083000  0.01988000  1.0
  C  C53  1  0.82868000  0.59917000  0.98012000  1.0
  C  C54  1  0.24640000  0.34300000  0.10185000  1.0
  C  C55  1  0.75360000  0.65700000  0.89815000  1.0
  C  C56  1  0.40102000  0.22168000  0.29563000  1.0
  C  C57  1  0.59898000  0.77832000  0.70437000  1.0
  C  C58  1  0.34152000  0.32510000  0.35787000  1.0
  C  C59  1  0.65848000  0.67489000  0.64213000  1.0
  C  C60  1  0.15518000  0.84469000  0.14702000  1.0
  C  C61  1  0.84482000  0.15531000  0.85298000  1.0
  C  C62  1  0.26430000  0.92569000  0.08532000  1.0
  C  C63  1  0.73570000  0.07431000  0.91468000  1.0
  C  C64  1  0.29097000  0.01270000  0.14134000  1.0
  C  C65  1  0.70903000  0.98730000  0.85866000  1.0
  C  C66  1  0.11625000  0.94538000  0.31088000  1.0
  C  C67  1  0.88375000  0.05462000  0.68911000  1.0
  C  C68  1  0.07922000  0.85594000  0.26294000  1.0
  C  C69  1  0.92078000  0.14406000  0.73706000  1.0
  C  C70  1  0.01823000  0.63692000  0.19504000  1.0
  C  C71  1  0.98178000  0.36308000  0.80496000  1.0
  C  C72  1  0.09785000  0.59047000  0.29060000  1.0
  C  C73  1  0.90215000  0.40953000  0.70940000  1.0
  C  C74  1  0.28339000  0.03431000  0.72444000  1.0
  C  C75  1  0.71661000  0.96569000  0.27556000  1.0
  C  C76  1  0.32237000  0.04871000  0.60210000  1.0
  C  C77  1  0.67762000  0.95129000  0.39790000  1.0
  C  C78  1  0.27999000  0.96682000  0.54717000  1.0
  C  C79  1  0.72001000  0.03318000  0.45283000  1.0
  C  C80  1  0.16732000  0.85834000  0.72185000  1.0
  C  C81  1  0.83268000  0.14166000  0.27815000  1.0
  C  C82  1  0.20065000  0.93683000  0.78455000  1.0
  C  C83  1  0.79935000  0.06317000  0.21545000  1.0
  C  C84  1  0.48128000  0.20926000  0.70579000  1.0
  C  C85  1  0.51872000  0.79074000  0.29421000  1.0
  C  C86  1  0.44154000  0.31425000  0.62288000  1.0
  C  C87  1  0.55846000  0.68575000  0.37712000  1.0
  S  S88  1  0.52765000  0.25947000  0.15263000  1.0
  S  S89  1  0.47235000  0.74053000  0.84737000  1.0
  S  S90  1  0.12374000  0.73524000  0.07555000  1.0
  S  S91  1  0.87626000  0.26476000  0.92445000  1.0
  S  S92  1  0.32694000  0.12924000  0.80645000  1.0
  S  S93  1  0.67307000  0.87075000  0.19355000  1.0
  N  N94  1  0.24289000  0.44681000  0.91041000  1.0
  N  N95  1  0.75711000  0.55319000  0.08959000  1.0
  N  N96  1  0.21970000  0.02356000  0.25291000  1.0
  N  N97  1  0.78030000  0.97644000  0.74709000  1.0
  N  N98  1  0.20576000  0.87151000  0.60443000  1.0
  N  N99  1  0.79424000  0.12849000  0.39557000  1.0
  O  O100  1  0.19939000  0.33604000  0.40883000  1.0
  O  O101  1  0.80062000  0.66396000  0.59117000  1.0
  O  O102  1  0.43409000  0.39876000  0.36107000  1.0
  O  O103  1  0.56591000  0.60124000  0.63893000  1.0
  O  O104  1  0.01021000  0.54476000  0.38794000  1.0
  O  O105  1  0.98979000  0.45524000  0.61206000  1.0
  O  O106  1  0.23921000  0.59556000  0.27808000  1.0
  O  O107  1  0.76079000  0.40444000  0.72193000  1.0
  O  O108  1  0.30540000  0.33630000  0.61507000  1.0
  O  O109  1  0.69460000  0.66370000  0.38493000  1.0
  O  O110  1  0.55485000  0.37345000  0.56469000  1.0
  O  O111  1  0.44515000  0.62655000  0.43531000  1.0
  O  O112  1  0.26060000  0.56940000  0.67758000  1.0
  O  O113  1  0.73940000  0.43060000  0.32242000  1.0
  O  O114  1  0.10419000  0.70525000  0.51168000  1.0
  O  O115  1  0.89581000  0.29475000  0.48832000  1.0
