# generated using pymatgen
data_CoH24(C5N)8
_symmetry_space_group_name_H-M   'P 1'
_cell_length_a   9.29068000
_cell_length_b   19.11510000
_cell_length_c   19.11350179
_cell_angle_alpha   117.41034490
_cell_angle_beta   99.31977529
_cell_angle_gamma   99.33260000
_symmetry_Int_Tables_number   1
_chemical_formula_structural   CoH24(C5N)8
_chemical_formula_sum   'Co3 H72 C120 N24'
_cell_volume   2862.92962712
_cell_formula_units_Z   3
loop_
 _symmetry_equiv_pos_site_id
 _symmetry_equiv_pos_as_xyz
  1  'x, y, z'
loop_
 _atom_site_type_symbol
 _atom_site_label
 _atom_site_symmetry_multiplicity
 _atom_site_fract_x
 _atom_site_fract_y
 _atom_site_fract_z
 _atom_site_occupancy
  Co  Co0  1  0.00002000  0.00002000  0.50000000  1.0
  Co  Co1  1  0.99998000  0.50000000  0.99999000  1.0
  Co  Co2  1  0.50002000  0.50000000  0.50002000  1.0
  H  H3  1  0.74669000  0.23071000  0.65704000  1.0
  H  H4  1  0.56404000  0.14461000  0.50185000  1.0
  H  H5  1  0.43066000  0.11306000  0.76958000  1.0
  H  H6  1  0.24203000  0.21001000  0.81111000  1.0
  H  H7  1  0.61952000  0.01758000  0.58639000  1.0
  H  H8  1  0.84907000  0.01160000  0.66878000  1.0
  H  H9  1  0.60085000  0.94129000  0.79799000  1.0
  H  H10  1  0.36028000  0.94619000  0.72218000  1.0
  H  H11  1  0.17176000  0.31922000  0.73618000  1.0
  H  H12  1  0.18777000  0.44327000  0.86789000  1.0
  H  H13  1  0.86383000  0.31218000  0.91965000  1.0
  H  H14  1  0.83651000  0.18215000  0.79095000  1.0
  H  H15  1  0.25330000  0.76931000  0.34295000  1.0
  H  H16  1  0.43596000  0.85539000  0.49814000  1.0
  H  H17  1  0.56934000  0.88694000  0.23042000  1.0
  H  H18  1  0.75798000  0.78999000  0.18888000  1.0
  H  H19  1  0.38049000  0.98241000  0.41361000  1.0
  H  H20  1  0.15091000  0.98837000  0.33121000  1.0
  H  H21  1  0.39910000  0.05868000  0.20199000  1.0
  H  H22  1  0.63968000  0.05379000  0.27780000  1.0
  H  H23  1  0.82825000  0.68080000  0.26381000  1.0
  H  H24  1  0.81223000  0.55676000  0.13210000  1.0
  H  H25  1  0.13617000  0.68785000  0.08034000  1.0
  H  H26  1  0.16350000  0.81788000  0.20905000  1.0
  H  H27  1  0.51615000  0.42642000  0.76933000  1.0
  H  H28  1  0.41953000  0.35736000  0.85546000  1.0
  H  H29  1  0.31773000  0.65637000  0.88667000  1.0
  H  H30  1  0.03203000  0.60121000  0.78990000  1.0
  H  H31  1  0.60274000  0.56883000  0.98245000  1.0
  H  H32  1  0.83803000  0.65734000  0.98835000  1.0
  H  H33  1  0.65945000  0.85656000  0.05854000  1.0
  H  H34  1  0.41404000  0.77560000  0.05339000  1.0
  H  H35  1  0.85238000  0.41691000  0.68063000  1.0
  H  H36  1  0.74402000  0.42448000  0.55653000  1.0
  H  H37  1  0.55166000  0.60743000  0.68770000  1.0
  H  H38  1  0.65433000  0.60872000  0.81775000  1.0
  H  H39  1  0.48384000  0.57361000  0.23068000  1.0
  H  H40  1  0.58043000  0.64265000  0.14452000  1.0
  H  H41  1  0.68225000  0.34363000  0.11330000  1.0
  H  H42  1  0.96797000  0.39878000  0.21008000  1.0
  H  H43  1  0.39724000  0.43116000  0.01752000  1.0
  H  H44  1  0.16197000  0.34266000  0.01165000  1.0
  H  H45  1  0.34054000  0.14344000  0.94147000  1.0
  H  H46  1  0.58595000  0.22439000  0.94660000  1.0
  H  H47  1  0.14763000  0.58310000  0.31938000  1.0
  H  H48  1  0.25600000  0.57554000  0.44348000  1.0
  H  H49  1  0.44836000  0.39258000  0.31230000  1.0
  H  H50  1  0.34566000  0.39129000  0.18225000  1.0
  H  H51  1  0.09009000  0.34303000  0.57386000  1.0
  H  H52  1  0.06241000  0.49818000  0.64280000  1.0
  H  H53  1  0.66100000  0.23032000  0.34357000  1.0
  H  H54  1  0.43033000  0.18872000  0.39870000  1.0
  H  H55  1  0.03382000  0.41364000  0.43128000  1.0
  H  H56  1  0.18063000  0.33123000  0.34271000  1.0
  H  H57  1  0.80277000  0.20211000  0.14352000  1.0
  H  H58  1  0.63836000  0.27793000  0.22444000  1.0
  H  H59  1  0.43549000  0.26373000  0.58291000  1.0
  H  H60  1  0.32001000  0.13191000  0.57518000  1.0
  H  H61  1  0.94390000  0.08040000  0.39271000  1.0
  H  H62  1  0.04525000  0.20907000  0.39128000  1.0
  H  H63  1  0.90989000  0.65696000  0.42615000  1.0
  H  H64  1  0.93760000  0.50181000  0.35723000  1.0
  H  H65  1  0.33900000  0.76966000  0.65645000  1.0
  H  H66  1  0.56967000  0.81128000  0.60131000  1.0
  H  H67  1  0.96620000  0.58635000  0.56874000  1.0
  H  H68  1  0.81938000  0.66875000  0.65731000  1.0
  H  H69  1  0.19722000  0.79787000  0.85651000  1.0
  H  H70  1  0.36165000  0.72207000  0.77559000  1.0
  H  H71  1  0.56450000  0.73626000  0.41709000  1.0
  H  H72  1  0.68000000  0.86807000  0.42480000  1.0
  H  H73  1  0.05610000  0.91959000  0.60727000  1.0
  H  H74  1  0.95473000  0.79092000  0.60872000  1.0
  C  C75  1  0.12472000  0.86335000  0.39261000  1.0
  C  C76  1  0.75665000  0.17648000  0.60524000  1.0
  C  C77  1  0.66451000  0.13302000  0.52729000  1.0
  C  C78  1  0.72739000  0.06695000  0.48186000  1.0
  C  C79  1  0.66956000  0.01218000  0.39799000  1.0
  C  C80  1  0.73835000  0.95245000  0.35403000  1.0
  C  C81  1  0.32592000  0.10858000  0.73125000  1.0
  C  C82  1  0.23182000  0.15808000  0.75192000  1.0
  C  C83  1  0.11050000  0.12785000  0.67918000  1.0
  C  C84  1  0.00587000  0.83511000  0.32344000  1.0
  C  C85  1  0.46993000  0.98236000  0.64746000  1.0
  C  C86  1  0.61026000  0.00002000  0.63257000  1.0
  C  C87  1  0.73879000  0.99683000  0.67912000  1.0
  C  C88  1  0.60140000  0.95871000  0.75094000  1.0
  C  C89  1  0.46679000  0.96097000  0.70839000  1.0
  C  C90  1  0.99861000  0.75956000  0.24737000  1.0
  C  C91  1  0.89879000  0.68475000  0.22467000  1.0
  C  C92  1  0.88973000  0.61561000  0.15142000  1.0
  C  C93  1  0.92964000  0.31136000  0.87710000  1.0
  C  C94  1  0.91391000  0.23917000  0.80526000  1.0
  C  C95  1  0.87531000  0.13668000  0.60739000  1.0
  C  C96  1  0.24336000  0.82354000  0.39475000  1.0
  C  C97  1  0.33549000  0.86698000  0.47270000  1.0
  C  C98  1  0.27263000  0.93306000  0.51814000  1.0
  C  C99  1  0.33044000  0.98782000  0.60200000  1.0
  C  C100  1  0.26166000  0.04756000  0.64596000  1.0
  C  C101  1  0.67408000  0.89142000  0.26874000  1.0
  C  C102  1  0.76819000  0.84193000  0.24807000  1.0
  C  C103  1  0.88952000  0.87217000  0.32081000  1.0
  C  C104  1  0.99415000  0.16491000  0.67655000  1.0
  C  C105  1  0.53005000  0.01763000  0.35253000  1.0
  C  C106  1  0.38974000  0.99997000  0.36743000  1.0
  C  C107  1  0.26119000  0.00315000  0.32087000  1.0
  C  C108  1  0.39857000  0.04127000  0.24905000  1.0
  C  C109  1  0.53318000  0.03901000  0.29160000  1.0
  C  C110  1  0.00141000  0.24047000  0.75263000  1.0
  C  C111  1  0.10122000  0.31528000  0.77533000  1.0
  C  C112  1  0.11028000  0.38442000  0.84858000  1.0
  C  C113  1  0.07037000  0.68866000  0.12289000  1.0
  C  C114  1  0.08610000  0.76085000  0.19473000  1.0
  C  C115  1  0.26121000  0.52924000  0.13664000  1.0
  C  C116  1  0.58028000  0.42886000  0.82359000  1.0
  C  C117  1  0.53158000  0.39440000  0.86708000  1.0
  C  C118  1  0.66043000  0.41504000  0.93318000  1.0
  C  C119  1  0.65715000  0.38605000  0.98805000  1.0
  C  C120  1  0.78568000  0.40182000  0.04782000  1.0
  C  C121  1  0.21750000  0.62247000  0.89113000  1.0
  C  C122  1  0.07384000  0.59375000  0.84170000  1.0
  C  C123  1  0.98279000  0.55123000  0.87197000  1.0
  C  C124  1  0.17066000  0.48842000  0.16502000  1.0
  C  C125  1  0.48785000  0.66489000  0.01741000  1.0
  C  C126  1  0.61074000  0.63251000  0.99990000  1.0
  C  C127  1  0.74239000  0.68235000  0.00309000  1.0
  C  C128  1  0.64276000  0.79211000  0.04109000  1.0
  C  C129  1  0.50593000  0.74716000  0.03872000  1.0
  C  C130  1  0.23910000  0.48792000  0.24058000  1.0
  C  C131  1  0.21423000  0.54002000  0.31542000  1.0
  C  C132  1  0.27444000  0.53595000  0.38459000  1.0
  C  C133  1  0.61822000  0.56568000  0.68852000  1.0
  C  C134  1  0.67468000  0.56601000  0.76071000  1.0
  C  C135  1  0.73878000  0.47078000  0.86337000  1.0
  C  C136  1  0.41970000  0.57116000  0.17642000  1.0
  C  C137  1  0.46839000  0.60561000  0.13291000  1.0
  C  C138  1  0.33954000  0.58497000  0.06682000  1.0
  C  C139  1  0.34282000  0.61395000  0.01193000  1.0
  C  C140  1  0.21432000  0.59819000  0.95217000  1.0
  C  C141  1  0.78249000  0.37753000  0.10885000  1.0
  C  C142  1  0.92615000  0.40624000  0.15828000  1.0
  C  C143  1  0.01722000  0.44879000  0.12803000  1.0
  C  C144  1  0.82934000  0.51159000  0.83499000  1.0
  C  C145  1  0.51214000  0.33511000  0.98258000  1.0
  C  C146  1  0.38925000  0.36749000  0.00009000  1.0
  C  C147  1  0.25760000  0.31765000  0.99690000  1.0
  C  C148  1  0.35724000  0.20790000  0.95892000  1.0
  C  C149  1  0.49407000  0.25284000  0.96128000  1.0
  C  C150  1  0.76090000  0.51209000  0.75942000  1.0
  C  C151  1  0.78577000  0.45998000  0.68458000  1.0
  C  C152  1  0.72558000  0.46406000  0.61542000  1.0
  C  C153  1  0.38179000  0.43433000  0.31148000  1.0
  C  C154  1  0.32532000  0.43400000  0.23929000  1.0
  C  C155  1  0.73189000  0.60732000  0.47066000  1.0
  C  C156  1  0.15172000  0.39484000  0.57138000  1.0
  C  C157  1  0.13744000  0.47275000  0.60578000  1.0
  C  C158  1  0.24560000  0.51817000  0.58505000  1.0
  C  C159  1  0.27135000  0.60201000  0.61402000  1.0
  C  C160  1  0.38430000  0.64605000  0.59837000  1.0
  C  C161  1  0.59456000  0.26864000  0.37736000  1.0
  C  C162  1  0.47954000  0.24793000  0.40605000  1.0
  C  C163  1  0.43107000  0.32071000  0.44856000  1.0
  C  C164  1  0.68253000  0.67657000  0.51167000  1.0
  C  C165  1  0.82288000  0.35259000  0.33516000  1.0
  C  C166  1  0.97815000  0.36749000  0.36758000  1.0
  C  C167  1  0.05998000  0.32093000  0.31773000  1.0
  C  C168  1  0.85057000  0.24912000  0.20796000  1.0
  C  C169  1  0.75868000  0.29167000  0.25289000  1.0
  C  C170  1  0.75142000  0.75262000  0.51214000  1.0
  C  C171  1  0.67421000  0.77540000  0.46013000  1.0
  C  C172  1  0.73830000  0.84871000  0.46427000  1.0
  C  C173  1  0.05233000  0.12289000  0.43434000  1.0
  C  C174  1  0.10838000  0.19476000  0.43400000  1.0
  C  C175  1  0.26812000  0.39267000  0.52936000  1.0
  C  C176  1  0.84829000  0.60516000  0.42864000  1.0
  C  C177  1  0.86257000  0.52724000  0.39425000  1.0
  C  C178  1  0.75442000  0.48182000  0.41498000  1.0
  C  C179  1  0.72868000  0.39799000  0.38601000  1.0
  C  C180  1  0.61574000  0.35395000  0.40166000  1.0
  C  C181  1  0.40545000  0.73135000  0.62266000  1.0
  C  C182  1  0.52047000  0.75206000  0.59397000  1.0
  C  C183  1  0.56894000  0.67928000  0.55146000  1.0
  C  C184  1  0.31748000  0.32343000  0.48835000  1.0
  C  C185  1  0.17715000  0.64741000  0.66487000  1.0
  C  C186  1  0.02187000  0.63250000  0.63244000  1.0
  C  C187  1  0.94003000  0.67906000  0.68229000  1.0
  C  C188  1  0.14943000  0.75086000  0.79206000  1.0
  C  C189  1  0.24134000  0.70833000  0.74714000  1.0
  C  C190  1  0.24857000  0.24737000  0.48786000  1.0
  C  C191  1  0.32578000  0.22458000  0.53986000  1.0
  C  C192  1  0.26170000  0.15127000  0.53571000  1.0
  C  C193  1  0.94767000  0.87709000  0.56564000  1.0
  C  C194  1  0.89162000  0.80524000  0.56600000  1.0
  N  N195  1  0.14394000  0.93086000  0.46827000  1.0
  N  N196  1  0.87164000  0.94049000  0.38554000  1.0
  N  N197  1  0.73660000  0.97660000  0.73761000  1.0
  N  N198  1  0.97429000  0.61693000  0.10104000  1.0
  N  N199  1  0.85607000  0.06916000  0.53172000  1.0
  N  N200  1  0.12836000  0.05951000  0.61444000  1.0
  N  N201  1  0.26336000  0.02336000  0.26237000  1.0
  N  N202  1  0.02572000  0.38310000  0.89895000  1.0
  N  N203  1  0.21294000  0.53736000  0.06907000  1.0
  N  N204  1  0.93099000  0.44523000  0.05972000  1.0
  N  N205  1  0.76023000  0.76103000  0.02328000  1.0
  N  N206  1  0.35759000  0.48423000  0.38326000  1.0
  N  N207  1  0.78702000  0.46264000  0.93092000  1.0
  N  N208  1  0.06901000  0.55479000  0.94028000  1.0
  N  N209  1  0.23977000  0.23898000  0.97673000  1.0
  N  N210  1  0.64244000  0.51578000  0.61675000  1.0
  N  N211  1  0.67552000  0.53168000  0.46260000  1.0
  N  N212  1  0.48620000  0.61454000  0.55501000  1.0
  N  N213  1  0.99914000  0.26246000  0.23905000  1.0
  N  N214  1  0.87328000  0.89904000  0.51587000  1.0
  N  N215  1  0.32451000  0.46833000  0.53744000  1.0
  N  N216  1  0.51384000  0.38546000  0.44502000  1.0
  N  N217  1  0.00086000  0.73753000  0.76097000  1.0
  N  N218  1  0.12672000  0.10095000  0.48411000  1.0
