# generated using pymatgen
data_CdH19C7N3
_symmetry_space_group_name_H-M   'P 1'
_cell_length_a   7.24110000
_cell_length_b   11.21830000
_cell_length_c   12.88350000
_cell_angle_alpha   78.68050000
_cell_angle_beta   84.50720000
_cell_angle_gamma   88.46210000
_symmetry_Int_Tables_number   1
_chemical_formula_structural   CdH19C7N3
_chemical_formula_sum   'Cd4 H76 C28 N12'
_cell_volume   1021.45851698
_cell_formula_units_Z   4
loop_
 _symmetry_equiv_pos_site_id
 _symmetry_equiv_pos_as_xyz
  1  'x, y, z'
loop_
 _atom_site_type_symbol
 _atom_site_label
 _atom_site_symmetry_multiplicity
 _atom_site_fract_x
 _atom_site_fract_y
 _atom_site_fract_z
 _atom_site_occupancy
  Cd  Cd0  1  0.35486000  0.47877000  0.25584000  1.0
  Cd  Cd1  1  0.64515000  0.52123000  0.74416000  1.0
  Cd  Cd2  1  0.86654000  0.90746000  0.25661000  1.0
  Cd  Cd3  1  0.13346000  0.09254000  0.74339000  1.0
  H  H4  1  0.12129000  0.13503000  0.17246000  1.0
  H  H5  1  0.87871000  0.86497000  0.82753000  1.0
  H  H6  1  0.95628000  0.13989000  0.09170000  1.0
  H  H7  1  0.04372000  0.86011000  0.90830000  1.0
  H  H8  1  0.45207000  0.31796000  0.09443000  1.0
  H  H9  1  0.54793000  0.68204000  0.90557000  1.0
  H  H10  1  0.61923000  0.28354000  0.17420000  1.0
  H  H11  1  0.38077000  0.71646000  0.82580000  1.0
  H  H12  1  0.49153000  0.37947000  0.44837000  1.0
  H  H13  1  0.50848000  0.62053000  0.55163000  1.0
  H  H14  1  0.25031000  0.35025000  0.45459000  1.0
  H  H15  1  0.74970000  0.64975000  0.54540000  1.0
  H  H16  1  0.32827000  0.49544000  0.46674000  1.0
  H  H17  1  0.67174000  0.50456000  0.53326000  1.0
  H  H18  1  0.30465000  0.68006000  0.09687000  1.0
  H  H19  1  0.69534000  0.31994000  0.90313000  1.0
  H  H20  1  0.35295000  0.55094000  0.03631000  1.0
  H  H21  1  0.64705000  0.44906000  0.96368000  1.0
  H  H22  1  0.53649000  0.62524000  0.08064000  1.0
  H  H23  1  0.46351000  0.37477000  0.91936000  1.0
  H  H24  1  0.79203000  0.97371000  0.45068000  1.0
  H  H25  1  0.20797000  0.02629000  0.54932000  1.0
  H  H26  1  0.01245000  0.90151000  0.44980000  1.0
  H  H27  1  0.98755000  0.09849000  0.55020000  1.0
  H  H28  1  0.80783000  0.81274000  0.46845000  1.0
  H  H29  1  0.19217000  0.18726000  0.53155000  1.0
  H  H30  1  0.04652000  0.82941000  0.08254000  1.0
  H  H31  1  0.95348000  0.17059000  0.91746000  1.0
  H  H32  1  0.86571000  0.93268000  0.03806000  1.0
  H  H33  1  0.13429000  0.06731000  0.96194000  1.0
  H  H34  1  0.81281000  0.77868000  0.09888000  1.0
  H  H35  1  0.18719000  0.22132000  0.90113000  1.0
  H  H36  1  0.99118000  0.65558000  0.25314000  1.0
  H  H37  1  0.00882000  0.34442000  0.74686000  1.0
  H  H38  1  0.97160000  0.57406000  0.38750000  1.0
  H  H39  1  0.02840000  0.42594000  0.61250000  1.0
  H  H40  1  0.77314000  0.59299000  0.31371000  1.0
  H  H41  1  0.22686000  0.40701000  0.68629000  1.0
  H  H42  1  0.73974000  0.36893000  0.34885000  1.0
  H  H43  1  0.26026000  0.63107000  0.65115000  1.0
  H  H44  1  0.93564000  0.35762000  0.42427000  1.0
  H  H45  1  0.06436000  0.64238000  0.57573000  1.0
  H  H46  1  0.10453000  0.22976000  0.31323000  1.0
  H  H47  1  0.89546000  0.77024000  0.68677000  1.0
  H  H48  1  0.88420000  0.16470000  0.36101000  1.0
  H  H49  1  0.11580000  0.83530000  0.63899000  1.0
  H  H50  1  0.94396000  0.35356000  0.04751000  1.0
  H  H51  1  0.05604000  0.64644000  0.95249000  1.0
  H  H52  1  0.14200000  0.34746000  0.12133000  1.0
  H  H53  1  0.85800000  0.65254000  0.87867000  1.0
  H  H54  1  0.99023000  0.54769000  0.11074000  1.0
  H  H55  1  0.00976000  0.45231000  0.88926000  1.0
  H  H56  1  0.77198000  0.48027000  0.16225000  1.0
  H  H57  1  0.22802000  0.51974000  0.83775000  1.0
  H  H58  1  0.28736000  0.76833000  0.31368000  1.0
  H  H59  1  0.71264000  0.23167000  0.68632000  1.0
  H  H60  1  0.49020000  0.74687000  0.38502000  1.0
  H  H61  1  0.50979000  0.25313000  0.61498000  1.0
  H  H62  1  0.50400000  0.72856000  0.25014000  1.0
  H  H63  1  0.49600000  0.27144000  0.74986000  1.0
  H  H64  1  0.28216000  0.94912000  0.16235000  1.0
  H  H65  1  0.71784000  0.05088000  0.83765000  1.0
  H  H66  1  0.50261000  0.90146000  0.11028000  1.0
  H  H67  1  0.49739000  0.09854000  0.88972000  1.0
  H  H68  1  0.64723000  0.09338000  0.12206000  1.0
  H  H69  1  0.35278000  0.90662000  0.87794000  1.0
  H  H70  1  0.44824000  0.12518000  0.04891000  1.0
  H  H71  1  0.55176000  0.87482000  0.95109000  1.0
  H  H72  1  0.60838000  0.12406000  0.31445000  1.0
  H  H73  1  0.39162000  0.87594000  0.68555000  1.0
  H  H74  1  0.38455000  0.17078000  0.36344000  1.0
  H  H75  1  0.61545000  0.82922000  0.63656000  1.0
  H  H76  1  0.44689000  0.94814000  0.42452000  1.0
  H  H77  1  0.55311000  0.05186000  0.57548000  1.0
  H  H78  1  0.24889000  0.97597000  0.35081000  1.0
  H  H79  1  0.75111000  0.02403000  0.64919000  1.0
  C  C80  1  0.35765000  0.41911000  0.42565000  1.0
  C  C81  1  0.64235000  0.58089000  0.57434000  1.0
  C  C82  1  0.39043000  0.59728000  0.09894000  1.0
  C  C83  1  0.60956000  0.40272000  0.90106000  1.0
  C  C84  1  0.87200000  0.89806000  0.42548000  1.0
  C  C85  1  0.12800000  0.10194000  0.57452000  1.0
  C  C86  1  0.90145000  0.85631000  0.10071000  1.0
  C  C87  1  0.09855000  0.14369000  0.89929000  1.0
  C  C88  1  0.92526000  0.57789000  0.30823000  1.0
  C  C89  1  0.07474000  0.42211000  0.69177000  1.0
  C  C90  1  0.89292000  0.36007000  0.34431000  1.0
  C  C91  1  0.10708000  0.63993000  0.65569000  1.0
  C  C92  1  0.95334000  0.24309000  0.30852000  1.0
  C  C93  1  0.04666000  0.75691000  0.69148000  1.0
  C  C94  1  0.98862000  0.35305000  0.12682000  1.0
  C  C95  1  0.01138000  0.64695000  0.87318000  1.0
  C  C96  1  0.92452000  0.46882000  0.16433000  1.0
  C  C97  1  0.07548000  0.53118000  0.83567000  1.0
  C  C98  1  0.43947000  0.78189000  0.30705000  1.0
  C  C99  1  0.56053000  0.21811000  0.69295000  1.0
  C  C100  1  0.43435000  0.95685000  0.16445000  1.0
  C  C101  1  0.56565000  0.04315000  0.83555000  1.0
  C  C102  1  0.49393000  0.08838000  0.12799000  1.0
  C  C103  1  0.50607000  0.91162000  0.87201000  1.0
  C  C104  1  0.45726000  0.11574000  0.31025000  1.0
  C  C105  1  0.54274000  0.88426000  0.68975000  1.0
  C  C106  1  0.40183000  0.98354000  0.34516000  1.0
  C  C107  1  0.59817000  0.01646000  0.65484000  1.0
  N  N108  1  0.97822000  0.46557000  0.27152000  1.0
  N  N109  1  0.02178000  0.53443000  0.72848000  1.0
  N  N110  1  0.90666000  0.24609000  0.19974000  1.0
  N  N111  1  0.09333000  0.75391000  0.80026000  1.0
  N  N112  1  0.97810000  0.13510000  0.16988000  1.0
  N  N113  1  0.02189000  0.86490000  0.83012000  1.0
  N  N114  1  0.48902000  0.90974000  0.27138000  1.0
  N  N115  1  0.51098000  0.09026000  0.72862000  1.0
  N  N116  1  0.40920000  0.16341000  0.20173000  1.0
  N  N117  1  0.59080000  0.83659000  0.79827000  1.0
  N  N118  1  0.47564000  0.28667000  0.17236000  1.0
  N  N119  1  0.52436000  0.71333000  0.82764000  1.0
