# generated using pymatgen
data_CdH8C12(NO3)2
_symmetry_space_group_name_H-M   'P 1'
_cell_length_a   7.70268000
_cell_length_b   9.51872000
_cell_length_c   9.73606000
_cell_angle_alpha   95.05060000
_cell_angle_beta   90.02970000
_cell_angle_gamma   113.86600000
_symmetry_Int_Tables_number   1
_chemical_formula_structural   CdH8C12(NO3)2
_chemical_formula_sum   'Cd2 H16 C24 N4 O12'
_cell_volume   649.76020339
_cell_formula_units_Z   2
loop_
 _symmetry_equiv_pos_site_id
 _symmetry_equiv_pos_as_xyz
  1  'x, y, z'
loop_
 _atom_site_type_symbol
 _atom_site_label
 _atom_site_symmetry_multiplicity
 _atom_site_fract_x
 _atom_site_fract_y
 _atom_site_fract_z
 _atom_site_occupancy
  Cd  Cd0  1  0.32673000  0.49254000  0.04470000  1.0
  Cd  Cd1  1  0.83404000  0.50720000  0.95523000  1.0
  H  H2  1  0.82876000  0.69686000  0.45907000  1.0
  H  H3  1  0.13074000  0.30327000  0.54047000  1.0
  H  H4  1  0.35605000  0.86750000  0.19215000  1.0
  H  H5  1  0.48823000  0.13254000  0.80783000  1.0
  H  H6  1  0.47865000  0.77226000  0.66431000  1.0
  H  H7  1  0.70515000  0.22845000  0.33542000  1.0
  H  H8  1  0.15906000  0.70343000  0.55091000  1.0
  H  H9  1  0.45421000  0.29669000  0.44918000  1.0
  H  H10  1  0.09576000  0.58699000  0.30522000  1.0
  H  H11  1  0.50766000  0.41266000  0.69499000  1.0
  H  H12  1  0.05809000  0.83944000  0.24259000  1.0
  H  H13  1  0.21804000  0.16059000  0.75795000  1.0
  H  H14  1  0.82220000  0.95730000  0.22508000  1.0
  H  H15  1  0.86443000  0.04256000  0.77576000  1.0
  H  H16  1  0.93025000  0.22236000  0.14719000  1.0
  H  H17  1  0.70783000  0.77727000  0.85324000  1.0
  C  C18  1  0.54443000  0.64057000  0.33861000  1.0
  C  C19  1  0.90298000  0.35959000  0.66115000  1.0
  C  C20  1  0.58866000  0.69915000  0.47904000  1.0
  C  C21  1  0.88842000  0.30124000  0.52066000  1.0
  C  C22  1  0.44839000  0.72520000  0.55644000  1.0
  C  C23  1  0.72198000  0.27530000  0.44334000  1.0
  C  C24  1  0.27129000  0.68576000  0.49353000  1.0
  C  C25  1  0.58429000  0.31441000  0.50645000  1.0
  C  C26  1  0.23487000  0.62122000  0.35578000  1.0
  C  C27  1  0.61258000  0.37870000  0.64428000  1.0
  C  C28  1  0.69391000  0.62494000  0.24892000  1.0
  C  C29  1  0.06825000  0.37506000  0.75074000  1.0
  C  C30  1  0.33705000  0.18249000  0.12486000  1.0
  C  C31  1  0.15462000  0.81739000  0.87518000  1.0
  C  C32  1  0.28951000  0.03804000  0.17493000  1.0
  C  C33  1  0.25125000  0.96194000  0.82520000  1.0
  C  C34  1  0.10102000  0.95543000  0.21057000  1.0
  C  C35  1  0.14521000  0.04454000  0.78987000  1.0
  C  C36  1  0.96997000  0.01979000  0.19997000  1.0
  C  C37  1  0.94983000  0.98007000  0.80061000  1.0
  C  C38  1  0.02866000  0.16720000  0.15568000  1.0
  C  C39  1  0.86137000  0.83254000  0.84467000  1.0
  C  C40  1  0.52159000  0.27213000  0.06078000  1.0
  C  C41  1  0.24979000  0.72775000  0.93904000  1.0
  N  N42  1  0.37027000  0.60183000  0.28086000  1.0
  N  N43  1  0.76757000  0.39811000  0.71908000  1.0
  N  N44  1  0.20646000  0.24394000  0.11843000  1.0
  N  N45  1  0.96261000  0.75584000  0.88174000  1.0
  O  O46  1  0.66161000  0.60373000  0.11804000  1.0
  O  O47  1  0.05751000  0.39624000  0.88165000  1.0
  O  O48  1  0.84727000  0.63764000  0.30822000  1.0
  O  O49  1  0.20863000  0.36209000  0.69138000  1.0
  O  O50  1  0.76010000  0.73090000  0.53686000  1.0
  O  O51  1  0.02799000  0.26958000  0.46269000  1.0
  O  O52  1  0.50413000  0.33960000  0.95461000  1.0
  O  O53  1  0.16526000  0.66037000  0.04534000  1.0
  O  O54  1  0.67948000  0.28439000  0.10793000  1.0
  O  O55  1  0.39511000  0.71534000  0.89157000  1.0
  O  O56  1  0.42189000  0.97801000  0.18098000  1.0
  O  O57  1  0.44361000  0.02205000  0.81904000  1.0
