# generated using pymatgen
data_H8PbC14SO6
_symmetry_space_group_name_H-M   'P 1'
_cell_length_a   5.78914000
_cell_length_b   13.43010000
_cell_length_c   19.19860000
_cell_angle_alpha   90.00000000
_cell_angle_beta   90.00000000
_cell_angle_gamma   89.99970000
_symmetry_Int_Tables_number   1
_chemical_formula_structural   H8PbC14SO6
_chemical_formula_sum   'H32 Pb4 C56 S4 O24'
_cell_volume   1492.66675075
_cell_formula_units_Z   4
loop_
 _symmetry_equiv_pos_site_id
 _symmetry_equiv_pos_as_xyz
  1  'x, y, z'
loop_
 _atom_site_type_symbol
 _atom_site_label
 _atom_site_symmetry_multiplicity
 _atom_site_fract_x
 _atom_site_fract_y
 _atom_site_fract_z
 _atom_site_occupancy
  H  H0  1  0.56202000  0.00704000  0.94972000  1.0
  H  H1  1  0.93798000  0.99295000  0.44972000  1.0
  H  H2  1  0.43800000  0.50705000  0.05028000  1.0
  H  H3  1  0.06199000  0.49297000  0.55028000  1.0
  H  H4  1  0.43803000  0.99298000  0.05029000  1.0
  H  H5  1  0.06200000  0.00704000  0.55028000  1.0
  H  H6  1  0.56200000  0.49297000  0.94972000  1.0
  H  H7  1  0.93798000  0.50703000  0.44972000  1.0
  H  H8  1  0.73527000  0.86441000  0.01583000  1.0
  H  H9  1  0.76475000  0.13558000  0.51583000  1.0
  H  H10  1  0.26476000  0.36441000  0.98417000  1.0
  H  H11  1  0.23525000  0.63560000  0.48417000  1.0
  H  H12  1  0.26477000  0.13560000  0.98417000  1.0
  H  H13  1  0.23526000  0.86441000  0.48417000  1.0
  H  H14  1  0.73526000  0.63559000  0.01583000  1.0
  H  H15  1  0.76471000  0.36440000  0.51583000  1.0
  H  H16  1  0.30536000  0.85961000  0.87068000  1.0
  H  H17  1  0.19464000  0.14038000  0.37068000  1.0
  H  H18  1  0.69465000  0.35963000  0.12932000  1.0
  H  H19  1  0.80534000  0.64038000  0.62932000  1.0
  H  H20  1  0.69466000  0.14039000  0.12932000  1.0
  H  H21  1  0.80536000  0.85961000  0.62932000  1.0
  H  H22  1  0.30535000  0.64038000  0.87068000  1.0
  H  H23  1  0.19464000  0.35961000  0.37067000  1.0
  H  H24  1  0.12915000  0.00260000  0.80600000  1.0
  H  H25  1  0.37083000  0.99739000  0.30601000  1.0
  H  H26  1  0.87085000  0.50261000  0.19400000  1.0
  H  H27  1  0.62912000  0.49741000  0.69400000  1.0
  H  H28  1  0.87088000  0.99741000  0.19400000  1.0
  H  H29  1  0.62915000  0.00259000  0.69400000  1.0
  H  H30  1  0.12913000  0.49740000  0.80600000  1.0
  H  H31  1  0.37087000  0.50259000  0.30599000  1.0
  Pb  Pb32  1  0.73723000  0.25000000  0.68307000  1.0
  Pb  Pb33  1  0.76278000  0.75000000  0.18307000  1.0
  Pb  Pb34  1  0.26277000  0.75000000  0.31693000  1.0
  Pb  Pb35  1  0.23723000  0.25000000  0.81693000  1.0
  C  C36  1  0.72214000  0.09863000  0.83671000  1.0
  C  C37  1  0.77786000  0.90136000  0.33670000  1.0
  C  C38  1  0.27787000  0.59864000  0.16329000  1.0
  C  C39  1  0.22212000  0.40137000  0.66329000  1.0
  C  C40  1  0.27788000  0.90137000  0.16330000  1.0
  C  C41  1  0.22214000  0.09863000  0.66330000  1.0
  C  C42  1  0.72213000  0.40137000  0.83671000  1.0
  C  C43  1  0.77786000  0.59863000  0.33670000  1.0
  C  C44  1  0.83375000  0.01268000  0.87448000  1.0
  C  C45  1  0.66624000  0.98731000  0.37448000  1.0
  C  C46  1  0.16626000  0.51269000  0.12552000  1.0
  C  C47  1  0.33373000  0.48733000  0.62552000  1.0
  C  C48  1  0.16628000  0.98734000  0.12553000  1.0
  C  C49  1  0.33374000  0.01268000  0.62553000  1.0
  C  C50  1  0.83374000  0.48733000  0.87448000  1.0
  C  C51  1  0.66625000  0.51267000  0.37447000  1.0
  C  C52  1  0.72451000  0.97374000  0.93352000  1.0
  C  C53  1  0.77549000  0.02625000  0.43352000  1.0
  C  C54  1  0.27550000  0.47374000  0.06648000  1.0
  C  C55  1  0.22449000  0.52627000  0.56648000  1.0
  C  C56  1  0.27553000  0.02628000  0.06648000  1.0
  C  C57  1  0.22450000  0.97373000  0.56648000  1.0
  C  C58  1  0.72449000  0.52627000  0.93352000  1.0
  C  C59  1  0.77548000  0.47373000  0.43352000  1.0
  C  C60  1  0.82072000  0.89455000  0.96999000  1.0
  C  C61  1  0.67929000  0.10544000  0.46999000  1.0
  C  C62  1  0.17929000  0.39456000  0.03001000  1.0
  C  C63  1  0.32070000  0.60545000  0.53001000  1.0
  C  C64  1  0.17932000  0.10545000  0.03002000  1.0
  C  C65  1  0.32072000  0.89455000  0.53001000  1.0
  C  C66  1  0.82071000  0.60545000  0.96999000  1.0
  C  C67  1  0.67927000  0.39455000  0.46998000  1.0
  C  C68  1  0.02848000  0.85410000  0.94614000  1.0
  C  C69  1  0.47153000  0.14589000  0.44614000  1.0
  C  C70  1  0.97154000  0.35411000  0.05386000  1.0
  C  C71  1  0.52846000  0.64589000  0.55386000  1.0
  C  C72  1  0.97154000  0.14590000  0.05386000  1.0
  C  C73  1  0.52847000  0.85410000  0.55386000  1.0
  C  C74  1  0.02847000  0.64589000  0.94614000  1.0
  C  C75  1  0.47152000  0.35410000  0.44614000  1.0
  C  C76  1  0.14160000  0.89179000  0.88738000  1.0
  C  C77  1  0.35838000  0.10820000  0.38738000  1.0
  C  C78  1  0.85840000  0.39180000  0.11262000  1.0
  C  C79  1  0.64160000  0.60821000  0.61263000  1.0
  C  C80  1  0.85841000  0.10822000  0.11263000  1.0
  C  C81  1  0.64161000  0.89179000  0.61262000  1.0
  C  C82  1  0.14160000  0.60821000  0.88737000  1.0
  C  C83  1  0.35839000  0.39178000  0.38737000  1.0
  C  C84  1  0.04342000  0.97163000  0.85164000  1.0
  C  C85  1  0.45657000  0.02835000  0.35164000  1.0
  C  C86  1  0.95659000  0.47165000  0.14836000  1.0
  C  C87  1  0.54340000  0.52837000  0.64837000  1.0
  C  C88  1  0.95661000  0.02838000  0.14837000  1.0
  C  C89  1  0.54342000  0.97163000  0.64837000  1.0
  C  C90  1  0.04341000  0.52837000  0.85163000  1.0
  C  C91  1  0.45659000  0.47162000  0.35163000  1.0
  S  S92  1  0.14751000  0.75001000  0.99069000  1.0
  S  S93  1  0.35247000  0.24999000  0.49069000  1.0
  S  S94  1  0.85250000  0.25001000  0.00931000  1.0
  S  S95  1  0.64750000  0.75000000  0.50931000  1.0
  O  O96  1  0.83810000  0.13775000  0.78703000  1.0
  O  O97  1  0.66189000  0.86225000  0.28703000  1.0
  O  O98  1  0.16192000  0.63775000  0.21297000  1.0
  O  O99  1  0.33809000  0.36225000  0.71297000  1.0
  O  O100  1  0.16191000  0.86226000  0.21297000  1.0
  O  O101  1  0.33810000  0.13774000  0.71297000  1.0
  O  O102  1  0.83809000  0.36225000  0.78703000  1.0
  O  O103  1  0.66189000  0.63774000  0.28703000  1.0
  O  O104  1  0.52293000  0.12451000  0.85714000  1.0
  O  O105  1  0.97708000  0.87548000  0.35714000  1.0
  O  O106  1  0.47708000  0.62451000  0.14286000  1.0
  O  O107  1  0.02290000  0.37549000  0.64286000  1.0
  O  O108  1  0.47710000  0.87550000  0.14286000  1.0
  O  O109  1  0.02292000  0.12451000  0.64286000  1.0
  O  O110  1  0.52290000  0.37550000  0.85714000  1.0
  O  O111  1  0.97708000  0.62450000  0.35714000  1.0
  O  O112  1  0.39548000  0.74999000  0.98022000  1.0
  O  O113  1  0.10452000  0.24999000  0.48022000  1.0
  O  O114  1  0.60454000  0.25000000  0.01978000  1.0
  O  O115  1  0.89547000  0.74999000  0.51978000  1.0
  O  O116  1  0.05243000  0.75000000  0.06099000  1.0
  O  O117  1  0.44757000  0.24999000  0.56099000  1.0
  O  O118  1  0.94758000  0.25001000  0.93901000  1.0
  O  O119  1  0.55241000  0.75000000  0.43901000  1.0
