# generated using pymatgen
data_ZnH18C24SN2O7
_symmetry_space_group_name_H-M   'P 1'
_cell_length_a   6.77995000
_cell_length_b   16.32470000
_cell_length_c   23.84830000
_cell_angle_alpha   90.00000000
_cell_angle_beta   90.45710000
_cell_angle_gamma   89.99990000
_symmetry_Int_Tables_number   1
_chemical_formula_structural   ZnH18C24SN2O7
_chemical_formula_sum   'Zn4 H72 C96 S4 N8 O28'
_cell_volume   2639.46134081
_cell_formula_units_Z   4
loop_
 _symmetry_equiv_pos_site_id
 _symmetry_equiv_pos_as_xyz
  1  'x, y, z'
loop_
 _atom_site_type_symbol
 _atom_site_label
 _atom_site_symmetry_multiplicity
 _atom_site_fract_x
 _atom_site_fract_y
 _atom_site_fract_z
 _atom_site_occupancy
  Zn  Zn0  1  0.71374000  0.87478000  0.89272000  1.0
  Zn  Zn1  1  0.78626000  0.37477000  0.60728000  1.0
  Zn  Zn2  1  0.28627000  0.12522000  0.10728000  1.0
  Zn  Zn3  1  0.21374000  0.62522000  0.39272000  1.0
  H  H4  1  0.32700000  0.83046000  0.87911000  1.0
  H  H5  1  0.17301000  0.33046000  0.62089000  1.0
  H  H6  1  0.67301000  0.16954000  0.12089000  1.0
  H  H7  1  0.82699000  0.66954000  0.37911000  1.0
  H  H8  1  0.46415000  0.84179000  0.82186000  1.0
  H  H9  1  0.03586000  0.34179000  0.67814000  1.0
  H  H10  1  0.53586000  0.15821000  0.17814000  1.0
  H  H11  1  0.96414000  0.65821000  0.32186000  1.0
  H  H12  1  0.14703000  0.88018000  0.76686000  1.0
  H  H13  1  0.35297000  0.38019000  0.73314000  1.0
  H  H14  1  0.85299000  0.11981000  0.23314000  1.0
  H  H15  1  0.64701000  0.61981000  0.26685000  1.0
  H  H16  1  0.36516000  0.89290000  0.68406000  1.0
  H  H17  1  0.13485000  0.39290000  0.81594000  1.0
  H  H18  1  0.63487000  0.10710000  0.31594000  1.0
  H  H19  1  0.86513000  0.60710000  0.18406000  1.0
  H  H20  1  0.86164000  0.85497000  0.57441000  1.0
  H  H21  1  0.63838000  0.35498000  0.92559000  1.0
  H  H22  1  0.13839000  0.14503000  0.42559000  1.0
  H  H23  1  0.36160000  0.64503000  0.07441000  1.0
  H  H24  1  0.64889000  0.83484000  0.65863000  1.0
  H  H25  1  0.85113000  0.33485000  0.84137000  1.0
  H  H26  1  0.35114000  0.16516000  0.34136000  1.0
  H  H27  1  0.14886000  0.66516000  0.15863000  1.0
  H  H28  1  0.63149000  0.96725000  0.60201000  1.0
  H  H29  1  0.86851000  0.46725000  0.89799000  1.0
  H  H30  1  0.36850000  0.03275000  0.39799000  1.0
  H  H31  1  0.13149000  0.53275000  0.10201000  1.0
  H  H32  1  0.72459000  0.11546000  0.61148000  1.0
  H  H33  1  0.77540000  0.61547000  0.88852000  1.0
  H  H34  1  0.27540000  0.88453000  0.38852000  1.0
  H  H35  1  0.22460000  0.38454000  0.11148000  1.0
  H  H36  1  0.15189000  0.18585000  0.54949000  1.0
  H  H37  1  0.34810000  0.68586000  0.95051000  1.0
  H  H38  1  0.84809000  0.81414000  0.45052000  1.0
  H  H39  1  0.65190000  0.31414000  0.04949000  1.0
  H  H40  1  0.05945000  0.03992000  0.53797000  1.0
  H  H41  1  0.44056000  0.53993000  0.96203000  1.0
  H  H42  1  0.94054000  0.96007000  0.46203000  1.0
  H  H43  1  0.55944000  0.46007000  0.03798000  1.0
  H  H44  1  0.64810000  0.77323000  0.00289000  1.0
  H  H45  1  0.85190000  0.27323000  0.49711000  1.0
  H  H46  1  0.35191000  0.22677000  0.99712000  1.0
  H  H47  1  0.14809000  0.72677000  0.50289000  1.0
  H  H48  1  0.65142000  0.80043000  0.10648000  1.0
  H  H49  1  0.84859000  0.30043000  0.39352000  1.0
  H  H50  1  0.34859000  0.19957000  0.89352000  1.0
  H  H51  1  0.15139000  0.69957000  0.60648000  1.0
  H  H52  1  0.71426000  0.94523000  0.13975000  1.0
  H  H53  1  0.78575000  0.44522000  0.36025000  1.0
  H  H54  1  0.28574000  0.05477000  0.86025000  1.0
  H  H55  1  0.21426000  0.55477000  0.63975000  1.0
  H  H56  1  0.77689000  0.05373000  0.06961000  1.0
  H  H57  1  0.72312000  0.55373000  0.43039000  1.0
  H  H58  1  0.22310000  0.94627000  0.93039000  1.0
  H  H59  1  0.27692000  0.44628000  0.56961000  1.0
  H  H60  1  0.81277000  0.13923000  0.00669000  1.0
  H  H61  1  0.68724000  0.63922000  0.49331000  1.0
  H  H62  1  0.18725000  0.86078000  0.99331000  1.0
  H  H63  1  0.31277000  0.36078000  0.50670000  1.0
  H  H64  1  0.86230000  0.23238000  0.92614000  1.0
  H  H65  1  0.63770000  0.73237000  0.57386000  1.0
  H  H66  1  0.13769000  0.76763000  0.07386000  1.0
  H  H67  1  0.36230000  0.26763000  0.42614000  1.0
  H  H68  1  0.84352000  0.17598000  0.82787000  1.0
  H  H69  1  0.65645000  0.67598000  0.67213000  1.0
  H  H70  1  0.15644000  0.82402000  0.17213000  1.0
  H  H71  1  0.34353000  0.32401000  0.32787000  1.0
  H  H72  1  0.78827000  0.02382000  0.81614000  1.0
  H  H73  1  0.71172000  0.52382000  0.68385000  1.0
  H  H74  1  0.21172000  0.97618000  0.18386000  1.0
  H  H75  1  0.28827000  0.47618000  0.31614000  1.0
  C  C76  1  0.75300000  0.85406000  0.76828000  1.0
  C  C77  1  0.74701000  0.35407000  0.73172000  1.0
  C  C78  1  0.24701000  0.14594000  0.23172000  1.0
  C  C79  1  0.25298000  0.64594000  0.26828000  1.0
  C  C80  1  0.88463000  0.85768000  0.71766000  1.0
  C  C81  1  0.61537000  0.35769000  0.78234000  1.0
  C  C82  1  0.11538000  0.14232000  0.28234000  1.0
  C  C83  1  0.38461000  0.64232000  0.21766000  1.0
  C  C84  1  0.08678000  0.87371000  0.72460000  1.0
  C  C85  1  0.41322000  0.37372000  0.77540000  1.0
  C  C86  1  0.91323000  0.12629000  0.27539000  1.0
  C  C87  1  0.58676000  0.62628000  0.22460000  1.0
  C  C88  1  0.20786000  0.88177000  0.67814000  1.0
  C  C89  1  0.29215000  0.38178000  0.82186000  1.0
  C  C90  1  0.79216000  0.11822000  0.32186000  1.0
  C  C91  1  0.70783000  0.61822000  0.17814000  1.0
  C  C92  1  0.12387000  0.87553000  0.62448000  1.0
  C  C93  1  0.37614000  0.37554000  0.87552000  1.0
  C  C94  1  0.87616000  0.12447000  0.37552000  1.0
  C  C95  1  0.62384000  0.62446000  0.12448000  1.0
  C  C96  1  0.92338000  0.85896000  0.61668000  1.0
  C  C97  1  0.57663000  0.35897000  0.88333000  1.0
  C  C98  1  0.07664000  0.14104000  0.38332000  1.0
  C  C99  1  0.42335000  0.64104000  0.11667000  1.0
  C  C100  1  0.80512000  0.84855000  0.66371000  1.0
  C  C101  1  0.69489000  0.34856000  0.83629000  1.0
  C  C102  1  0.19490000  0.15145000  0.33628000  1.0
  C  C103  1  0.30509000  0.65145000  0.16372000  1.0
  C  C104  1  0.34112000  0.99558000  0.56968000  1.0
  C  C105  1  0.15890000  0.49559000  0.93032000  1.0
  C  C106  1  0.65889000  0.00441000  0.43031000  1.0
  C  C107  1  0.84110000  0.50441000  0.06969000  1.0
  C  C108  1  0.52795000  0.01553000  0.59073000  1.0
  C  C109  1  0.97206000  0.51553000  0.90926000  1.0
  C  C110  1  0.47205000  0.98447000  0.40926000  1.0
  C  C111  1  0.02795000  0.48447000  0.09074000  1.0
  C  C112  1  0.57894000  0.09766000  0.59625000  1.0
  C  C113  1  0.92106000  0.59767000  0.90375000  1.0
  C  C114  1  0.42106000  0.90234000  0.40374000  1.0
  C  C115  1  0.07894000  0.40234000  0.09625000  1.0
  C  C116  1  0.44378000  0.15923000  0.58173000  1.0
  C  C117  1  0.05622000  0.65923000  0.91827000  1.0
  C  C118  1  0.55621000  0.84077000  0.41827000  1.0
  C  C119  1  0.94379000  0.34077000  0.08173000  1.0
  C  C120  1  0.25658000  0.13797000  0.56099000  1.0
  C  C121  1  0.24342000  0.63797000  0.93901000  1.0
  C  C122  1  0.74341000  0.86203000  0.43902000  1.0
  C  C123  1  0.75657000  0.36203000  0.06099000  1.0
  C  C124  1  0.20430000  0.05592000  0.55465000  1.0
  C  C125  1  0.29571000  0.55594000  0.94535000  1.0
  C  C126  1  0.79569000  0.94407000  0.44536000  1.0
  C  C127  1  0.70430000  0.44407000  0.05465000  1.0
  C  C128  1  0.50429000  0.24759000  0.58747000  1.0
  C  C129  1  0.99571000  0.74760000  0.91253000  1.0
  C  C130  1  0.49571000  0.75240000  0.41253000  1.0
  C  C131  1  0.00430000  0.25240000  0.08747000  1.0
  C  C132  1  0.67204000  0.83472000  0.01953000  1.0
  C  C133  1  0.82796000  0.33471000  0.48047000  1.0
  C  C134  1  0.32796000  0.16528000  0.98047000  1.0
  C  C135  1  0.17204000  0.66528000  0.51953000  1.0
  C  C136  1  0.67575000  0.85031000  0.07702000  1.0
  C  C137  1  0.82426000  0.35030000  0.42298000  1.0
  C  C138  1  0.32426000  0.14970000  0.92298000  1.0
  C  C139  1  0.17574000  0.64970000  0.57702000  1.0
  C  C140  1  0.71120000  0.93014000  0.09523000  1.0
  C  C141  1  0.78881000  0.43014000  0.40477000  1.0
  C  C142  1  0.28880000  0.06986000  0.90477000  1.0
  C  C143  1  0.21120000  0.56986000  0.59523000  1.0
  C  C144  1  0.74475000  0.99153000  0.05585000  1.0
  C  C145  1  0.75526000  0.49152000  0.44415000  1.0
  C  C146  1  0.25525000  0.00847000  0.94415000  1.0
  C  C147  1  0.24476000  0.50848000  0.55585000  1.0
  C  C148  1  0.73755000  0.97140000  0.99884000  1.0
  C  C149  1  0.76246000  0.47139000  0.50116000  1.0
  C  C150  1  0.26245000  0.02861000  0.00117000  1.0
  C  C151  1  0.23756000  0.52861000  0.49884000  1.0
  C  C152  1  0.77027000  0.03212000  0.95365000  1.0
  C  C153  1  0.72974000  0.53211000  0.54635000  1.0
  C  C154  1  0.22973000  0.96788000  0.04635000  1.0
  C  C155  1  0.27028000  0.46788000  0.45365000  1.0
  C  C156  1  0.80440000  0.11528000  0.96403000  1.0
  C  C157  1  0.69561000  0.61527000  0.53597000  1.0
  C  C158  1  0.19561000  0.88472000  0.03597000  1.0
  C  C159  1  0.30440000  0.38473000  0.46404000  1.0
  C  C160  1  0.83147000  0.16782000  0.91873000  1.0
  C  C161  1  0.66852000  0.66781000  0.58127000  1.0
  C  C162  1  0.16852000  0.83219000  0.08127000  1.0
  C  C163  1  0.33148000  0.33219000  0.41873000  1.0
  C  C164  1  0.82304000  0.13662000  0.86429000  1.0
  C  C165  1  0.67695000  0.63662000  0.63571000  1.0
  C  C166  1  0.17694000  0.86338000  0.13571000  1.0
  C  C167  1  0.32304000  0.36338000  0.36429000  1.0
  C  C168  1  0.79124000  0.05293000  0.85728000  1.0
  C  C169  1  0.70875000  0.55292000  0.64272000  1.0
  C  C170  1  0.20874000  0.94708000  0.14272000  1.0
  C  C171  1  0.29125000  0.44707000  0.35728000  1.0
  S  S172  1  0.27468000  0.89067000  0.56469000  1.0
  S  S173  1  0.22533000  0.39068000  0.93531000  1.0
  S  S174  1  0.72532000  0.10933000  0.43531000  1.0
  S  S175  1  0.77466000  0.60932000  0.06469000  1.0
  N  N176  1  0.70001000  0.89407000  0.98161000  1.0
  N  N177  1  0.80000000  0.39407000  0.51839000  1.0
  N  N178  1  0.30000000  0.10593000  0.01839000  1.0
  N  N179  1  0.20001000  0.60593000  0.48161000  1.0
  N  N180  1  0.76603000  0.00220000  0.90086000  1.0
  N  N181  1  0.73396000  0.50220000  0.59914000  1.0
  N  N182  1  0.23396000  0.99780000  0.09914000  1.0
  N  N183  1  0.26604000  0.49780000  0.40086000  1.0
  O  O184  1  0.83222000  0.88089000  0.81359000  1.0
  O  O185  1  0.66777000  0.38089000  0.68640000  1.0
  O  O186  1  0.16778000  0.11911000  0.18640000  1.0
  O  O187  1  0.33222000  0.61911000  0.31360000  1.0
  O  O188  1  0.57818000  0.82794000  0.76248000  1.0
  O  O189  1  0.92182000  0.32795000  0.73752000  1.0
  O  O190  1  0.42183000  0.17205000  0.23752000  1.0
  O  O191  1  0.07816000  0.67205000  0.26248000  1.0
  O  O192  1  0.45323000  0.84225000  0.57191000  1.0
  O  O193  1  0.04678000  0.34226000  0.92809000  1.0
  O  O194  1  0.54678000  0.15775000  0.42808000  1.0
  O  O195  1  0.95320000  0.65775000  0.07191000  1.0
  O  O196  1  0.15214000  0.87782000  0.51526000  1.0
  O  O197  1  0.34786000  0.37782000  0.98475000  1.0
  O  O198  1  0.84784000  0.12218000  0.48474000  1.0
  O  O199  1  0.65214000  0.62218000  0.01525000  1.0
  O  O200  1  0.68926000  0.25945000  0.59544000  1.0
  O  O201  1  0.81074000  0.75946000  0.90456000  1.0
  O  O202  1  0.31073000  0.74055000  0.40456000  1.0
  O  O203  1  0.18927000  0.24055000  0.09543000  1.0
  O  O204  1  0.37614000  0.30376000  0.58346000  1.0
  O  O205  1  0.12387000  0.80376000  0.91654000  1.0
  O  O206  1  0.62387000  0.69624000  0.41654000  1.0
  O  O207  1  0.87614000  0.19624000  0.08346000  1.0
  O  O208  1  0.43433000  0.86251000  0.86107000  1.0
  O  O209  1  0.06568000  0.36251000  0.63893000  1.0
  O  O210  1  0.56568000  0.13749000  0.13893000  1.0
  O  O211  1  0.93433000  0.63749000  0.36107000  1.0
