# generated using pymatgen
data_CaH2(CO2)2
_symmetry_space_group_name_H-M   'P 1'
_cell_length_a   6.79019000
_cell_length_b   6.79027000
_cell_length_c   9.38472000
_cell_angle_alpha   89.99880000
_cell_angle_beta   89.99650000
_cell_angle_gamma   89.99640000
_symmetry_Int_Tables_number   1
_chemical_formula_structural   CaH2(CO2)2
_chemical_formula_sum   'Ca4 H8 C8 O16'
_cell_volume   432.70338031
_cell_formula_units_Z   4
loop_
 _symmetry_equiv_pos_site_id
 _symmetry_equiv_pos_as_xyz
  1  'x, y, z'
loop_
 _atom_site_type_symbol
 _atom_site_label
 _atom_site_symmetry_multiplicity
 _atom_site_fract_x
 _atom_site_fract_y
 _atom_site_fract_z
 _atom_site_occupancy
  Ca  Ca0  1  0.21194000  0.78805000  0.00002000  1.0
  Ca  Ca1  1  0.71188000  0.71186000  0.75000000  1.0
  Ca  Ca2  1  0.28813000  0.28816000  0.25002000  1.0
  Ca  Ca3  1  0.78807000  0.21192000  0.50001000  1.0
  H  H4  1  0.13712000  0.34150000  0.81759000  1.0
  H  H5  1  0.15831000  0.63708000  0.56788000  1.0
  H  H6  1  0.84173000  0.36293000  0.06786000  1.0
  H  H7  1  0.36290000  0.84171000  0.43212000  1.0
  H  H8  1  0.63705000  0.15829000  0.93213000  1.0
  H  H9  1  0.86289000  0.65850000  0.31758000  1.0
  H  H10  1  0.65849000  0.86289000  0.18242000  1.0
  H  H11  1  0.34145000  0.13709000  0.68242000  1.0
  C  C12  1  0.19100000  0.30017000  0.92484000  1.0
  C  C13  1  0.19967000  0.69107000  0.67505000  1.0
  C  C14  1  0.80035000  0.30895000  0.17502000  1.0
  C  C15  1  0.30891000  0.80039000  0.32493000  1.0
  C  C16  1  0.69106000  0.19963000  0.82495000  1.0
  C  C17  1  0.80903000  0.69981000  0.42483000  1.0
  C  C18  1  0.69982000  0.80900000  0.07516000  1.0
  C  C19  1  0.30018000  0.19098000  0.57516000  1.0
  O  O20  1  0.22083000  0.43856000  0.01411000  1.0
  O  O21  1  0.06138000  0.72080000  0.76441000  1.0
  O  O22  1  0.93860000  0.27921000  0.26440000  1.0
  O  O23  1  0.27914000  0.93868000  0.23562000  1.0
  O  O24  1  0.72082000  0.06136000  0.73562000  1.0
  O  O25  1  0.77923000  0.56141000  0.51408000  1.0
  O  O26  1  0.56142000  0.77920000  0.98592000  1.0
  O  O27  1  0.43859000  0.22079000  0.48593000  1.0
  O  O28  1  0.21718000  0.12051000  0.95249000  1.0
  O  O29  1  0.37928000  0.71734000  0.70271000  1.0
  O  O30  1  0.62073000  0.28268000  0.20269000  1.0
  O  O31  1  0.28269000  0.62078000  0.29724000  1.0
  O  O32  1  0.71730000  0.37925000  0.79727000  1.0
  O  O33  1  0.78284000  0.87945000  0.45250000  1.0
  O  O34  1  0.87946000  0.78281000  0.04751000  1.0
  O  O35  1  0.12053000  0.21719000  0.54749000  1.0
