# generated using pymatgen
data_MnH20C22Se2(N3O)2
_symmetry_space_group_name_H-M   'P 1'
_cell_length_a   10.52420000
_cell_length_b   10.72340000
_cell_length_c   13.52959910
_cell_angle_alpha   108.72448153
_cell_angle_beta   98.35300084
_cell_angle_gamma   113.61700000
_symmetry_Int_Tables_number   1
_chemical_formula_structural   MnH20C22Se2(N3O)2
_chemical_formula_sum   'Mn2 H40 C44 Se4 N12 O4'
_cell_volume   1257.23164044
_cell_formula_units_Z   2
loop_
 _symmetry_equiv_pos_site_id
 _symmetry_equiv_pos_as_xyz
  1  'x, y, z'
loop_
 _atom_site_type_symbol
 _atom_site_label
 _atom_site_symmetry_multiplicity
 _atom_site_fract_x
 _atom_site_fract_y
 _atom_site_fract_z
 _atom_site_occupancy
  Mn  Mn0  1  0.60543000  0.85379000  0.24965000  1.0
  Mn  Mn1  1  0.39457000  0.14621000  0.75036000  1.0
  H  H2  1  0.67177000  0.13974000  0.20353000  1.0
  H  H3  1  0.94121000  0.97534000  0.29629000  1.0
  H  H4  1  0.32824000  0.86027000  0.79647000  1.0
  H  H5  1  0.05880000  0.02465000  0.70370000  1.0
  H  H6  1  0.87746000  0.35478000  0.19895000  1.0
  H  H7  1  0.16107000  0.18524000  0.30083000  1.0
  H  H8  1  0.12255000  0.64523000  0.80105000  1.0
  H  H9  1  0.83894000  0.81477000  0.69917000  1.0
  H  H10  1  0.06858000  0.56387000  0.26417000  1.0
  H  H11  1  0.30524000  0.31010000  0.23514000  1.0
  H  H12  1  0.93140000  0.43612000  0.73583000  1.0
  H  H13  1  0.69474000  0.68989000  0.76486000  1.0
  H  H14  1  0.28958000  0.77210000  0.26695000  1.0
  H  H15  1  0.51183000  0.52682000  0.23237000  1.0
  H  H16  1  0.71041000  0.22789000  0.73305000  1.0
  H  H17  1  0.48815000  0.47317000  0.76763000  1.0
  H  H18  1  0.67224000  0.87536000  0.46214000  1.0
  H  H19  1  0.41224000  0.70823000  0.03770000  1.0
  H  H20  1  0.32777000  0.12465000  0.53787000  1.0
  H  H21  1  0.58777000  0.29178000  0.96230000  1.0
  H  H22  1  0.77557000  0.81986000  0.41138000  1.0
  H  H23  1  0.40959000  0.86170000  0.08818000  1.0
  H  H24  1  0.22443000  0.18014000  0.58862000  1.0
  H  H25  1  0.59042000  0.13830000  0.91182000  1.0
  H  H26  1  0.42245000  0.10313000  0.04796000  1.0
  H  H27  1  0.05953000  0.87012000  0.45476000  1.0
  H  H28  1  0.57756000  0.89688000  0.95204000  1.0
  H  H29  1  0.94047000  0.12987000  0.54523000  1.0
  H  H30  1  0.23125000  0.16643000  0.99623000  1.0
  H  H31  1  0.17460000  0.73151000  0.50558000  1.0
  H  H32  1  0.76876000  0.83358000  0.00376000  1.0
  H  H33  1  0.82540000  0.26847000  0.49441000  1.0
  H  H34  1  0.93026000  0.78810000  0.04409000  1.0
  H  H35  1  0.73990000  0.38887000  0.45475000  1.0
  H  H36  1  0.06975000  0.21191000  0.95591000  1.0
  H  H37  1  0.26011000  0.61113000  0.54526000  1.0
  H  H38  1  0.13433000  0.74213000  0.09420000  1.0
  H  H39  1  0.64443000  0.54104000  0.40498000  1.0
  H  H40  1  0.86568000  0.25789000  0.90581000  1.0
  H  H41  1  0.35557000  0.45896000  0.59503000  1.0
  C  C42  1  0.78233000  0.15401000  0.22385000  1.0
  C  C43  1  0.93245000  0.06268000  0.27583000  1.0
  C  C44  1  0.21768000  0.84599000  0.77615000  1.0
  C  C45  1  0.06756000  0.93732000  0.72417000  1.0
  C  C46  1  0.89856000  0.27504000  0.22265000  1.0
  C  C47  1  0.05490000  0.18011000  0.27705000  1.0
  C  C48  1  0.10143000  0.72496000  0.77734000  1.0
  C  C49  1  0.94511000  0.81989000  0.72295000  1.0
  C  C50  1  0.03953000  0.29023000  0.24982000  1.0
  C  C51  1  0.96045000  0.70976000  0.75017000  1.0
  C  C52  1  0.16662000  0.41680000  0.24981000  1.0
  C  C53  1  0.83337000  0.58319000  0.75019000  1.0
  C  C54  1  0.16436000  0.54970000  0.25793000  1.0
  C  C55  1  0.29511000  0.40936000  0.24159000  1.0
  C  C56  1  0.83562000  0.45030000  0.74207000  1.0
  C  C57  1  0.70486000  0.59062000  0.75840000  1.0
  C  C58  1  0.28701000  0.66638000  0.25845000  1.0
  C  C59  1  0.41180000  0.53058000  0.24095000  1.0
  C  C60  1  0.71297000  0.33361000  0.74155000  1.0
  C  C61  1  0.58819000  0.46941000  0.75905000  1.0
  C  C62  1  0.49073000  0.09544000  0.36401000  1.0
  C  C63  1  0.73787000  0.62932000  0.13503000  1.0
  C  C64  1  0.50926000  0.90460000  0.63601000  1.0
  C  C65  1  0.26215000  0.37067000  0.86497000  1.0
  C  C66  1  0.31250000  0.03748000  0.04888000  1.0
  C  C67  1  0.99137000  0.76076000  0.45291000  1.0
  C  C68  1  0.68751000  0.96252000  0.95112000  1.0
  C  C69  1  0.00863000  0.23923000  0.54708000  1.0
  C  C70  1  0.20312000  0.07250000  0.01909000  1.0
  C  C71  1  0.05607000  0.68184000  0.48237000  1.0
  C  C72  1  0.79689000  0.92750000  0.98090000  1.0
  C  C73  1  0.94393000  0.31815000  0.51762000  1.0
  C  C74  1  0.06037000  0.98445000  0.01628000  1.0
  C  C75  1  0.96840000  0.54385000  0.48403000  1.0
  C  C76  1  0.93964000  0.01556000  0.98372000  1.0
  C  C77  1  0.03161000  0.45614000  0.51597000  1.0
  C  C78  1  0.03708000  0.86387000  0.04476000  1.0
  C  C79  1  0.81716000  0.49338000  0.45489000  1.0
  C  C80  1  0.96293000  0.13614000  0.95524000  1.0
  C  C81  1  0.18285000  0.50660000  0.54511000  1.0
  C  C82  1  0.15267000  0.83700000  0.07334000  1.0
  C  C83  1  0.76195000  0.57946000  0.42656000  1.0
  C  C84  1  0.84733000  0.16302000  0.92667000  1.0
  C  C85  1  0.23805000  0.42054000  0.57345000  1.0
  Se  Se86  1  0.43244000  0.23185000  0.41699000  1.0
  Se  Se87  1  0.81749000  0.51371000  0.08105000  1.0
  Se  Se88  1  0.56757000  0.76821000  0.58304000  1.0
  Se  Se89  1  0.18254000  0.48629000  0.91895000  1.0
  N  N90  1  0.79776000  0.04877000  0.24979000  1.0
  N  N91  1  0.20223000  0.95123000  0.75020000  1.0
  N  N92  1  0.40924000  0.65799000  0.24971000  1.0
  N  N93  1  0.59075000  0.34200000  0.75029000  1.0
  N  N94  1  0.53040000  0.00607000  0.32937000  1.0
  N  N95  1  0.68639000  0.70722000  0.17046000  1.0
  N  N96  1  0.46958000  0.99396000  0.67064000  1.0
  N  N97  1  0.31361000  0.29276000  0.82954000  1.0
  N  N98  1  0.28879000  0.92165000  0.07562000  1.0
  N  N99  1  0.84655000  0.71130000  0.42521000  1.0
  N  N100  1  0.71121000  0.07836000  0.92438000  1.0
  N  N101  1  0.15345000  0.28869000  0.57479000  1.0
  O  O102  1  0.73103000  0.88925000  0.41215000  1.0
  O  O103  1  0.47771000  0.81501000  0.08706000  1.0
  O  O104  1  0.26897000  0.11074000  0.58785000  1.0
  O  O105  1  0.52230000  0.18500000  0.91294000  1.0
