# generated using pymatgen
data_NaH2C2O3
_symmetry_space_group_name_H-M   'P 1'
_cell_length_a   10.01510000
_cell_length_b   10.07270000
_cell_length_c   13.06880000
_cell_angle_alpha   90.00000000
_cell_angle_beta   90.00000000
_cell_angle_gamma   90.00000000
_symmetry_Int_Tables_number   1
_chemical_formula_structural   NaH2C2O3
_chemical_formula_sum   'Na16 H32 C32 O48'
_cell_volume   1318.36875294
_cell_formula_units_Z   16
loop_
 _symmetry_equiv_pos_site_id
 _symmetry_equiv_pos_as_xyz
  1  'x, y, z'
loop_
 _atom_site_type_symbol
 _atom_site_label
 _atom_site_symmetry_multiplicity
 _atom_site_fract_x
 _atom_site_fract_y
 _atom_site_fract_z
 _atom_site_occupancy
  Na  Na0  1  0.53124000  0.02575000  0.37333000  1.0
  Na  Na1  1  0.46876000  0.47425000  0.87333000  1.0
  Na  Na2  1  0.96876000  0.52575000  0.62667000  1.0
  Na  Na3  1  0.03124000  0.97425000  0.12667000  1.0
  Na  Na4  1  0.46876000  0.97425000  0.62667000  1.0
  Na  Na5  1  0.53124000  0.52575000  0.12667000  1.0
  Na  Na6  1  0.03124000  0.47425000  0.37333000  1.0
  Na  Na7  1  0.96876000  0.02575000  0.87333000  1.0
  Na  Na8  1  0.04122000  0.94895000  0.62823000  1.0
  Na  Na9  1  0.95878000  0.55105000  0.12823000  1.0
  Na  Na10  1  0.45878000  0.44895000  0.37177000  1.0
  Na  Na11  1  0.54122000  0.05105000  0.87177000  1.0
  Na  Na12  1  0.95878000  0.05105000  0.37177000  1.0
  Na  Na13  1  0.04122000  0.44895000  0.87177000  1.0
  Na  Na14  1  0.54122000  0.55105000  0.62823000  1.0
  Na  Na15  1  0.45878000  0.94895000  0.12823000  1.0
  H  H16  1  0.71187000  0.30110000  0.68683000  1.0
  H  H17  1  0.28813000  0.19890000  0.18683000  1.0
  H  H18  1  0.78813000  0.80110000  0.31317000  1.0
  H  H19  1  0.21187000  0.69890000  0.81317000  1.0
  H  H20  1  0.28813000  0.69890000  0.31317000  1.0
  H  H21  1  0.71187000  0.80110000  0.81317000  1.0
  H  H22  1  0.21187000  0.19890000  0.68683000  1.0
  H  H23  1  0.78813000  0.30110000  0.18683000  1.0
  H  H24  1  0.79886000  0.19645000  0.52905000  1.0
  H  H25  1  0.20114000  0.30355000  0.02905000  1.0
  H  H26  1  0.70114000  0.69645000  0.47095000  1.0
  H  H27  1  0.29886000  0.80355000  0.97095000  1.0
  H  H28  1  0.20114000  0.80355000  0.47095000  1.0
  H  H29  1  0.79886000  0.69645000  0.97095000  1.0
  H  H30  1  0.29886000  0.30355000  0.52905000  1.0
  H  H31  1  0.70114000  0.19645000  0.02905000  1.0
  H  H32  1  0.49549000  0.24753000  0.69857000  1.0
  H  H33  1  0.50451000  0.25247000  0.19857000  1.0
  H  H34  1  0.00451000  0.74753000  0.30143000  1.0
  H  H35  1  0.99549000  0.75247000  0.80143000  1.0
  H  H36  1  0.50451000  0.75247000  0.30143000  1.0
  H  H37  1  0.49549000  0.74753000  0.80143000  1.0
  H  H38  1  0.99549000  0.25247000  0.69857000  1.0
  H  H39  1  0.00451000  0.24753000  0.19857000  1.0
  H  H40  1  0.73643000  0.98582000  0.51669000  1.0
  H  H41  1  0.26357000  0.51418000  0.01669000  1.0
  H  H42  1  0.76357000  0.48582000  0.48331000  1.0
  H  H43  1  0.23643000  0.01418000  0.98331000  1.0
  H  H44  1  0.26357000  0.01418000  0.48331000  1.0
  H  H45  1  0.73643000  0.48582000  0.98331000  1.0
  H  H46  1  0.23643000  0.51418000  0.51669000  1.0
  H  H47  1  0.76357000  0.98582000  0.01669000  1.0
  C  C48  1  0.78652000  0.10711000  0.72425000  1.0
  C  C49  1  0.21348000  0.39289000  0.22425000  1.0
  C  C50  1  0.71348000  0.60711000  0.27575000  1.0
  C  C51  1  0.28652000  0.89289000  0.77575000  1.0
  C  C52  1  0.21348000  0.89289000  0.27575000  1.0
  C  C53  1  0.78652000  0.60711000  0.77575000  1.0
  C  C54  1  0.28652000  0.39289000  0.72425000  1.0
  C  C55  1  0.71348000  0.10711000  0.22425000  1.0
  C  C56  1  0.68525000  0.19711000  0.66946000  1.0
  C  C57  1  0.31475000  0.30289000  0.16946000  1.0
  C  C58  1  0.81475000  0.69711000  0.33054000  1.0
  C  C59  1  0.18525000  0.80290000  0.83054000  1.0
  C  C60  1  0.31475000  0.80289000  0.33054000  1.0
  C  C61  1  0.68525000  0.69710000  0.83054000  1.0
  C  C62  1  0.18525000  0.30290000  0.66946000  1.0
  C  C63  1  0.81475000  0.19710000  0.16946000  1.0
  C  C64  1  0.69502000  0.17635000  0.55245000  1.0
  C  C65  1  0.30498000  0.32365000  0.05245000  1.0
  C  C66  1  0.80498000  0.67635000  0.44755000  1.0
  C  C67  1  0.19502000  0.82365000  0.94755000  1.0
  C  C68  1  0.30498000  0.82365000  0.44755000  1.0
  C  C69  1  0.69502000  0.67635000  0.94755000  1.0
  C  C70  1  0.19502000  0.32365000  0.55245000  1.0
  C  C71  1  0.80498000  0.17635000  0.05245000  1.0
  C  C72  1  0.60467000  0.27651000  0.49613000  1.0
  C  C73  1  0.39533000  0.22349000  0.99613000  1.0
  C  C74  1  0.89533000  0.77652000  0.50387000  1.0
  C  C75  1  0.10467000  0.72349000  0.00387000  1.0
  C  C76  1  0.39533000  0.72349000  0.50387000  1.0
  C  C77  1  0.60467000  0.77651000  0.00387000  1.0
  C  C78  1  0.10467000  0.22348000  0.49613000  1.0
  C  C79  1  0.89533000  0.27651000  0.99613000  1.0
  O  O80  1  0.90976000  0.11925000  0.69869000  1.0
  O  O81  1  0.09024000  0.38075000  0.19869000  1.0
  O  O82  1  0.59024000  0.61925000  0.30131000  1.0
  O  O83  1  0.40976000  0.88075000  0.80131000  1.0
  O  O84  1  0.09024000  0.88075000  0.30131000  1.0
  O  O85  1  0.90976000  0.61925000  0.80131000  1.0
  O  O86  1  0.40976000  0.38075000  0.69869000  1.0
  O  O87  1  0.59024000  0.11925000  0.19869000  1.0
  O  O88  1  0.74659000  0.02652000  0.79124000  1.0
  O  O89  1  0.25341000  0.47348000  0.29124000  1.0
  O  O90  1  0.75341000  0.52652000  0.20876000  1.0
  O  O91  1  0.24659000  0.97348000  0.70876000  1.0
  O  O92  1  0.25341000  0.97348000  0.20876000  1.0
  O  O93  1  0.74659000  0.52652000  0.70876000  1.0
  O  O94  1  0.24659000  0.47348000  0.79124000  1.0
  O  O95  1  0.75341000  0.02652000  0.29124000  1.0
  O  O96  1  0.55398000  0.16661000  0.70517000  1.0
  O  O97  1  0.44602000  0.33339000  0.20517000  1.0
  O  O98  1  0.94602000  0.66666667  0.29483000  1.0
  O  O99  1  0.05398000  0.83339000  0.79483000  1.0
  O  O100  1  0.44602000  0.83339000  0.29483000  1.0
  O  O101  1  0.55398000  0.66666667  0.79483000  1.0
  O  O102  1  0.05398000  0.33339000  0.70517000  1.0
  O  O103  1  0.94602000  0.16661000  0.20517000  1.0
  O  O104  1  0.65607000  0.04381000  0.52777000  1.0
  O  O105  1  0.34393000  0.45619000  0.02777000  1.0
  O  O106  1  0.84393000  0.54381000  0.47223000  1.0
  O  O107  1  0.15607000  0.95619000  0.97223000  1.0
  O  O108  1  0.34393000  0.95619000  0.47223000  1.0
  O  O109  1  0.65607000  0.54381000  0.97223000  1.0
  O  O110  1  0.15607000  0.45619000  0.52777000  1.0
  O  O111  1  0.84393000  0.04381000  0.02777000  1.0
  O  O112  1  0.63219000  0.40000000  0.50651000  1.0
  O  O113  1  0.36781000  0.10000000  0.00651000  1.0
  O  O114  1  0.86781000  0.90000000  0.49349000  1.0
  O  O115  1  0.13219000  0.60001000  0.99349000  1.0
  O  O116  1  0.36781000  0.60001000  0.49349000  1.0
  O  O117  1  0.63219000  0.90000000  0.99349000  1.0
  O  O118  1  0.13219000  0.10000000  0.50651000  1.0
  O  O119  1  0.86781000  0.40000000  0.00651000  1.0
  O  O120  1  0.50760000  0.23458000  0.44377000  1.0
  O  O121  1  0.49240000  0.26542000  0.94377000  1.0
  O  O122  1  0.99240000  0.73458000  0.55623000  1.0
  O  O123  1  0.00760000  0.76542000  0.05623000  1.0
  O  O124  1  0.49240000  0.76542000  0.55623000  1.0
  O  O125  1  0.50760000  0.73458000  0.05623000  1.0
  O  O126  1  0.00760000  0.26542000  0.44377000  1.0
  O  O127  1  0.99240000  0.23458000  0.94377000  1.0
