# generated using pymatgen
data_SmH15C11SO9
_symmetry_space_group_name_H-M   'P 1'
_cell_length_a   8.24233000
_cell_length_b   9.70182000
_cell_length_c   18.44100000
_cell_angle_alpha   90.00000000
_cell_angle_beta   101.91500000
_cell_angle_gamma   90.00000000
_symmetry_Int_Tables_number   1
_chemical_formula_structural   SmH15C11SO9
_chemical_formula_sum   'Sm4 H60 C44 S4 O36'
_cell_volume   1442.87437832
_cell_formula_units_Z   4
loop_
 _symmetry_equiv_pos_site_id
 _symmetry_equiv_pos_as_xyz
  1  'x, y, z'
loop_
 _atom_site_type_symbol
 _atom_site_label
 _atom_site_symmetry_multiplicity
 _atom_site_fract_x
 _atom_site_fract_y
 _atom_site_fract_z
 _atom_site_occupancy
  Sm  Sm0  1  0.02145000  0.28351000  0.99452000  1.0
  Sm  Sm1  1  0.47855000  0.78351000  0.50549000  1.0
  Sm  Sm2  1  0.97854000  0.71649000  0.00548000  1.0
  Sm  Sm3  1  0.52144000  0.21648000  0.49452000  1.0
  H  H4  1  0.33850000  0.18851000  0.09753000  1.0
  H  H5  1  0.16151000  0.68851000  0.40247000  1.0
  H  H6  1  0.66151000  0.81150000  0.90247000  1.0
  H  H7  1  0.83848000  0.31148000  0.59754000  1.0
  H  H8  1  0.69547000  0.17938000  0.00564000  1.0
  H  H9  1  0.80455000  0.67936000  0.49437000  1.0
  H  H10  1  0.30455000  0.82064000  0.99437000  1.0
  H  H11  1  0.19545000  0.32063000  0.50563000  1.0
  H  H12  1  0.40264000  0.31234000  0.05583000  1.0
  H  H13  1  0.09738000  0.81234000  0.44417000  1.0
  H  H14  1  0.59736000  0.68766000  0.94417000  1.0
  H  H15  1  0.90261000  0.18766000  0.55583000  1.0
  H  H16  1  0.80555000  0.04551000  0.00510000  1.0
  H  H17  1  0.69445000  0.54549000  0.49490000  1.0
  H  H18  1  0.19445000  0.95449000  0.99489000  1.0
  H  H19  1  0.30554000  0.45449000  0.50511000  1.0
  H  H20  1  0.96913000  0.29614000  0.19721000  1.0
  H  H21  1  0.53089000  0.79613000  0.30280000  1.0
  H  H22  1  0.03087000  0.70387000  0.80278000  1.0
  H  H23  1  0.46911000  0.20387000  0.69721000  1.0
  H  H24  1  0.08424000  0.31047000  0.33453000  1.0
  H  H25  1  0.41575000  0.81048000  0.16549000  1.0
  H  H26  1  0.91579000  0.68953000  0.66546000  1.0
  H  H27  1  0.58422000  0.18953000  0.83453000  1.0
  H  H28  1  0.99203000  0.49629000  0.40781000  1.0
  H  H29  1  0.50796000  0.99631000  0.09221000  1.0
  H  H30  1  0.00801000  0.50370000  0.59218000  1.0
  H  H31  1  0.49202000  0.00370000  0.90781000  1.0
  H  H32  1  0.79692000  0.67833000  0.34496000  1.0
  H  H33  1  0.70309000  0.17833000  0.15505000  1.0
  H  H34  1  0.20310000  0.32167000  0.65503000  1.0
  H  H35  1  0.29691000  0.82167000  0.84496000  1.0
  H  H36  1  0.69053000  0.66750000  0.20862000  1.0
  H  H37  1  0.80950000  0.16750000  0.29139000  1.0
  H  H38  1  0.30947000  0.33250000  0.79138000  1.0
  H  H39  1  0.19051000  0.83250000  0.70862000  1.0
  H  H40  1  0.77435000  0.63313000  0.81298000  1.0
  H  H41  1  0.72564000  0.13313000  0.68702000  1.0
  H  H42  1  0.22567000  0.36687000  0.18702000  1.0
  H  H43  1  0.27434000  0.86686000  0.31297000  1.0
  H  H44  1  0.59793000  0.56003000  0.83728000  1.0
  H  H45  1  0.90206000  0.06003000  0.66272000  1.0
  H  H46  1  0.40208000  0.43998000  0.16272000  1.0
  H  H47  1  0.09792000  0.93997000  0.33728000  1.0
  H  H48  1  0.77950000  0.43308000  0.72417000  1.0
  H  H49  1  0.72050000  0.93309000  0.77583000  1.0
  H  H50  1  0.22052000  0.56693000  0.27583000  1.0
  H  H51  1  0.27949000  0.06692000  0.22416000  1.0
  H  H52  1  0.60451000  0.36335000  0.75122000  1.0
  H  H53  1  0.89548000  0.86334000  0.74878000  1.0
  H  H54  1  0.39551000  0.63666000  0.24878000  1.0
  H  H55  1  0.10450000  0.13666000  0.25121000  1.0
  H  H56  1  0.44031000  0.57697000  0.70628000  1.0
  H  H57  1  0.05969000  0.07695000  0.79372000  1.0
  H  H58  1  0.55970000  0.42303000  0.29372000  1.0
  H  H59  1  0.94030000  0.92303000  0.20627000  1.0
  H  H60  1  0.61507000  0.65237000  0.68344000  1.0
  H  H61  1  0.88494000  0.15238000  0.81655000  1.0
  H  H62  1  0.38493000  0.34762000  0.31656000  1.0
  H  H63  1  0.11506000  0.84762000  0.18343000  1.0
  C  C64  1  0.82120000  0.47879000  0.19616000  1.0
  C  C65  1  0.67883000  0.97879000  0.30385000  1.0
  C  C66  1  0.17880000  0.52120000  0.80383000  1.0
  C  C67  1  0.32118000  0.02121000  0.69616000  1.0
  C  C68  1  0.93196000  0.37846000  0.23056000  1.0
  C  C69  1  0.56806000  0.87847000  0.26946000  1.0
  C  C70  1  0.06805000  0.62154000  0.76943000  1.0
  C  C71  1  0.43193000  0.12154000  0.73056000  1.0
  C  C72  1  0.99446000  0.38624000  0.30694000  1.0
  C  C73  1  0.50555000  0.88624000  0.19308000  1.0
  C  C74  1  0.00557000  0.61377000  0.69305000  1.0
  C  C75  1  0.49445000  0.11377000  0.80694000  1.0
  C  C76  1  0.94447000  0.49300000  0.34814000  1.0
  C  C77  1  0.55553000  0.99300000  0.15187000  1.0
  C  C78  1  0.05556000  0.50700000  0.65185000  1.0
  C  C79  1  0.44446000  0.00700000  0.84814000  1.0
  C  C80  1  0.83578000  0.59467000  0.31289000  1.0
  C  C81  1  0.66423000  0.09467000  0.18712000  1.0
  C  C82  1  0.16423000  0.40533000  0.68711000  1.0
  C  C83  1  0.33576000  0.90534000  0.81289000  1.0
  C  C84  1  0.77447000  0.58849000  0.23662000  1.0
  C  C85  1  0.72555000  0.08848000  0.26339000  1.0
  C  C86  1  0.22552000  0.41151000  0.76337000  1.0
  C  C87  1  0.27445000  0.91152000  0.73662000  1.0
  C  C88  1  0.81595000  0.45210000  0.87835000  1.0
  C  C89  1  0.68405000  0.95211000  0.62165000  1.0
  C  C90  1  0.18406000  0.54790000  0.12165000  1.0
  C  C91  1  0.31594000  0.04788000  0.37834000  1.0
  C  C92  1  0.71161000  0.53447000  0.81768000  1.0
  C  C93  1  0.78838000  0.03447000  0.68233000  1.0
  C  C94  1  0.28840000  0.46553000  0.18233000  1.0
  C  C95  1  0.21161000  0.96553000  0.31767000  1.0
  C  C96  1  0.66686000  0.46057000  0.74395000  1.0
  C  C97  1  0.83314000  0.96057000  0.75605000  1.0
  C  C98  1  0.33316000  0.53943000  0.25605000  1.0
  C  C99  1  0.16685000  0.03943000  0.24395000  1.0
  C  C100  1  0.55621000  0.55205000  0.68819000  1.0
  C  C101  1  0.94379000  0.05205000  0.81181000  1.0
  C  C102  1  0.44379000  0.44795000  0.31181000  1.0
  C  C103  1  0.05621000  0.94795000  0.18819000  1.0
  C  C104  1  0.50760000  0.49352000  0.61163000  1.0
  C  C105  1  0.99238000  0.99352000  0.88837000  1.0
  C  C106  1  0.49239000  0.50648000  0.38838000  1.0
  C  C107  1  0.00761000  0.00649000  0.11162000  1.0
  S  S108  1  0.73811000  0.47304000  0.09907000  1.0
  S  S109  1  0.76192000  0.97305000  0.40094000  1.0
  S  S110  1  0.26189000  0.52697000  0.90092000  1.0
  S  S111  1  0.23809000  0.02695000  0.59906000  1.0
  O  O112  1  0.32446000  0.23404000  0.04953000  1.0
  O  O113  1  0.17555000  0.73404000  0.45047000  1.0
  O  O114  1  0.67554000  0.76596000  0.95047000  1.0
  O  O115  1  0.82444000  0.26596000  0.54954000  1.0
  O  O116  1  0.81549000  0.35282000  0.07004000  1.0
  O  O117  1  0.68456000  0.85282000  0.42998000  1.0
  O  O118  1  0.18450000  0.64717000  0.92995000  1.0
  O  O119  1  0.31546000  0.14717000  0.57003000  1.0
  O  O120  1  0.76215000  0.13019000  0.97603000  1.0
  O  O121  1  0.73785000  0.63017000  0.52397000  1.0
  O  O122  1  0.23785000  0.86982000  0.02396000  1.0
  O  O123  1  0.26214000  0.36982000  0.47603000  1.0
  O  O124  1  0.55854000  0.45666000  0.08827000  1.0
  O  O125  1  0.94149000  0.95667000  0.41174000  1.0
  O  O126  1  0.44146000  0.54336000  0.91172000  1.0
  O  O127  1  0.05852000  0.04332000  0.58827000  1.0
  O  O128  1  0.83887000  0.32394000  0.87191000  1.0
  O  O129  1  0.66115000  0.82394000  0.62809000  1.0
  O  O130  1  0.16115000  0.67606000  0.12809000  1.0
  O  O131  1  0.33886000  0.17605000  0.37190000  1.0
  O  O132  1  0.41798000  0.56997000  0.56159000  1.0
  O  O133  1  0.08201000  0.06997000  0.93841000  1.0
  O  O134  1  0.58200000  0.43002000  0.43841000  1.0
  O  O135  1  0.91798000  0.93004000  0.06159000  1.0
  O  O136  1  0.78592000  0.60669000  0.07187000  1.0
  O  O137  1  0.71411000  0.10670000  0.42815000  1.0
  O  O138  1  0.21408000  0.39331000  0.92814000  1.0
  O  O139  1  0.28590000  0.89330000  0.57186000  1.0
  O  O140  1  0.88203000  0.51201000  0.93947000  1.0
  O  O141  1  0.61795000  0.01202000  0.56054000  1.0
  O  O142  1  0.11797000  0.48798000  0.06054000  1.0
  O  O143  1  0.38204000  0.98797000  0.43946000  1.0
  O  O144  1  0.55245000  0.37222000  0.59887000  1.0
  O  O145  1  0.94752000  0.87222000  0.90113000  1.0
  O  O146  1  0.44753000  0.62777000  0.40113000  1.0
  O  O147  1  0.05247000  0.12777000  0.09887000  1.0
