# generated using pymatgen
data_ZnH10C22S2NO11
_symmetry_space_group_name_H-M   'P 1'
_cell_length_a   11.87250000
_cell_length_b   14.56880000
_cell_length_c   16.00990000
_cell_angle_alpha   76.26900000
_cell_angle_beta   85.50510000
_cell_angle_gamma   68.78500000
_symmetry_Int_Tables_number   1
_chemical_formula_structural   ZnH10C22S2NO11
_chemical_formula_sum   'Zn2 H20 C44 S4 N2 O22'
_cell_volume   2507.66579593
_cell_formula_units_Z   2
loop_
 _symmetry_equiv_pos_site_id
 _symmetry_equiv_pos_as_xyz
  1  'x, y, z'
loop_
 _atom_site_type_symbol
 _atom_site_label
 _atom_site_symmetry_multiplicity
 _atom_site_fract_x
 _atom_site_fract_y
 _atom_site_fract_z
 _atom_site_occupancy
  Zn  Zn0  1  0.45101000  0.60095000  0.50788000  1.0
  Zn  Zn1  1  0.54552000  0.39560000  0.49746000  1.0
  H  H2  1  0.57572000  0.73411000  0.93972000  1.0
  H  H3  1  0.65725000  0.21888000  0.06288000  1.0
  H  H4  1  0.60569000  0.86321000  0.39518000  1.0
  H  H5  1  0.35695000  0.15253000  0.58238000  1.0
  H  H6  1  0.61661000  0.24338000  0.75845000  1.0
  H  H7  1  0.53232000  0.72855000  0.24427000  1.0
  H  H8  1  0.56360000  0.62438000  0.85070000  1.0
  H  H9  1  0.60300000  0.34060000  0.15290000  1.0
  H  H10  1  0.71363000  0.97539000  0.32588000  1.0
  H  H11  1  0.23596000  0.04775000  0.64123000  1.0
  H  H12  1  0.53289000  0.76828000  0.46053000  1.0
  H  H13  1  0.46929000  0.22540000  0.54634000  1.0
  H  H14  1  0.24838000  0.72183000  0.60557000  1.0
  H  H15  1  0.71520000  0.29335000  0.37014000  1.0
  H  H16  1  0.35754000  0.64314000  0.89548000  1.0
  H  H17  1  0.26343000  0.50935000  0.14017000  1.0
  H  H18  1  0.62170000  0.89554000  0.14290000  1.0
  H  H19  1  0.60314000  0.05732000  0.86517000  1.0
  H  H20  1  0.80768000  0.20890000  0.26975000  1.0
  H  H21  1  0.12768000  0.82133000  0.68680000  1.0
  C  C22  1  0.48967000  0.56744000  0.33610000  1.0
  C  C23  1  0.51792000  0.42876000  0.66831000  1.0
  C  C24  1  0.54450000  0.64093000  0.06101000  1.0
  C  C25  1  0.59441000  0.33054000  0.94284000  1.0
  C  C26  1  0.54895000  0.47353000  0.04751000  1.0
  C  C27  1  0.54441000  0.50614000  0.95695000  1.0
  C  C28  1  0.55289000  0.60274000  0.91991000  1.0
  C  C29  1  0.58843000  0.36775000  0.08387000  1.0
  C  C30  1  0.55915000  0.66505000  0.97009000  1.0
  C  C31  1  0.61768000  0.29903000  0.03322000  1.0
  C  C32  1  0.69065000  0.15505000  0.36425000  1.0
  C  C33  1  0.26523000  0.86453000  0.60691000  1.0
  C  C34  1  0.67119000  0.23901000  0.39751000  1.0
  C  C35  1  0.29708000  0.77358000  0.58210000  1.0
  C  C36  1  0.53185000  0.20127000  0.49568000  1.0
  C  C37  1  0.45569000  0.80076000  0.49929000  1.0
  C  C38  1  0.54390000  0.11372000  0.46768000  1.0
  C  C39  1  0.42900000  0.89646000  0.51688000  1.0
  C  C40  1  0.62899000  0.08727000  0.40139000  1.0
  C  C41  1  0.33269000  0.92903000  0.57474000  1.0
  C  C42  1  0.47351000  0.05150000  0.50463000  1.0
  C  C43  1  0.49781000  0.95966000  0.47914000  1.0
  C  C44  1  0.71687000  0.49915000  0.50035000  1.0
  C  C45  1  0.27950000  0.49890000  0.50353000  1.0
  C  C46  1  0.58689000  0.93361000  0.41530000  1.0
  C  C47  1  0.37854000  0.08072000  0.56404000  1.0
  C  C48  1  0.64866000  0.99544000  0.37622000  1.0
  C  C49  1  0.30947000  0.02300000  0.59732000  1.0
  C  C50  1  0.83843000  0.49902000  0.50088000  1.0
  C  C51  1  0.15777000  0.49952000  0.50292000  1.0
  C  C52  1  0.94138000  0.49916000  0.50152000  1.0
  C  C53  1  0.05495000  0.49918000  0.50228000  1.0
  C  C54  1  0.50181000  0.59323000  0.23964000  1.0
  C  C55  1  0.53554000  0.39879000  0.76474000  1.0
  C  C56  1  0.54421000  0.70610000  0.11495000  1.0
  C  C57  1  0.61578000  0.26160000  0.88847000  1.0
  C  C58  1  0.52941000  0.68026000  0.20271000  1.0
  C  C59  1  0.59388000  0.29535000  0.80115000  1.0
  C  C60  1  0.49349000  0.53125000  0.18773000  1.0
  C  C61  1  0.50402000  0.46781000  0.81784000  1.0
  C  C62  1  0.52857000  0.54676000  0.09984000  1.0
  C  C63  1  0.54640000  0.43683000  0.90461000  1.0
  C  C64  1  0.76797000  0.14805000  0.28739000  1.0
  C  C65  1  0.16480000  0.88371000  0.66893000  1.0
  S  S66  1  0.38379000  0.58869000  0.77968000  1.0
  S  S67  1  0.40605000  0.45116000  0.23273000  1.0
  S  S68  1  0.55793000  0.82522000  0.06521000  1.0
  S  S69  1  0.68016000  0.12880000  0.93370000  1.0
  N  N70  1  0.59479000  0.26073000  0.46303000  1.0
  N  N71  1  0.39201000  0.74165000  0.53054000  1.0
  O  O72  1  0.43676000  0.63851000  0.37379000  1.0
  O  O73  1  0.52756000  0.35920000  0.62996000  1.0
  O  O74  1  0.54256000  0.47447000  0.37060000  1.0
  O  O75  1  0.50293000  0.52005000  0.63302000  1.0
  O  O76  1  0.63222000  0.58524000  0.48748000  1.0
  O  O77  1  0.36332000  0.42011000  0.48972000  1.0
  O  O78  1  0.70599000  0.41309000  0.51269000  1.0
  O  O79  1  0.29139000  0.57720000  0.51802000  1.0
  O  O80  1  0.42994000  0.66854000  0.74355000  1.0
  O  O81  1  0.29699000  0.57024000  0.73496000  1.0
  O  O82  1  0.31495000  0.61155000  0.86755000  1.0
  O  O83  1  0.47973000  0.34738000  0.26449000  1.0
  O  O84  1  0.31347000  0.50643000  0.28422000  1.0
  O  O85  1  0.34007000  0.45199000  0.14771000  1.0
  O  O86  1  0.67558000  0.81037000  0.02692000  1.0
  O  O87  1  0.45064000  0.88476000  0.01448000  1.0
  O  O88  1  0.55345000  0.87173000  0.14803000  1.0
  O  O89  1  0.80596000  0.10484000  0.94885000  1.0
  O  O90  1  0.60294000  0.09977000  0.00086000  1.0
  O  O91  1  0.67176000  0.08072000  0.85435000  1.0
  O  O92  1  0.78726000  0.08608000  0.24299000  1.0
  O  O93  1  0.12353000  0.95797000  0.70039000  1.0
