# generated using pymatgen
data_V2CoH12C12(NO3)2
_symmetry_space_group_name_H-M   'P 1'
_cell_length_a   8.33449000
_cell_length_b   8.44187000
_cell_length_c   11.10530000
_cell_angle_alpha   94.23910000
_cell_angle_beta   93.24920000
_cell_angle_gamma   106.81400000
_symmetry_Int_Tables_number   1
_chemical_formula_structural   V2CoH12C12(NO3)2
_chemical_formula_sum   'V4 Co2 H24 C24 N4 O12'
_cell_volume   743.40634729
_cell_formula_units_Z   2
loop_
 _symmetry_equiv_pos_site_id
 _symmetry_equiv_pos_as_xyz
  1  'x, y, z'
loop_
 _atom_site_type_symbol
 _atom_site_label
 _atom_site_symmetry_multiplicity
 _atom_site_fract_x
 _atom_site_fract_y
 _atom_site_fract_z
 _atom_site_occupancy
  V  V0  1  0.26030000  0.74188000  0.98289000  1.0
  V  V1  1  0.73970000  0.25812000  0.01711000  1.0
  V  V2  1  0.42231000  0.09149000  0.18258000  1.0
  V  V3  1  0.57769000  0.90851000  0.81741000  1.0
  Co  Co4  1  0.18471000  0.34316000  0.05744000  1.0
  Co  Co5  1  0.81529000  0.65684000  0.94255000  1.0
  H  H6  1  0.34179000  0.98130000  0.52290000  1.0
  H  H7  1  0.65821000  0.01870000  0.47710000  1.0
  H  H8  1  0.12913000  0.95836000  0.48290000  1.0
  H  H9  1  0.87087000  0.04164000  0.51710000  1.0
  H  H10  1  0.36578000  0.54067000  0.51714000  1.0
  H  H11  1  0.63422000  0.45933000  0.48286000  1.0
  H  H12  1  0.25798000  0.72807000  0.63926000  1.0
  H  H13  1  0.74202000  0.27193000  0.36074000  1.0
  H  H14  1  0.04380000  0.70580000  0.59938000  1.0
  H  H15  1  0.95620000  0.29420000  0.40062000  1.0
  H  H16  1  0.44819000  0.22026000  0.66453000  1.0
  H  H17  1  0.55181000  0.77974000  0.33546000  1.0
  H  H18  1  0.98219000  0.72484000  0.35264000  1.0
  H  H19  1  0.01781000  0.27516000  0.64735000  1.0
  H  H20  1  0.95942000  0.88371000  0.71160000  1.0
  H  H21  1  0.04057000  0.11629000  0.28840000  1.0
  H  H22  1  0.99760000  0.56074000  0.16211000  1.0
  H  H23  1  0.00241000  0.43927000  0.83789000  1.0
  H  H24  1  0.35992000  0.37559000  0.31926000  1.0
  H  H25  1  0.64008000  0.62442000  0.68074000  1.0
  H  H26  1  0.95746000  0.05413000  0.90084000  1.0
  H  H27  1  0.04254000  0.94587000  0.09916000  1.0
  H  H28  1  0.42379000  0.38102000  0.85738000  1.0
  H  H29  1  0.57621000  0.61898000  0.14262000  1.0
  C  C30  1  0.20524000  0.03768000  0.66950000  1.0
  C  C31  1  0.79476000  0.96231000  0.33050000  1.0
  C  C32  1  0.17533000  0.64928000  0.45229000  1.0
  C  C33  1  0.82466000  0.35072000  0.54771000  1.0
  C  C34  1  0.21563000  0.93687000  0.55448000  1.0
  C  C35  1  0.78436000  0.06312000  0.44552000  1.0
  C  C36  1  0.28197000  0.54867000  0.44027000  1.0
  C  C37  1  0.71804000  0.45133000  0.55974000  1.0
  C  C38  1  0.17115000  0.74941000  0.56873000  1.0
  C  C39  1  0.82885000  0.25058000  0.43127000  1.0
  C  C40  1  0.33531000  0.18076000  0.71296000  1.0
  C  C41  1  0.66469000  0.81924000  0.28704000  1.0
  C  C42  1  0.07020000  0.65136000  0.34982000  1.0
  C  C43  1  0.92980000  0.34864000  0.65018000  1.0
  C  C44  1  0.06621000  0.99295000  0.73854000  1.0
  C  C45  1  0.93379000  0.00704000  0.26147000  1.0
  C  C46  1  0.07764000  0.55931000  0.24273000  1.0
  C  C47  1  0.92236000  0.44069000  0.75726000  1.0
  C  C48  1  0.28090000  0.45776000  0.33007000  1.0
  C  C49  1  0.71911000  0.54224000  0.66993000  1.0
  C  C50  1  0.06364000  0.08766000  0.84549000  1.0
  C  C51  1  0.93636000  0.91234000  0.15451000  1.0
  C  C52  1  0.32334000  0.27062000  0.82061000  1.0
  C  C53  1  0.67666000  0.72938000  0.17939000  1.0
  N  N54  1  0.18955000  0.22477000  0.88665000  1.0
  N  N55  1  0.81045000  0.77523000  0.11335000  1.0
  N  N56  1  0.18128000  0.46352000  0.23168000  1.0
  N  N57  1  0.81873000  0.53649000  0.76832000  1.0
  O  O58  1  0.28774000  0.55500000  0.00334000  1.0
  O  O59  1  0.71226000  0.44500000  0.99666000  1.0
  O  O60  1  0.36383000  0.82404000  0.85522000  1.0
  O  O61  1  0.63617000  0.17596000  0.14478000  1.0
  O  O62  1  0.94643000  0.27998000  0.04237000  1.0
  O  O63  1  0.05357000  0.72002000  0.95764000  1.0
  O  O64  1  0.41822000  0.10184000  0.32951000  1.0
  O  O65  1  0.58178000  0.89816000  0.67049000  1.0
  O  O66  1  0.34332000  0.87823000  0.11561000  1.0
  O  O67  1  0.65668000  0.12177000  0.88439000  1.0
  O  O68  1  0.30406000  0.20481000  0.12502000  1.0
  O  O69  1  0.69594000  0.79519000  0.87498000  1.0
