# generated using pymatgen
data_NaH7C6(NO3)2
_symmetry_space_group_name_H-M   'P 1'
_cell_length_a   7.55374000
_cell_length_b   7.83460000
_cell_length_c   8.39374000
_cell_angle_alpha   69.41560000
_cell_angle_beta   71.29180000
_cell_angle_gamma   85.42500000
_symmetry_Int_Tables_number   1
_chemical_formula_structural   NaH7C6(NO3)2
_chemical_formula_sum   'Na2 H14 C12 N4 O12'
_cell_volume   440.15589682
_cell_formula_units_Z   2
loop_
 _symmetry_equiv_pos_site_id
 _symmetry_equiv_pos_as_xyz
  1  'x, y, z'
loop_
 _atom_site_type_symbol
 _atom_site_label
 _atom_site_symmetry_multiplicity
 _atom_site_fract_x
 _atom_site_fract_y
 _atom_site_fract_z
 _atom_site_occupancy
  Na  Na0  1  0.22125000  0.02133000  0.35861000  1.0
  Na  Na1  1  0.77875000  0.97867000  0.64139000  1.0
  H  H2  1  0.68900000  0.43945000  0.32865000  1.0
  H  H3  1  0.31100000  0.56055000  0.67136000  1.0
  H  H4  1  0.87604000  0.66824000  0.03338000  1.0
  H  H5  1  0.12396000  0.33176000  0.96662000  1.0
  H  H6  1  0.92763000  0.78871000  0.36185000  1.0
  H  H7  1  0.07237000  0.21129000  0.63815000  1.0
  H  H8  1  0.31695000  0.32648000  0.46497000  1.0
  H  H9  1  0.68305000  0.67352000  0.53503000  1.0
  H  H10  1  0.11006000  0.83622000  0.74585000  1.0
  H  H11  1  0.88994000  0.16378000  0.25415000  1.0
  H  H12  1  0.33449000  0.12956000  0.61957000  1.0
  H  H13  1  0.66551000  0.87044000  0.38043000  1.0
  H  H14  1  0.02424000  0.70512000  0.67885000  1.0
  H  H15  1  0.97576000  0.29488000  0.32115000  1.0
  C  C16  1  0.35546000  0.87633000  0.87797000  1.0
  C  C17  1  0.64454000  0.12367000  0.12203000  1.0
  C  C18  1  0.45150000  0.76286000  0.01220000  1.0
  C  C19  1  0.54850000  0.23714000  0.98780000  1.0
  C  C20  1  0.34741000  0.64604000  0.18283000  1.0
  C  C21  1  0.65260000  0.35396000  0.81717000  1.0
  C  C22  1  0.62039000  0.53496000  0.23892000  1.0
  C  C23  1  0.37961000  0.46504000  0.76108000  1.0
  C  C24  1  0.72373000  0.65863000  0.07390000  1.0
  C  C25  1  0.27627000  0.34137000  0.92611000  1.0
  C  C26  1  0.13674000  0.64683000  0.25625000  1.0
  C  C27  1  0.86326000  0.35317000  0.74375000  1.0
  N  N28  1  0.43285000  0.52897000  0.29303000  1.0
  N  N29  1  0.56715000  0.47104000  0.70697000  1.0
  N  N30  1  0.63905000  0.76846000  0.95992000  1.0
  N  N31  1  0.36095000  0.23154000  0.04008000  1.0
  O  O32  1  0.25645000  0.20248000  0.54041000  1.0
  O  O33  1  0.74355000  0.79752000  0.45959000  1.0
  O  O34  1  0.07901000  0.79457000  0.29378000  1.0
  O  O35  1  0.92099000  0.20544000  0.70622000  1.0
  O  O36  1  0.06587000  0.83208000  0.64694000  1.0
  O  O37  1  0.93413000  0.16792000  0.35306000  1.0
  O  O38  1  0.45079000  0.00722000  0.74365000  1.0
  O  O39  1  0.54921000  0.99277000  0.25635000  1.0
  O  O40  1  0.18921000  0.82577000  0.91051000  1.0
  O  O41  1  0.81079000  0.17422000  0.08949000  1.0
  O  O42  1  0.03516000  0.51505000  0.28875000  1.0
  O  O43  1  0.96484000  0.48495000  0.71125000  1.0
