# generated using pymatgen
data_ZnH16C11S(NO)4
_symmetry_space_group_name_H-M   'P 1'
_cell_length_a   8.50847000
_cell_length_b   9.54542205
_cell_length_c   9.85927000
_cell_angle_alpha   82.43332570
_cell_angle_beta   68.64850000
_cell_angle_gamma   66.80235258
_symmetry_Int_Tables_number   1
_chemical_formula_structural   ZnH16C11S(NO)4
_chemical_formula_sum   'Zn2 H32 C22 S2 N8 O8'
_cell_volume   685.42077889
_cell_formula_units_Z   2
loop_
 _symmetry_equiv_pos_site_id
 _symmetry_equiv_pos_as_xyz
  1  'x, y, z'
loop_
 _atom_site_type_symbol
 _atom_site_label
 _atom_site_symmetry_multiplicity
 _atom_site_fract_x
 _atom_site_fract_y
 _atom_site_fract_z
 _atom_site_occupancy
  Zn  Zn0  1  0.18115000  0.82006000  0.87111000  1.0
  Zn  Zn1  1  0.81885000  0.17994000  0.12889000  1.0
  H  H2  1  0.42802000  0.16670000  0.74984000  1.0
  H  H3  1  0.57198000  0.83330000  0.25016000  1.0
  H  H4  1  0.22637000  0.16975000  0.73696000  1.0
  H  H5  1  0.77364000  0.83024000  0.26304000  1.0
  H  H6  1  0.56809667  0.33333333  0.79403000  1.0
  H  H7  1  0.43190333  0.66666667  0.20598000  1.0
  H  H8  1  0.89937000  0.70386000  0.89108000  1.0
  H  H9  1  0.10062000  0.29614000  0.10891000  1.0
  H  H10  1  0.50022000  0.52597000  0.84348000  1.0
  H  H11  1  0.49976000  0.47404000  0.15653000  1.0
  H  H12  1  0.91390000  0.32142000  0.79799000  1.0
  H  H13  1  0.08612000  0.67857000  0.20200000  1.0
  H  H14  1  0.76186000  0.50011000  0.88569000  1.0
  H  H15  1  0.23814000  0.49988000  0.11430000  1.0
  H  H16  1  0.85442000  0.48624000  0.69289000  1.0
  H  H17  1  0.14558000  0.51375000  0.30711000  1.0
  H  H18  1  0.57267000  0.47493000  0.65773000  1.0
  H  H19  1  0.42733000  0.52507000  0.34227000  1.0
  H  H20  1  0.45981000  0.13986000  0.21037000  1.0
  H  H21  1  0.54018000  0.86014000  0.78963000  1.0
  H  H22  1  0.75421000  0.29402000  0.48415000  1.0
  H  H23  1  0.24580000  0.70599000  0.51585000  1.0
  H  H24  1  0.08498000  0.16728000  0.56391000  1.0
  H  H25  1  0.91503000  0.83271000  0.43609000  1.0
  H  H26  1  0.87854000  0.10130000  0.42336000  1.0
  H  H27  1  0.12147000  0.89872000  0.57664000  1.0
  H  H28  1  0.73163000  0.14405000  0.60677000  1.0
  H  H29  1  0.26837000  0.85597000  0.39322000  1.0
  H  H30  1  0.05709000  0.33480000  0.45862000  1.0
  H  H31  1  0.94291000  0.66520000  0.54138000  1.0
  H  H32  1  0.14467000  0.15461000  0.37150000  1.0
  H  H33  1  0.85534000  0.84538000  0.62850000  1.0
  C  C34  1  0.30500000  0.48181000  0.78740000  1.0
  C  C35  1  0.69500000  0.51819000  0.21260000  1.0
  C  C36  1  0.04024000  0.47665000  0.79686000  1.0
  C  C37  1  0.95975000  0.52335000  0.20314000  1.0
  C  C38  1  0.22733000  0.38882000  0.75617000  1.0
  C  C39  1  0.77267000  0.61119000  0.24382000  1.0
  C  C40  1  0.32400000  0.22723000  0.69905000  1.0
  C  C41  1  0.67601000  0.77277000  0.30095000  1.0
  C  C42  1  0.41340000  0.20689000  0.53607000  1.0
  C  C43  1  0.58659000  0.79311000  0.46393000  1.0
  C  C44  1  0.88493000  0.44417000  0.79336000  1.0
  C  C45  1  0.11507000  0.55582000  0.20663000  1.0
  C  C46  1  0.49668000  0.45184000  0.76946000  1.0
  C  C47  1  0.50331000  0.54816000  0.23054000  1.0
  C  C48  1  0.59687000  0.18150000  0.45135000  1.0
  C  C49  1  0.40313000  0.81851000  0.54864000  1.0
  C  C50  1  0.33342000  0.19736000  0.43764000  1.0
  C  C51  1  0.66658000  0.80264000  0.56237000  1.0
  C  C52  1  0.74785000  0.18007000  0.49404000  1.0
  C  C53  1  0.25215000  0.81995000  0.50596000  1.0
  C  C54  1  0.14509000  0.21395000  0.45915000  1.0
  C  C55  1  0.85492000  0.78605000  0.54086000  1.0
  S  S56  1  0.19825000  0.96238000  0.11513000  1.0
  S  S57  1  0.80175000  0.03761000  0.88487000  1.0
  N  N58  1  0.17387000  0.61668000  0.84313000  1.0
  N  N59  1  0.82612000  0.38332000  0.15687000  1.0
  N  N60  1  0.01561000  0.61174000  0.84709000  1.0
  N  N61  1  0.98439000  0.38826000  0.15290000  1.0
  N  N62  1  0.62636000  0.15663000  0.31081000  1.0
  N  N63  1  0.37365000  0.84337000  0.68918000  1.0
  N  N64  1  0.46485000  0.16848000  0.30462000  1.0
  N  N65  1  0.53515000  0.83151000  0.69539000  1.0
  O  O66  1  0.30606000  0.83347000  0.00222000  1.0
  O  O67  1  0.69395000  0.16652000  0.99777000  1.0
  O  O68  1  0.32420000  0.00658000  0.15191000  1.0
  O  O69  1  0.67581000  0.99340000  0.84809000  1.0
  O  O70  1  0.08818000  0.09599000  0.04050000  1.0
  O  O71  1  0.91182000  0.90400000  0.95951000  1.0
  O  O72  1  0.07045000  0.91676000  0.24078000  1.0
  O  O73  1  0.92955000  0.08323000  0.75922000  1.0
