# generated using pymatgen
data_ZnH11C10NO7
_symmetry_space_group_name_H-M   'P 1'
_cell_length_a   6.27014000
_cell_length_b   9.93833000
_cell_length_c   10.07696485
_cell_angle_alpha   89.99970996
_cell_angle_beta   104.55315363
_cell_angle_gamma   89.99930000
_symmetry_Int_Tables_number   1
_chemical_formula_structural   ZnH11C10NO7
_chemical_formula_sum   'Zn2 H22 C20 N2 O14'
_cell_volume   607.79565402
_cell_formula_units_Z   2
loop_
 _symmetry_equiv_pos_site_id
 _symmetry_equiv_pos_as_xyz
  1  'x, y, z'
loop_
 _atom_site_type_symbol
 _atom_site_label
 _atom_site_symmetry_multiplicity
 _atom_site_fract_x
 _atom_site_fract_y
 _atom_site_fract_z
 _atom_site_occupancy
  Zn  Zn0  1  0.86105000  0.26507000  0.64073000  1.0
  Zn  Zn1  1  0.13897000  0.76507000  0.35927000  1.0
  H  H2  1  0.96750000  0.81589000  0.00274000  1.0
  H  H3  1  0.03252000  0.31587000  0.99726000  1.0
  H  H4  1  0.17215000  0.96729000  0.73064000  1.0
  H  H5  1  0.82785000  0.46727000  0.26935000  1.0
  H  H6  1  0.58504000  0.73538000  0.71374000  1.0
  H  H7  1  0.41497000  0.23537000  0.28629000  1.0
  H  H8  1  0.66290000  0.69611000  0.89254000  1.0
  H  H9  1  0.33714000  0.19610000  0.10749000  1.0
  H  H10  1  0.72217000  0.58224000  0.76878000  1.0
  H  H11  1  0.27786000  0.08224000  0.23125000  1.0
  H  H12  1  0.33989000  0.82142000  0.14465000  1.0
  H  H13  1  0.66012000  0.32138000  0.85536000  1.0
  H  H14  1  0.81628000  0.04566000  0.99185000  1.0
  H  H15  1  0.18370000  0.54565000  0.00813000  1.0
  H  H16  1  0.00683000  0.18468000  0.43894000  1.0
  H  H17  1  0.99315000  0.68470000  0.56106000  1.0
  H  H18  1  0.16795000  0.13120000  0.57725000  1.0
  H  H19  1  0.83205000  0.63120000  0.42274000  1.0
  H  H20  1  0.60368000  0.45348000  0.48602000  1.0
  H  H21  1  0.39631000  0.95348000  0.51397000  1.0
  H  H22  1  0.48480000  0.38255000  0.59328000  1.0
  H  H23  1  0.51519000  0.88257000  0.40671000  1.0
  C  C24  1  0.56421000  0.08438000  0.73512000  1.0
  C  C25  1  0.43578000  0.58439000  0.26487000  1.0
  C  C26  1  0.49883000  0.01640000  0.85142000  1.0
  C  C27  1  0.50117000  0.51639000  0.14857000  1.0
  C  C28  1  0.28912000  0.95920000  0.82997000  1.0
  C  C29  1  0.71088000  0.45919000  0.17003000  1.0
  C  C30  1  0.23309000  0.88847000  0.93632000  1.0
  C  C31  1  0.76692000  0.38846000  0.06368000  1.0
  C  C32  1  0.92961000  0.75436000  0.80122000  1.0
  C  C33  1  0.07040000  0.25435000  0.19879000  1.0
  C  C34  1  0.71235000  0.68855000  0.79599000  1.0
  C  C35  1  0.28768000  0.18854000  0.20404000  1.0
  C  C36  1  0.38408000  0.87876000  0.06389000  1.0
  C  C37  1  0.61591000  0.37873000  0.93610000  1.0
  C  C38  1  0.59499000  0.93354000  0.08471000  1.0
  C  C39  1  0.40502000  0.43352000  0.91530000  1.0
  C  C40  1  0.65231000  0.00337000  0.97845000  1.0
  C  C41  1  0.34769000  0.50335000  0.02153000  1.0
  C  C42  1  0.76117000  0.89942000  0.21540000  1.0
  C  C43  1  0.23882000  0.39940000  0.78460000  1.0
  N  N44  1  0.02880000  0.82217000  0.91768000  1.0
  N  N45  1  0.97121000  0.32214000  0.08234000  1.0
  O  O46  1  0.75715000  0.13672000  0.76338000  1.0
  O  O47  1  0.24285000  0.63672000  0.23662000  1.0
  O  O48  1  0.43186000  0.08748000  0.61671000  1.0
  O  O49  1  0.56813000  0.58748000  0.38328000  1.0
  O  O50  1  0.01967000  0.74820000  0.70408000  1.0
  O  O51  1  0.98031000  0.24817000  0.29591000  1.0
  O  O52  1  0.95587000  0.86936000  0.20052000  1.0
  O  O53  1  0.04413000  0.36937000  0.79947000  1.0
  O  O54  1  0.00865000  0.14951000  0.53366000  1.0
  O  O55  1  0.99134000  0.64952000  0.46634000  1.0
  O  O56  1  0.71112000  0.89192000  0.32776000  1.0
  O  O57  1  0.28887000  0.39190000  0.67223000  1.0
  O  O58  1  0.60202000  0.37073000  0.54195000  1.0
  O  O59  1  0.39797000  0.87074000  0.45804000  1.0
