# generated using pymatgen
data_ZnH12C20N3O4
_symmetry_space_group_name_H-M   'P 1'
_cell_length_a   15.31430000
_cell_length_b   15.37470000
_cell_length_c   17.99130000
_cell_angle_alpha   91.42780000
_cell_angle_beta   97.86870000
_cell_angle_gamma   99.90550000
_symmetry_Int_Tables_number   1
_chemical_formula_structural   ZnH12C20N3O4
_chemical_formula_sum   'Zn6 H72 C120 N18 O24'
_cell_volume   4128.56015901
_cell_formula_units_Z   6
loop_
 _symmetry_equiv_pos_site_id
 _symmetry_equiv_pos_as_xyz
  1  'x, y, z'
loop_
 _atom_site_type_symbol
 _atom_site_label
 _atom_site_symmetry_multiplicity
 _atom_site_fract_x
 _atom_site_fract_y
 _atom_site_fract_z
 _atom_site_occupancy
  Zn  Zn0  1  0.98706000  0.99423000  0.91935000  1.0
  Zn  Zn1  1  0.01295000  0.00578000  0.08065000  1.0
  Zn  Zn2  1  0.22491000  0.32564000  0.24651000  1.0
  Zn  Zn3  1  0.77509000  0.67436000  0.75349000  1.0
  Zn  Zn4  1  0.25110000  0.33688000  0.40680000  1.0
  Zn  Zn5  1  0.74890000  0.66312000  0.59320000  1.0
  H  H6  1  0.98055000  0.71567000  0.88077000  1.0
  H  H7  1  0.01944000  0.28433000  0.11923000  1.0
  H  H8  1  0.97818000  0.55646000  0.87909000  1.0
  H  H9  1  0.02182000  0.44354000  0.12090000  1.0
  H  H10  1  0.02182000  0.56839000  0.12213000  1.0
  H  H11  1  0.97819000  0.43161000  0.87786000  1.0
  H  H12  1  0.02359000  0.72875000  0.12206000  1.0
  H  H13  1  0.97641000  0.27125000  0.87793000  1.0
  H  H14  1  0.69417000  0.99128000  0.87112000  1.0
  H  H15  1  0.30584000  0.00872000  0.12888000  1.0
  H  H16  1  0.53778000  0.00322000  0.87668000  1.0
  H  H17  1  0.46222000  0.99677000  0.12331000  1.0
  H  H18  1  0.58391000  0.98443000  0.11781000  1.0
  H  H19  1  0.41608000  0.01556000  0.88218000  1.0
  H  H20  1  0.74119000  0.97390000  0.11039000  1.0
  H  H21  1  0.25880000  0.02610000  0.88961000  1.0
  H  H22  1  0.97144000  0.85458000  0.79412000  1.0
  H  H23  1  0.02856000  0.14542000  0.20588000  1.0
  H  H24  1  0.97550000  0.85281000  0.65500000  1.0
  H  H25  1  0.02450000  0.14719000  0.34500000  1.0
  H  H26  1  0.02497000  0.13812000  0.67197000  1.0
  H  H27  1  0.97503000  0.86188000  0.32803000  1.0
  H  H28  1  0.01957000  0.12850000  0.81091000  1.0
  H  H29  1  0.98044000  0.87151000  0.18909000  1.0
  H  H30  1  0.54232000  0.34763000  0.45314000  1.0
  H  H31  1  0.45768000  0.65238000  0.54687000  1.0
  H  H32  1  0.70236000  0.34230000  0.44854000  1.0
  H  H33  1  0.29764000  0.65770000  0.55146000  1.0
  H  H34  1  0.65328000  0.34327000  0.20657000  1.0
  H  H35  1  0.34673000  0.65675000  0.79343000  1.0
  H  H36  1  0.49485000  0.35250000  0.21315000  1.0
  H  H37  1  0.50515000  0.64752000  0.78685000  1.0
  H  H38  1  0.94169000  0.35770000  0.20331000  1.0
  H  H39  1  0.05832000  0.64230000  0.79669000  1.0
  H  H40  1  0.78597000  0.37525000  0.20925000  1.0
  H  H41  1  0.21403000  0.62475000  0.79075000  1.0
  H  H42  1  0.81216000  0.29337000  0.43820000  1.0
  H  H43  1  0.18783000  0.70663000  0.56180000  1.0
  H  H44  1  0.97120000  0.28689000  0.43344000  1.0
  H  H45  1  0.02880000  0.71310000  0.56656000  1.0
  H  H46  1  0.16557000  0.59323000  0.21498000  1.0
  H  H47  1  0.83444000  0.40676000  0.78502000  1.0
  H  H48  1  0.15858000  0.75323000  0.21624000  1.0
  H  H49  1  0.84143000  0.24676000  0.78376000  1.0
  H  H50  1  0.31342000  0.78736000  0.43749000  1.0
  H  H51  1  0.68658000  0.21263000  0.56251000  1.0
  H  H52  1  0.31516000  0.62592000  0.43613000  1.0
  H  H53  1  0.68483000  0.37407000  0.56388000  1.0
  H  H54  1  0.24144000  0.05657000  0.44874000  1.0
  H  H55  1  0.75855000  0.94343000  0.55126000  1.0
  H  H56  1  0.23991000  0.89479000  0.44866000  1.0
  H  H57  1  0.76009000  0.10521000  0.55133000  1.0
  H  H58  1  0.22308000  0.88698000  0.20691000  1.0
  H  H59  1  0.77692000  0.11302000  0.79308000  1.0
  H  H60  1  0.21948000  0.04647000  0.20813000  1.0
  H  H61  1  0.78053000  0.95354000  0.79188000  1.0
  H  H62  1  0.24508000  0.46153000  0.13739000  1.0
  H  H63  1  0.75492000  0.53847000  0.86261000  1.0
  H  H64  1  0.24341000  0.47314000  0.99753000  1.0
  H  H65  1  0.75660000  0.52686000  0.00247000  1.0
  H  H66  1  0.20719000  0.18832000  0.97912000  1.0
  H  H67  1  0.79281000  0.81168000  0.02088000  1.0
  H  H68  1  0.21102000  0.18825000  0.11928000  1.0
  H  H69  1  0.78898000  0.81175000  0.88072000  1.0
  H  H70  1  0.20434000  0.20390000  0.51491000  1.0
  H  H71  1  0.79566000  0.79611000  0.48509000  1.0
  H  H72  1  0.18895000  0.19685000  0.65250000  1.0
  H  H73  1  0.81104000  0.80315000  0.34750000  1.0
  H  H74  1  0.27560000  0.48042000  0.67222000  1.0
  H  H75  1  0.72440000  0.51958000  0.32778000  1.0
  H  H76  1  0.28790000  0.47500000  0.53439000  1.0
  H  H77  1  0.71210000  0.52500000  0.46561000  1.0
  C  C78  1  0.00301000  0.73311000  0.00169000  1.0
  C  C79  1  0.99698000  0.26689000  0.99831000  1.0
  C  C80  1  0.99072000  0.68334000  0.93366000  1.0
  C  C81  1  0.00927000  0.31666000  0.06634000  1.0
  C  C82  1  0.98950000  0.59280000  0.93330000  1.0
  C  C83  1  0.01050000  0.40720000  0.06670000  1.0
  C  C84  1  0.00086000  0.54828000  0.00046000  1.0
  C  C85  1  0.99915000  0.45173000  0.99953000  1.0
  C  C86  1  0.01330000  0.59947000  0.06850000  1.0
  C  C87  1  0.98671000  0.40053000  0.93149000  1.0
  C  C88  1  0.01443000  0.69004000  0.06911000  1.0
  C  C89  1  0.98557000  0.30996000  0.93088000  1.0
  C  C90  1  0.00155000  0.83015000  0.00196000  1.0
  C  C91  1  0.99845000  0.16985000  0.99804000  1.0
  C  C92  1  0.72822000  0.98237000  0.99045000  1.0
  C  C93  1  0.27178000  0.01763000  0.00955000  1.0
  C  C94  1  0.66949000  0.99000000  0.92508000  1.0
  C  C95  1  0.33052000  0.01000000  0.07492000  1.0
  C  C96  1  0.58088000  0.99678000  0.92888000  1.0
  C  C97  1  0.41912000  0.00322000  0.07111000  1.0
  C  C98  1  0.54707000  0.99573000  0.99795000  1.0
  C  C99  1  0.45292000  0.00426000  0.00205000  1.0
  C  C100  1  0.60672000  0.98631000  0.06305000  1.0
  C  C101  1  0.39327000  0.01369000  0.93694000  1.0
  C  C102  1  0.69548000  0.98007000  0.05956000  1.0
  C  C103  1  0.30451000  0.01993000  0.94044000  1.0
  C  C104  1  0.82488000  0.97963000  0.98753000  1.0
  C  C105  1  0.17513000  0.02037000  0.01248000  1.0
  C  C106  1  0.98381000  0.91576000  0.76497000  1.0
  C  C107  1  0.01618000  0.08424000  0.23503000  1.0
  C  C108  1  0.98642000  0.91490000  0.68806000  1.0
  C  C109  1  0.01357000  0.08510000  0.31194000  1.0
  C  C110  1  0.00085000  0.99557000  0.65327000  1.0
  C  C111  1  0.99915000  0.00443000  0.34673000  1.0
  C  C112  1  0.01377000  0.07443000  0.69733000  1.0
  C  C113  1  0.98623000  0.92557000  0.30267000  1.0
  C  C114  1  0.01032000  0.06961000  0.77375000  1.0
  C  C115  1  0.98967000  0.93039000  0.22625000  1.0
  C  C116  1  0.00081000  0.99773000  0.57167000  1.0
  C  C117  1  0.99919000  0.00227000  0.42833000  1.0
  C  C118  1  0.50860000  0.35012000  0.33337000  1.0
  C  C119  1  0.49140000  0.64989000  0.66666667  1.0
  C  C120  1  0.56790000  0.34720000  0.39951000  1.0
  C  C121  1  0.43210000  0.65281000  0.60050000  1.0
  C  C122  1  0.65736000  0.34337000  0.39628000  1.0
  C  C123  1  0.34264000  0.65664000  0.60372000  1.0
  C  C124  1  0.69083000  0.34127000  0.32716000  1.0
  C  C125  1  0.30917000  0.65873000  0.67285000  1.0
  C  C126  1  0.63054000  0.34533000  0.26127000  1.0
  C  C127  1  0.36945000  0.65468000  0.73873000  1.0
  C  C128  1  0.54130000  0.35012000  0.26434000  1.0
  C  C129  1  0.45871000  0.64988000  0.73566000  1.0
  C  C130  1  0.41105000  0.34949000  0.33562000  1.0
  C  C131  1  0.58896000  0.65051000  0.66439000  1.0
  C  C132  1  0.96665000  0.32148000  0.31799000  1.0
  C  C133  1  0.03335000  0.67852000  0.68201000  1.0
  C  C134  1  0.91294000  0.34474000  0.25487000  1.0
  C  C135  1  0.08706000  0.65526000  0.74513000  1.0
  C  C136  1  0.82458000  0.35303000  0.25831000  1.0
  C  C137  1  0.17542000  0.64697000  0.74170000  1.0
  C  C138  1  0.78554000  0.33471000  0.32400000  1.0
  C  C139  1  0.21446000  0.66529000  0.67601000  1.0
  C  C140  1  0.83993000  0.30953000  0.38659000  1.0
  C  C141  1  0.16007000  0.69047000  0.61341000  1.0
  C  C142  1  0.92924000  0.30456000  0.38420000  1.0
  C  C143  1  0.07075000  0.69544000  0.61581000  1.0
  C  C144  1  0.06333000  0.31767000  0.31609000  1.0
  C  C145  1  0.93667000  0.68233000  0.68391000  1.0
  C  C146  1  0.23972000  0.59948000  0.32609000  1.0
  C  C147  1  0.76028000  0.40052000  0.67392000  1.0
  C  C148  1  0.19687000  0.63632000  0.26384000  1.0
  C  C149  1  0.80313000  0.36368000  0.73617000  1.0
  C  C150  1  0.19371000  0.72621000  0.26473000  1.0
  C  C151  1  0.80628000  0.27378000  0.73526000  1.0
  C  C152  1  0.23448000  0.78258000  0.32739000  1.0
  C  C153  1  0.76552000  0.21742000  0.67261000  1.0
  C  C154  1  0.27857000  0.74502000  0.38916000  1.0
  C  C155  1  0.72143000  0.25498000  0.61085000  1.0
  C  C156  1  0.28062000  0.65497000  0.38863000  1.0
  C  C157  1  0.71938000  0.34502000  0.61137000  1.0
  C  C158  1  0.24143000  0.50233000  0.32640000  1.0
  C  C159  1  0.75857000  0.49767000  0.67361000  1.0
  C  C160  1  0.23153000  0.06214000  0.32865000  1.0
  C  C161  1  0.76847000  0.93786000  0.67135000  1.0
  C  C162  1  0.23710000  0.01835000  0.39612000  1.0
  C  C163  1  0.76290000  0.98165000  0.60388000  1.0
  C  C164  1  0.23708000  0.92787000  0.39569000  1.0
  C  C165  1  0.76292000  0.07212000  0.60431000  1.0
  C  C166  1  0.23235000  0.87825000  0.32786000  1.0
  C  C167  1  0.76764000  0.12174000  0.67214000  1.0
  C  C168  1  0.22618000  0.92292000  0.26052000  1.0
  C  C169  1  0.77382000  0.07708000  0.73948000  1.0
  C  C170  1  0.22549000  0.01324000  0.26086000  1.0
  C  C171  1  0.77451000  0.98676000  0.73915000  1.0
  C  C172  1  0.23129000  0.15954000  0.32864000  1.0
  C  C173  1  0.76871000  0.84047000  0.67136000  1.0
  C  C174  1  0.23792000  0.40326000  0.09976000  1.0
  C  C175  1  0.76209000  0.59674000  0.90025000  1.0
  C  C176  1  0.23715000  0.40928000  0.02287000  1.0
  C  C177  1  0.76285000  0.59072000  0.97713000  1.0
  C  C178  1  0.22522000  0.33107000  0.97804000  1.0
  C  C179  1  0.77479000  0.66892000  0.02196000  1.0
  C  C180  1  0.21719000  0.25004000  0.01267000  1.0
  C  C181  1  0.78282000  0.74995000  0.98733000  1.0
  C  C182  1  0.21886000  0.24979000  0.09014000  1.0
  C  C183  1  0.78114000  0.75021000  0.90986000  1.0
  C  C184  1  0.21867000  0.33405000  0.89589000  1.0
  C  C185  1  0.78134000  0.66595000  0.10411000  1.0
  C  C186  1  0.22110000  0.33777000  0.75305000  1.0
  C  C187  1  0.77891000  0.66223000  0.24695000  1.0
  C  C188  1  0.21989000  0.26280000  0.55258000  1.0
  C  C189  1  0.78011000  0.73720000  0.44742000  1.0
  C  C190  1  0.21136000  0.25952000  0.62832000  1.0
  C  C191  1  0.78864000  0.74049000  0.37168000  1.0
  C  C192  1  0.23110000  0.33850000  0.67289000  1.0
  C  C193  1  0.76890000  0.66150000  0.32711000  1.0
  C  C194  1  0.25966000  0.41784000  0.63947000  1.0
  C  C195  1  0.74034000  0.58217000  0.36053000  1.0
  C  C196  1  0.26680000  0.41520000  0.56327000  1.0
  C  C197  1  0.73320000  0.58481000  0.43673000  1.0
  N  N198  1  0.99481000  0.99183000  0.80669000  1.0
  N  N199  1  0.00519000  0.00818000  0.19331000  1.0
  N  N200  1  0.97447000  0.92055000  0.53037000  1.0
  N  N201  1  0.02553000  0.07945000  0.46963000  1.0
  N  N202  1  0.02644000  0.07701000  0.54281000  1.0
  N  N203  1  0.97356000  0.92299000  0.45719000  1.0
  N  N204  1  0.22802000  0.32506000  0.13262000  1.0
  N  N205  1  0.77198000  0.67494000  0.86738000  1.0
  N  N206  1  0.23342000  0.41409000  0.86565000  1.0
  N  N207  1  0.76659000  0.58591000  0.13435000  1.0
  N  N208  1  0.23472000  0.41605000  0.79271000  1.0
  N  N209  1  0.76528000  0.58395000  0.20729000  1.0
  N  N210  1  0.19208000  0.25914000  0.78155000  1.0
  N  N211  1  0.80792000  0.74086000  0.21845000  1.0
  N  N212  1  0.19084000  0.25711000  0.85451000  1.0
  N  N213  1  0.80917000  0.74289000  0.14549000  1.0
  N  N214  1  0.24727000  0.33922000  0.52074000  1.0
  N  N215  1  0.75273000  0.66078000  0.47926000  1.0
  O  O216  1  0.98719000  0.86340000  0.93822000  1.0
  O  O217  1  0.01282000  0.13661000  0.06178000  1.0
  O  O218  1  0.01386000  0.87185000  0.06566000  1.0
  O  O219  1  0.98613000  0.12815000  0.93434000  1.0
  O  O220  1  0.85027000  0.97583000  0.92296000  1.0
  O  O221  1  0.14973000  0.02416000  0.07705000  1.0
  O  O222  1  0.87494000  0.98137000  0.05032000  1.0
  O  O223  1  0.12506000  0.01865000  0.94969000  1.0
  O  O224  1  0.36257000  0.35546000  0.27319000  1.0
  O  O225  1  0.63743000  0.64454000  0.72681000  1.0
  O  O226  1  0.38376000  0.34140000  0.39936000  1.0
  O  O227  1  0.61624000  0.65860000  0.60064000  1.0
  O  O228  1  0.08788000  0.30468000  0.25224000  1.0
  O  O229  1  0.91211000  0.69531000  0.74776000  1.0
  O  O230  1  0.11383000  0.32790000  0.37912000  1.0
  O  O231  1  0.88617000  0.67210000  0.62088000  1.0
  O  O232  1  0.21876000  0.45860000  0.26353000  1.0
  O  O233  1  0.78124000  0.54140000  0.73647000  1.0
  O  O234  1  0.26460000  0.47084000  0.38946000  1.0
  O  O235  1  0.73540000  0.52916000  0.61055000  1.0
  O  O236  1  0.22878000  0.19494000  0.26516000  1.0
  O  O237  1  0.77122000  0.80506000  0.73485000  1.0
  O  O238  1  0.23309000  0.19971000  0.39174000  1.0
  O  O239  1  0.76691000  0.80029000  0.60826000  1.0
