# generated using pymatgen
data_CoH35C44(N2O)5
_symmetry_space_group_name_H-M   'P 1'
_cell_length_a   9.47576000
_cell_length_b   11.44020000
_cell_length_c   18.06120000
_cell_angle_alpha   99.42960000
_cell_angle_beta   94.95720000
_cell_angle_gamma   101.47000000
_symmetry_Int_Tables_number   1
_chemical_formula_structural   CoH35C44(N2O)5
_chemical_formula_sum   'Co2 H70 C88 N20 O10'
_cell_volume   1878.49578676
_cell_formula_units_Z   2
loop_
 _symmetry_equiv_pos_site_id
 _symmetry_equiv_pos_as_xyz
  1  'x, y, z'
loop_
 _atom_site_type_symbol
 _atom_site_label
 _atom_site_symmetry_multiplicity
 _atom_site_fract_x
 _atom_site_fract_y
 _atom_site_fract_z
 _atom_site_occupancy
  Co  Co0  1  0.02657000  0.01794000  0.26442000  1.0
  Co  Co1  1  0.97168000  0.98422000  0.73663000  1.0
  H  H2  1  0.09241000  0.83397000  0.44794000  1.0
  H  H3  1  0.90765000  0.16631000  0.55173000  1.0
  H  H4  1  0.08268000  0.71043000  0.54689000  1.0
  H  H5  1  0.91703000  0.29007000  0.45283000  1.0
  H  H6  1  0.93943000  0.38686000  0.37487000  1.0
  H  H7  1  0.06061000  0.61342000  0.62508000  1.0
  H  H8  1  0.95086000  0.51440000  0.27724000  1.0
  H  H9  1  0.04882000  0.48561000  0.72259000  1.0
  H  H10  1  0.02859000  0.37433000  0.19601000  1.0
  H  H11  1  0.97186000  0.62527000  0.80393000  1.0
  H  H12  1  0.02390000  0.55021000  0.13466000  1.0
  H  H13  1  0.97548000  0.44944000  0.86552000  1.0
  H  H14  1  0.99181000  0.31690000  0.91600000  1.0
  H  H15  1  0.00805000  0.68351000  0.08398000  1.0
  H  H16  1  0.98962000  0.14237000  0.98016000  1.0
  H  H17  1  0.01033000  0.85779000  0.01952000  1.0
  H  H18  1  0.80098000  0.92710000  0.38327000  1.0
  H  H19  1  0.19639000  0.07154000  0.61654000  1.0
  H  H20  1  0.80542000  0.20818000  0.25908000  1.0
  H  H21  1  0.19313000  0.79051000  0.74059000  1.0
  H  H22  1  0.58865000  0.21244000  0.35391000  1.0
  H  H23  1  0.41136000  0.78803000  0.64644000  1.0
  H  H24  1  0.63136000  0.21436000  0.50895000  1.0
  H  H25  1  0.36804000  0.78552000  0.49139000  1.0
  H  H26  1  0.51328000  0.84266000  0.38993000  1.0
  H  H27  1  0.48599000  0.15716000  0.61035000  1.0
  H  H28  1  0.28703000  0.27899000  0.31791000  1.0
  H  H29  1  0.71606000  0.71975000  0.68190000  1.0
  H  H30  1  0.07208000  0.02800000  0.44018000  1.0
  H  H31  1  0.93034000  0.97141000  0.55991000  1.0
  H  H32  1  0.23791000  0.22642000  0.54232000  1.0
  H  H33  1  0.76150000  0.77453000  0.45769000  1.0
  H  H34  1  0.51207000  0.38400000  0.37265000  1.0
  H  H35  1  0.48827000  0.61647000  0.62730000  1.0
  H  H36  1  0.29329000  0.43666000  0.57077000  1.0
  H  H37  1  0.70705000  0.56376000  0.42922000  1.0
  H  H38  1  0.16794000  0.01635000  0.10484000  1.0
  H  H39  1  0.83264000  0.98548000  0.89570000  1.0
  H  H40  1  0.33836000  0.93272000  0.30740000  1.0
  H  H41  1  0.66165000  0.06914000  0.69320000  1.0
  H  H42  1  0.54364000  0.92792000  0.20673000  1.0
  H  H43  1  0.45532000  0.07104000  0.79324000  1.0
  H  H44  1  0.23563000  0.98723000  0.00011000  1.0
  H  H45  1  0.76395000  0.01277000  0.00018000  1.0
  H  H46  1  0.65846000  0.98968000  0.11485000  1.0
  H  H47  1  0.34093000  0.01001000  0.88529000  1.0
  H  H48  1  0.93681000  0.81600000  0.18112000  1.0
  H  H49  1  0.06102000  0.18391000  0.82015000  1.0
  H  H50  1  0.91191000  0.92334000  0.13248000  1.0
  H  H51  1  0.08914000  0.07500000  0.86740000  1.0
  H  H52  1  0.68302000  0.75098000  0.85758000  1.0
  H  H53  1  0.31699000  0.24896000  0.14261000  1.0
  H  H54  1  0.31379000  0.58517000  0.70090000  1.0
  H  H55  1  0.68637000  0.41508000  0.29911000  1.0
  H  H56  1  0.24843000  0.55720000  0.84396000  1.0
  H  H57  1  0.75156000  0.44285000  0.15601000  1.0
  H  H58  1  0.70315000  0.63819000  0.96423000  1.0
  H  H59  1  0.29681000  0.36177000  0.03579000  1.0
  H  H60  1  0.71719000  0.64146000  0.10200000  1.0
  H  H61  1  0.28283000  0.35858000  0.89804000  1.0
  H  H62  1  0.27790000  0.69135000  0.09928000  1.0
  H  H63  1  0.72212000  0.30873000  0.90076000  1.0
  H  H64  1  0.26496000  0.69128000  0.96180000  1.0
  H  H65  1  0.73502000  0.30870000  0.03823000  1.0
  H  H66  1  0.28375000  0.57410000  0.19780000  1.0
  H  H67  1  0.71614000  0.42596000  0.80221000  1.0
  H  H68  1  0.72764000  0.75079000  0.22425000  1.0
  H  H69  1  0.27227000  0.24906000  0.77577000  1.0
  H  H70  1  0.64795000  0.69967000  0.36174000  1.0
  H  H71  1  0.35198000  0.30017000  0.63827000  1.0
  C  C72  1  0.01382000  0.76053000  0.29646000  1.0
  C  C73  1  0.98587000  0.23898000  0.70292000  1.0
  C  C74  1  0.02002000  0.68283000  0.35582000  1.0
  C  C75  1  0.97981000  0.31731000  0.64385000  1.0
  C  C76  1  0.05916000  0.73554000  0.43236000  1.0
  C  C77  1  0.94066000  0.26472000  0.56729000  1.0
  C  C78  1  0.05337000  0.66477000  0.48815000  1.0
  C  C79  1  0.94637000  0.33562000  0.51161000  1.0
  C  C80  1  0.00702000  0.53753000  0.47001000  1.0
  C  C81  1  0.99295000  0.46283000  0.52984000  1.0
  C  C82  1  0.97312000  0.48498000  0.39249000  1.0
  C  C83  1  0.02673000  0.51532000  0.60741000  1.0
  C  C84  1  0.97952000  0.55604000  0.33676000  1.0
  C  C85  1  0.02018000  0.44407000  0.66304000  1.0
  C  C86  1  0.99156000  0.13642000  0.12794000  1.0
  C  C87  1  0.01053000  0.86287000  0.87126000  1.0
  C  C88  1  0.00316000  0.24632000  0.09184000  1.0
  C  C89  1  0.99717000  0.75341000  0.90794000  1.0
  C  C90  1  0.01832000  0.36293000  0.13450000  1.0
  C  C91  1  0.98170000  0.63668000  0.86541000  1.0
  C  C92  1  0.01726000  0.46208000  0.09899000  1.0
  C  C93  1  0.98220000  0.53767000  0.90108000  1.0
  C  C94  1  0.00393000  0.44827000  0.01931000  1.0
  C  C95  1  0.99583000  0.55182000  0.98077000  1.0
  C  C96  1  0.99745000  0.33154000  0.97743000  1.0
  C  C97  1  0.00221000  0.66866000  0.02253000  1.0
  C  C98  1  0.99565000  0.23240000  0.01290000  1.0
  C  C99  1  0.00422000  0.76765000  0.98687000  1.0
  C  C100  1  0.77403000  0.00377000  0.36165000  1.0
  C  C101  1  0.22401000  0.99514000  0.63823000  1.0
  C  C102  1  0.77371000  0.15180000  0.30010000  1.0
  C  C103  1  0.22498000  0.84722000  0.69976000  1.0
  C  C104  1  0.66802000  0.15651000  0.34737000  1.0
  C  C105  1  0.33129000  0.84330000  0.65280000  1.0
  C  C106  1  0.58121000  0.03147000  0.44348000  1.0
  C  C107  1  0.41791000  0.96841000  0.55677000  1.0
  C  C108  1  0.57199000  0.12103000  0.50446000  1.0
  C  C109  1  0.42721000  0.87889000  0.49578000  1.0
  C  C110  1  0.50875000  0.91097000  0.43886000  1.0
  C  C111  1  0.49040000  0.08890000  0.56137000  1.0
  C  C112  1  0.24737000  0.23721000  0.36420000  1.0
  C  C113  1  0.75517000  0.76206000  0.63573000  1.0
  C  C114  1  0.14023000  0.11066000  0.43062000  1.0
  C  C115  1  0.86181000  0.88891000  0.56945000  1.0
  C  C116  1  0.22216000  0.20724000  0.48132000  1.0
  C  C117  1  0.77841000  0.79307000  0.51868000  1.0
  C  C118  1  0.39401000  0.39680000  0.46919000  1.0
  C  C119  1  0.60623000  0.60376000  0.53071000  1.0
  C  C120  1  0.50850000  0.43457000  0.42876000  1.0
  C  C121  1  0.49178000  0.56593000  0.57117000  1.0
  C  C122  1  0.38496000  0.46320000  0.54018000  1.0
  C  C123  1  0.61524000  0.53730000  0.45973000  1.0
  C  C124  1  0.24149000  0.99435000  0.14694000  1.0
  C  C125  1  0.75889000  0.00754000  0.85370000  1.0
  C  C126  1  0.33424000  0.95045000  0.25019000  1.0
  C  C127  1  0.66595000  0.05126000  0.75036000  1.0
  C  C128  1  0.43673000  0.94787000  0.20095000  1.0
  C  C129  1  0.56289000  0.05242000  0.79931000  1.0
  C  C130  1  0.43927000  0.98768000  0.06712000  1.0
  C  C131  1  0.56022000  0.01217000  0.93305000  1.0
  C  C132  1  0.35211000  0.99399000  0.00183000  1.0
  C  C133  1  0.64740000  0.00581000  0.99832000  1.0
  C  C134  1  0.58747000  0.99366000  0.06500000  1.0
  C  C135  1  0.41201000  0.00615000  0.93514000  1.0
  C  C136  1  0.57458000  0.70291000  0.83247000  1.0
  C  C137  1  0.42546000  0.29710000  0.16762000  1.0
  C  C138  1  0.38205000  0.61822000  0.75463000  1.0
  C  C139  1  0.61810000  0.38188000  0.24539000  1.0
  C  C140  1  0.34612000  0.60314000  0.82496000  1.0
  C  C141  1  0.65394000  0.39686000  0.17504000  1.0
  C  C142  1  0.48222000  0.66320000  0.95424000  1.0
  C  C143  1  0.51774000  0.33675000  0.04580000  1.0
  C  C144  1  0.61061000  0.65161000  0.99384000  1.0
  C  C145  1  0.38937000  0.34836000  0.00619000  1.0
  C  C146  1  0.61818000  0.65237000  0.07118000  1.0
  C  C147  1  0.38181000  0.34762000  0.92886000  1.0
  C  C148  1  0.49730000  0.66386000  0.10903000  1.0
  C  C149  1  0.50267000  0.33614000  0.89099000  1.0
  C  C150  1  0.36995000  0.67742000  0.06942000  1.0
  C  C151  1  0.63002000  0.32257000  0.93061000  1.0
  C  C152  1  0.36270000  0.67750000  0.99227000  1.0
  C  C153  1  0.63726000  0.32244000  0.00775000  1.0
  C  C154  1  0.39222000  0.61556000  0.22600000  1.0
  C  C155  1  0.60769000  0.38444000  0.77401000  1.0
  C  C156  1  0.62619000  0.70510000  0.23992000  1.0
  C  C157  1  0.37371000  0.29486000  0.76011000  1.0
  C  C158  1  0.58210000  0.68159000  0.30742000  1.0
  C  C159  1  0.41778000  0.31837000  0.69261000  1.0
  N  N160  1  0.83929000  0.05675000  0.30995000  1.0
  N  N161  1  0.15856000  0.94167000  0.68968000  1.0
  N  N162  1  0.66892000  0.06182000  0.38631000  1.0
  N  N163  1  0.33010000  0.93793000  0.61385000  1.0
  N  N164  1  0.15659000  0.13042000  0.35804000  1.0
  N  N165  1  0.84715000  0.86826000  0.64198000  1.0
  N  N166  1  0.29017000  0.28766000  0.43907000  1.0
  N  N167  1  0.71051000  0.71255000  0.56081000  1.0
  N  N168  1  0.21343000  0.98045000  0.21602000  1.0
  N  N169  1  0.78752000  0.02267000  0.78484000  1.0
  N  N170  1  0.37639000  0.97598000  0.13490000  1.0
  N  N171  1  0.62337000  0.02446000  0.86538000  1.0
  N  N172  1  0.50376000  0.66188000  0.18741000  1.0
  N  N173  1  0.49617000  0.33811000  0.81262000  1.0
  N  N174  1  0.47008000  0.65748000  0.87486000  1.0
  N  N175  1  0.52992000  0.34247000  0.12519000  1.0
  N  N176  1  0.52414000  0.68115000  0.75972000  1.0
  N  N177  1  0.47600000  0.31896000  0.24036000  1.0
  N  N178  1  0.43659000  0.62601000  0.29862000  1.0
  N  N179  1  0.56328000  0.37396000  0.70139000  1.0
  O  O180  1  0.02001000  0.87324000  0.32219000  1.0
  O  O181  1  0.98181000  0.12663000  0.67652000  1.0
  O  O182  1  0.99812000  0.71181000  0.22702000  1.0
  O  O183  1  0.99960000  0.28684000  0.77231000  1.0
  O  O184  1  0.02506000  0.15313000  0.19964000  1.0
  O  O185  1  0.98123000  0.84534000  0.79926000  1.0
  O  O186  1  0.95090000  0.03346000  0.08421000  1.0
  O  O187  1  0.04974000  0.96609000  0.91481000  1.0
  O  O188  1  0.88492000  0.88305000  0.17617000  1.0
  O  O189  1  0.11420000  0.11751000  0.82414000  1.0
