# generated using pymatgen
data_TbH21C36(NO4)2
_symmetry_space_group_name_H-M   'P 1'
_cell_length_a   10.78550000
_cell_length_b   12.16480000
_cell_length_c   12.33690000
_cell_angle_alpha   94.20830000
_cell_angle_beta   106.30000000
_cell_angle_gamma   100.93800000
_symmetry_Int_Tables_number   1
_chemical_formula_structural   TbH21C36(NO4)2
_chemical_formula_sum   'Tb2 H42 C72 N4 O16'
_cell_volume   1511.52331703
_cell_formula_units_Z   2
loop_
 _symmetry_equiv_pos_site_id
 _symmetry_equiv_pos_as_xyz
  1  'x, y, z'
loop_
 _atom_site_type_symbol
 _atom_site_label
 _atom_site_symmetry_multiplicity
 _atom_site_fract_x
 _atom_site_fract_y
 _atom_site_fract_z
 _atom_site_occupancy
  Tb  Tb0  1  0.08834000  0.80926000  0.99880000  1.0
  Tb  Tb1  1  0.91166000  0.19074000  0.00120000  1.0
  H  H2  1  0.27811000  0.07058000  0.01956000  1.0
  H  H3  1  0.72189000  0.92942000  0.98044000  1.0
  H  H4  1  0.51256000  0.18337000  0.09365000  1.0
  H  H5  1  0.48744000  0.81663000  0.90635000  1.0
  H  H6  1  0.68823000  0.09405000  0.20395000  1.0
  H  H7  1  0.31177000  0.90595000  0.79605000  1.0
  H  H8  1  0.74945000  0.92325000  0.29036000  1.0
  H  H9  1  0.25055000  0.07675000  0.70964000  1.0
  H  H10  1  0.68259000  0.72472000  0.32255000  1.0
  H  H11  1  0.31741000  0.27527000  0.67745000  1.0
  H  H12  1  0.50203000  0.55171000  0.30001000  1.0
  H  H13  1  0.49797000  0.44829000  0.69999000  1.0
  H  H14  1  0.26288000  0.45777000  0.22087000  1.0
  H  H15  1  0.73712000  0.54223000  0.77913000  1.0
  H  H16  1  0.10506000  0.56323000  0.10778000  1.0
  H  H17  1  0.89494000  0.43677000  0.89222000  1.0
  H  H18  1  0.27228000  0.70970000  0.68892000  1.0
  H  H19  1  0.72772000  0.29030000  0.31108000  1.0
  H  H20  1  0.24988000  0.61089000  0.49861000  1.0
  H  H21  1  0.75011000  0.38911000  0.50139000  1.0
  H  H22  1  0.88383000  0.52604000  0.67305000  1.0
  H  H23  1  0.11617000  0.47396000  0.32695000  1.0
  H  H24  1  0.83921000  0.54375000  0.17507000  1.0
  H  H25  1  0.16079000  0.45625000  0.82493000  1.0
  H  H26  1  0.64091000  0.40118000  0.17749000  1.0
  H  H27  1  0.35909000  0.59882000  0.82251000  1.0
  H  H28  1  0.59989000  0.67971000  0.89942000  1.0
  H  H29  1  0.40011000  0.32029000  0.10058000  1.0
  H  H30  1  0.03147000  0.80638000  0.27829000  1.0
  H  H31  1  0.96853000  0.19362000  0.72171000  1.0
  H  H32  1  0.02883000  0.77717000  0.47568000  1.0
  H  H33  1  0.97117000  0.22283000  0.52432000  1.0
  H  H34  1  0.98209000  0.14639000  0.33522000  1.0
  H  H35  1  0.01792000  0.85361000  0.66478000  1.0
  H  H36  1  0.22429000  0.21957000  0.17291000  1.0
  H  H37  1  0.77571000  0.78043000  0.82709000  1.0
  H  H38  1  0.57696000  0.30105000  0.49862000  1.0
  H  H39  1  0.42304000  0.69895000  0.50137000  1.0
  H  H40  1  0.69888000  0.18177000  0.62828000  1.0
  H  H41  1  0.30112000  0.81823000  0.37172000  1.0
  H  H42  1  0.28671000  0.00660000  0.31217000  1.0
  H  H43  1  0.71329000  0.99340000  0.68783000  1.0
  C  C44  1  0.35733000  0.03322000  0.06772000  1.0
  C  C45  1  0.64267000  0.96678000  0.93228000  1.0
  C  C46  1  0.48823000  0.09669000  0.11071000  1.0
  C  C47  1  0.51177000  0.90331000  0.88929000  1.0
  C  C48  1  0.58559000  0.04699000  0.17234000  1.0
  C  C49  1  0.41441000  0.95301000  0.82766000  1.0
  C  C50  1  0.55155000  0.93374000  0.19168000  1.0
  C  C51  1  0.44845000  0.06626000  0.80832000  1.0
  C  C52  1  0.64678000  0.87694000  0.25574000  1.0
  C  C53  1  0.35322000  0.12306000  0.74426000  1.0
  C  C54  1  0.60983000  0.76766000  0.27350000  1.0
  C  C55  1  0.39017000  0.23234000  0.72650000  1.0
  C  C56  1  0.47475000  0.70719000  0.22948000  1.0
  C  C57  1  0.52525000  0.29281000  0.77052000  1.0
  C  C58  1  0.43132000  0.59600000  0.25035000  1.0
  C  C59  1  0.56868000  0.40400000  0.74965000  1.0
  C  C60  1  0.29890000  0.54374000  0.20699000  1.0
  C  C61  1  0.70110000  0.45626000  0.79301000  1.0
  C  C62  1  0.21021000  0.60232000  0.14237000  1.0
  C  C63  1  0.78979000  0.39768000  0.85764000  1.0
  C  C64  1  0.37794000  0.76048000  0.16397000  1.0
  C  C65  1  0.62206000  0.23952000  0.83603000  1.0
  C  C66  1  0.41698000  0.87560000  0.14450000  1.0
  C  C67  1  0.58302000  0.12440000  0.85550000  1.0
  C  C68  1  0.09275000  0.67822000  0.80825000  1.0
  C  C69  1  0.90725000  0.32178000  0.19175000  1.0
  C  C70  1  0.07857000  0.62187000  0.69232000  1.0
  C  C71  1  0.92143000  0.37813000  0.30768000  1.0
  C  C72  1  0.18272000  0.64710000  0.64244000  1.0
  C  C73  1  0.81728000  0.35290000  0.35756000  1.0
  C  C74  1  0.17004000  0.59278000  0.53683000  1.0
  C  C75  1  0.82997000  0.40722000  0.46317000  1.0
  C  C76  1  0.96297000  0.54407000  0.63378000  1.0
  C  C77  1  0.03703000  0.45593000  0.36622000  1.0
  C  C78  1  0.05300000  0.51223000  0.47523000  1.0
  C  C79  1  0.94700000  0.48777000  0.52477000  1.0
  C  C80  1  0.85148000  0.69674000  0.03034000  1.0
  C  C81  1  0.14852000  0.30326000  0.96966000  1.0
  C  C82  1  0.72979000  0.62067000  0.03748000  1.0
  C  C83  1  0.27021000  0.37933000  0.96252000  1.0
  C  C84  1  0.74169000  0.54147000  0.11676000  1.0
  C  C85  1  0.25831000  0.45853000  0.88324000  1.0
  C  C86  1  0.63229000  0.46270000  0.11747000  1.0
  C  C87  1  0.36771000  0.53730000  0.88253000  1.0
  C  C88  1  0.60762000  0.62110000  0.96234000  1.0
  C  C89  1  0.39238000  0.37890000  0.03766000  1.0
  C  C90  1  0.50635000  0.45915000  0.03917000  1.0
  C  C91  1  0.49365000  0.54084000  0.96083000  1.0
  C  C92  1  0.00948000  0.99549000  0.17812000  1.0
  C  C93  1  0.99052000  0.00451000  0.82188000  1.0
  C  C94  1  0.00739000  0.97907000  0.29646000  1.0
  C  C95  1  0.99261000  0.02093000  0.70354000  1.0
  C  C96  1  0.02144000  0.87401000  0.33615000  1.0
  C  C97  1  0.97856000  0.12599000  0.66385000  1.0
  C  C98  1  0.01930000  0.85798000  0.44494000  1.0
  C  C99  1  0.98070000  0.14202000  0.55506000  1.0
  C  C100  1  0.99286000  0.06636000  0.36704000  1.0
  C  C101  1  0.00714000  0.93364000  0.63296000  1.0
  C  C102  1  0.00647000  0.94667000  0.51987000  1.0
  C  C103  1  0.99353000  0.05333000  0.48013000  1.0
  C  C104  1  0.36802000  0.23307000  0.31483000  1.0
  C  C105  1  0.63198000  0.76693000  0.68517000  1.0
  C  C106  1  0.42647000  0.16006000  0.39764000  1.0
  C  C107  1  0.57354000  0.83994000  0.60236000  1.0
  C  C108  1  0.54260000  0.20973000  0.48815000  1.0
  C  C109  1  0.45740000  0.79027000  0.51185000  1.0
  C  C110  1  0.60841000  0.14403000  0.55958000  1.0
  C  C111  1  0.39158000  0.85597000  0.44042000  1.0
  C  C112  1  0.37553000  0.04462000  0.38224000  1.0
  C  C113  1  0.62446000  0.95538000  0.61776000  1.0
  C  C114  1  0.55976000  0.02514000  0.54496000  1.0
  C  C115  1  0.44024000  0.97486000  0.45504000  1.0
  N  N116  1  0.32241000  0.92567000  0.08310000  1.0
  N  N117  1  0.67759000  0.07433000  0.91690000  1.0
  N  N118  1  0.24775000  0.70762000  0.12126000  1.0
  N  N119  1  0.75225000  0.29238000  0.87874000  1.0
  O  O120  1  0.19858000  0.75074000  0.86274000  1.0
  O  O121  1  0.80143000  0.24926000  0.13726000  1.0
  O  O122  1  0.99648000  0.65414000  0.85069000  1.0
  O  O123  1  0.00352000  0.34586000  0.14931000  1.0
  O  O124  1  0.96421000  0.68590000  0.09179000  1.0
  O  O125  1  0.03579000  0.31410000  0.90821000  1.0
  O  O126  1  0.84506000  0.77126000  0.96123000  1.0
  O  O127  1  0.15494000  0.22874000  0.03877000  1.0
  O  O128  1  0.07198000  0.93646000  0.13338000  1.0
  O  O129  1  0.92801000  0.06354000  0.86662000  1.0
  O  O130  1  0.94874000  0.06683000  0.12923000  1.0
  O  O131  1  0.05126000  0.93317000  0.87077000  1.0
  O  O132  1  0.25106000  0.17993000  0.24201000  1.0
  O  O133  1  0.74894000  0.82007000  0.75799000  1.0
  O  O134  1  0.42455000  0.33058000  0.31185000  1.0
  O  O135  1  0.57545000  0.66942000  0.68815000  1.0
