# generated using pymatgen
data_CuH9C13IN
_symmetry_space_group_name_H-M   'P 1'
_cell_length_a   4.07620000
_cell_length_b   9.74334000
_cell_length_c   13.77801754
_cell_angle_alpha   85.65687133
_cell_angle_beta   84.22644997
_cell_angle_gamma   83.66890000
_symmetry_Int_Tables_number   1
_chemical_formula_structural   CuH9C13IN
_chemical_formula_sum   'Cu2 H18 C26 I2 N2'
_cell_volume   539.95167269
_cell_formula_units_Z   2
loop_
 _symmetry_equiv_pos_site_id
 _symmetry_equiv_pos_as_xyz
  1  'x, y, z'
loop_
 _atom_site_type_symbol
 _atom_site_label
 _atom_site_symmetry_multiplicity
 _atom_site_fract_x
 _atom_site_fract_y
 _atom_site_fract_z
 _atom_site_occupancy
  Cu  Cu0  1  0.28305000  0.59165000  0.75319000  1.0
  Cu  Cu1  1  0.71697000  0.40835000  0.24681000  1.0
  H  H2  1  0.64686000  0.50224000  0.60988000  1.0
  H  H3  1  0.35317000  0.49776000  0.39013000  1.0
  H  H4  1  0.93207000  0.38029000  0.46735000  1.0
  H  H5  1  0.06797000  0.61970000  0.53265000  1.0
  H  H6  1  0.88910000  0.13123000  0.45396000  1.0
  H  H7  1  0.11091000  0.86877000  0.54604000  1.0
  H  H8  1  0.55913000  0.99938000  0.58482000  1.0
  H  H9  1  0.44087000  0.00062000  0.41518000  1.0
  H  H10  1  0.18783000  0.99738000  0.73879000  1.0
  H  H11  1  0.81217000  0.00262000  0.26121000  1.0
  H  H12  1  0.95392000  0.50326000  0.90814000  1.0
  H  H13  1  0.04604000  0.49674000  0.09186000  1.0
  H  H14  1  0.62428000  0.37931000  0.04205000  1.0
  H  H15  1  0.37567000  0.62069000  0.95795000  1.0
  H  H16  1  0.56716000  0.13000000  0.03709000  1.0
  H  H17  1  0.43281000  0.87000000  0.96291000  1.0
  H  H18  1  0.83959000  0.00000000  0.89566000  1.0
  H  H19  1  0.16039000  0.00000000  0.10434000  1.0
  C  C20  1  0.43261000  0.32165000  0.67766000  1.0
  C  C21  1  0.56741000  0.67835000  0.32234000  1.0
  C  C22  1  0.62662000  0.39265000  0.60287000  1.0
  C  C23  1  0.37340000  0.60735000  0.39714000  1.0
  C  C24  1  0.78410000  0.32479000  0.52448000  1.0
  C  C25  1  0.21592000  0.67521000  0.47553000  1.0
  C  C26  1  0.75938000  0.18199000  0.51678000  1.0
  C  C27  1  0.24063000  0.81801000  0.48322000  1.0
  C  C28  1  0.57690000  0.10968000  0.58832000  1.0
  C  C29  1  0.42310000  0.89031000  0.41169000  1.0
  C  C30  1  0.40735000  0.17665000  0.67004000  1.0
  C  C31  1  0.59266000  0.82335000  0.32996000  1.0
  C  C32  1  0.21407000  0.10701000  0.74316000  1.0
  C  C33  1  0.78593000  0.89299000  0.25684000  1.0
  C  C34  1  0.09187000  0.32225000  0.82581000  1.0
  C  C35  1  0.90813000  0.67775000  0.17419000  1.0
  C  C36  1  0.93022000  0.39310000  0.90647000  1.0
  C  C37  1  0.06976000  0.60690000  0.09353000  1.0
  C  C38  1  0.74721000  0.32423000  0.98016000  1.0
  C  C39  1  0.25278000  0.67577000  0.01983000  1.0
  C  C40  1  0.71355000  0.18128000  0.97738000  1.0
  C  C41  1  0.28643000  0.81872000  0.02262000  1.0
  C  C42  1  0.86267000  0.10981000  0.89988000  1.0
  C  C43  1  0.13732000  0.89019000  0.10011000  1.0
  C  C44  1  0.05587000  0.17722000  0.82245000  1.0
  C  C45  1  0.94413000  0.82278000  0.17755000  1.0
  I  I46  1  0.73687000  0.74840000  0.74952000  1.0
  I  I47  1  0.26315000  0.25160000  0.25048000  1.0
  N  N48  1  0.27525000  0.39181000  0.75396000  1.0
  N  N49  1  0.72476000  0.60819000  0.24604000  1.0
