# generated using pymatgen
data_FeH14Pd(C2N)10
_symmetry_space_group_name_H-M   'P 1'
_cell_length_a   8.74275000
_cell_length_b   8.74275000
_cell_length_c   14.43510000
_cell_angle_alpha   82.52230000
_cell_angle_beta   82.52230000
_cell_angle_gamma   71.36860000
_symmetry_Int_Tables_number   1
_chemical_formula_structural   FeH14Pd(C2N)10
_chemical_formula_sum   'Fe2 H28 Pd2 C40 N20'
_cell_volume   1032.02609257
_cell_formula_units_Z   2
loop_
 _symmetry_equiv_pos_site_id
 _symmetry_equiv_pos_as_xyz
  1  'x, y, z'
loop_
 _atom_site_type_symbol
 _atom_site_label
 _atom_site_symmetry_multiplicity
 _atom_site_fract_x
 _atom_site_fract_y
 _atom_site_fract_z
 _atom_site_occupancy
  Fe  Fe0  1  0.83890000  0.16110000  0.25000000  1.0
  Fe  Fe1  1  0.16110000  0.83890000  0.75000000  1.0
  H  H2  1  0.19152000  0.12904000  0.11740000  1.0
  H  H3  1  0.87096000  0.80848000  0.38260000  1.0
  H  H4  1  0.80848000  0.87096000  0.88260000  1.0
  H  H5  1  0.12904000  0.19152000  0.61740000  1.0
  H  H6  1  0.50739000  0.11692000  0.30728000  1.0
  H  H7  1  0.88308000  0.49261000  0.19272000  1.0
  H  H8  1  0.49262000  0.88308000  0.69272000  1.0
  H  H9  1  0.11692000  0.50738000  0.80728000  1.0
  H  H10  1  0.36831000  0.92651000  0.26925000  1.0
  H  H11  1  0.07349000  0.63169000  0.23075000  1.0
  H  H12  1  0.63169000  0.07349000  0.73075000  1.0
  H  H13  1  0.92651000  0.36831000  0.76925000  1.0
  H  H14  1  0.51551000  0.71710000  0.15704000  1.0
  H  H15  1  0.28290000  0.48449000  0.34295000  1.0
  H  H16  1  0.48449000  0.28290000  0.84296000  1.0
  H  H17  1  0.71710000  0.51551000  0.65704000  1.0
  H  H18  1  0.79382000  0.71199000  0.08638000  1.0
  H  H19  1  0.28801000  0.20618000  0.41362000  1.0
  H  H20  1  0.20618000  0.28801000  0.91363000  1.0
  H  H21  1  0.71199000  0.79382000  0.58637000  1.0
  H  H22  1  0.10135000  0.71743000  0.03669000  1.0
  H  H23  1  0.28257000  0.89865000  0.46331000  1.0
  H  H24  1  0.89865000  0.28256000  0.96331000  1.0
  H  H25  1  0.71743000  0.10135000  0.53669000  1.0
  H  H26  1  0.32255000  0.88453000  0.02506000  1.0
  H  H27  1  0.11547000  0.67745000  0.47494000  1.0
  H  H28  1  0.67745000  0.11547000  0.97495000  1.0
  H  H29  1  0.88453000  0.32255000  0.52505000  1.0
  Pd  Pd30  1  0.50000000  0.50000000  0.50000000  1.0
  Pd  Pd31  1  0.50000000  0.50000000  0.00000000  1.0
  C  C32  1  0.60695000  0.35200000  0.40142000  1.0
  C  C33  1  0.64800000  0.39305000  0.09858000  1.0
  C  C34  1  0.39305000  0.64800000  0.59858000  1.0
  C  C35  1  0.35200000  0.60695000  0.90142000  1.0
  C  C36  1  0.64093000  0.63369000  0.44544000  1.0
  C  C37  1  0.36631000  0.35907000  0.05456000  1.0
  C  C38  1  0.35907000  0.36631000  0.55456000  1.0
  C  C39  1  0.63369000  0.64093000  0.94544000  1.0
  C  C40  1  0.56704000  0.02322000  0.26046000  1.0
  C  C41  1  0.97677000  0.43296000  0.23954000  1.0
  C  C42  1  0.43296000  0.97678000  0.73954000  1.0
  C  C43  1  0.02322000  0.56704000  0.76046000  1.0
  C  C44  1  0.49055000  0.91759000  0.23800000  1.0
  C  C45  1  0.08241000  0.50946000  0.26199000  1.0
  C  C46  1  0.50946000  0.08241000  0.76200000  1.0
  C  C47  1  0.91759000  0.49054000  0.73800000  1.0
  C  C48  1  0.57209000  0.80170000  0.17607000  1.0
  C  C49  1  0.19830000  0.42791000  0.32393000  1.0
  C  C50  1  0.42791000  0.19830000  0.82393000  1.0
  C  C51  1  0.80170000  0.57209000  0.67607000  1.0
  C  C52  1  0.72823000  0.79593000  0.13801000  1.0
  C  C53  1  0.20407000  0.27177000  0.36199000  1.0
  C  C54  1  0.27177000  0.20407000  0.86199000  1.0
  C  C55  1  0.79593000  0.72823000  0.63801000  1.0
  C  C56  1  0.79922000  0.90353000  0.16432000  1.0
  C  C57  1  0.09647000  0.20078000  0.33568000  1.0
  C  C58  1  0.20078000  0.09647000  0.83568000  1.0
  C  C59  1  0.90353000  0.79922000  0.66432000  1.0
  C  C60  1  0.95833000  0.91344000  0.12882000  1.0
  C  C61  1  0.08656000  0.04168000  0.37118000  1.0
  C  C62  1  0.04168000  0.08656000  0.87118000  1.0
  C  C63  1  0.91344000  0.95832000  0.62882000  1.0
  C  C64  1  0.09018000  0.82445000  0.07052000  1.0
  C  C65  1  0.17555000  0.90982000  0.42948000  1.0
  C  C66  1  0.90982000  0.17555000  0.92948000  1.0
  C  C67  1  0.82445000  0.09018000  0.57052000  1.0
  C  C68  1  0.20411000  0.90623000  0.06404000  1.0
  C  C69  1  0.09377000  0.79589000  0.43596000  1.0
  C  C70  1  0.79589000  0.09377000  0.93596000  1.0
  C  C71  1  0.90623000  0.20410000  0.56404000  1.0
  N  N72  1  0.68425000  0.26950000  0.34348000  1.0
  N  N73  1  0.73050000  0.31575000  0.15653000  1.0
  N  N74  1  0.31575000  0.73050000  0.65653000  1.0
  N  N75  1  0.26950000  0.68426000  0.84347000  1.0
  N  N76  1  0.72675000  0.70959000  0.41256000  1.0
  N  N77  1  0.29041000  0.27325000  0.08744000  1.0
  N  N78  1  0.27325000  0.29041000  0.58744000  1.0
  N  N79  1  0.70959000  0.72675000  0.91256000  1.0
  N  N80  1  0.71902000  0.01671000  0.22561000  1.0
  N  N81  1  0.98328000  0.28098000  0.27439000  1.0
  N  N82  1  0.28098000  0.98329000  0.77439000  1.0
  N  N83  1  0.01671000  0.71902000  0.72561000  1.0
  N  N84  1  0.99276000  0.04003000  0.15619000  1.0
  N  N85  1  0.95997000  0.00724000  0.34381000  1.0
  N  N86  1  0.00724000  0.95998000  0.84381000  1.0
  N  N87  1  0.04002000  0.99276000  0.65619000  1.0
  N  N88  1  0.14214000  0.03402000  0.11678000  1.0
  N  N89  1  0.96598000  0.85786000  0.38322000  1.0
  N  N90  1  0.85786000  0.96598000  0.88322000  1.0
  N  N91  1  0.03402000  0.14214000  0.61678000  1.0
