# generated using pymatgen
data_Cu2H9C14S2N5
_symmetry_space_group_name_H-M   'P 1'
_cell_length_a   5.83503000
_cell_length_b   8.53600000
_cell_length_c   14.15270000
_cell_angle_alpha   90.00100000
_cell_angle_beta   90.00020000
_cell_angle_gamma   96.29920000
_symmetry_Int_Tables_number   1
_chemical_formula_structural   Cu2H9C14S2N5
_chemical_formula_sum   'Cu4 H18 C28 S4 N10'
_cell_volume   700.65914495
_cell_formula_units_Z   2
loop_
 _symmetry_equiv_pos_site_id
 _symmetry_equiv_pos_as_xyz
  1  'x, y, z'
loop_
 _atom_site_type_symbol
 _atom_site_label
 _atom_site_symmetry_multiplicity
 _atom_site_fract_x
 _atom_site_fract_y
 _atom_site_fract_z
 _atom_site_occupancy
  Cu  Cu0  1  0.30432000  0.91853000  0.16372000  1.0
  Cu  Cu1  1  0.69571000  0.08147000  0.66371000  1.0
  Cu  Cu2  1  0.97612000  0.89266000  0.40628000  1.0
  Cu  Cu3  1  0.02388000  0.10734000  0.90628000  1.0
  H  H4  1  0.84626000  0.83575000  0.07393000  1.0
  H  H5  1  0.15373000  0.16425000  0.57394000  1.0
  H  H6  1  0.51968000  0.67527000  0.99763000  1.0
  H  H7  1  0.48031000  0.32472000  0.49763000  1.0
  H  H8  1  0.48139000  0.38270000  0.00474000  1.0
  H  H9  1  0.51860000  0.61729000  0.50474000  1.0
  H  H10  1  0.76996000  0.24251000  0.08946000  1.0
  H  H11  1  0.23004000  0.75749000  0.58946000  1.0
  H  H12  1  0.53502000  0.80482000  0.29898000  1.0
  H  H13  1  0.46498000  0.19518000  0.79898000  1.0
  H  H14  1  0.03814000  0.55952000  0.41885000  1.0
  H  H15  1  0.96185000  0.44049000  0.91884000  1.0
  H  H16  1  0.83812000  0.30171000  0.36404000  1.0
  H  H17  1  0.16187000  0.69830000  0.86404000  1.0
  H  H18  1  0.49134000  0.29919000  0.26272000  1.0
  H  H19  1  0.50866000  0.70081000  0.76271000  1.0
  H  H20  1  0.16914000  0.31110000  0.20547000  1.0
  H  H21  1  0.83087000  0.68890000  0.70547000  1.0
  C  C22  1  0.99903000  0.62922000  0.12404000  1.0
  C  C23  1  0.00097000  0.37078000  0.62404000  1.0
  C  C24  1  0.83521000  0.70779000  0.07613000  1.0
  C  C25  1  0.16479000  0.29221000  0.57614000  1.0
  C  C26  1  0.65129000  0.61646000  0.03361000  1.0
  C  C27  1  0.34870000  0.38353000  0.53362000  1.0
  C  C28  1  0.62850000  0.45046000  0.03814000  1.0
  C  C29  1  0.37149000  0.54953000  0.53815000  1.0
  C  C30  1  0.78875000  0.37028000  0.08579000  1.0
  C  C31  1  0.21124000  0.62972000  0.58579000  1.0
  C  C32  1  0.97293000  0.46244000  0.12802000  1.0
  C  C33  1  0.02707000  0.53756000  0.62803000  1.0
  C  C34  1  0.28257000  0.55955000  0.21039000  1.0
  C  C35  1  0.71743000  0.44046000  0.71040000  1.0
  C  C36  1  0.48538000  0.55448000  0.27024000  1.0
  C  C37  1  0.51462000  0.44553000  0.77024000  1.0
  C  C38  1  0.60162000  0.69216000  0.30920000  1.0
  C  C39  1  0.39838000  0.30784000  0.80920000  1.0
  C  C40  1  0.87946000  0.55410000  0.37786000  1.0
  C  C41  1  0.12053000  0.44591000  0.87786000  1.0
  C  C42  1  0.76861000  0.41137000  0.34630000  1.0
  C  C43  1  0.23138000  0.58863000  0.84630000  1.0
  C  C44  1  0.57208000  0.41090000  0.29056000  1.0
  C  C45  1  0.42791000  0.58911000  0.79057000  1.0
  C  C46  1  0.79988000  0.03420000  0.21878000  1.0
  C  C47  1  0.20014000  0.96581000  0.71877000  1.0
  C  C48  1  0.52068000  0.02785000  0.96688000  1.0
  C  C49  1  0.47932000  0.97216000  0.46689000  1.0
  S  S50  1  0.06473000  0.05572000  0.25912000  1.0
  S  S51  1  0.93529000  0.94428000  0.75912000  1.0
  S  S52  1  0.25481000  0.96336000  0.99681000  1.0
  S  S53  1  0.74519000  0.03665000  0.49681000  1.0
  N  N54  1  0.19495000  0.68671000  0.17496000  1.0
  N  N55  1  0.80506000  0.31329000  0.67496000  1.0
  N  N56  1  0.15402000  0.42341000  0.18214000  1.0
  N  N57  1  0.84598000  0.57659000  0.68215000  1.0
  N  N58  1  0.79749000  0.69351000  0.35990000  1.0
  N  N59  1  0.20251000  0.30649000  0.85990000  1.0
  N  N60  1  0.60611000  0.01297000  0.19291000  1.0
  N  N61  1  0.39392000  0.98703000  0.69291000  1.0
  N  N62  1  0.71320000  0.07181000  0.94612000  1.0
  N  N63  1  0.28679000  0.92819000  0.44613000  1.0
