# generated using pymatgen
data_CoH24C33(NO3)2
_symmetry_space_group_name_H-M   'P 1'
_cell_length_a   8.93436000
_cell_length_b   12.06230000
_cell_length_c   12.95410000
_cell_angle_alpha   67.93740000
_cell_angle_beta   83.07170000
_cell_angle_gamma   84.30730000
_symmetry_Int_Tables_number   1
_chemical_formula_structural   CoH24C33(NO3)2
_chemical_formula_sum   'Co2 H48 C66 N4 O12'
_cell_volume   1282.17002030
_cell_formula_units_Z   2
loop_
 _symmetry_equiv_pos_site_id
 _symmetry_equiv_pos_as_xyz
  1  'x, y, z'
loop_
 _atom_site_type_symbol
 _atom_site_label
 _atom_site_symmetry_multiplicity
 _atom_site_fract_x
 _atom_site_fract_y
 _atom_site_fract_z
 _atom_site_occupancy
  Co  Co0  1  0.54893000  0.14420000  0.00472000  1.0
  Co  Co1  1  0.45107000  0.85580000  0.99528000  1.0
  H  H2  1  0.03426000  0.14764000  0.00156000  1.0
  H  H3  1  0.96572000  0.85237000  0.99844000  1.0
  H  H4  1  0.93389000  0.35706000  0.96024000  1.0
  H  H5  1  0.06610000  0.64295000  0.03975000  1.0
  H  H6  1  0.03635000  0.51974000  0.78504000  1.0
  H  H7  1  0.96365000  0.48027000  0.21496000  1.0
  H  H8  1  0.23008000  0.46683000  0.65617000  1.0
  H  H9  1  0.76992000  0.53317000  0.34383000  1.0
  H  H10  1  0.46357000  0.42642000  0.61838000  1.0
  H  H11  1  0.53643000  0.57358000  0.38163000  1.0
  H  H12  1  0.64860000  0.38897000  0.47762000  1.0
  H  H13  1  0.35140000  0.61103000  0.52239000  1.0
  H  H14  1  0.49780000  0.03319000  0.57657000  1.0
  H  H15  1  0.50219000  0.96681000  0.42344000  1.0
  H  H16  1  0.30409000  0.07255000  0.70981000  1.0
  H  H17  1  0.69590000  0.92745000  0.29020000  1.0
  H  H18  1  0.68402000  0.10457000  0.41746000  1.0
  H  H19  1  0.31596000  0.89543000  0.58254000  1.0
  H  H20  1  0.70353000  0.26179000  0.35046000  1.0
  H  H21  1  0.29647000  0.73821000  0.64954000  1.0
  H  H22  1  0.86740000  0.17378000  0.26082000  1.0
  H  H23  1  0.13259000  0.82621000  0.73918000  1.0
  H  H24  1  0.10826000  0.15658000  0.15257000  1.0
  H  H25  1  0.89174000  0.84342000  0.84743000  1.0
  H  H26  1  0.35305000  0.13669000  0.42508000  1.0
  H  H27  1  0.64694000  0.86332000  0.57492000  1.0
  H  H28  1  0.11199000  0.15004000  0.53787000  1.0
  H  H29  1  0.88801000  0.84997000  0.46212000  1.0
  H  H30  1  0.29614000  0.32243000  0.04672000  1.0
  H  H31  1  0.70386000  0.67757000  0.95327000  1.0
  H  H32  1  0.26661000  0.54661000  0.96017000  1.0
  H  H33  1  0.73340000  0.45340000  0.03982000  1.0
  H  H34  1  0.44130000  0.65737000  0.79523000  1.0
  H  H35  1  0.55872000  0.34263000  0.20476000  1.0
  H  H36  1  0.66316000  0.64282000  0.65169000  1.0
  H  H37  1  0.33687000  0.35717000  0.34830000  1.0
  H  H38  1  0.85191000  0.51575000  0.58422000  1.0
  H  H39  1  0.14810000  0.48423000  0.41578000  1.0
  H  H40  1  0.96392000  0.30129000  0.60519000  1.0
  H  H41  1  0.03608000  0.69870000  0.39481000  1.0
  H  H42  1  0.95353000  0.08061000  0.71686000  1.0
  H  H43  1  0.04647000  0.91938000  0.28314000  1.0
  H  H44  1  0.77113000  0.00795000  0.88467000  1.0
  H  H45  1  0.22887000  0.99204000  0.11534000  1.0
  H  H46  1  0.64644000  0.19331000  0.15097000  1.0
  H  H47  1  0.35356000  0.80670000  0.84903000  1.0
  H  H48  1  0.78198000  0.14202000  0.08847000  1.0
  H  H49  1  0.21801000  0.85798000  0.91153000  1.0
  C  C50  1  0.24524000  0.05828000  0.89534000  1.0
  C  C51  1  0.75475000  0.94172000  0.10467000  1.0
  C  C52  1  0.19786000  0.18979000  0.85877000  1.0
  C  C53  1  0.80214000  0.81022000  0.14123000  1.0
  C  C54  1  0.08197000  0.21963000  0.92860000  1.0
  C  C55  1  0.91801000  0.78038000  0.07140000  1.0
  C  C56  1  0.02469000  0.33744000  0.90428000  1.0
  C  C57  1  0.97531000  0.66257000  0.09572000  1.0
  C  C58  1  0.08123000  0.42712000  0.80668000  1.0
  C  C59  1  0.91877000  0.57288000  0.19332000  1.0
  C  C60  1  0.19193000  0.39718000  0.73476000  1.0
  C  C61  1  0.80806000  0.60282000  0.26525000  1.0
  C  C62  1  0.25359000  0.27894000  0.75833000  1.0
  C  C63  1  0.74640000  0.72106000  0.24167000  1.0
  C  C64  1  0.36731000  0.25313000  0.67587000  1.0
  C  C65  1  0.63270000  0.74687000  0.32413000  1.0
  C  C66  1  0.46632000  0.34103000  0.60745000  1.0
  C  C67  1  0.53369000  0.65897000  0.39255000  1.0
  C  C68  1  0.57211000  0.31964000  0.52823000  1.0
  C  C69  1  0.42789000  0.68036000  0.47178000  1.0
  C  C70  1  0.58543000  0.20910000  0.51504000  1.0
  C  C71  1  0.41456000  0.79090000  0.48496000  1.0
  C  C72  1  0.48840000  0.12113000  0.58304000  1.0
  C  C73  1  0.51159000  0.87887000  0.41696000  1.0
  C  C74  1  0.37971000  0.14293000  0.66090000  1.0
  C  C75  1  0.62029000  0.85707000  0.33911000  1.0
  C  C76  1  0.70322000  0.18622000  0.43157000  1.0
  C  C77  1  0.29677000  0.81377000  0.56843000  1.0
  C  C78  1  0.97368000  0.16327000  0.40744000  1.0
  C  C79  1  0.02632000  0.83673000  0.59256000  1.0
  C  C80  1  0.97261000  0.16460000  0.29861000  1.0
  C  C81  1  0.02738000  0.83540000  0.70139000  1.0
  C  C82  1  0.10934000  0.15455000  0.23721000  1.0
  C  C83  1  0.89065000  0.84545000  0.76279000  1.0
  C  C84  1  0.24774000  0.14360000  0.28168000  1.0
  C  C85  1  0.75225000  0.85640000  0.71831000  1.0
  C  C86  1  0.24616000  0.14292000  0.39049000  1.0
  C  C87  1  0.75383000  0.85709000  0.60951000  1.0
  C  C88  1  0.11200000  0.15172000  0.45319000  1.0
  C  C89  1  0.88799000  0.84829000  0.54680000  1.0
  C  C90  1  0.39572000  0.13901000  0.21620000  1.0
  C  C91  1  0.60428000  0.86099000  0.78380000  1.0
  C  C92  1  0.37127000  0.37268000  0.97541000  1.0
  C  C93  1  0.62874000  0.62732000  0.02458000  1.0
  C  C94  1  0.35450000  0.49801000  0.92529000  1.0
  C  C95  1  0.64551000  0.50199000  0.07470000  1.0
  C  C96  1  0.45031000  0.55996000  0.83358000  1.0
  C  C97  1  0.54970000  0.44004000  0.16641000  1.0
  C  C98  1  0.56411000  0.49471000  0.79083000  1.0
  C  C99  1  0.43590000  0.50529000  0.20917000  1.0
  C  C100  1  0.66916000  0.54591000  0.69503000  1.0
  C  C101  1  0.33086000  0.45409000  0.30497000  1.0
  C  C102  1  0.77408000  0.47517000  0.65797000  1.0
  C  C103  1  0.22593000  0.52483000  0.34203000  1.0
  C  C104  1  0.78477000  0.34749000  0.71383000  1.0
  C  C105  1  0.21524000  0.65250000  0.28618000  1.0
  C  C106  1  0.88514000  0.26742000  0.67954000  1.0
  C  C107  1  0.11487000  0.73257000  0.32046000  1.0
  C  C108  1  0.87969000  0.14589000  0.74076000  1.0
  C  C109  1  0.12032000  0.85410000  0.25924000  1.0
  C  C110  1  0.77846000  0.10313000  0.83678000  1.0
  C  C111  1  0.22154000  0.89686000  0.16323000  1.0
  C  C112  1  0.68479000  0.29688000  0.80998000  1.0
  C  C113  1  0.31521000  0.70312000  0.19002000  1.0
  C  C114  1  0.57439000  0.36925000  0.84697000  1.0
  C  C115  1  0.42562000  0.63075000  0.15303000  1.0
  N  N116  1  0.48001000  0.30848000  0.93810000  1.0
  N  N117  1  0.52000000  0.69152000  0.06189000  1.0
  N  N118  1  0.68303000  0.17684000  0.87224000  1.0
  N  N119  1  0.31698000  0.82315000  0.12776000  1.0
  O  O120  1  0.14888000  0.99116000  0.89082000  1.0
  O  O121  1  0.85112000  0.00884000  0.10918000  1.0
  O  O122  1  0.37669000  0.02363000  0.93264000  1.0
  O  O123  1  0.62330000  0.97637000  0.06736000  1.0
  O  O124  1  0.84839000  0.17374000  0.47477000  1.0
  O  O125  1  0.15160000  0.82625000  0.52523000  1.0
  O  O126  1  0.51416000  0.15506000  0.25246000  1.0
  O  O127  1  0.48583000  0.84494000  0.74754000  1.0
  O  O128  1  0.39160000  0.12221000  0.12375000  1.0
  O  O129  1  0.60839000  0.87780000  0.87625000  1.0
  O  O130  1  0.71349000  0.21616000  0.07862000  1.0
  O  O131  1  0.28650000  0.78384000  0.92137000  1.0
