# generated using pymatgen
data_H22PbC26(NO2)2
_symmetry_space_group_name_H-M   'P 1'
_cell_length_a   5.30150000
_cell_length_b   10.63860000
_cell_length_c   20.21900000
_cell_angle_alpha   103.00900000
_cell_angle_beta   90.00000000
_cell_angle_gamma   104.42800000
_symmetry_Int_Tables_number   1
_chemical_formula_structural   H22PbC26(NO2)2
_chemical_formula_sum   'H44 Pb2 C52 N4 O8'
_cell_volume   1074.14993101
_cell_formula_units_Z   2
loop_
 _symmetry_equiv_pos_site_id
 _symmetry_equiv_pos_as_xyz
  1  'x, y, z'
loop_
 _atom_site_type_symbol
 _atom_site_label
 _atom_site_symmetry_multiplicity
 _atom_site_fract_x
 _atom_site_fract_y
 _atom_site_fract_z
 _atom_site_occupancy
  H  H0  1  0.33468000  0.30399000  0.23529000  1.0
  H  H1  1  0.03055000  0.69581000  0.26468000  1.0
  H  H2  1  0.66534000  0.69603000  0.76470000  1.0
  H  H3  1  0.96957000  0.30420000  0.73532000  1.0
  H  H4  1  0.77776000  0.29634000  0.05662000  1.0
  H  H5  1  0.48250000  0.70343000  0.44316000  1.0
  H  H6  1  0.22238000  0.70372000  0.94340000  1.0
  H  H7  1  0.51746000  0.29655000  0.55687000  1.0
  H  H8  1  0.41988000  0.11352000  0.99046000  1.0
  H  H9  1  0.30807000  0.88646000  0.50941000  1.0
  H  H10  1  0.58026000  0.88654000  0.00954000  1.0
  H  H11  1  0.69186000  0.11353000  0.49059000  1.0
  H  H12  1  0.01597000  0.02651000  0.04900000  1.0
  H  H13  1  0.99140000  0.97370000  0.45101000  1.0
  H  H14  1  0.98416000  0.97352000  0.95098000  1.0
  H  H15  1  0.00857000  0.02628000  0.54899000  1.0
  H  H16  1  0.81126000  0.52065000  0.17324000  1.0
  H  H17  1  0.29102000  0.47925000  0.32663000  1.0
  H  H18  1  0.18874000  0.47940000  0.82680000  1.0
  H  H19  1  0.70902000  0.52074000  0.67338000  1.0
  H  H20  1  0.98694000  0.40289000  0.18093000  1.0
  H  H21  1  0.58437000  0.59692000  0.31880000  1.0
  H  H22  1  0.01312000  0.59715000  0.81907000  1.0
  H  H23  1  0.41569000  0.40308000  0.68122000  1.0
  H  H24  1  0.77082000  0.44606000  0.24406000  1.0
  H  H25  1  0.32473000  0.55373000  0.25577000  1.0
  H  H26  1  0.22923000  0.55393000  0.75596000  1.0
  H  H27  1  0.67536000  0.44628000  0.74424000  1.0
  H  H28  1  0.83952000  0.33221000  0.33637000  1.0
  H  H29  1  0.50785000  0.66833000  0.16349000  1.0
  H  H30  1  0.16039000  0.66777000  0.66363000  1.0
  H  H31  1  0.49210000  0.33168000  0.83649000  1.0
  H  H32  1  0.88062000  0.52305000  0.43561000  1.0
  H  H33  1  0.35812000  0.47734000  0.06432000  1.0
  H  H34  1  0.11929000  0.47693000  0.56439000  1.0
  H  H35  1  0.64179000  0.52266000  0.93568000  1.0
  H  H36  1  0.09959000  0.33055000  0.48158000  1.0
  H  H37  1  0.76886000  0.66935000  0.01832000  1.0
  H  H38  1  0.90036000  0.66937000  0.51843000  1.0
  H  H39  1  0.23105000  0.33064000  0.98166000  1.0
  H  H40  1  0.08812000  0.15464000  0.37879000  1.0
  H  H41  1  0.93346000  0.84553000  0.12101000  1.0
  H  H42  1  0.91182000  0.84531000  0.62120000  1.0
  H  H43  1  0.06647000  0.15448000  0.87897000  1.0
  Pb  Pb44  1  0.45883000  0.99997000  0.25007000  1.0
  Pb  Pb45  1  0.54121000  0.00002000  0.74991000  1.0
  C  C46  1  0.15257000  0.16095000  0.14477000  1.0
  C  C47  1  0.99237000  0.83906000  0.35522000  1.0
  C  C48  1  0.84750000  0.83907000  0.85521000  1.0
  C  C49  1  0.00766000  0.16094000  0.64478000  1.0
  C  C50  1  0.35518000  0.26490000  0.18150000  1.0
  C  C51  1  0.09067000  0.73500000  0.31845000  1.0
  C  C52  1  0.64486000  0.73513000  0.81850000  1.0
  C  C53  1  0.90940000  0.26500000  0.68155000  1.0
  C  C54  1  0.58054000  0.31614000  0.15021000  1.0
  C  C55  1  0.26500000  0.68373000  0.34965000  1.0
  C  C56  1  0.41948000  0.68389000  0.84981000  1.0
  C  C57  1  0.73504000  0.31627000  0.65036000  1.0
  C  C58  1  0.60007000  0.26009000  0.08114000  1.0
  C  C59  1  0.34104000  0.73978000  0.41869000  1.0
  C  C60  1  0.40000000  0.73994000  0.91887000  1.0
  C  C61  1  0.65893000  0.26022000  0.58133000  1.0
  C  C62  1  0.39970000  0.15665000  0.04396000  1.0
  C  C63  1  0.24451000  0.84332000  0.45593000  1.0
  C  C64  1  0.60041000  0.84338000  0.95603000  1.0
  C  C65  1  0.75547000  0.15668000  0.54409000  1.0
  C  C66  1  0.17582000  0.10735000  0.07589000  1.0
  C  C67  1  0.06992000  0.89273000  0.42407000  1.0
  C  C68  1  0.82428000  0.89268000  0.92409000  1.0
  C  C69  1  0.93006000  0.10726000  0.57594000  1.0
  C  C70  1  0.91242000  0.10612000  0.17883000  1.0
  C  C71  1  0.80680000  0.89395000  0.32128000  1.0
  C  C72  1  0.08761000  0.89389000  0.82115000  1.0
  C  C73  1  0.19322000  0.10604000  0.67871000  1.0
  C  C74  1  0.79827000  0.42718000  0.18935000  1.0
  C  C75  1  0.37140000  0.57266000  0.31046000  1.0
  C  C76  1  0.20176000  0.57284000  0.81066000  1.0
  C  C77  1  0.62866000  0.42736000  0.68955000  1.0
  C  C78  1  0.67932000  0.33725000  0.36998000  1.0
  C  C79  1  0.34246000  0.66317000  0.12989000  1.0
  C  C80  1  0.32061000  0.66272000  0.63003000  1.0
  C  C81  1  0.65747000  0.33683000  0.87009000  1.0
  C  C82  1  0.70093000  0.44334000  0.42630000  1.0
  C  C83  1  0.25799000  0.55696000  0.07361000  1.0
  C  C84  1  0.29897000  0.55661000  0.57370000  1.0
  C  C85  1  0.74193000  0.44303000  0.92639000  1.0
  C  C86  1  0.49273000  0.44548000  0.46929000  1.0
  C  C87  1  0.04731000  0.55457000  0.03067000  1.0
  C  C88  1  0.50719000  0.55447000  0.53071000  1.0
  C  C89  1  0.95259000  0.44542000  0.96933000  1.0
  C  C90  1  0.26981000  0.33821000  0.45118000  1.0
  C  C91  1  0.93164000  0.66186000  0.04870000  1.0
  C  C92  1  0.73013000  0.66173000  0.54883000  1.0
  C  C93  1  0.06827000  0.33814000  0.95129000  1.0
  C  C94  1  0.26319000  0.23704000  0.39339000  1.0
  C  C95  1  0.02622000  0.76315000  0.10645000  1.0
  C  C96  1  0.73675000  0.76290000  0.60661000  1.0
  C  C97  1  0.97372000  0.23686000  0.89354000  1.0
  N  N98  1  0.46479000  0.23534000  0.35321000  1.0
  N  N99  1  0.22970000  0.76503000  0.14662000  1.0
  N  N100  1  0.53515000  0.76462000  0.64679000  1.0
  N  N101  1  0.77023000  0.23498000  0.85336000  1.0
  O  O102  1  0.73405000  0.00987000  0.14427000  1.0
  O  O103  1  0.72481000  0.99017000  0.35592000  1.0
  O  O104  1  0.26600000  0.99012000  0.85571000  1.0
  O  O105  1  0.27519000  0.00982000  0.64408000  1.0
  O  O106  1  0.89647000  0.15672000  0.24210000  1.0
  O  O107  1  0.73988000  0.84338000  0.25802000  1.0
  O  O108  1  0.10350000  0.84330000  0.75788000  1.0
  O  O109  1  0.26019000  0.15664000  0.74197000  1.0
