# generated using pymatgen
data_Zn2H27C41(NO4)2
_symmetry_space_group_name_H-M   'P 1'
_cell_length_a   11.05530000
_cell_length_b   13.86110000
_cell_length_c   26.34830000
_cell_angle_alpha   89.96170000
_cell_angle_beta   90.10710000
_cell_angle_gamma   89.83960000
_symmetry_Int_Tables_number   1
_chemical_formula_structural   Zn2H27C41(NO4)2
_chemical_formula_sum   'Zn4 H54 C82 N4 O16'
_cell_volume   4037.55330873
_cell_formula_units_Z   2
loop_
 _symmetry_equiv_pos_site_id
 _symmetry_equiv_pos_as_xyz
  1  'x, y, z'
loop_
 _atom_site_type_symbol
 _atom_site_label
 _atom_site_symmetry_multiplicity
 _atom_site_fract_x
 _atom_site_fract_y
 _atom_site_fract_z
 _atom_site_occupancy
  Zn  Zn0  1  0.50038000  0.39954000  0.50269000  1.0
  Zn  Zn1  1  0.49658000  0.60059000  0.50247000  1.0
  Zn  Zn2  1  0.49849000  0.60087000  0.08406000  1.0
  Zn  Zn3  1  0.50102000  0.40014000  0.08368000  1.0
  H  H4  1  0.61416000  0.24693000  0.43964000  1.0
  H  H5  1  0.38367000  0.24858000  0.56307000  1.0
  H  H6  1  0.34470000  0.75363000  0.54809000  1.0
  H  H7  1  0.64677000  0.75117000  0.45568000  1.0
  H  H8  1  0.57020000  0.03092000  0.39320000  1.0
  H  H9  1  0.70603000  0.09049000  0.40884000  1.0
  H  H10  1  0.42237000  0.03181000  0.60959000  1.0
  H  H11  1  0.28784000  0.09344000  0.59314000  1.0
  H  H12  1  0.23687000  0.97060000  0.52898000  1.0
  H  H13  1  0.26994000  0.90972000  0.58616000  1.0
  H  H14  1  0.75699000  0.96667000  0.47289000  1.0
  H  H15  1  0.72068000  0.90649000  0.41588000  1.0
  H  H16  1  0.67406000  0.37414000  0.19981000  1.0
  H  H17  1  0.81865000  0.27292000  0.24798000  1.0
  H  H18  1  0.67636000  0.38207000  0.38896000  1.0
  H  H19  1  0.82029000  0.27725000  0.34282000  1.0
  H  H20  1  0.37932000  0.61593000  0.33975000  1.0
  H  H21  1  0.38057000  0.61409000  0.24464000  1.0
  H  H22  1  0.47582000  0.34965000  0.66394000  1.0
  H  H23  1  0.52855000  0.65598000  0.66519000  1.0
  H  H24  1  0.47323000  0.65205000  0.92280000  1.0
  H  H25  1  0.53552000  0.34665000  0.92163000  1.0
  H  H26  1  0.36574000  0.31968000  0.77867000  1.0
  H  H27  1  0.48181000  0.25978000  0.74476000  1.0
  H  H28  1  0.63394000  0.68437000  0.78007000  1.0
  H  H29  1  0.51638000  0.74377000  0.74662000  1.0
  H  H30  1  0.36477000  0.68310000  0.80824000  1.0
  H  H31  1  0.48142000  0.74218000  0.84214000  1.0
  H  H32  1  0.63519000  0.31683000  0.80669000  1.0
  H  H33  1  0.51779000  0.25834000  0.84022000  1.0
  H  H34  1  0.77214000  0.62647000  0.57410000  1.0
  H  H35  1  0.88284000  0.72914000  0.63455000  1.0
  H  H36  1  0.22228000  0.61667000  0.58028000  1.0
  H  H37  1  0.10899000  0.72405000  0.63801000  1.0
  H  H38  1  0.11458000  0.38275000  0.45496000  1.0
  H  H39  1  0.88789000  0.38486000  0.45265000  1.0
  H  H40  1  0.61395000  0.75215000  0.14631000  1.0
  H  H41  1  0.38325000  0.75302000  0.02270000  1.0
  H  H42  1  0.34534000  0.24850000  0.03927000  1.0
  H  H43  1  0.65194000  0.24786000  0.12951000  1.0
  H  H44  1  0.57272000  0.96904000  0.19274000  1.0
  H  H45  1  0.70809000  0.90830000  0.17689000  1.0
  H  H46  1  0.42218000  0.97048000  0.97681000  1.0
  H  H47  1  0.28756000  0.90941000  0.99289000  1.0
  H  H48  1  0.23781000  0.03172000  0.05777000  1.0
  H  H49  1  0.26972000  0.09296000  0.00065000  1.0
  H  H50  1  0.75923000  0.03187000  0.11312000  1.0
  H  H51  1  0.72316000  0.09221000  0.17015000  1.0
  H  H52  1  0.76801000  0.37210000  0.01453000  1.0
  H  H53  1  0.87351000  0.26938000  0.95232000  1.0
  H  H54  1  0.21740000  0.38032000  0.00221000  1.0
  H  H55  1  0.09914000  0.27492000  0.94542000  1.0
  H  H56  1  0.11751000  0.61154000  0.13100000  1.0
  H  H57  1  0.89097000  0.61205000  0.13447000  1.0
  C  C58  1  0.50275000  0.50383000  0.60242000  1.0
  C  C59  1  0.26206000  0.49464000  0.50740000  1.0
  C  C60  1  0.50051000  0.50469000  0.40340000  1.0
  C  C61  1  0.73606000  0.49659000  0.50228000  1.0
  C  C62  1  0.50617000  0.49921000  0.98436000  1.0
  C  C63  1  0.26319000  0.50177000  0.07812000  1.0
  C  C64  1  0.50219000  0.50013000  0.18298000  1.0
  C  C65  1  0.73698000  0.49960000  0.08476000  1.0
  C  C66  1  0.63281000  0.04657000  0.42483000  1.0
  C  C67  1  0.36089000  0.04841000  0.57765000  1.0
  C  C68  1  0.31039000  0.95390000  0.55603000  1.0
  C  C69  1  0.68223000  0.95125000  0.44628000  1.0
  C  C70  1  0.56372000  0.20315000  0.46671000  1.0
  C  C71  1  0.56519000  0.10277000  0.46473000  1.0
  C  C72  1  0.43414000  0.20390000  0.53633000  1.0
  C  C73  1  0.43039000  0.10360000  0.53801000  1.0
  C  C74  1  0.41115000  0.79724000  0.52792000  1.0
  C  C75  1  0.40703000  0.89758000  0.52866000  1.0
  C  C76  1  0.58117000  0.79597000  0.47576000  1.0
  C  C77  1  0.58557000  0.89630000  0.47425000  1.0
  C  C78  1  0.49736000  0.05278000  0.50135000  1.0
  C  C79  1  0.49659000  0.94735000  0.50137000  1.0
  C  C80  1  0.51021000  0.49992000  0.23974000  1.0
  C  C81  1  0.58973000  0.43619000  0.26651000  1.0
  C  C82  1  0.43806000  0.56450000  0.26600000  1.0
  C  C83  1  0.67334000  0.37473000  0.24115000  1.0
  C  C84  1  0.75376000  0.31827000  0.26814000  1.0
  C  C85  1  0.50961000  0.50258000  0.34672000  1.0
  C  C86  1  0.43752000  0.56568000  0.31930000  1.0
  C  C87  1  0.58988000  0.43796000  0.32113000  1.0
  C  C88  1  0.67455000  0.37898000  0.34765000  1.0
  C  C89  1  0.75456000  0.32060000  0.32180000  1.0
  C  C90  1  0.46246000  0.32337000  0.76836000  1.0
  C  C91  1  0.53716000  0.67977000  0.76977000  1.0
  C  C92  1  0.46164000  0.67882000  0.81847000  1.0
  C  C93  1  0.53856000  0.32216000  0.81703000  1.0
  C  C94  1  0.48656000  0.41603000  0.68567000  1.0
  C  C95  1  0.48412000  0.41452000  0.73849000  1.0
  C  C96  1  0.51658000  0.58906000  0.68637000  1.0
  C  C97  1  0.51680000  0.58921000  0.73922000  1.0
  C  C98  1  0.48587000  0.58588000  0.90105000  1.0
  C  C99  1  0.48372000  0.58746000  0.84825000  1.0
  C  C100  1  0.52072000  0.41328000  0.90043000  1.0
  C  C101  1  0.51875000  0.41291000  0.84758000  1.0
  C  C102  1  0.50213000  0.50288000  0.65927000  1.0
  C  C103  1  0.50015000  0.50147000  0.76556000  1.0
  C  C104  1  0.50444000  0.49934000  0.92752000  1.0
  C  C105  1  0.50052000  0.50053000  0.82121000  1.0
  C  C106  1  0.87126000  0.49809000  0.50708000  1.0
  C  C107  1  0.93268000  0.56200000  0.54115000  1.0
  C  C108  1  0.93684000  0.43401000  0.47754000  1.0
  C  C109  1  0.87043000  0.62466000  0.57508000  1.0
  C  C110  1  0.93280000  0.68221000  0.60873000  1.0
  C  C111  1  0.12662000  0.49543000  0.51000000  1.0
  C  C112  1  0.06385000  0.43260000  0.47888000  1.0
  C  C113  1  0.06287000  0.56005000  0.54273000  1.0
  C  C114  1  0.12397000  0.61978000  0.57836000  1.0
  C  C115  1  0.06051000  0.67962000  0.61054000  1.0
  C  C116  1  0.63479000  0.95280000  0.16106000  1.0
  C  C117  1  0.36076000  0.95377000  0.00862000  1.0
  C  C118  1  0.31075000  0.04831000  0.03059000  1.0
  C  C119  1  0.68460000  0.04774000  0.13966000  1.0
  C  C120  1  0.56392000  0.79674000  0.11928000  1.0
  C  C121  1  0.56622000  0.89710000  0.12124000  1.0
  C  C122  1  0.43359000  0.79727000  0.04966000  1.0
  C  C123  1  0.43033000  0.89765000  0.04811000  1.0
  C  C124  1  0.41270000  0.20421000  0.05876000  1.0
  C  C125  1  0.40816000  0.10388000  0.05786000  1.0
  C  C126  1  0.58466000  0.20381000  0.11003000  1.0
  C  C127  1  0.58805000  0.10345000  0.11170000  1.0
  C  C128  1  0.49809000  0.94778000  0.08477000  1.0
  C  C129  1  0.49805000  0.05323000  0.08482000  1.0
  C  C130  1  0.87219000  0.49879000  0.08001000  1.0
  C  C131  1  0.93193000  0.43496000  0.04553000  1.0
  C  C132  1  0.93850000  0.56253000  0.10924000  1.0
  C  C133  1  0.86636000  0.37305000  0.01243000  1.0
  C  C134  1  0.92558000  0.31577000  0.97762000  1.0
  C  C135  1  0.12759000  0.50020000  0.07537000  1.0
  C  C136  1  0.06545000  0.56263000  0.10714000  1.0
  C  C137  1  0.06205000  0.43648000  0.04260000  1.0
  C  C138  1  0.11946000  0.37747000  0.00555000  1.0
  C  C139  1  0.05299000  0.31858000  0.97395000  1.0
  N  N140  1  0.49972000  0.25188000  0.50168000  1.0
  N  N141  1  0.49624000  0.74825000  0.50214000  1.0
  N  N142  1  0.49905000  0.74863000  0.08433000  1.0
  N  N143  1  0.49917000  0.25242000  0.08412000  1.0
  O  O144  1  0.51269000  0.42281000  0.57985000  1.0
  O  O145  1  0.49311000  0.58584000  0.58071000  1.0
  O  O146  1  0.31379000  0.57600000  0.50184000  1.0
  O  O147  1  0.31425000  0.41290000  0.50984000  1.0
  O  O148  1  0.50266000  0.58721000  0.42444000  1.0
  O  O149  1  0.48923000  0.42384000  0.42597000  1.0
  O  O150  1  0.68667000  0.41440000  0.49635000  1.0
  O  O151  1  0.68045000  0.57724000  0.50391000  1.0
  O  O152  1  0.48745000  0.57951000  0.00665000  1.0
  O  O153  1  0.52584000  0.41868000  0.00649000  1.0
  O  O154  1  0.31904000  0.42160000  0.07312000  1.0
  O  O155  1  0.31272000  0.58300000  0.08662000  1.0
  O  O156  1  0.48538000  0.41960000  0.16101000  1.0
  O  O157  1  0.51067000  0.58211000  0.16136000  1.0
  O  O158  1  0.68468000  0.58085000  0.07980000  1.0
  O  O159  1  0.68542000  0.41913000  0.09364000  1.0
