# generated using pymatgen
data_CuH16C8N2Cl
_symmetry_space_group_name_H-M   'P 1'
_cell_length_a   7.53744000
_cell_length_b   8.72932000
_cell_length_c   14.79030000
_cell_angle_alpha   90.00040000
_cell_angle_beta   89.99980000
_cell_angle_gamma   89.99990000
_symmetry_Int_Tables_number   1
_chemical_formula_structural   CuH16C8N2Cl
_chemical_formula_sum   'Cu4 H64 C32 N8 Cl4'
_cell_volume   973.15331269
_cell_formula_units_Z   4
loop_
 _symmetry_equiv_pos_site_id
 _symmetry_equiv_pos_as_xyz
  1  'x, y, z'
loop_
 _atom_site_type_symbol
 _atom_site_label
 _atom_site_symmetry_multiplicity
 _atom_site_fract_x
 _atom_site_fract_y
 _atom_site_fract_z
 _atom_site_occupancy
  Cu  Cu0  1  0.97960000  0.83844000  0.54217000  1.0
  Cu  Cu1  1  0.52040000  0.16155000  0.04218000  1.0
  Cu  Cu2  1  0.02040000  0.33845000  0.95782000  1.0
  Cu  Cu3  1  0.47960000  0.66156000  0.45782000  1.0
  H  H4  1  0.05721000  0.92685000  0.38319000  1.0
  H  H5  1  0.44280000  0.07315000  0.88320000  1.0
  H  H6  1  0.94279000  0.42686000  0.11680000  1.0
  H  H7  1  0.55721000  0.57315000  0.61680000  1.0
  H  H8  1  0.82230000  0.97165000  0.41217000  1.0
  H  H9  1  0.67770000  0.02833000  0.91218000  1.0
  H  H10  1  0.17770000  0.47166000  0.08782000  1.0
  H  H11  1  0.32230000  0.52834000  0.58783000  1.0
  H  H12  1  0.16072000  0.07454000  0.51329000  1.0
  H  H13  1  0.33928000  0.92546000  0.01330000  1.0
  H  H14  1  0.83929000  0.57456000  0.98671000  1.0
  H  H15  1  0.66072000  0.42546000  0.48670000  1.0
  H  H16  1  0.91157000  0.28313000  0.52150000  1.0
  H  H17  1  0.58842000  0.71687000  0.02151000  1.0
  H  H18  1  0.08843000  0.78314000  0.97849000  1.0
  H  H19  1  0.41158000  0.21687000  0.47850000  1.0
  H  H20  1  0.75885000  0.13269000  0.54558000  1.0
  H  H21  1  0.74115000  0.86730000  0.04558000  1.0
  H  H22  1  0.24116000  0.63270000  0.95442000  1.0
  H  H23  1  0.25885000  0.36730000  0.45442000  1.0
  H  H24  1  0.11296000  0.36929000  0.64156000  1.0
  H  H25  1  0.38703000  0.63072000  0.14156000  1.0
  H  H26  1  0.88704000  0.86929000  0.85844000  1.0
  H  H27  1  0.61296000  0.13071000  0.35844000  1.0
  H  H28  1  0.21098000  0.18352000  0.63943000  1.0
  H  H29  1  0.28901000  0.81648000  0.13944000  1.0
  H  H30  1  0.78902000  0.68353000  0.86056000  1.0
  H  H31  1  0.71099000  0.31647000  0.36056000  1.0
  H  H32  1  0.66438000  0.22280000  0.67864000  1.0
  H  H33  1  0.83561000  0.77720000  0.17864000  1.0
  H  H34  1  0.33562000  0.72280000  0.82135000  1.0
  H  H35  1  0.16439000  0.27720000  0.32136000  1.0
  H  H36  1  0.79163000  0.39253000  0.66397000  1.0
  H  H37  1  0.70837000  0.60747000  0.16397000  1.0
  H  H38  1  0.20838000  0.89253000  0.83603000  1.0
  H  H39  1  0.29163000  0.10747000  0.33603000  1.0
  H  H40  1  0.14045000  0.14248000  0.80037000  1.0
  H  H41  1  0.35954000  0.85752000  0.30038000  1.0
  H  H42  1  0.85955000  0.64248000  0.69963000  1.0
  H  H43  1  0.64046000  0.35752000  0.19963000  1.0
  H  H44  1  0.00956000  0.45865000  0.80739000  1.0
  H  H45  1  0.49044000  0.54135000  0.30739000  1.0
  H  H46  1  0.99044000  0.95865000  0.69261000  1.0
  H  H47  1  0.50955000  0.04135000  0.19261000  1.0
  H  H48  1  0.34662000  0.34059000  0.86510000  1.0
  H  H49  1  0.15337000  0.65940000  0.36511000  1.0
  H  H50  1  0.65338000  0.84060000  0.63489000  1.0
  H  H51  1  0.84662000  0.15939000  0.13489000  1.0
  H  H52  1  0.32204000  0.45289000  0.76550000  1.0
  H  H53  1  0.17796000  0.54710000  0.26550000  1.0
  H  H54  1  0.67797000  0.95290000  0.73451000  1.0
  H  H55  1  0.82203000  0.04710000  0.23450000  1.0
  H  H56  1  0.42572000  0.27079000  0.75962000  1.0
  H  H57  1  0.07428000  0.72920000  0.25962000  1.0
  H  H58  1  0.57428000  0.77081000  0.74038000  1.0
  H  H59  1  0.92572000  0.22919000  0.24038000  1.0
  H  H60  1  0.80993000  0.16774000  0.82403000  1.0
  H  H61  1  0.69007000  0.83226000  0.32403000  1.0
  H  H62  1  0.19007000  0.66774000  0.67597000  1.0
  H  H63  1  0.30993000  0.33226000  0.17598000  1.0
  H  H64  1  0.71872000  0.35445000  0.82803000  1.0
  H  H65  1  0.78127000  0.64555000  0.32803000  1.0
  H  H66  1  0.28127000  0.85445000  0.67196000  1.0
  H  H67  1  0.21872000  0.14555000  0.17197000  1.0
  C  C68  1  0.96173000  0.97025000  0.43226000  1.0
  C  C69  1  0.53828000  0.02974000  0.93226000  1.0
  C  C70  1  0.03828000  0.47026000  0.06774000  1.0
  C  C71  1  0.46173000  0.52975000  0.56774000  1.0
  C  C72  1  0.01759000  0.05797000  0.50569000  1.0
  C  C73  1  0.48240000  0.94203000  0.00570000  1.0
  C  C74  1  0.98240000  0.55799000  0.99430000  1.0
  C  C75  1  0.51760000  0.44202000  0.49430000  1.0
  C  C76  1  0.89790000  0.16870000  0.55394000  1.0
  C  C77  1  0.60209000  0.83129000  0.05394000  1.0
  C  C78  1  0.10210000  0.66871000  0.94606000  1.0
  C  C79  1  0.39790000  0.33129000  0.44607000  1.0
  C  C80  1  0.10561000  0.25235000  0.67101000  1.0
  C  C81  1  0.39439000  0.74765000  0.17102000  1.0
  C  C82  1  0.89439000  0.75235000  0.82899000  1.0
  C  C83  1  0.60561000  0.24764000  0.32899000  1.0
  C  C84  1  0.79359000  0.27571000  0.69370000  1.0
  C  C85  1  0.70641000  0.72429000  0.19370000  1.0
  C  C86  1  0.20641000  0.77571000  0.80630000  1.0
  C  C87  1  0.29359000  0.22429000  0.30630000  1.0
  C  C88  1  0.14099000  0.25996000  0.77278000  1.0
  C  C89  1  0.35900000  0.74004000  0.27278000  1.0
  C  C90  1  0.85900000  0.75996000  0.72722000  1.0
  C  C91  1  0.64099000  0.24003000  0.22722000  1.0
  C  C92  1  0.31861000  0.33548000  0.79226000  1.0
  C  C93  1  0.18139000  0.66452000  0.29227000  1.0
  C  C94  1  0.68139000  0.83549000  0.70774000  1.0
  C  C95  1  0.81861000  0.16451000  0.20774000  1.0
  C  C96  1  0.82065000  0.28355000  0.79534000  1.0
  C  C97  1  0.67935000  0.71645000  0.29535000  1.0
  C  C98  1  0.17935000  0.78355000  0.70465000  1.0
  C  C99  1  0.32065000  0.21645000  0.20466000  1.0
  N  N100  1  0.93265000  0.18243000  0.65175000  1.0
  N  N101  1  0.56734000  0.81757000  0.15175000  1.0
  N  N102  1  0.06735000  0.68243000  0.84825000  1.0
  N  N103  1  0.43265000  0.31757000  0.34826000  1.0
  N  N104  1  0.99728000  0.34253000  0.82117000  1.0
  N  N105  1  0.50271000  0.65748000  0.32118000  1.0
  N  N106  1  0.00271000  0.84252000  0.67882000  1.0
  N  N107  1  0.49728000  0.15748000  0.17883000  1.0
  Cl  Cl108  1  0.95341000  0.59072000  0.51118000  1.0
  Cl  Cl109  1  0.54660000  0.40927000  0.01118000  1.0
  Cl  Cl110  1  0.04660000  0.09073000  0.98882000  1.0
  Cl  Cl111  1  0.45341000  0.90928000  0.48882000  1.0
