# generated using pymatgen
data_Cu3H6C10(BrN2)3
_symmetry_space_group_name_H-M   'P 1'
_cell_length_a   6.58660000
_cell_length_b   8.19044000
_cell_length_c   13.99910000
_cell_angle_alpha   97.38900000
_cell_angle_beta   90.00000000
_cell_angle_gamma   89.99870000
_symmetry_Int_Tables_number   1
_chemical_formula_structural   Cu3H6C10(BrN2)3
_chemical_formula_sum   'Cu6 H12 C20 Br6 N12'
_cell_volume   748.94020253
_cell_formula_units_Z   2
loop_
 _symmetry_equiv_pos_site_id
 _symmetry_equiv_pos_as_xyz
  1  'x, y, z'
loop_
 _atom_site_type_symbol
 _atom_site_label
 _atom_site_symmetry_multiplicity
 _atom_site_fract_x
 _atom_site_fract_y
 _atom_site_fract_z
 _atom_site_occupancy
  Cu  Cu0  1  0.75550000  0.00000000  0.25000000  1.0
  Cu  Cu1  1  0.24447000  0.00000000  0.75000000  1.0
  Cu  Cu2  1  0.71624000  0.59303000  0.37518000  1.0
  Cu  Cu3  1  0.28376000  0.59305000  0.87516000  1.0
  Cu  Cu4  1  0.28375000  0.40697000  0.62482000  1.0
  Cu  Cu5  1  0.71626000  0.40696000  0.12484000  1.0
  H  H6  1  0.83752000  0.83549000  0.72373000  1.0
  H  H7  1  0.16247000  0.83546000  0.22373000  1.0
  H  H8  1  0.16248000  0.16451000  0.27627000  1.0
  H  H9  1  0.83754000  0.16455000  0.77626000  1.0
  H  H10  1  0.31504000  0.91458000  0.53858000  1.0
  H  H11  1  0.68495000  0.91458000  0.03858000  1.0
  H  H12  1  0.68494000  0.08542000  0.46141000  1.0
  H  H13  1  0.31505000  0.08541000  0.96141000  1.0
  H  H14  1  0.13388000  0.74624000  0.40220000  1.0
  H  H15  1  0.86613000  0.74625000  0.90220000  1.0
  H  H16  1  0.86611000  0.25376000  0.59779000  1.0
  H  H17  1  0.13388000  0.25373000  0.09780000  1.0
  C  C18  1  0.80662000  0.72259000  0.57643000  1.0
  C  C19  1  0.19338000  0.72256000  0.07643000  1.0
  C  C20  1  0.19338000  0.27740000  0.42357000  1.0
  C  C21  1  0.80664000  0.27745000  0.92357000  1.0
  C  C22  1  0.90748000  0.81649000  0.65268000  1.0
  C  C23  1  0.09251000  0.81646000  0.15268000  1.0
  C  C24  1  0.09253000  0.18351000  0.34732000  1.0
  C  C25  1  0.90750000  0.18355000  0.84732000  1.0
  C  C26  1  0.16815000  0.85853000  0.54956000  1.0
  C  C27  1  0.83184000  0.85853000  0.04956000  1.0
  C  C28  1  0.83184000  0.14147000  0.45044000  1.0
  C  C29  1  0.16817000  0.14147000  0.95044000  1.0
  C  C30  1  0.06715000  0.76630000  0.47406000  1.0
  C  C31  1  0.93285000  0.76629000  0.97406000  1.0
  C  C32  1  0.93283000  0.23369000  0.52594000  1.0
  C  C33  1  0.06717000  0.23369000  0.02594000  1.0
  C  C34  1  0.37747000  0.35815000  0.40636000  1.0
  C  C35  1  0.62256000  0.35818000  0.90636000  1.0
  C  C36  1  0.62253000  0.64184000  0.59364000  1.0
  C  C37  1  0.37748000  0.64182000  0.09365000  1.0
  Br  Br38  1  0.97165000  0.49998000  0.25001000  1.0
  Br  Br39  1  0.02837000  0.50005000  0.74999000  1.0
  Br  Br40  1  0.51718000  0.83283000  0.33433000  1.0
  Br  Br41  1  0.48282000  0.83285000  0.83433000  1.0
  Br  Br42  1  0.48279000  0.16718000  0.66568000  1.0
  Br  Br43  1  0.51717000  0.16716000  0.16566000  1.0
  N  N44  1  0.88479000  0.69693000  0.48575000  1.0
  N  N45  1  0.11521000  0.69692000  0.98575000  1.0
  N  N46  1  0.11520000  0.30305000  0.51425000  1.0
  N  N47  1  0.88481000  0.30307000  0.01426000  1.0
  N  N48  1  0.08945000  0.88479000  0.63971000  1.0
  N  N49  1  0.91053000  0.88476000  0.13972000  1.0
  N  N50  1  0.91054000  0.11521000  0.36028000  1.0
  N  N51  1  0.08947000  0.11523000  0.86028000  1.0
  N  N52  1  0.52296000  0.43169000  0.39030000  1.0
  N  N53  1  0.47702000  0.43171000  0.89029000  1.0
  N  N54  1  0.47704000  0.56830000  0.60970000  1.0
  N  N55  1  0.52297000  0.56832000  0.10971000  1.0
