# generated using pymatgen
data_Zn4H8C40N14O41
_symmetry_space_group_name_H-M   'P 1'
_cell_length_a   15.13950000
_cell_length_b   15.14070000
_cell_length_c   19.46690000
_cell_angle_alpha   90.24360000
_cell_angle_beta   89.14780000
_cell_angle_gamma   89.78600000
_symmetry_Int_Tables_number   1
_chemical_formula_structural   Zn4H8C40N14O41
_chemical_formula_sum   'Zn4 H8 C40 N14 O41'
_cell_volume   4461.68787673
_cell_formula_units_Z   1
loop_
 _symmetry_equiv_pos_site_id
 _symmetry_equiv_pos_as_xyz
  1  'x, y, z'
loop_
 _atom_site_type_symbol
 _atom_site_label
 _atom_site_symmetry_multiplicity
 _atom_site_fract_x
 _atom_site_fract_y
 _atom_site_fract_z
 _atom_site_occupancy
  Zn  Zn0  1  0.43055000  0.42511000  0.56332000  1.0
  Zn  Zn1  1  0.41789000  0.56761000  0.44023000  1.0
  Zn  Zn2  1  0.57289000  0.42418000  0.44022000  1.0
  Zn  Zn3  1  0.57410000  0.58255000  0.54913000  1.0
  H  H4  1  0.60724000  0.85183000  0.50860000  1.0
  H  H5  1  0.38721000  0.14930000  0.50711000  1.0
  H  H6  1  0.14852000  0.51869000  0.41598000  1.0
  H  H7  1  0.41824000  0.60143000  0.22225000  1.0
  H  H8  1  0.99933000  0.47852000  0.64370000  1.0
  H  H9  1  0.54506000  0.34664000  0.23602000  1.0
  H  H10  1  0.47066000  0.40121000  0.99032000  1.0
  H  H11  1  0.55461000  0.58624000  0.00557000  1.0
  C  C12  1  0.47966000  0.73683000  0.49560000  1.0
  C  C13  1  0.51756000  0.26377000  0.51232000  1.0
  C  C14  1  0.26269000  0.49347000  0.51368000  1.0
  C  C15  1  0.73417000  0.51491000  0.48162000  1.0
  C  C16  1  0.48446000  0.48312000  0.31447000  1.0
  C  C17  1  0.51599000  0.51132000  0.68073000  1.0
  C  C18  1  0.52238000  0.51629000  0.75819000  1.0
  C  C19  1  0.56524000  0.45078000  0.79558000  1.0
  C  C20  1  0.57216000  0.45707000  0.86673000  1.0
  C  C21  1  0.53323000  0.52659000  0.90457000  1.0
  C  C22  1  0.49419000  0.59420000  0.86598000  1.0
  C  C23  1  0.49019000  0.58971000  0.79450000  1.0
  C  C24  1  0.44960000  0.53477000  0.12709000  1.0
  C  C25  1  0.44755000  0.54303000  0.19817000  1.0
  C  C26  1  0.51789000  0.40035000  0.20592000  1.0
  C  C27  1  0.51962000  0.39454000  0.13473000  1.0
  C  C28  1  0.48807000  0.46230000  0.09186000  1.0
  C  C29  1  0.53020000  0.52701000  0.98017000  1.0
  C  C30  1  0.49546000  0.45986000  0.01635000  1.0
  C  C31  1  0.48292000  0.47548000  0.23801000  1.0
  C  C32  1  0.46881000  0.83518000  0.49928000  1.0
  C  C33  1  0.52601000  0.16520000  0.51564000  1.0
  C  C34  1  0.61589000  0.03260000  0.51318000  1.0
  C  C35  1  0.60955000  0.12311000  0.51748000  1.0
  C  C36  1  0.45052000  0.11534000  0.50937000  1.0
  C  C37  1  0.45521000  0.02224000  0.50360000  1.0
  C  C38  1  0.53954000  0.97892000  0.50683000  1.0
  C  C39  1  0.54394000  0.88576000  0.50551000  1.0
  C  C40  1  0.38563000  0.87730000  0.49421000  1.0
  C  C41  1  0.37929000  0.96811000  0.49617000  1.0
  C  C42  1  0.16438000  0.49854000  0.52285000  1.0
  C  C43  1  0.83369000  0.51561000  0.47812000  1.0
  C  C44  1  0.96863000  0.52312000  0.40963000  1.0
  C  C45  1  0.87782000  0.52611000  0.41432000  1.0
  C  C46  1  0.88352000  0.50316000  0.53620000  1.0
  C  C47  1  0.97742000  0.50040000  0.53436000  1.0
  C  C48  1  0.02095000  0.51098000  0.46875000  1.0
  C  C49  1  0.11429000  0.51061000  0.46506000  1.0
  C  C50  1  0.12021000  0.48634000  0.58677000  1.0
  C  C51  1  0.02973000  0.48664000  0.59315000  1.0
  N  N52  1  0.61076000  0.37683000  0.75852000  1.0
  N  N53  1  0.55898000  0.31264000  0.10511000  1.0
  N  N54  1  0.30450000  0.82312000  0.48892000  1.0
  N  N55  1  0.70332000  0.98872000  0.51737000  1.0
  N  N56  1  0.29119000  0.01058000  0.49236000  1.0
  N  N57  1  0.68990000  0.17726000  0.52642000  1.0
  N  N58  1  0.17089000  0.47992000  0.65114000  1.0
  N  N59  1  0.01403000  0.53735000  0.34255000  1.0
  N  N60  1  0.82461000  0.54254000  0.35247000  1.0
  N  N61  1  0.83552000  0.49023000  0.60242000  1.0
  N  N62  1  0.45024000  0.66862000  0.90307000  1.0
  N  N63  1  0.40381000  0.60588000  0.08888000  1.0
  N  N64  1  0.45423000  0.66494000  0.75496000  1.0
  N  N65  1  0.62565000  0.38951000  0.90261000  1.0
  O  O66  1  0.49834000  0.50025000  0.49905000  1.0
  O  O67  1  0.53924000  0.70528000  0.53377000  1.0
  O  O68  1  0.45704000  0.29895000  0.54905000  1.0
  O  O69  1  0.29518000  0.54165000  0.46641000  1.0
  O  O70  1  0.69826000  0.45548000  0.44569000  1.0
  O  O71  1  0.43776000  0.54432000  0.34200000  1.0
  O  O72  1  0.57062000  0.55957000  0.64822000  1.0
  O  O73  1  0.53299000  0.42740000  0.34530000  1.0
  O  O74  1  0.45916000  0.45862000  0.65785000  1.0
  O  O75  1  0.30307000  0.43915000  0.55177000  1.0
  O  O76  1  0.69856000  0.57289000  0.52005000  1.0
  O  O77  1  0.43093000  0.69584000  0.45373000  1.0
  O  O78  1  0.56960000  0.30081000  0.46963000  1.0
  O  O79  1  0.69190000  0.37522000  0.76324000  1.0
  O  O80  1  0.56408000  0.32528000  0.72627000  1.0
  O  O81  1  0.58373000  0.31410000  0.04423000  1.0
  O  O82  1  0.56413000  0.24807000  0.14354000  1.0
  O  O83  1  0.25973000  0.83373000  0.43718000  1.0
  O  O84  1  0.28958000  0.77237000  0.53700000  1.0
  O  O85  1  0.72707000  0.94499000  0.46664000  1.0
  O  O86  1  0.74350000  0.99813000  0.57153000  1.0
  O  O87  1  0.23522000  0.98729000  0.53523000  1.0
  O  O88  1  0.28162000  0.06647000  0.44693000  1.0
  O  O89  1  0.75224000  0.16302000  0.48626000  1.0
  O  O90  1  0.68695000  0.23193000  0.57358000  1.0
  O  O91  1  0.22561000  0.53878000  0.66108000  1.0
  O  O92  1  0.15229000  0.41841000  0.69011000  1.0
  O  O93  1  0.00624000  0.61135000  0.31711000  1.0
  O  O94  1  0.05765000  0.47467000  0.31946000  1.0
  O  O95  1  0.84523000  0.50122000  0.29988000  1.0
  O  O96  1  0.76357000  0.59656000  0.35915000  1.0
  O  O97  1  0.77663000  0.43393000  0.60318000  1.0
  O  O98  1  0.85805000  0.53688000  0.65132000  1.0
  O  O99  1  0.49674000  0.71153000  0.94253000  1.0
  O  O100  1  0.37102000  0.67937000  0.89222000  1.0
  O  O101  1  0.35067000  0.58273000  0.04475000  1.0
  O  O102  1  0.42083000  0.68262000  0.10591000  1.0
  O  O103  1  0.47499000  0.73954000  0.77452000  1.0
  O  O104  1  0.40879000  0.64659000  0.70473000  1.0
  O  O105  1  0.60316000  0.31189000  0.89476000  1.0
  O  O106  1  0.68843000  0.41735000  0.93567000  1.0
