# generated using pymatgen
data_CdH8C12(SN5)2
_symmetry_space_group_name_H-M   'P 1'
_cell_length_a   8.43300000
_cell_length_b   10.36450000
_cell_length_c   11.00750000
_cell_angle_alpha   118.07700000
_cell_angle_beta   89.99990000
_cell_angle_gamma   90.00000000
_symmetry_Int_Tables_number   1
_chemical_formula_structural   CdH8C12(SN5)2
_chemical_formula_sum   'Cd2 H16 C24 S4 N20'
_cell_volume   848.87401939
_cell_formula_units_Z   2
loop_
 _symmetry_equiv_pos_site_id
 _symmetry_equiv_pos_as_xyz
  1  'x, y, z'
loop_
 _atom_site_type_symbol
 _atom_site_label
 _atom_site_symmetry_multiplicity
 _atom_site_fract_x
 _atom_site_fract_y
 _atom_site_fract_z
 _atom_site_occupancy
  Cd  Cd0  1  0.50003000  0.61742000  0.99995000  1.0
  Cd  Cd1  1  0.99997000  0.11741000  0.99995000  1.0
  H  H2  1  0.74392000  0.82351000  0.91265000  1.0
  H  H3  1  0.25602000  0.91079000  0.08733000  1.0
  H  H4  1  0.24398000  0.41079000  0.08733000  1.0
  H  H5  1  0.75609000  0.32351000  0.91265000  1.0
  H  H6  1  0.66870000  0.03315000  0.55866000  1.0
  H  H7  1  0.33125000  0.47455000  0.44135000  1.0
  H  H8  1  0.16876000  0.97455000  0.44135000  1.0
  H  H9  1  0.83130000  0.53315000  0.55867000  1.0
  H  H10  1  0.87282000  0.21596000  0.56488000  1.0
  H  H11  1  0.12673000  0.65082000  0.43512000  1.0
  H  H12  1  0.37328000  0.15082000  0.43512000  1.0
  H  H13  1  0.62718000  0.71597000  0.56488000  1.0
  H  H14  1  0.96330000  0.19788000  0.33546000  1.0
  H  H15  1  0.03619000  0.86208000  0.66450000  1.0
  H  H16  1  0.46381000  0.36208000  0.66450000  1.0
  H  H17  1  0.53670000  0.69788000  0.33547000  1.0
  C  C18  1  0.74777000  0.87466000  0.02412000  1.0
  C  C19  1  0.25214000  0.85044000  0.97586000  1.0
  C  C20  1  0.24786000  0.35044000  0.97586000  1.0
  C  C21  1  0.75223000  0.37465000  0.02412000  1.0
  C  C22  1  0.70006000  0.92170000  0.23135000  1.0
  C  C23  1  0.29987000  0.69037000  0.76865000  1.0
  C  C24  1  0.20013000  0.19037000  0.76865000  1.0
  C  C25  1  0.79994000  0.42170000  0.23135000  1.0
  C  C26  1  0.71132000  0.03021000  0.46360000  1.0
  C  C27  1  0.28852000  0.56659000  0.53643000  1.0
  C  C28  1  0.21148000  0.06659000  0.53643000  1.0
  C  C29  1  0.78868000  0.53021000  0.46361000  1.0
  C  C30  1  0.82481000  0.13228000  0.46770000  1.0
  C  C31  1  0.17479000  0.66435000  0.53229000  1.0
  C  C32  1  0.32521000  0.16435000  0.53230000  1.0
  C  C33  1  0.67519000  0.63228000  0.46770000  1.0
  C  C34  1  0.87667000  0.12601000  0.34645000  1.0
  C  C35  1  0.12287000  0.77929000  0.65355000  1.0
  C  C36  1  0.37714000  0.27929000  0.65355000  1.0
  C  C37  1  0.62333000  0.62601000  0.34645000  1.0
  C  C38  1  0.19427000  0.70975000  0.21147000  1.0
  C  C39  1  0.80588000  0.49838000  0.78858000  1.0
  C  C40  1  0.69411000  0.99838000  0.78857000  1.0
  C  C41  1  0.30573000  0.20974000  0.21146000  1.0
  S  S42  1  0.00912000  0.73238000  0.25414000  1.0
  S  S43  1  0.99103000  0.47848000  0.74597000  1.0
  S  S44  1  0.50897000  0.97848000  0.74597000  1.0
  S  S45  1  0.49088000  0.23238000  0.25414000  1.0
  N  N46  1  0.84085000  0.98989000  0.09714000  1.0
  N  N47  1  0.15891000  0.89258000  0.90285000  1.0
  N  N48  1  0.34109000  0.39258000  0.90285000  1.0
  N  N49  1  0.65915000  0.48988000  0.09714000  1.0
  N  N50  1  0.66089000  0.82911000  0.09965000  1.0
  N  N51  1  0.33913000  0.72949000  0.90033000  1.0
  N  N52  1  0.16087000  0.22949000  0.90034000  1.0
  N  N53  1  0.83911000  0.32911000  0.09966000  1.0
  N  N54  1  0.64906000  0.92576000  0.34756000  1.0
  N  N55  1  0.35095000  0.57826000  0.65245000  1.0
  N  N56  1  0.14905000  0.07826000  0.65245000  1.0
  N  N57  1  0.85094000  0.42575000  0.34756000  1.0
  N  N58  1  0.81143000  0.02002000  0.22925000  1.0
  N  N59  1  0.18833000  0.79064000  0.77073000  1.0
  N  N60  1  0.31167000  0.29064000  0.77073000  1.0
  N  N61  1  0.68857000  0.52002000  0.22925000  1.0
  N  N62  1  0.33178000  0.69362000  0.18287000  1.0
  N  N63  1  0.66835000  0.51074000  0.81709000  1.0
  N  N64  1  0.83166000  0.01074000  0.81710000  1.0
  N  N65  1  0.16822000  0.19362000  0.18287000  1.0
