# generated using pymatgen
data_CuH18C18S2BrN2
_symmetry_space_group_name_H-M   'P 1'
_cell_length_a   6.47235000
_cell_length_b   12.04690000
_cell_length_c   12.68550000
_cell_angle_alpha   111.28200000
_cell_angle_beta   94.25400000
_cell_angle_gamma   100.50400000
_symmetry_Int_Tables_number   1
_chemical_formula_structural   CuH18C18S2BrN2
_chemical_formula_sum   'Cu2 H36 C36 S4 Br2 N4'
_cell_volume   895.51797004
_cell_formula_units_Z   2
loop_
 _symmetry_equiv_pos_site_id
 _symmetry_equiv_pos_as_xyz
  1  'x, y, z'
loop_
 _atom_site_type_symbol
 _atom_site_label
 _atom_site_symmetry_multiplicity
 _atom_site_fract_x
 _atom_site_fract_y
 _atom_site_fract_z
 _atom_site_occupancy
  Cu  Cu0  1  0.40394000  0.41463000  0.13855000  1.0
  Cu  Cu1  1  0.59606000  0.58536000  0.86144000  1.0
  H  H2  1  0.91470000  0.06240000  0.00972000  1.0
  H  H3  1  0.08531000  0.93759000  0.99028000  1.0
  H  H4  1  0.63740000  0.06099000  0.99831000  1.0
  H  H5  1  0.36261000  0.93901000  0.00168000  1.0
  H  H6  1  0.66186000  0.11744000  0.20078000  1.0
  H  H7  1  0.33814000  0.88255000  0.79922000  1.0
  H  H8  1  0.94350000  0.12518000  0.21202000  1.0
  H  H9  1  0.05651000  0.87482000  0.78798000  1.0
  H  H10  1  0.03824000  0.20476000  0.90623000  1.0
  H  H11  1  0.96177000  0.79522000  0.09376000  1.0
  H  H12  1  0.91961000  0.33238000  0.93192000  1.0
  H  H13  1  0.08042000  0.66761000  0.06808000  1.0
  H  H14  1  0.49110000  0.27360000  0.89006000  1.0
  H  H15  1  0.50895000  0.72642000  0.10996000  1.0
  H  H16  1  0.20219000  0.15041000  0.72682000  1.0
  H  H17  1  0.79780000  0.84963000  0.27323000  1.0
  H  H18  1  0.25762000  0.96569000  0.57051000  1.0
  H  H19  1  0.74232000  0.03432000  0.42953000  1.0
  H  H20  1  0.60342000  0.90284000  0.57993000  1.0
  H  H21  1  0.39649000  0.09715000  0.42009000  1.0
  H  H22  1  0.89134000  0.02668000  0.74325000  1.0
  H  H23  1  0.10860000  0.97331000  0.25674000  1.0
  H  H24  1  0.66748000  0.33507000  0.34583000  1.0
  H  H25  1  0.33253000  0.66493000  0.65417000  1.0
  H  H26  1  0.86792000  0.45608000  0.34315000  1.0
  H  H27  1  0.13208000  0.54393000  0.65685000  1.0
  H  H28  1  0.72793000  0.26457000  0.49151000  1.0
  H  H29  1  0.27209000  0.73542000  0.50848000  1.0
  H  H30  1  0.96818000  0.23816000  0.63828000  1.0
  H  H31  1  0.03185000  0.76182000  0.36170000  1.0
  H  H32  1  0.36169000  0.30103000  0.65039000  1.0
  H  H33  1  0.63834000  0.69895000  0.34959000  1.0
  H  H34  1  0.50999000  0.39090000  0.51654000  1.0
  H  H35  1  0.49003000  0.60909000  0.48344000  1.0
  H  H36  1  0.26754000  0.41209000  0.36633000  1.0
  H  H37  1  0.73246000  0.58791000  0.63366000  1.0
  C  C38  1  0.87033000  0.32371000  0.13122000  1.0
  C  C39  1  0.12967000  0.67629000  0.86878000  1.0
  C  C40  1  0.79547000  0.11356000  0.04498000  1.0
  C  C41  1  0.20454000  0.88644000  0.95502000  1.0
  C  C42  1  0.81088000  0.15168000  0.17525000  1.0
  C  C43  1  0.18913000  0.84832000  0.82475000  1.0
  C  C44  1  0.91726000  0.45393000  0.14588000  1.0
  C  C45  1  0.08274000  0.54607000  0.85411000  1.0
  C  C46  1  0.88980000  0.23632000  0.92279000  1.0
  C  C47  1  0.11022000  0.76367000  0.07720000  1.0
  C  C48  1  0.71174000  0.15946000  0.82570000  1.0
  C  C49  1  0.28825000  0.84055000  0.17431000  1.0
  C  C50  1  0.51577000  0.19287000  0.82142000  1.0
  C  C51  1  0.48425000  0.80715000  0.17859000  1.0
  C  C52  1  0.35336000  0.12309000  0.73011000  1.0
  C  C53  1  0.64663000  0.87693000  0.26992000  1.0
  C  C54  1  0.38439000  0.01940000  0.64224000  1.0
  C  C55  1  0.61556000  0.98062000  0.35779000  1.0
  C  C56  1  0.57796000  0.98448000  0.64699000  1.0
  C  C57  1  0.42198000  0.01552000  0.35303000  1.0
  C  C58  1  0.74050000  0.05440000  0.73870000  1.0
  C  C59  1  0.25946000  0.94559000  0.26130000  1.0
  C  C60  1  0.83412000  0.35994000  0.33384000  1.0
  C  C61  1  0.16588000  0.64006000  0.66615000  1.0
  C  C62  1  0.98203000  0.34162000  0.42082000  1.0
  C  C63  1  0.01798000  0.65838000  0.57918000  1.0
  C  C64  1  0.89985000  0.29178000  0.49692000  1.0
  C  C65  1  0.10016000  0.70822000  0.50307000  1.0
  C  C66  1  0.03530000  0.27636000  0.57910000  1.0
  C  C67  1  0.96473000  0.72363000  0.42089000  1.0
  C  C68  1  0.25532000  0.31162000  0.58580000  1.0
  C  C69  1  0.74470000  0.68838000  0.41418000  1.0
  C  C70  1  0.33837000  0.36147000  0.50988000  1.0
  C  C71  1  0.66164000  0.63853000  0.49012000  1.0
  C  C72  1  0.20294000  0.37553000  0.42717000  1.0
  C  C73  1  0.79706000  0.62448000  0.57282000  1.0
  S  S74  1  0.71314000  0.51665000  0.12375000  1.0
  S  S75  1  0.28686000  0.48334000  0.87624000  1.0
  S  S76  1  0.17342000  0.53280000  0.18530000  1.0
  S  S77  1  0.82658000  0.46720000  0.81469000  1.0
  Br  Br78  1  0.33113000  0.21026000  0.11924000  1.0
  Br  Br79  1  0.66888000  0.78973000  0.88076000  1.0
  N  N80  1  0.84130000  0.23085000  0.03088000  1.0
  N  N81  1  0.15872000  0.76914000  0.96912000  1.0
  N  N82  1  0.85330000  0.28611000  0.21727000  1.0
  N  N83  1  0.14670000  0.71389000  0.78272000  1.0
