# generated using pymatgen
data_BaH9C11N3O5
_symmetry_space_group_name_H-M   'P 1'
_cell_length_a   7.04045000
_cell_length_b   13.28010000
_cell_length_c   14.58900000
_cell_angle_alpha   113.72900000
_cell_angle_beta   90.00000000
_cell_angle_gamma   90.00000000
_symmetry_Int_Tables_number   1
_chemical_formula_structural   BaH9C11N3O5
_chemical_formula_sum   'Ba4 H36 C44 N12 O20'
_cell_volume   1248.72326164
_cell_formula_units_Z   4
loop_
 _symmetry_equiv_pos_site_id
 _symmetry_equiv_pos_as_xyz
  1  'x, y, z'
loop_
 _atom_site_type_symbol
 _atom_site_label
 _atom_site_symmetry_multiplicity
 _atom_site_fract_x
 _atom_site_fract_y
 _atom_site_fract_z
 _atom_site_occupancy
  Ba  Ba0  1  0.54158000  0.65005000  0.46437000  1.0
  Ba  Ba1  1  0.04158000  0.84995000  0.53563000  1.0
  Ba  Ba2  1  0.45842000  0.34995000  0.53563000  1.0
  Ba  Ba3  1  0.95842000  0.15005000  0.46437000  1.0
  H  H4  1  0.93437000  0.30468000  0.75804000  1.0
  H  H5  1  0.43437000  0.19532000  0.24196000  1.0
  H  H6  1  0.06563000  0.69532000  0.24196000  1.0
  H  H7  1  0.56563000  0.80468000  0.75804000  1.0
  H  H8  1  0.02013000  0.19866000  0.79185000  1.0
  H  H9  1  0.52013000  0.30133000  0.20816000  1.0
  H  H10  1  0.97987000  0.80134000  0.20815000  1.0
  H  H11  1  0.47987000  0.69867000  0.79185000  1.0
  H  H12  1  0.74845000  0.46153000  0.87985000  1.0
  H  H13  1  0.24845000  0.03847000  0.12015000  1.0
  H  H14  1  0.25155000  0.53847000  0.12015000  1.0
  H  H15  1  0.75155000  0.96153000  0.87985000  1.0
  H  H16  1  0.66961000  0.57018000  0.06033000  1.0
  H  H17  1  0.16962000  0.92982000  0.93967000  1.0
  H  H18  1  0.33038000  0.42982000  0.93967000  1.0
  H  H19  1  0.83038000  0.07018000  0.06033000  1.0
  H  H20  1  0.95859000  0.20582000  0.96442000  1.0
  H  H21  1  0.45859000  0.29418000  0.03558000  1.0
  H  H22  1  0.04141000  0.79418000  0.03558000  1.0
  H  H23  1  0.54141000  0.70582000  0.96442000  1.0
  H  H24  1  0.87573000  0.32624000  0.14161000  1.0
  H  H25  1  0.37573000  0.17376000  0.85839000  1.0
  H  H26  1  0.12427000  0.67376000  0.85839000  1.0
  H  H27  1  0.62426000  0.82624000  0.14161000  1.0
  H  H28  1  0.53638000  0.29448000  0.73183000  1.0
  H  H29  1  0.03638000  0.20552000  0.26817000  1.0
  H  H30  1  0.46362000  0.70552000  0.26817000  1.0
  H  H31  1  0.96363000  0.79448000  0.73183000  1.0
  H  H32  1  0.40550000  0.51401000  0.25844000  1.0
  H  H33  1  0.90550000  0.98599000  0.74156000  1.0
  H  H34  1  0.59450000  0.48599000  0.74156000  1.0
  H  H35  1  0.09450000  0.01401000  0.25844000  1.0
  H  H36  1  0.61044000  0.52327000  0.21008000  1.0
  H  H37  1  0.11045000  0.97673000  0.78992000  1.0
  H  H38  1  0.38955000  0.47673000  0.78992000  1.0
  H  H39  1  0.88955000  0.02327000  0.21008000  1.0
  C  C40  1  0.54962000  0.91171000  0.60064000  1.0
  C  C41  1  0.04963000  0.58829000  0.39935000  1.0
  C  C42  1  0.45038000  0.08829000  0.39936000  1.0
  C  C43  1  0.95037000  0.41171000  0.60064000  1.0
  C  C44  1  0.57007000  0.03217000  0.66173000  1.0
  C  C45  1  0.07008000  0.46783000  0.33827000  1.0
  C  C46  1  0.42993000  0.96783000  0.33827000  1.0
  C  C47  1  0.92992000  0.53217000  0.66173000  1.0
  C  C48  1  0.46142000  0.12225000  0.66614000  1.0
  C  C49  1  0.96142000  0.37775000  0.33386000  1.0
  C  C50  1  0.53858000  0.87775000  0.33386000  1.0
  C  C51  1  0.03858000  0.62225000  0.66614000  1.0
  C  C52  1  0.27694000  0.13839000  0.62357000  1.0
  C  C53  1  0.77694000  0.36161000  0.37643000  1.0
  C  C54  1  0.72306000  0.86161000  0.37643000  1.0
  C  C55  1  0.22306000  0.63839000  0.62356000  1.0
  C  C56  1  0.73629000  0.17911000  0.74570000  1.0
  C  C57  1  0.23629000  0.32089000  0.25430000  1.0
  C  C58  1  0.26371000  0.82089000  0.25430000  1.0
  C  C59  1  0.76371000  0.67911000  0.74570000  1.0
  C  C60  1  0.89844000  0.25274000  0.79834000  1.0
  C  C61  1  0.39844000  0.24726000  0.20166000  1.0
  C  C62  1  0.10156000  0.74726000  0.20166000  1.0
  C  C63  1  0.60156000  0.75274000  0.79834000  1.0
  C  C64  1  0.85776000  0.32355000  0.90701000  1.0
  C  C65  1  0.35776000  0.17645000  0.09299000  1.0
  C  C66  1  0.14224000  0.67645000  0.09299000  1.0
  C  C67  1  0.64224000  0.82355000  0.90702000  1.0
  C  C68  1  0.77852000  0.42849000  0.93567000  1.0
  C  C69  1  0.27851000  0.07150000  0.06433000  1.0
  C  C70  1  0.22148000  0.57151000  0.06433000  1.0
  C  C71  1  0.72149000  0.92850000  0.93567000  1.0
  C  C72  1  0.73504000  0.48896000  0.03605000  1.0
  C  C73  1  0.23504000  0.01104000  0.96395000  1.0
  C  C74  1  0.26496000  0.51104000  0.96395000  1.0
  C  C75  1  0.76496000  0.98896000  0.03605000  1.0
  C  C76  1  0.89465000  0.28636000  0.98249000  1.0
  C  C77  1  0.39464000  0.21364000  0.01751000  1.0
  C  C78  1  0.10536000  0.71364000  0.01751000  1.0
  C  C79  1  0.60536000  0.78636000  0.98250000  1.0
  C  C80  1  0.84826000  0.35315000  0.08127000  1.0
  C  C81  1  0.34826000  0.14685000  0.91873000  1.0
  C  C82  1  0.15174000  0.64685000  0.91873000  1.0
  C  C83  1  0.65174000  0.85315000  0.08127000  1.0
  N  N84  1  0.73839000  0.06989000  0.71309000  1.0
  N  N85  1  0.23839000  0.43011000  0.28691000  1.0
  N  N86  1  0.26161000  0.93011000  0.28691000  1.0
  N  N87  1  0.76161000  0.56989000  0.71309000  1.0
  N  N88  1  0.57087000  0.21362000  0.71967000  1.0
  N  N89  1  0.07087000  0.28638000  0.28033000  1.0
  N  N90  1  0.42913000  0.78638000  0.28033000  1.0
  N  N91  1  0.92913000  0.71362000  0.71967000  1.0
  N  N92  1  0.76685000  0.45252000  0.10831000  1.0
  N  N93  1  0.26685000  0.04748000  0.89169000  1.0
  N  N94  1  0.23315000  0.54748000  0.89169000  1.0
  N  N95  1  0.73315000  0.95252000  0.10832000  1.0
  O  O96  1  0.67797000  0.84921000  0.61204000  1.0
  O  O97  1  0.17797000  0.65079000  0.38796000  1.0
  O  O98  1  0.32203000  0.15079000  0.38796000  1.0
  O  O99  1  0.82202000  0.34921000  0.61204000  1.0
  O  O100  1  0.41736000  0.87651000  0.53664000  1.0
  O  O101  1  0.91736000  0.62349000  0.46336000  1.0
  O  O102  1  0.58264000  0.12349000  0.46336000  1.0
  O  O103  1  0.08263000  0.37651000  0.53664000  1.0
  O  O104  1  0.15589000  0.06097000  0.59038000  1.0
  O  O105  1  0.65590000  0.43904000  0.40962000  1.0
  O  O106  1  0.84411000  0.93903000  0.40962000  1.0
  O  O107  1  0.34410000  0.56096000  0.59038000  1.0
  O  O108  1  0.25027000  0.23300000  0.62307000  1.0
  O  O109  1  0.75026000  0.26700000  0.37694000  1.0
  O  O110  1  0.74973000  0.76700000  0.37693000  1.0
  O  O111  1  0.24973000  0.73299000  0.62306000  1.0
  O  O112  1  0.50363000  0.56653000  0.25319000  1.0
  O  O113  1  0.00363000  0.93347000  0.74681000  1.0
  O  O114  1  0.49637000  0.43347000  0.74681000  1.0
  O  O115  1  0.99637000  0.06653000  0.25319000  1.0
