# generated using pymatgen
data_CoBH16C15(N4O)2
_symmetry_space_group_name_H-M   'P 1'
_cell_length_a   13.61580000
_cell_length_b   14.74230000
_cell_length_c   15.75660000
_cell_angle_alpha   68.46460000
_cell_angle_beta   64.40350000
_cell_angle_gamma   62.49830000
_symmetry_Int_Tables_number   1
_chemical_formula_structural   CoBH16C15(N4O)2
_chemical_formula_sum   'Co4 B4 H64 C60 N32 O8'
_cell_volume   2473.92903269
_cell_formula_units_Z   4
loop_
 _symmetry_equiv_pos_site_id
 _symmetry_equiv_pos_as_xyz
  1  'x, y, z'
loop_
 _atom_site_type_symbol
 _atom_site_label
 _atom_site_symmetry_multiplicity
 _atom_site_fract_x
 _atom_site_fract_y
 _atom_site_fract_z
 _atom_site_occupancy
  Co  Co0  1  0.89790000  0.94314000  0.81167000  1.0
  Co  Co1  1  0.65270000  0.55685000  0.68833000  1.0
  Co  Co2  1  0.10210000  0.05686000  0.18833000  1.0
  Co  Co3  1  0.34730000  0.44315000  0.31167000  1.0
  B  B4  1  0.74637000  0.25575000  0.01622000  1.0
  B  B5  1  0.01834000  0.24425000  0.48378000  1.0
  B  B6  1  0.25363000  0.74425000  0.98378000  1.0
  B  B7  1  0.98166000  0.75575000  0.51622000  1.0
  H  H8  1  0.52612000  0.02586000  0.83379000  1.0
  H  H9  1  0.38575000  0.47413000  0.66621000  1.0
  H  H10  1  0.47388000  0.97414000  0.16621000  1.0
  H  H11  1  0.61425000  0.52587000  0.33379000  1.0
  H  H12  1  0.57646000  0.88724000  0.85917000  1.0
  H  H13  1  0.32287000  0.61276000  0.64082000  1.0
  H  H14  1  0.42354000  0.11276000  0.14083000  1.0
  H  H15  1  0.67713000  0.38724000  0.35918000  1.0
  H  H16  1  0.42478000  0.94520000  0.00475000  1.0
  H  H17  1  0.37473000  0.55479000  0.49524000  1.0
  H  H18  1  0.57522000  0.05480000  0.99525000  1.0
  H  H19  1  0.62527000  0.44521000  0.50476000  1.0
  H  H20  1  0.56158000  0.88077000  0.02545000  1.0
  H  H21  1  0.46778000  0.61921000  0.47457000  1.0
  H  H22  1  0.43842000  0.11924000  0.97455000  1.0
  H  H23  1  0.53222000  0.38079000  0.52543000  1.0
  H  H24  1  0.53240000  0.26592000  0.01237000  1.0
  H  H25  1  0.81068000  0.23407000  0.48766000  1.0
  H  H26  1  0.46760000  0.73408000  0.98763000  1.0
  H  H27  1  0.18932000  0.76593000  0.51234000  1.0
  H  H28  1  0.83855000  0.17348000  0.84521000  1.0
  H  H29  1  0.85726000  0.32650000  0.65479000  1.0
  H  H30  1  0.16145000  0.82652000  0.15479000  1.0
  H  H31  1  0.14274000  0.67350000  0.34521000  1.0
  H  H32  1  0.71350000  0.06495000  0.14539000  1.0
  H  H33  1  0.92385000  0.43504000  0.35459000  1.0
  H  H34  1  0.28650000  0.93505000  0.85461000  1.0
  H  H35  1  0.07615000  0.56496000  0.64541000  1.0
  H  H36  1  0.63033000  0.34773000  0.18723000  1.0
  H  H37  1  0.16528000  0.15228000  0.31276000  1.0
  H  H38  1  0.36967000  0.65227000  0.81277000  1.0
  H  H39  1  0.83472000  0.84772000  0.68724000  1.0
  H  H40  1  0.92708000  0.07758000  0.08504000  1.0
  H  H41  1  0.08968000  0.42244000  0.41496000  1.0
  H  H42  1  0.07292000  0.92242000  0.91496000  1.0
  H  H43  1  0.91032000  0.57756000  0.58504000  1.0
  H  H44  1  0.78709000  0.90678000  0.05003000  1.0
  H  H45  1  0.74391000  0.59320000  0.44998000  1.0
  H  H46  1  0.21291000  0.09322000  0.94997000  1.0
  H  H47  1  0.25609000  0.40680000  0.55002000  1.0
  H  H48  1  0.33545000  0.35433000  0.15639000  1.0
  H  H49  1  0.84617000  0.14568000  0.34362000  1.0
  H  H50  1  0.66455000  0.64567000  0.84361000  1.0
  H  H51  1  0.15383000  0.85432000  0.65638000  1.0
  H  H52  1  0.60126000  0.41115000  0.89434000  1.0
  H  H53  1  0.90677000  0.08885000  0.60567000  1.0
  H  H54  1  0.39874000  0.58885000  0.10566000  1.0
  H  H55  1  0.09323000  0.91115000  0.39433000  1.0
  H  H56  1  0.78797000  0.40431000  0.06407000  1.0
  H  H57  1  0.25637000  0.09570000  0.43594000  1.0
  H  H58  1  0.21203000  0.59569000  0.93593000  1.0
  H  H59  1  0.74363000  0.90430000  0.56406000  1.0
  H  H60  1  0.92646000  0.43651000  0.71338000  1.0
  H  H61  1  0.07638000  0.06348000  0.78663000  1.0
  H  H62  1  0.07354000  0.56349000  0.28662000  1.0
  H  H63  1  0.92363000  0.93652000  0.21337000  1.0
  H  H64  1  0.95414000  0.29405000  0.88241000  1.0
  H  H65  1  0.13063000  0.20597000  0.61758000  1.0
  H  H66  1  0.04586000  0.70595000  0.11759000  1.0
  H  H67  1  0.86937000  0.79403000  0.38242000  1.0
  H  H68  1  0.96301000  0.31144000  0.14896000  1.0
  H  H69  1  0.42341000  0.18857000  0.35105000  1.0
  H  H70  1  0.03699000  0.68856000  0.85104000  1.0
  H  H71  1  0.57659000  0.81143000  0.64895000  1.0
  C  C72  1  0.57286000  0.95452000  0.87722000  1.0
  C  C73  1  0.40458000  0.54547000  0.62277000  1.0
  C  C74  1  0.42714000  0.04548000  0.12278000  1.0
  C  C75  1  0.59542000  0.45453000  0.37723000  1.0
  C  C76  1  0.50962000  0.95175000  0.98525000  1.0
  C  C77  1  0.44661000  0.54822000  0.51476000  1.0
  C  C78  1  0.49038000  0.04825000  0.01475000  1.0
  C  C79  1  0.55339000  0.45178000  0.48524000  1.0
  C  C80  1  0.52303000  0.29724000  0.06899000  1.0
  C  C81  1  0.88926000  0.20277000  0.43103000  1.0
  C  C82  1  0.47697000  0.70276000  0.93101000  1.0
  C  C83  1  0.11074000  0.79723000  0.56897000  1.0
  C  C84  1  0.81622000  0.12115000  0.91353000  1.0
  C  C85  1  0.85100000  0.37884000  0.58646000  1.0
  C  C86  1  0.18378000  0.87885000  0.08647000  1.0
  C  C87  1  0.14900000  0.62116000  0.41354000  1.0
  C  C88  1  0.75226000  0.06276000  0.06955000  1.0
  C  C89  1  0.88454000  0.43722000  0.43043000  1.0
  C  C90  1  0.24774000  0.93724000  0.93045000  1.0
  C  C91  1  0.11546000  0.56278000  0.56957000  1.0
  C  C92  1  0.57638000  0.33837000  0.15922000  1.0
  C  C93  1  0.07397000  0.16164000  0.34077000  1.0
  C  C94  1  0.42362000  0.66163000  0.84078000  1.0
  C  C95  1  0.92603000  0.83836000  0.65923000  1.0
  C  C96  1  0.91246000  0.15305000  0.09311000  1.0
  C  C97  1  0.15862000  0.34698000  0.40688000  1.0
  C  C98  1  0.08754000  0.84695000  0.90689000  1.0
  C  C99  1  0.84138000  0.65302000  0.59312000  1.0
  C  C100  1  0.78867000  0.98534000  0.02200000  1.0
  C  C101  1  0.79604000  0.51465000  0.47800000  1.0
  C  C102  1  0.21133000  0.01466000  0.97800000  1.0
  C  C103  1  0.20396000  0.48534000  0.52200000  1.0
  C  C104  1  0.42644000  0.34029000  0.14085000  1.0
  C  C105  1  0.90759000  0.15973000  0.35915000  1.0
  C  C106  1  0.57356000  0.65971000  0.85915000  1.0
  C  C107  1  0.09241000  0.84027000  0.64085000  1.0
  C  C108  1  0.69345000  0.39873000  0.86768000  1.0
  C  C109  1  0.95987000  0.10129000  0.63232000  1.0
  C  C110  1  0.30655000  0.60127000  0.13232000  1.0
  C  C111  1  0.04013000  0.89871000  0.36768000  1.0
  C  C112  1  0.84139000  0.32295000  0.08258000  1.0
  C  C113  1  0.24690000  0.17707000  0.41744000  1.0
  C  C114  1  0.15861000  0.67705000  0.91742000  1.0
  C  C115  1  0.75310000  0.82293000  0.58256000  1.0
  C  C116  1  0.86238000  0.41009000  0.77614000  1.0
  C  C117  1  0.04873000  0.08984000  0.72383000  1.0
  C  C118  1  0.13762000  0.58991000  0.22386000  1.0
  C  C119  1  0.95127000  0.91016000  0.27617000  1.0
  C  C120  1  0.87750000  0.33911000  0.85936000  1.0
  C  C121  1  0.07605000  0.16086000  0.64062000  1.0
  C  C122  1  0.12250000  0.66089000  0.14064000  1.0
  C  C123  1  0.92395000  0.83914000  0.35938000  1.0
  C  C124  1  0.92852000  0.27653000  0.12386000  1.0
  C  C125  1  0.32890000  0.22348000  0.37616000  1.0
  C  C126  1  0.07149000  0.72347000  0.87614000  1.0
  C  C127  1  0.67110000  0.77652000  0.62384000  1.0
  C  C128  1  0.69744000  0.94797000  0.84778000  1.0
  C  C129  1  0.49320000  0.55199000  0.65222000  1.0
  C  C130  1  0.30256000  0.05203000  0.15222000  1.0
  C  C131  1  0.50680000  0.44801000  0.34778000  1.0
  N  N132  1  0.46110000  0.36575000  0.19690000  1.0
  N  N133  1  0.02373000  0.13427000  0.30309000  1.0
  N  N134  1  0.53890000  0.63425000  0.80310000  1.0
  N  N135  1  0.97627000  0.86573000  0.69691000  1.0
  N  N136  1  0.82863000  0.02304000  0.92407000  1.0
  N  N137  1  0.77578000  0.47694000  0.57593000  1.0
  N  N138  1  0.17137000  0.97696000  0.07593000  1.0
  N  N139  1  0.22422000  0.52306000  0.42407000  1.0
  N  N140  1  0.77059000  0.14933000  0.99975000  1.0
  N  N141  1  0.91968000  0.35067000  0.50023000  1.0
  N  N142  1  0.22941000  0.85067000  0.00025000  1.0
  N  N143  1  0.08032000  0.64933000  0.49977000  1.0
  N  N144  1  0.97234000  0.16996000  0.12996000  1.0
  N  N145  1  0.27226000  0.33006000  0.37004000  1.0
  N  N146  1  0.02766000  0.83004000  0.87004000  1.0
  N  N147  1  0.72774000  0.66994000  0.62996000  1.0
  N  N148  1  0.61880000  0.29646000  0.08078000  1.0
  N  N149  1  0.99605000  0.20353000  0.41922000  1.0
  N  N150  1  0.38121000  0.70354000  0.91922000  1.0
  N  N151  1  0.00395000  0.79647000  0.58078000  1.0
  N  N152  1  0.74647000  0.44709000  0.78209000  1.0
  N  N153  1  0.97569000  0.05291000  0.71790000  1.0
  N  N154  1  0.25353000  0.55291000  0.21791000  1.0
  N  N155  1  0.02431000  0.94709000  0.28210000  1.0
  N  N156  1  0.76921000  0.33237000  0.91768000  1.0
  N  N157  1  0.01928000  0.16764000  0.58232000  1.0
  N  N158  1  0.23079000  0.66763000  0.08232000  1.0
  N  N159  1  0.98072000  0.83236000  0.41768000  1.0
  N  N160  1  0.83066000  0.24352000  0.06397000  1.0
  N  N161  1  0.13815000  0.25650000  0.43603000  1.0
  N  N162  1  0.16933000  0.75648000  0.93603000  1.0
  N  N163  1  0.86185000  0.74350000  0.56397000  1.0
  O  O164  1  0.76491000  0.87496000  0.89477000  1.0
  O  O165  1  0.53461000  0.62503000  0.60522000  1.0
  O  O166  1  0.23508000  0.12504000  0.10523000  1.0
  O  O167  1  0.46539000  0.37497000  0.39478000  1.0
  O  O168  1  0.73513000  0.01480000  0.77734000  1.0
  O  O169  1  0.52727000  0.48519000  0.72267000  1.0
  O  O170  1  0.26487000  0.98520000  0.22266000  1.0
  O  O171  1  0.47273000  0.51481000  0.27733000  1.0
