# generated using pymatgen
data_Cd3H24C28(BrN2)6
_symmetry_space_group_name_H-M   'P 1'
_cell_length_a   8.25673000
_cell_length_b   9.94398000
_cell_length_c   24.65800000
_cell_angle_alpha   100.92200000
_cell_angle_beta   90.00000000
_cell_angle_gamma   114.52900000
_symmetry_Int_Tables_number   1
_chemical_formula_structural   Cd3H24C28(BrN2)6
_chemical_formula_sum   'Cd6 H48 C56 Br12 N24'
_cell_volume   1801.43888737
_cell_formula_units_Z   2
loop_
 _symmetry_equiv_pos_site_id
 _symmetry_equiv_pos_as_xyz
  1  'x, y, z'
loop_
 _atom_site_type_symbol
 _atom_site_label
 _atom_site_symmetry_multiplicity
 _atom_site_fract_x
 _atom_site_fract_y
 _atom_site_fract_z
 _atom_site_occupancy
  Cd  Cd0  1  0.99048000  0.98258000  0.58097000  1.0
  Cd  Cd1  1  0.00800000  0.01739000  0.91904000  1.0
  Cd  Cd2  1  0.00952000  0.01742000  0.41904000  1.0
  Cd  Cd3  1  0.99200000  0.98261000  0.08096000  1.0
  Cd  Cd4  1  0.00336000  0.00015000  0.74997000  1.0
  Cd  Cd5  1  0.99664000  0.99985000  0.25003000  1.0
  H  H6  1  0.28722000  0.32196000  0.56521000  1.0
  H  H7  1  0.96552000  0.67789000  0.93477000  1.0
  H  H8  1  0.71278000  0.67804000  0.43479000  1.0
  H  H9  1  0.03449000  0.32211000  0.06523000  1.0
  H  H10  1  0.08940000  0.44556000  0.55075000  1.0
  H  H11  1  0.64411000  0.55432000  0.94927000  1.0
  H  H12  1  0.91060000  0.55444000  0.44925000  1.0
  H  H13  1  0.35589000  0.44568000  0.05073000  1.0
  H  H14  1  0.21046000  0.71862000  0.55084000  1.0
  H  H15  1  0.49210000  0.28135000  0.94920000  1.0
  H  H16  1  0.78954000  0.28138000  0.44916000  1.0
  H  H17  1  0.50790000  0.71865000  0.05080000  1.0
  H  H18  1  0.53932000  0.87778000  0.55884000  1.0
  H  H19  1  0.66166000  0.12211000  0.94127000  1.0
  H  H20  1  0.46068000  0.12222000  0.44117000  1.0
  H  H21  1  0.33834000  0.87789000  0.05873000  1.0
  H  H22  1  0.02839000  0.32989000  0.66825000  1.0
  H  H23  1  0.69854000  0.67058000  0.83174000  1.0
  H  H24  1  0.97161000  0.67010000  0.33175000  1.0
  H  H25  1  0.30146000  0.32942000  0.16826000  1.0
  H  H26  1  0.35730000  0.44395000  0.68794000  1.0
  H  H27  1  0.91390000  0.55704000  0.81211000  1.0
  H  H28  1  0.64270000  0.55604000  0.31206000  1.0
  H  H29  1  0.08611000  0.44296000  0.18790000  1.0
  H  H30  1  0.53301000  0.72152000  0.71793000  1.0
  H  H31  1  0.81262000  0.27948000  0.78214000  1.0
  H  H32  1  0.46699000  0.27847000  0.28207000  1.0
  H  H33  1  0.18738000  0.72053000  0.21786000  1.0
  H  H34  1  0.38356000  0.89444000  0.73300000  1.0
  H  H35  1  0.49045000  0.10620000  0.76698000  1.0
  H  H36  1  0.61644000  0.10555000  0.26700000  1.0
  H  H37  1  0.50955000  0.89380000  0.23302000  1.0
  H  H38  1  0.79832000  0.36176000  0.57565000  1.0
  H  H39  1  0.43661000  0.63812000  0.92429000  1.0
  H  H40  1  0.20168000  0.63824000  0.42435000  1.0
  H  H41  1  0.56339000  0.36189000  0.07571000  1.0
  H  H42  1  0.56227000  0.27431000  0.57520000  1.0
  H  H43  1  0.28796000  0.72551000  0.92479000  1.0
  H  H44  1  0.43773000  0.72569000  0.42480000  1.0
  H  H45  1  0.71203000  0.27449000  0.07521000  1.0
  H  H46  1  0.57582000  0.39813000  0.67374000  1.0
  H  H47  1  0.17772000  0.60176000  0.82620000  1.0
  H  H48  1  0.42418000  0.60187000  0.32626000  1.0
  H  H49  1  0.82227000  0.39824000  0.17380000  1.0
  H  H50  1  0.70844000  0.29526000  0.66706000  1.0
  H  H51  1  0.41317000  0.70475000  0.83293000  1.0
  H  H52  1  0.29156000  0.70474000  0.33293000  1.0
  H  H53  1  0.58683000  0.29526000  0.16707000  1.0
  C  C54  1  0.59756000  0.68713000  0.56696000  1.0
  C  C55  1  0.91067000  0.31275000  0.93316000  1.0
  C  C56  1  0.40244000  0.31287000  0.43304000  1.0
  C  C57  1  0.08933000  0.68725000  0.06684000  1.0
  C  C58  1  0.52633000  0.53294000  0.56995000  1.0
  C  C59  1  0.99358000  0.46689000  0.93012000  1.0
  C  C60  1  0.47367000  0.46706000  0.43005000  1.0
  C  C61  1  0.00642000  0.53311000  0.06988000  1.0
  C  C62  1  0.34241000  0.44144000  0.56380000  1.0
  C  C63  1  0.90126000  0.55845000  0.93623000  1.0
  C  C64  1  0.65759000  0.55856000  0.43620000  1.0
  C  C65  1  0.09874000  0.44155000  0.06377000  1.0
  C  C66  1  0.23353000  0.51267000  0.55624000  1.0
  C  C67  1  0.72119000  0.48725000  0.94381000  1.0
  C  C68  1  0.76648000  0.48733000  0.44376000  1.0
  C  C69  1  0.27882000  0.51275000  0.05619000  1.0
  C  C70  1  0.30317000  0.66845000  0.55545000  1.0
  C  C71  1  0.63504000  0.33148000  0.94463000  1.0
  C  C72  1  0.69683000  0.33155000  0.44455000  1.0
  C  C73  1  0.36497000  0.66852000  0.05537000  1.0
  C  C74  1  0.48557000  0.75830000  0.56013000  1.0
  C  C75  1  0.72750000  0.24159000  0.93999000  1.0
  C  C76  1  0.51443000  0.24170000  0.43987000  1.0
  C  C77  1  0.27250000  0.75841000  0.06001000  1.0
  C  C78  1  0.11908000  0.70893000  0.70909000  1.0
  C  C79  1  0.41089000  0.29138000  0.79089000  1.0
  C  C80  1  0.88093000  0.29106000  0.29091000  1.0
  C  C81  1  0.58911000  0.70863000  0.20911000  1.0
  C  C82  1  0.02307000  0.55143000  0.68955000  1.0
  C  C83  1  0.47207000  0.44885000  0.81043000  1.0
  C  C84  1  0.97693000  0.44857000  0.31045000  1.0
  C  C85  1  0.52793000  0.55115000  0.18957000  1.0
  C  C86  1  0.10445000  0.45165000  0.68182000  1.0
  C  C87  1  0.65314000  0.54885000  0.81818000  1.0
  C  C88  1  0.89555000  0.54834000  0.31818000  1.0
  C  C89  1  0.34686000  0.45115000  0.18182000  1.0
  C  C90  1  0.28843000  0.51762000  0.69320000  1.0
  C  C91  1  0.77143000  0.48317000  0.80683000  1.0
  C  C92  1  0.71157000  0.48237000  0.30680000  1.0
  C  C93  1  0.22857000  0.51683000  0.19317000  1.0
  C  C94  1  0.38805000  0.67562000  0.71074000  1.0
  C  C95  1  0.71342000  0.32522000  0.78931000  1.0
  C  C96  1  0.61195000  0.32437000  0.28926000  1.0
  C  C97  1  0.28658000  0.67478000  0.21069000  1.0
  C  C98  1  0.30573000  0.77345000  0.71929000  1.0
  C  C99  1  0.53333000  0.22716000  0.78073000  1.0
  C  C100  1  0.69428000  0.22654000  0.28071000  1.0
  C  C101  1  0.46667000  0.77285000  0.21927000  1.0
  C  C102  1  0.68298000  0.37561000  0.59322000  1.0
  C  C103  1  0.30739000  0.62424000  0.90674000  1.0
  C  C104  1  0.31702000  0.62439000  0.40678000  1.0
  C  C105  1  0.69261000  0.37576000  0.09326000  1.0
  C  C106  1  0.69576000  0.39309000  0.65654000  1.0
  C  C107  1  0.30270000  0.60684000  0.84342000  1.0
  C  C108  1  0.30424000  0.60691000  0.34346000  1.0
  C  C109  1  0.69730000  0.39316000  0.15658000  1.0
  Br  Br110  1  0.80303000  0.04261000  0.67524000  1.0
  Br  Br111  1  0.76072000  0.95805000  0.82474000  1.0
  Br  Br112  1  0.19695000  0.95738000  0.32476000  1.0
  Br  Br113  1  0.23927000  0.04195000  0.17526000  1.0
  Br  Br114  1  0.28102000  0.07937000  0.64444000  1.0
  Br  Br115  1  0.20176000  0.92086000  0.85553000  1.0
  Br  Br116  1  0.71897000  0.92063000  0.35556000  1.0
  Br  Br117  1  0.79821000  0.07912000  0.14446000  1.0
  Br  Br118  1  0.86493000  0.11403000  0.51950000  1.0
  Br  Br119  1  0.75078000  0.88586000  0.98037000  1.0
  Br  Br120  1  0.13507000  0.88597000  0.48050000  1.0
  Br  Br121  1  0.24922000  0.11414000  0.01963000  1.0
  N  N122  1  0.67383000  0.50573000  0.57742000  1.0
  N  N123  1  0.16823000  0.49408000  0.92256000  1.0
  N  N124  1  0.32617000  0.49427000  0.42258000  1.0
  N  N125  1  0.83177000  0.50592000  0.07744000  1.0
  N  N126  1  0.82555000  0.63156000  0.57861000  1.0
  N  N127  1  0.19417000  0.36828000  0.92137000  1.0
  N  N128  1  0.17446000  0.36844000  0.42139000  1.0
  N  N129  1  0.80583000  0.63172000  0.07863000  1.0
  N  N130  1  0.78081000  0.73970000  0.57210000  1.0
  N  N131  1  0.04136000  0.26022000  0.92798000  1.0
  N  N132  1  0.21919000  0.26031000  0.42790000  1.0
  N  N133  1  0.95864000  0.73978000  0.07202000  1.0
  N  N134  1  0.84849000  0.52965000  0.68317000  1.0
  N  N135  1  0.31910000  0.47039000  0.81678000  1.0
  N  N136  1  0.15151000  0.47035000  0.31683000  1.0
  N  N137  1  0.68089000  0.52961000  0.18322000  1.0
  N  N138  1  0.83378000  0.66104000  0.69810000  1.0
  N  N139  1  0.17319000  0.33888000  0.80184000  1.0
  N  N140  1  0.16622000  0.33896000  0.30189000  1.0
  N  N141  1  0.82681000  0.66112000  0.19816000  1.0
  N  N142  1  0.99462000  0.76887000  0.71403000  1.0
  N  N143  1  0.22644000  0.23120000  0.78593000  1.0
  N  N144  1  0.00539000  0.23113000  0.28597000  1.0
  N  N145  1  0.77356000  0.76881000  0.21407000  1.0
