# generated using pymatgen
data_MnH10C14(NO2)2
_symmetry_space_group_name_H-M   'P 1'
_cell_length_a   7.73875000
_cell_length_b   9.31305000
_cell_length_c   9.76671000
_cell_angle_alpha   97.23820000
_cell_angle_beta   104.99000000
_cell_angle_gamma   108.46900000
_symmetry_Int_Tables_number   1
_chemical_formula_structural   MnH10C14(NO2)2
_chemical_formula_sum   'Mn2 H20 C28 N4 O8'
_cell_volume   628.09858857
_cell_formula_units_Z   2
loop_
 _symmetry_equiv_pos_site_id
 _symmetry_equiv_pos_as_xyz
  1  'x, y, z'
loop_
 _atom_site_type_symbol
 _atom_site_label
 _atom_site_symmetry_multiplicity
 _atom_site_fract_x
 _atom_site_fract_y
 _atom_site_fract_z
 _atom_site_occupancy
  Mn  Mn0  1  0.71188000  0.96094000  0.51801000  1.0
  Mn  Mn1  1  0.28813000  0.03906000  0.48198000  1.0
  H  H2  1  0.72906000  0.42357000  0.33690000  1.0
  H  H3  1  0.27095000  0.57643000  0.66311000  1.0
  H  H4  1  0.05282000  0.42876000  0.39044000  1.0
  H  H5  1  0.94719000  0.57124000  0.60956000  1.0
  H  H6  1  0.97412000  0.98449000  0.83700000  1.0
  H  H7  1  0.02588000  0.01550000  0.16300000  1.0
  H  H8  1  0.22385000  0.18617000  0.04843000  1.0
  H  H9  1  0.77615000  0.81383000  0.95157000  1.0
  H  H10  1  0.06520000  0.52950000  0.83990000  1.0
  H  H11  1  0.93479000  0.47049000  0.16010000  1.0
  H  H12  1  0.83244000  0.31230000  0.63308000  1.0
  H  H13  1  0.16756000  0.68770000  0.36691000  1.0
  H  H14  1  0.29726000  0.37126000  0.25322000  1.0
  H  H15  1  0.70273000  0.62874000  0.74678000  1.0
  H  H16  1  0.51489000  0.60047000  0.45345000  1.0
  H  H17  1  0.48511000  0.39953000  0.54655000  1.0
  H  H18  1  0.36415000  0.68118000  0.95688000  1.0
  H  H19  1  0.63584000  0.31882000  0.04312000  1.0
  H  H20  1  0.57027000  0.89399000  0.17062000  1.0
  H  H21  1  0.42972000  0.10602000  0.82938000  1.0
  C  C22  1  0.57441000  0.17788000  0.31726000  1.0
  C  C23  1  0.42560000  0.82212000  0.68275000  1.0
  C  C24  1  0.75522000  0.31611000  0.34807000  1.0
  C  C25  1  0.24480000  0.68390000  0.65193000  1.0
  C  C26  1  0.93624000  0.31953000  0.37674000  1.0
  C  C27  1  0.06377000  0.68047000  0.62326000  1.0
  C  C28  1  0.99462000  0.18362000  0.38881000  1.0
  C  C29  1  0.00540000  0.81638000  0.61119000  1.0
  C  C30  1  0.00069000  0.10713000  0.84152000  1.0
  C  C31  1  0.99931000  0.89287000  0.15848000  1.0
  C  C32  1  0.13719000  0.22046000  0.96083000  1.0
  C  C33  1  0.86281000  0.77954000  0.03917000  1.0
  C  C34  1  0.16703000  0.37758000  0.96260000  1.0
  C  C35  1  0.83297000  0.62241000  0.03740000  1.0
  C  C36  1  0.05374000  0.41062000  0.84281000  1.0
  C  C37  1  0.94626000  0.58938000  0.15719000  1.0
  C  C38  1  0.92246000  0.29014000  0.72757000  1.0
  C  C39  1  0.07754000  0.70986000  0.27243000  1.0
  C  C40  1  0.47576000  0.61171000  0.34092000  1.0
  C  C41  1  0.52423000  0.38829000  0.65908000  1.0
  C  C42  1  0.35631000  0.48398000  0.22806000  1.0
  C  C43  1  0.64369000  0.51602000  0.77193000  1.0
  C  C44  1  0.30707000  0.50538000  0.08517000  1.0
  C  C45  1  0.69292000  0.49461000  0.91483000  1.0
  C  C46  1  0.38857000  0.65546000  0.06457000  1.0
  C  C47  1  0.61143000  0.34454000  0.93543000  1.0
  C  C48  1  0.50722000  0.77640000  0.18418000  1.0
  C  C49  1  0.49277000  0.22360000  0.81582000  1.0
  N  N50  1  0.89541000  0.13982000  0.72507000  1.0
  N  N51  1  0.10459000  0.86017000  0.27493000  1.0
  N  N52  1  0.54950000  0.75639000  0.32111000  1.0
  N  N53  1  0.45049000  0.24361000  0.67889000  1.0
  O  O54  1  0.54818000  0.11558000  0.42609000  1.0
  O  O55  1  0.45183000  0.88442000  0.57391000  1.0
  O  O56  1  0.45843000  0.13881000  0.19197000  1.0
  O  O57  1  0.54158000  0.86120000  0.80803000  1.0
  O  O58  1  0.87245000  0.05334000  0.38667000  1.0
  O  O59  1  0.12757000  0.94666000  0.61333000  1.0
  O  O60  1  0.16967000  0.20477000  0.39825000  1.0
  O  O61  1  0.83034000  0.79523000  0.60174000  1.0
