# generated using pymatgen
data_CuH22C20(NO3)2
_symmetry_space_group_name_H-M   'P 1'
_cell_length_a   7.91442000
_cell_length_b   8.99796000
_cell_length_c   13.06780000
_cell_angle_alpha   88.65560000
_cell_angle_beta   89.99970000
_cell_angle_gamma   89.99950000
_symmetry_Int_Tables_number   1
_chemical_formula_structural   CuH22C20(NO3)2
_chemical_formula_sum   'Cu2 H44 C40 N4 O12'
_cell_volume   930.34936444
_cell_formula_units_Z   2
loop_
 _symmetry_equiv_pos_site_id
 _symmetry_equiv_pos_as_xyz
  1  'x, y, z'
loop_
 _atom_site_type_symbol
 _atom_site_label
 _atom_site_symmetry_multiplicity
 _atom_site_fract_x
 _atom_site_fract_y
 _atom_site_fract_z
 _atom_site_occupancy
  Cu  Cu0  1  0.00000000  0.50000000  0.50000000  1.0
  Cu  Cu1  1  0.50000000  0.00000000  0.00000000  1.0
  H  H2  1  0.54706000  0.38041000  0.52579000  1.0
  H  H3  1  0.04707000  0.11959000  0.97421000  1.0
  H  H4  1  0.45294000  0.61959000  0.47421000  1.0
  H  H5  1  0.95294000  0.88041000  0.02579000  1.0
  H  H6  1  0.54581000  0.30444000  0.65154000  1.0
  H  H7  1  0.04581000  0.19556000  0.84847000  1.0
  H  H8  1  0.45420000  0.69556000  0.34846000  1.0
  H  H9  1  0.95419000  0.80445000  0.15154000  1.0
  H  H10  1  0.62509000  0.05653000  0.66909000  1.0
  H  H11  1  0.12509000  0.44346000  0.83092000  1.0
  H  H12  1  0.37491000  0.94347000  0.33091000  1.0
  H  H13  1  0.87491000  0.55654000  0.16909000  1.0
  H  H14  1  0.35708000  0.19840000  0.39762000  1.0
  H  H15  1  0.85709000  0.30160000  0.10239000  1.0
  H  H16  1  0.64291000  0.80160000  0.60238000  1.0
  H  H17  1  0.14292000  0.69840000  0.89762000  1.0
  H  H18  1  0.16870000  0.78471000  0.48152000  1.0
  H  H19  1  0.66870000  0.71527000  0.01848000  1.0
  H  H20  1  0.83131000  0.21527000  0.51848000  1.0
  H  H21  1  0.33130000  0.28473000  0.98151000  1.0
  H  H22  1  0.18450000  0.02023000  0.58185000  1.0
  H  H23  1  0.68450000  0.47975000  0.91815000  1.0
  H  H24  1  0.81551000  0.97976000  0.41815000  1.0
  H  H25  1  0.31549000  0.52025000  0.08184000  1.0
  H  H26  1  0.86395000  0.57939000  0.69937000  1.0
  H  H27  1  0.36396000  0.92060000  0.80064000  1.0
  H  H28  1  0.13605000  0.42060000  0.30063000  1.0
  H  H29  1  0.63604000  0.07941000  0.19936000  1.0
  H  H30  1  0.02261000  0.03388000  0.74565000  1.0
  H  H31  1  0.52263000  0.46611000  0.75436000  1.0
  H  H32  1  0.97738000  0.96612000  0.25435000  1.0
  H  H33  1  0.47737000  0.53389000  0.24564000  1.0
  H  H34  1  0.85781000  0.80892000  0.80689000  1.0
  H  H35  1  0.35782000  0.69107000  0.69311000  1.0
  H  H36  1  0.14219000  0.19108000  0.19311000  1.0
  H  H37  1  0.64217000  0.30893000  0.30689000  1.0
  H  H38  1  0.00293000  0.68381000  0.32706000  1.0
  H  H39  1  0.50292000  0.81619000  0.17293000  1.0
  H  H40  1  0.99707000  0.31620000  0.67294000  1.0
  H  H41  1  0.49708000  0.18381000  0.82707000  1.0
  H  H42  1  0.17784000  0.70991000  0.26915000  1.0
  H  H43  1  0.67784000  0.79009000  0.23084000  1.0
  H  H44  1  0.82216000  0.29009000  0.73085000  1.0
  H  H45  1  0.32216000  0.20991000  0.76915000  1.0
  C  C46  1  0.49022000  0.14581000  0.53789000  1.0
  C  C47  1  0.99022000  0.35419000  0.96212000  1.0
  C  C48  1  0.50978000  0.85420000  0.46211000  1.0
  C  C49  1  0.00978000  0.64581000  0.03788000  1.0
  C  C50  1  0.48118000  0.30195000  0.57748000  1.0
  C  C51  1  0.98118000  0.19805000  0.92253000  1.0
  C  C52  1  0.51882000  0.69805000  0.42252000  1.0
  C  C53  1  0.01882000  0.80196000  0.07747000  1.0
  C  C54  1  0.56973000  0.03200000  0.59488000  1.0
  C  C55  1  0.06974000  0.46800000  0.90512000  1.0
  C  C56  1  0.43027000  0.96800000  0.40512000  1.0
  C  C57  1  0.93026000  0.53200000  0.09489000  1.0
  C  C58  1  0.42036000  0.11152000  0.44277000  1.0
  C  C59  1  0.92037000  0.38849000  0.05723000  1.0
  C  C60  1  0.57964000  0.88848000  0.55723000  1.0
  C  C61  1  0.07964000  0.61151000  0.94278000  1.0
  C  C62  1  0.29782000  0.35088000  0.59095000  1.0
  C  C63  1  0.79782000  0.14913000  0.90905000  1.0
  C  C64  1  0.70219000  0.64912000  0.40905000  1.0
  C  C65  1  0.20218000  0.85088000  0.09095000  1.0
  C  C66  1  0.10543000  0.79578000  0.55507000  1.0
  C  C67  1  0.60543000  0.70421000  0.94493000  1.0
  C  C68  1  0.89458000  0.20421000  0.44493000  1.0
  C  C69  1  0.39457000  0.29580000  0.05506000  1.0
  C  C70  1  0.11088000  0.92595000  0.61042000  1.0
  C  C71  1  0.61088000  0.57404000  0.88959000  1.0
  C  C72  1  0.88913000  0.07404000  0.38959000  1.0
  C  C73  1  0.38911000  0.42596000  0.11041000  1.0
  C  C74  1  0.93083000  0.68119000  0.67718000  1.0
  C  C75  1  0.43084000  0.81880000  0.82283000  1.0
  C  C76  1  0.06916000  0.31880000  0.32283000  1.0
  C  C77  1  0.56915000  0.18121000  0.17717000  1.0
  C  C78  1  0.02089000  0.93267000  0.70183000  1.0
  C  C79  1  0.52091000  0.56732000  0.79817000  1.0
  C  C80  1  0.97910000  0.06733000  0.29817000  1.0
  C  C81  1  0.47909000  0.43268000  0.20183000  1.0
  C  C82  1  0.92959000  0.80846000  0.73577000  1.0
  C  C83  1  0.42960000  0.69154000  0.76423000  1.0
  C  C84  1  0.07040000  0.19154000  0.26423000  1.0
  C  C85  1  0.57039000  0.30846000  0.23577000  1.0
  N  N86  1  0.01709000  0.67607000  0.58836000  1.0
  N  N87  1  0.51710000  0.82392000  0.91164000  1.0
  N  N88  1  0.98291000  0.32392000  0.41164000  1.0
  N  N89  1  0.48290000  0.17609000  0.08835000  1.0
  O  O90  1  0.24203000  0.44429000  0.52342000  1.0
  O  O91  1  0.74203000  0.05570000  0.97658000  1.0
  O  O92  1  0.75797000  0.55570000  0.47658000  1.0
  O  O93  1  0.25797000  0.94430000  0.02342000  1.0
  O  O94  1  0.12659000  0.66706000  0.33244000  1.0
  O  O95  1  0.62659000  0.83294000  0.16756000  1.0
  O  O96  1  0.87341000  0.33294000  0.66756000  1.0
  O  O97  1  0.37341000  0.16706000  0.83244000  1.0
  O  O98  1  0.21321000  0.29530000  0.66468000  1.0
  O  O99  1  0.71322000  0.20470000  0.83533000  1.0
  O  O100  1  0.78679000  0.70470000  0.33532000  1.0
  O  O101  1  0.28678000  0.79530000  0.16467000  1.0
