# generated using pymatgen
data_K3CdH18C14N3O10
_symmetry_space_group_name_H-M   'P 1'
_cell_length_a   8.75841000
_cell_length_b   9.06021000
_cell_length_c   15.28380000
_cell_angle_alpha   97.64740000
_cell_angle_beta   96.22020000
_cell_angle_gamma   104.51900000
_symmetry_Int_Tables_number   1
_chemical_formula_structural   K3CdH18C14N3O10
_chemical_formula_sum   'K6 Cd2 H36 C28 N6 O20'
_cell_volume   1150.87880876
_cell_formula_units_Z   2
loop_
 _symmetry_equiv_pos_site_id
 _symmetry_equiv_pos_as_xyz
  1  'x, y, z'
loop_
 _atom_site_type_symbol
 _atom_site_label
 _atom_site_symmetry_multiplicity
 _atom_site_fract_x
 _atom_site_fract_y
 _atom_site_fract_z
 _atom_site_occupancy
  K  K0  1  0.83463000  0.33009000  0.53889000  1.0
  K  K1  1  0.16536000  0.66990000  0.46111000  1.0
  K  K2  1  0.36894000  0.28916000  0.52448000  1.0
  K  K3  1  0.63106000  0.71084000  0.47552000  1.0
  K  K4  1  0.70188000  0.62004000  0.09847000  1.0
  K  K5  1  0.29812000  0.37996000  0.90152000  1.0
  Cd  Cd6  1  0.77554000  0.95159000  0.74189000  1.0
  Cd  Cd7  1  0.22446000  0.04840000  0.25811000  1.0
  H  H8  1  0.46892000  0.06610000  0.91867000  1.0
  H  H9  1  0.53108000  0.93390000  0.08132000  1.0
  H  H10  1  0.63499000  0.99365000  0.94733000  1.0
  H  H11  1  0.36501000  0.00635000  0.05267000  1.0
  H  H12  1  0.38566000  0.78833000  0.87953000  1.0
  H  H13  1  0.61434000  0.21167000  0.12047000  1.0
  H  H14  1  0.38197000  0.87048000  0.78073000  1.0
  H  H15  1  0.61803000  0.12952000  0.21927000  1.0
  H  H16  1  0.57150000  0.59664000  0.88532000  1.0
  H  H17  1  0.42850000  0.40336000  0.11469000  1.0
  H  H18  1  0.69397000  0.78505000  0.92356000  1.0
  H  H19  1  0.30602000  0.21495000  0.07644000  1.0
  H  H20  1  0.84217000  0.58923000  0.87717000  1.0
  H  H21  1  0.15783000  0.41078000  0.12283000  1.0
  H  H22  1  0.74358000  0.56075000  0.76633000  1.0
  H  H23  1  0.25643000  0.43925000  0.23368000  1.0
  H  H24  1  0.52850000  0.27138000  0.80583000  1.0
  H  H25  1  0.47150000  0.72862000  0.19417000  1.0
  H  H26  1  0.45583000  0.08145000  0.74235000  1.0
  H  H27  1  0.54417000  0.91855000  0.25765000  1.0
  H  H28  1  0.85316000  0.30584000  0.85850000  1.0
  H  H29  1  0.14683000  0.69416000  0.14150000  1.0
  H  H30  1  0.86146000  0.17607000  0.93383000  1.0
  H  H31  1  0.13854000  0.82393000  0.06617000  1.0
  H  H32  1  0.34587000  0.59119000  0.73934000  1.0
  H  H33  1  0.65413000  0.40880000  0.26066000  1.0
  H  H34  1  0.52266000  0.54471000  0.71511000  1.0
  H  H35  1  0.47734000  0.45530000  0.28489000  1.0
  H  H36  1  0.02632000  0.61749000  0.75121000  1.0
  H  H37  1  0.97368000  0.38251000  0.24880000  1.0
  H  H38  1  0.11946000  0.81500000  0.75246000  1.0
  H  H39  1  0.88055000  0.18501000  0.24755000  1.0
  H  H40  1  0.09304000  0.80832000  0.91545000  1.0
  H  H41  1  0.90696000  0.19169000  0.08456000  1.0
  H  H42  1  0.93223000  0.88404000  0.94081000  1.0
  H  H43  1  0.06776000  0.11597000  0.05919000  1.0
  C  C44  1  0.55489000  0.00953000  0.89084000  1.0
  C  C45  1  0.44511000  0.99048000  0.10916000  1.0
  C  C46  1  0.46207000  0.85343000  0.83672000  1.0
  C  C47  1  0.53793000  0.14657000  0.16328000  1.0
  C  C48  1  0.64920000  0.69674000  0.86359000  1.0
  C  C49  1  0.35080000  0.30326000  0.13641000  1.0
  C  C50  1  0.78714000  0.64628000  0.82777000  1.0
  C  C51  1  0.21286000  0.35372000  0.17223000  1.0
  C  C52  1  0.56420000  0.17238000  0.77322000  1.0
  C  C53  1  0.43580000  0.82762000  0.22678000  1.0
  C  C54  1  0.65159000  0.22202000  0.69595000  1.0
  C  C55  1  0.34840000  0.77798000  0.30405000  1.0
  C  C56  1  0.78141000  0.23216000  0.89916000  1.0
  C  C57  1  0.21859000  0.76784000  0.10084000  1.0
  C  C58  1  0.72718000  0.33754000  0.97060000  1.0
  C  C59  1  0.27282000  0.66245000  0.02940000  1.0
  C  C60  1  0.46751000  0.64105000  0.72437000  1.0
  C  C61  1  0.53249000  0.35895000  0.27563000  1.0
  C  C62  1  0.44965000  0.69368000  0.63354000  1.0
  C  C63  1  0.55036000  0.30633000  0.36646000  1.0
  C  C64  1  0.00281000  0.72887000  0.74198000  1.0
  C  C65  1  0.99719000  0.27113000  0.25803000  1.0
  C  C66  1  0.93592000  0.72047000  0.64374000  1.0
  C  C67  1  0.06409000  0.27953000  0.35626000  1.0
  C  C68  1  0.00863000  0.86969000  0.88932000  1.0
  C  C69  1  0.99136000  0.13031000  0.11068000  1.0
  C  C70  1  0.09772000  0.03204000  0.87839000  1.0
  C  C71  1  0.90228000  0.96796000  0.12161000  1.0
  N  N72  1  0.65574000  0.11016000  0.83852000  1.0
  N  N73  1  0.34426000  0.88984000  0.16148000  1.0
  N  N74  1  0.56219000  0.76130000  0.79728000  1.0
  N  N75  1  0.43781000  0.23870000  0.20271000  1.0
  N  N76  1  0.90732000  0.77821000  0.80739000  1.0
  N  N77  1  0.09268000  0.22179000  0.19261000  1.0
  O  O78  1  0.76533000  0.16518000  0.67558000  1.0
  O  O79  1  0.23467000  0.83482000  0.32442000  1.0
  O  O80  1  0.60249000  0.31744000  0.65455000  1.0
  O  O81  1  0.39751000  0.68255000  0.34545000  1.0
  O  O82  1  0.82018000  0.38410000  0.04421000  1.0
  O  O83  1  0.17980000  0.61589000  0.95578000  1.0
  O  O84  1  0.59769000  0.37421000  0.95163000  1.0
  O  O85  1  0.40230000  0.62578000  0.04836000  1.0
  O  O86  1  0.50763000  0.83416000  0.62699000  1.0
  O  O87  1  0.49237000  0.16584000  0.37301000  1.0
  O  O88  1  0.37899000  0.58639000  0.56838000  1.0
  O  O89  1  0.62101000  0.41361000  0.43161000  1.0
  O  O90  1  0.84717000  0.80730000  0.62402000  1.0
  O  O91  1  0.15283000  0.19269000  0.37598000  1.0
  O  O92  1  0.97957000  0.63148000  0.58679000  1.0
  O  O93  1  0.02044000  0.36852000  0.41322000  1.0
  O  O94  1  0.04955000  0.09151000  0.81288000  1.0
  O  O95  1  0.95045000  0.90848000  0.18711000  1.0
  O  O96  1  0.21432000  0.10002000  0.93886000  1.0
  O  O97  1  0.78568000  0.89999000  0.06114000  1.0
