# generated using pymatgen
data_ZnH11C23N3(O2F)2
_symmetry_space_group_name_H-M   'P 1'
_cell_length_a   21.55420000
_cell_length_b   21.56808428
_cell_length_c   21.58210000
_cell_angle_alpha   63.24805257
_cell_angle_beta   63.22810000
_cell_angle_gamma   60.10237336
_symmetry_Int_Tables_number   1
_chemical_formula_structural   ZnH11C23N3(O2F)2
_chemical_formula_sum   'Zn4 H44 C92 N12 O16 F8'
_cell_volume   7428.33767269
_cell_formula_units_Z   4
loop_
 _symmetry_equiv_pos_site_id
 _symmetry_equiv_pos_as_xyz
  1  'x, y, z'
loop_
 _atom_site_type_symbol
 _atom_site_label
 _atom_site_symmetry_multiplicity
 _atom_site_fract_x
 _atom_site_fract_y
 _atom_site_fract_z
 _atom_site_occupancy
  Zn  Zn0  1  0.95641000  0.95311000  0.54137000  1.0
  Zn  Zn1  1  0.04675000  0.04325000  0.45876000  1.0
  Zn  Zn2  1  0.54699000  0.54354000  0.95858000  1.0
  Zn  Zn3  1  0.45670000  0.45328000  0.04117000  1.0
  H  H4  1  0.61070000  0.60864000  0.80846000  1.0
  H  H5  1  0.69085000  0.68595000  0.72789000  1.0
  H  H6  1  0.69580000  0.69372000  0.92173000  1.0
  H  H7  1  0.80688000  0.80362000  0.57832000  1.0
  H  H8  1  0.81373000  0.80956000  0.77213000  1.0
  H  H9  1  0.89097000  0.88977000  0.69153000  1.0
  H  H10  1  0.39179000  0.38917000  0.19124000  1.0
  H  H11  1  0.31444000  0.30888000  0.27210000  1.0
  H  H12  1  0.30584000  0.30441000  0.07845000  1.0
  H  H13  1  0.19562000  0.19396000  0.42175000  1.0
  H  H14  1  0.19111000  0.18566000  0.22798000  1.0
  H  H15  1  0.11085000  0.10827000  0.30874000  1.0
  H  H16  1  0.20557000  0.92558000  0.57770000  1.0
  H  H17  1  0.31738000  0.89510000  0.61250000  1.0
  H  H18  1  0.06848000  0.79365000  0.70330000  1.0
  H  H19  1  0.29552000  0.57013000  0.92185000  1.0
  H  H20  1  0.18251000  0.60184000  0.88865000  1.0
  H  H21  1  0.42888000  0.70607000  0.80034000  1.0
  H  H22  1  0.92752000  0.20736000  0.30150000  1.0
  H  H23  1  0.89524000  0.31864000  0.19411000  1.0
  H  H24  1  0.79645000  0.06921000  0.42136000  1.0
  H  H25  1  0.56920000  0.29305000  0.20311000  1.0
  H  H26  1  0.60283000  0.18038000  0.30923000  1.0
  H  H27  1  0.70415000  0.42716000  0.07885000  1.0
  H  H28  1  0.20716000  0.93062000  0.29678000  1.0
  H  H29  1  0.31965000  0.89713000  0.19042000  1.0
  H  H30  1  0.07327000  0.79547000  0.42172000  1.0
  H  H31  1  0.29271000  0.57227000  0.19885000  1.0
  H  H32  1  0.18168000  0.60435000  0.30657000  1.0
  H  H33  1  0.43049000  0.70371000  0.07820000  1.0
  H  H34  1  0.92910000  0.20521000  0.57709000  1.0
  H  H35  1  0.89714000  0.31853000  0.60988000  1.0
  H  H36  1  0.79283000  0.07219000  0.69873000  1.0
  H  H37  1  0.57379000  0.29512000  0.92174000  1.0
  H  H38  1  0.60359000  0.18393000  0.88646000  1.0
  H  H39  1  0.70604000  0.43187000  0.79606000  1.0
  H  H40  1  0.56256000  0.59809000  0.03876000  1.0
  H  H41  1  0.61897000  0.63650000  0.03538000  1.0
  H  H42  1  0.90240000  0.93691000  0.46117000  1.0
  H  H43  1  0.86424000  0.88026000  0.46461000  1.0
  H  H44  1  0.40138000  0.43798000  0.96136000  1.0
  H  H45  1  0.36306000  0.38142000  0.96459000  1.0
  H  H46  1  0.06200000  0.09843000  0.53872000  1.0
  H  H47  1  0.11858000  0.13667000  0.53558000  1.0
  C  C48  1  0.91711000  0.08497000  0.41307000  1.0
  C  C49  1  0.08795000  0.91660000  0.41225000  1.0
  C  C50  1  0.08361000  0.91270000  0.58740000  1.0
  C  C51  1  0.91474000  0.08382000  0.58609000  1.0
  C  C52  1  0.41477000  0.58301000  0.08677000  1.0
  C  C53  1  0.58319000  0.41235000  0.08789000  1.0
  C  C54  1  0.58735000  0.41648000  0.91244000  1.0
  C  C55  1  0.41665000  0.58471000  0.91337000  1.0
  C  C56  1  0.63067000  0.62924000  0.83090000  1.0
  C  C57  1  0.67488000  0.67115000  0.78662000  1.0
  C  C58  1  0.69888000  0.69429000  0.82079000  1.0
  C  C59  1  0.67743000  0.67519000  0.89582000  1.0
  C  C60  1  0.63069000  0.63322000  0.93763000  1.0
  C  C61  1  0.82518000  0.82224000  0.60420000  1.0
  C  C62  1  0.80584000  0.80105000  0.67924000  1.0
  C  C63  1  0.82871000  0.82535000  0.71338000  1.0
  C  C64  1  0.87059000  0.86958000  0.66909000  1.0
  C  C65  1  0.86709000  0.86904000  0.56238000  1.0
  C  C66  1  0.37092000  0.36930000  0.16897000  1.0
  C  C67  1  0.32904000  0.32502000  0.21336000  1.0
  C  C68  1  0.30569000  0.30113000  0.17928000  1.0
  C  C69  1  0.32455000  0.32274000  0.10424000  1.0
  C  C70  1  0.36645000  0.36957000  0.06239000  1.0
  C  C71  1  0.17730000  0.17530000  0.39591000  1.0
  C  C72  1  0.19889000  0.19424000  0.32086000  1.0
  C  C73  1  0.17501000  0.17097000  0.28671000  1.0
  C  C74  1  0.13076000  0.12907000  0.33107000  1.0
  C  C75  1  0.13046000  0.13342000  0.43772000  1.0
  C  C76  1  0.19459000  0.87855000  0.62359000  1.0
  C  C77  1  0.24148000  0.83389000  0.66867000  1.0
  C  C78  1  0.30455000  0.84828000  0.65720000  1.0
  C  C79  1  0.11689000  0.80384000  0.69440000  1.0
  C  C80  1  0.16312000  0.75742000  0.73986000  1.0
  C  C81  1  0.15076000  0.69446000  0.79952000  1.0
  C  C82  1  0.30614000  0.61777000  0.87675000  1.0
  C  C83  1  0.25844000  0.66305000  0.83249000  1.0
  C  C84  1  0.19518000  0.64885000  0.84414000  1.0
  C  C85  1  0.38167000  0.69463000  0.80811000  1.0
  C  C86  1  0.33598000  0.74037000  0.76207000  1.0
  C  C87  1  0.34847000  0.80323000  0.70229000  1.0
  C  C88  1  0.13291000  0.86381000  0.63644000  1.0
  C  C89  1  0.22622000  0.77192000  0.72774000  1.0
  C  C90  1  0.36693000  0.63343000  0.86485000  1.0
  C  C91  1  0.27334000  0.72540000  0.77375000  1.0
  C  C92  1  0.88058000  0.19567000  0.30876000  1.0
  C  C93  1  0.83496000  0.24209000  0.26256000  1.0
  C  C94  1  0.84838000  0.30533000  0.20396000  1.0
  C  C95  1  0.80672000  0.11718000  0.37684000  1.0
  C  C96  1  0.75937000  0.16285000  0.33239000  1.0
  C  C97  1  0.69638000  0.14968000  0.34178000  1.0
  C  C98  1  0.61728000  0.30362000  0.19471000  1.0
  C  C99  1  0.66326000  0.25682000  0.24057000  1.0
  C  C100  1  0.64989000  0.19351000  0.29911000  1.0
  C  C101  1  0.69340000  0.37992000  0.12433000  1.0
  C  C102  1  0.73973000  0.33519000  0.16980000  1.0
  C  C103  1  0.80249000  0.34857000  0.16067000  1.0
  C  C104  1  0.86694000  0.13373000  0.36498000  1.0
  C  C105  1  0.77298000  0.22605000  0.27424000  1.0
  C  C106  1  0.63244000  0.36408000  0.13702000  1.0
  C  C107  1  0.72562000  0.27248000  0.22844000  1.0
  C  C108  1  0.19665000  0.88247000  0.30535000  1.0
  C  C109  1  0.24337000  0.83652000  0.25946000  1.0
  C  C110  1  0.30652000  0.85004000  0.20066000  1.0
  C  C111  1  0.12048000  0.80622000  0.37611000  1.0
  C  C112  1  0.16513000  0.75991000  0.33061000  1.0
  C  C113  1  0.15182000  0.69707000  0.33992000  1.0
  C  C114  1  0.30436000  0.61928000  0.19144000  1.0
  C  C115  1  0.25808000  0.66479000  0.23775000  1.0
  C  C116  1  0.19498000  0.65124000  0.29657000  1.0
  C  C117  1  0.38266000  0.69333000  0.12294000  1.0
  C  C118  1  0.33711000  0.74057000  0.16748000  1.0
  C  C119  1  0.35025000  0.80360000  0.15792000  1.0
  C  C120  1  0.13627000  0.86725000  0.36323000  1.0
  C  C121  1  0.22774000  0.77411000  0.27176000  1.0
  C  C122  1  0.36612000  0.63308000  0.13496000  1.0
  C  C123  1  0.27408000  0.72681000  0.22591000  1.0
  C  C124  1  0.88132000  0.19475000  0.62216000  1.0
  C  C125  1  0.83596000  0.24255000  0.66633000  1.0
  C  C126  1  0.85017000  0.30581000  0.65453000  1.0
  C  C127  1  0.80427000  0.11939000  0.69091000  1.0
  C  C128  1  0.75843000  0.16520000  0.73681000  1.0
  C  C129  1  0.69548000  0.15283000  0.79655000  1.0
  C  C130  1  0.62077000  0.30614000  0.87572000  1.0
  C  C131  1  0.66509000  0.25953000  0.83037000  1.0
  C  C132  1  0.65049000  0.19667000  0.84173000  1.0
  C  C133  1  0.69566000  0.38366000  0.80486000  1.0
  C  C134  1  0.74179000  0.33769000  0.75910000  1.0
  C  C135  1  0.80462000  0.35016000  0.69923000  1.0
  C  C136  1  0.86566000  0.13394000  0.63423000  1.0
  C  C137  1  0.77350000  0.22774000  0.72508000  1.0
  C  C138  1  0.63580000  0.36754000  0.86303000  1.0
  C  C139  1  0.72708000  0.27478000  0.77118000  1.0
  N  N140  1  0.60884000  0.61012000  0.90441000  1.0
  N  N141  1  0.74392000  0.73822000  0.78418000  1.0
  N  N142  1  0.76196000  0.75597000  0.71586000  1.0
  N  N143  1  0.88993000  0.89116000  0.59557000  1.0
  N  N144  1  0.38975000  0.39126000  0.09553000  1.0
  N  N145  1  0.26181000  0.25606000  0.21593000  1.0
  N  N146  1  0.24394000  0.23814000  0.28425000  1.0
  N  N147  1  0.10878000  0.11017000  0.40451000  1.0
  N  N148  1  0.60745000  0.61456000  0.01103000  1.0
  N  N149  1  0.88596000  0.89204000  0.48898000  1.0
  N  N150  1  0.38476000  0.39314000  0.98902000  1.0
  N  N151  1  0.10688000  0.11502000  0.51109000  1.0
  O  O152  1  0.91103000  0.02213000  0.45460000  1.0
  O  O153  1  0.96186000  0.10923000  0.40956000  1.0
  O  O154  1  0.09620000  0.97832000  0.39115000  1.0
  O  O155  1  0.04261000  0.89300000  0.47086000  1.0
  O  O156  1  0.10747000  0.95808000  0.52892000  1.0
  O  O157  1  0.02167000  0.90498000  0.60834000  1.0
  O  O158  1  0.89077000  0.03905000  0.58937000  1.0
  O  O159  1  0.97772000  0.09001000  0.54466000  1.0
  O  O160  1  0.47764000  0.58912000  0.04513000  1.0
  O  O161  1  0.39049000  0.53828000  0.09030000  1.0
  O  O162  1  0.52143000  0.40411000  0.10890000  1.0
  O  O163  1  0.60692000  0.45758000  0.02930000  1.0
  O  O164  1  0.54211000  0.39252000  0.97104000  1.0
  O  O165  1  0.59530000  0.47822000  0.89167000  1.0
  O  O166  1  0.46132000  0.60878000  0.91015000  1.0
  O  O167  1  0.41021000  0.52194000  0.95510000  1.0
  F  F168  1  0.40836000  0.81749000  0.69100000  1.0
  F  F169  1  0.09057000  0.68046000  0.81127000  1.0
  F  F170  1  0.81590000  0.40859000  0.10491000  1.0
  F  F171  1  0.68357000  0.08906000  0.39711000  1.0
  F  F172  1  0.41073000  0.81654000  0.10232000  1.0
  F  F173  1  0.09190000  0.68357000  0.39591000  1.0
  F  F174  1  0.81860000  0.41036000  0.68738000  1.0
  F  F175  1  0.68107000  0.09310000  0.80778000  1.0
