# generated using pymatgen
data_FeH10Au2(C9N4)2
_symmetry_space_group_name_H-M   'P 1'
_cell_length_a   10.00110000
_cell_length_b   10.00110000
_cell_length_c   30.36420000
_cell_angle_alpha   94.06380000
_cell_angle_beta   94.06310000
_cell_angle_gamma   92.76670000
_symmetry_Int_Tables_number   1
_chemical_formula_structural   FeH10Au2(C9N4)2
_chemical_formula_sum   'Fe4 H40 Au8 C72 N32'
_cell_volume   3017.50054796
_cell_formula_units_Z   4
loop_
 _symmetry_equiv_pos_site_id
 _symmetry_equiv_pos_as_xyz
  1  'x, y, z'
loop_
 _atom_site_type_symbol
 _atom_site_label
 _atom_site_symmetry_multiplicity
 _atom_site_fract_x
 _atom_site_fract_y
 _atom_site_fract_z
 _atom_site_occupancy
  Fe  Fe0  1  0.77650000  0.81627000  0.55051000  1.0
  Fe  Fe1  1  0.18372000  0.22350000  0.94949000  1.0
  Fe  Fe2  1  0.22351000  0.18373000  0.44949000  1.0
  Fe  Fe3  1  0.81628000  0.77650000  0.05051000  1.0
  H  H4  1  0.64552000  0.65035000  0.61127000  1.0
  H  H5  1  0.34965000  0.35448000  0.88873000  1.0
  H  H6  1  0.35448000  0.34965000  0.38873000  1.0
  H  H7  1  0.65035000  0.64552000  0.11127000  1.0
  H  H8  1  0.65634000  0.62624000  0.69180000  1.0
  H  H9  1  0.37376000  0.34365000  0.80820000  1.0
  H  H10  1  0.34365000  0.37376000  0.30820000  1.0
  H  H11  1  0.62624000  0.65635000  0.19180000  1.0
  H  H12  1  0.93713000  0.97288000  0.70848000  1.0
  H  H13  1  0.02710000  0.06287000  0.79152000  1.0
  H  H14  1  0.06287000  0.02711000  0.29152000  1.0
  H  H15  1  0.97289000  0.93713000  0.20848000  1.0
  H  H16  1  0.91828000  0.97988000  0.62703000  1.0
  H  H17  1  0.02011000  0.08173000  0.87297000  1.0
  H  H18  1  0.08173000  0.02011000  0.37297000  1.0
  H  H19  1  0.97989000  0.91828000  0.12703000  1.0
  H  H20  1  0.78688000  0.56023000  0.74916000  1.0
  H  H21  1  0.43975000  0.21311000  0.75084000  1.0
  H  H22  1  0.21309000  0.43976000  0.25084000  1.0
  H  H23  1  0.56024000  0.78687000  0.24916000  1.0
  H  H24  1  0.79609000  0.54637000  0.83166000  1.0
  H  H25  1  0.45361000  0.20392000  0.66834000  1.0
  H  H26  1  0.20390000  0.45362000  0.16834000  1.0
  H  H27  1  0.54638000  0.79607000  0.33166000  1.0
  H  H28  1  0.74015000  0.96034000  0.90011000  1.0
  H  H29  1  0.03966000  0.25985000  0.59989000  1.0
  H  H30  1  0.25986000  0.03966000  0.09989000  1.0
  H  H31  1  0.96034000  0.74014000  0.40011000  1.0
  H  H32  1  0.73078000  0.95495000  0.98118000  1.0
  H  H33  1  0.04506000  0.26923000  0.51881000  1.0
  H  H34  1  0.26923000  0.04505000  0.01882000  1.0
  H  H35  1  0.95495000  0.73077000  0.48118000  1.0
  H  H36  1  0.90728000  0.58759000  0.98119000  1.0
  H  H37  1  0.41241000  0.09273000  0.51881000  1.0
  H  H38  1  0.09273000  0.41241000  0.01881000  1.0
  H  H39  1  0.58760000  0.90728000  0.48119000  1.0
  H  H40  1  0.91506000  0.57263000  0.90021000  1.0
  H  H41  1  0.42737000  0.08495000  0.59979000  1.0
  H  H42  1  0.08495000  0.42737000  0.09979000  1.0
  H  H43  1  0.57264000  0.91506000  0.40021000  1.0
  Au  Au44  1  0.76667000  0.31465000  0.54596000  1.0
  Au  Au45  1  0.68535000  0.23335000  0.95404000  1.0
  Au  Au46  1  0.23334000  0.68535000  0.45404000  1.0
  Au  Au47  1  0.31465000  0.76666000  0.04596000  1.0
  Au  Au48  1  0.27622000  0.80136000  0.55404000  1.0
  Au  Au49  1  0.19864000  0.72378000  0.94596000  1.0
  Au  Au50  1  0.72378000  0.19865000  0.44596000  1.0
  Au  Au51  1  0.80136000  0.27623000  0.05405000  1.0
  C  C52  1  0.47179000  0.79518000  0.55152000  1.0
  C  C53  1  0.20482000  0.52822000  0.94848000  1.0
  C  C54  1  0.52822000  0.20482000  0.44848000  1.0
  C  C55  1  0.79518000  0.47179000  0.05152000  1.0
  C  C56  1  0.76583000  0.12034000  0.55253000  1.0
  C  C57  1  0.87966000  0.23418000  0.94748000  1.0
  C  C58  1  0.23417000  0.87966000  0.44748000  1.0
  C  C59  1  0.12035000  0.76582000  0.05252000  1.0
  C  C60  1  0.08190000  0.81767000  0.55688000  1.0
  C  C61  1  0.18233000  0.91810000  0.94312000  1.0
  C  C62  1  0.91810000  0.18233000  0.44312000  1.0
  C  C63  1  0.81768000  0.08190000  0.05688000  1.0
  C  C64  1  0.77456000  0.51049000  0.54318000  1.0
  C  C65  1  0.48950000  0.22545000  0.95682000  1.0
  C  C66  1  0.22544000  0.48950000  0.45682000  1.0
  C  C67  1  0.51050000  0.77455000  0.04318000  1.0
  C  C68  1  0.71032000  0.71812000  0.63389000  1.0
  C  C69  1  0.28187000  0.28968000  0.86611000  1.0
  C  C70  1  0.28968000  0.28188000  0.36611000  1.0
  C  C71  1  0.71812000  0.71032000  0.13389000  1.0
  C  C72  1  0.71808000  0.70537000  0.67908000  1.0
  C  C73  1  0.29462000  0.28190000  0.82092000  1.0
  C  C74  1  0.28191000  0.29463000  0.32092000  1.0
  C  C75  1  0.70538000  0.71809000  0.17908000  1.0
  C  C76  1  0.80189000  0.79499000  0.70758000  1.0
  C  C77  1  0.20499000  0.19810000  0.79241000  1.0
  C  C78  1  0.19810000  0.20500000  0.29242000  1.0
  C  C79  1  0.79500000  0.80189000  0.20758000  1.0
  C  C80  1  0.87235000  0.89790000  0.68835000  1.0
  C  C81  1  0.10209000  0.12764000  0.81165000  1.0
  C  C82  1  0.12764000  0.10210000  0.31165000  1.0
  C  C83  1  0.89791000  0.87236000  0.18835000  1.0
  C  C84  1  0.86158000  0.90309000  0.64263000  1.0
  C  C85  1  0.09690000  0.13842000  0.85737000  1.0
  C  C86  1  0.13843000  0.09691000  0.35737000  1.0
  C  C87  1  0.90310000  0.86158000  0.14263000  1.0
  C  C88  1  0.81448000  0.77815000  0.75547000  1.0
  C  C89  1  0.22184000  0.18550000  0.74453000  1.0
  C  C90  1  0.18550000  0.22185000  0.24453000  1.0
  C  C91  1  0.77815000  0.81449000  0.25547000  1.0
  C  C92  1  0.80083000  0.65023000  0.77179000  1.0
  C  C93  1  0.34976000  0.19916000  0.72821000  1.0
  C  C94  1  0.19915000  0.34977000  0.22821000  1.0
  C  C95  1  0.65023000  0.80083000  0.27179000  1.0
  C  C96  1  0.80759000  0.64241000  0.81704000  1.0
  C  C97  1  0.35758000  0.19241000  0.68296000  1.0
  C  C98  1  0.19241000  0.35759000  0.18296000  1.0
  C  C99  1  0.64241000  0.80758000  0.31704000  1.0
  C  C100  1  0.82728000  0.76299000  0.84400000  1.0
  C  C101  1  0.23699000  0.17272000  0.65600000  1.0
  C  C102  1  0.17272000  0.23700000  0.15600000  1.0
  C  C103  1  0.76300000  0.82728000  0.34400000  1.0
  C  C104  1  0.82651000  0.76573000  0.89249000  1.0
  C  C105  1  0.23426000  0.17349000  0.60751000  1.0
  C  C106  1  0.17350000  0.23427000  0.10751000  1.0
  C  C107  1  0.76573000  0.82651000  0.39249000  1.0
  C  C108  1  0.77690000  0.87476000  0.91667000  1.0
  C  C109  1  0.12524000  0.22310000  0.58333000  1.0
  C  C110  1  0.22311000  0.12524000  0.08334000  1.0
  C  C111  1  0.87476000  0.77689000  0.41666000  1.0
  C  C112  1  0.77231000  0.87290000  0.96213000  1.0
  C  C113  1  0.12711000  0.22770000  0.53788000  1.0
  C  C114  1  0.22770000  0.12711000  0.03788000  1.0
  C  C115  1  0.87289000  0.77230000  0.46212000  1.0
  C  C116  1  0.86904000  0.66716000  0.96208000  1.0
  C  C117  1  0.33284000  0.13097000  0.53792000  1.0
  C  C118  1  0.13097000  0.33284000  0.03792000  1.0
  C  C119  1  0.66717000  0.86904000  0.46208000  1.0
  C  C120  1  0.87250000  0.65986000  0.91634000  1.0
  C  C121  1  0.34015000  0.12751000  0.58366000  1.0
  C  C122  1  0.12751000  0.34015000  0.08366000  1.0
  C  C123  1  0.65986000  0.87250000  0.41634000  1.0
  N  N124  1  0.58830000  0.80200000  0.54920000  1.0
  N  N125  1  0.19800000  0.41170000  0.95080000  1.0
  N  N126  1  0.41170000  0.19800000  0.45080000  1.0
  N  N127  1  0.80200000  0.58831000  0.04920000  1.0
  N  N128  1  0.77100000  0.00408000  0.55416000  1.0
  N  N129  1  0.99592000  0.22901000  0.94584000  1.0
  N  N130  1  0.22901000  0.99592000  0.44584000  1.0
  N  N131  1  0.00408000  0.77099000  0.05416000  1.0
  N  N132  1  0.96526000  0.82578000  0.55475000  1.0
  N  N133  1  0.17422000  0.03474000  0.94525000  1.0
  N  N134  1  0.03474000  0.17422000  0.44525000  1.0
  N  N135  1  0.82579000  0.96527000  0.05475000  1.0
  N  N136  1  0.77863000  0.62791000  0.54474000  1.0
  N  N137  1  0.37209000  0.22137000  0.95525000  1.0
  N  N138  1  0.22137000  0.37209000  0.45525000  1.0
  N  N139  1  0.62791000  0.77864000  0.04475000  1.0
  N  N140  1  0.78298000  0.81379000  0.61539000  1.0
  N  N141  1  0.18620000  0.21702000  0.88461000  1.0
  N  N142  1  0.21702000  0.18620000  0.38461000  1.0
  N  N143  1  0.81380000  0.78298000  0.11539000  1.0
  N  N144  1  0.84587000  0.88269000  0.82656000  1.0
  N  N145  1  0.11730000  0.15412000  0.67344000  1.0
  N  N146  1  0.15413000  0.11730000  0.17344000  1.0
  N  N147  1  0.88269000  0.84588000  0.32656000  1.0
  N  N148  1  0.84005000  0.89003000  0.78300000  1.0
  N  N149  1  0.10996000  0.15994000  0.71700000  1.0
  N  N150  1  0.15994000  0.10997000  0.21700000  1.0
  N  N151  1  0.89003000  0.84006000  0.28300000  1.0
  N  N152  1  0.81871000  0.77142000  0.98506000  1.0
  N  N153  1  0.22859000  0.18130000  0.51494000  1.0
  N  N154  1  0.18130000  0.22859000  0.01494000  1.0
  N  N155  1  0.77142000  0.81871000  0.48506000  1.0
