# generated using pymatgen
data_CuH15C16N3O5
_symmetry_space_group_name_H-M   'P 1'
_cell_length_a   9.97985000
_cell_length_b   20.56450000
_cell_length_c   21.32064696
_cell_angle_alpha   86.97081767
_cell_angle_beta   76.45984505
_cell_angle_gamma   75.94820000
_symmetry_Int_Tables_number   1
_chemical_formula_structural   CuH15C16N3O5
_chemical_formula_sum   'Cu8 H120 C128 N24 O40'
_cell_volume   4126.70100539
_cell_formula_units_Z   8
loop_
 _symmetry_equiv_pos_site_id
 _symmetry_equiv_pos_as_xyz
  1  'x, y, z'
loop_
 _atom_site_type_symbol
 _atom_site_label
 _atom_site_symmetry_multiplicity
 _atom_site_fract_x
 _atom_site_fract_y
 _atom_site_fract_z
 _atom_site_occupancy
  Cu  Cu0  1  0.51860000  0.76731000  0.91490000  1.0
  Cu  Cu1  1  0.71922000  0.57822000  0.76625000  1.0
  Cu  Cu2  1  0.70091000  0.73267000  0.58508000  1.0
  Cu  Cu3  1  0.56365000  0.92173000  0.73374000  1.0
  Cu  Cu4  1  0.48140000  0.23269000  0.08510000  1.0
  Cu  Cu5  1  0.28079000  0.42177000  0.23375000  1.0
  Cu  Cu6  1  0.29910000  0.26734000  0.41492000  1.0
  Cu  Cu7  1  0.43635000  0.07827000  0.26626000  1.0
  H  H8  1  0.80936000  0.90351000  0.02754000  1.0
  H  H9  1  0.23330000  0.85354000  0.88909000  1.0
  H  H10  1  0.99480000  0.91530000  0.94910000  1.0
  H  H11  1  0.15476000  0.88406000  0.12267000  1.0
  H  H12  1  0.38887000  0.82078000  0.05415000  1.0
  H  H13  1  0.69843000  0.30770000  0.03062000  1.0
  H  H14  1  0.71325000  0.41068000  0.96319000  1.0
  H  H15  1  0.50377000  0.46870000  0.91798000  1.0
  H  H16  1  0.28788000  0.31940000  0.01295000  1.0
  H  H17  1  0.28804000  0.46760000  0.90236000  1.0
  H  H18  1  0.91878000  0.60802000  0.84526000  1.0
  H  H19  1  0.08788000  0.55127000  0.91179000  1.0
  H  H20  1  0.96584000  0.36779000  0.88870000  1.0
  H  H21  1  0.80147000  0.43344000  0.82116000  1.0
  H  H22  1  0.14569000  0.60740000  0.65922000  1.0
  H  H23  1  0.09488000  0.67450000  0.71566000  1.0
  H  H24  1  0.19919000  0.68311000  0.63691000  1.0
  H  H25  1  0.02291000  0.78851000  0.61257000  1.0
  H  H26  1  0.93488000  0.78331000  0.69521000  1.0
  H  H27  1  0.83735000  0.79120000  0.63492000  1.0
  H  H28  1  0.27331000  0.02336000  0.19292000  1.0
  H  H29  1  0.32341000  0.96250000  0.08793000  1.0
  H  H30  1  0.57728000  0.92001000  0.02825000  1.0
  H  H31  1  0.70212000  0.00508000  0.18038000  1.0
  H  H32  1  0.20110000  0.65566000  0.88650000  1.0
  H  H33  1  0.16892000  0.63277000  0.81335000  1.0
  H  H34  1  0.19290000  0.71453000  0.82262000  1.0
  H  H35  1  0.37224000  0.69403000  0.71793000  1.0
  H  H36  1  0.36851000  0.60831000  0.71148000  1.0
  H  H37  1  0.53120000  0.63128000  0.70959000  1.0
  H  H38  1  0.24035000  0.59649000  0.47245000  1.0
  H  H39  1  0.47571000  0.64647000  0.61089000  1.0
  H  H40  1  0.35907000  0.58470000  0.55089000  1.0
  H  H41  1  0.66138000  0.61593000  0.37731000  1.0
  H  H42  1  0.76375000  0.67914000  0.44583000  1.0
  H  H43  1  0.53658000  0.19230000  0.46940000  1.0
  H  H44  1  0.58698000  0.08932000  0.53679000  1.0
  H  H45  1  0.39037000  0.03129000  0.58202000  1.0
  H  H46  1  0.12006000  0.18062000  0.48710000  1.0
  H  H47  1  0.15798000  0.03238000  0.59766000  1.0
  H  H48  1  0.87218000  0.89191000  0.65476000  1.0
  H  H49  1  0.05099000  0.94867000  0.58814000  1.0
  H  H50  1  0.72228000  0.13215000  0.61136000  1.0
  H  H51  1  0.55606000  0.06649000  0.67889000  1.0
  H  H52  1  0.91224000  0.89253000  0.84078000  1.0
  H  H53  1  0.98504000  0.82543000  0.78434000  1.0
  H  H54  1  0.01912000  0.81682000  0.86310000  1.0
  H  H55  1  0.92392000  0.71145000  0.88746000  1.0
  H  H56  1  0.91341000  0.71663000  0.80482000  1.0
  H  H57  1  0.76343000  0.70875000  0.86509000  1.0
  H  H58  1  0.98958000  0.47668000  0.30711000  1.0
  H  H59  1  0.87384000  0.53754000  0.41209000  1.0
  H  H60  1  0.02558000  0.58003000  0.47174000  1.0
  H  H61  1  0.38760000  0.49492000  0.31960000  1.0
  H  H62  1  0.24335000  0.84433000  0.61345000  1.0
  H  H63  1  0.11510000  0.86723000  0.68661000  1.0
  H  H64  1  0.23017000  0.78546000  0.67733000  1.0
  H  H65  1  0.28418000  0.80600000  0.78203000  1.0
  H  H66  1  0.18823000  0.89172000  0.78847000  1.0
  H  H67  1  0.37201000  0.86874000  0.79036000  1.0
  H  H68  1  0.19063000  0.09649000  0.97246000  1.0
  H  H69  1  0.76670000  0.14646000  0.11091000  1.0
  H  H70  1  0.00520000  0.08470000  0.05090000  1.0
  H  H71  1  0.84524000  0.11594000  0.87733000  1.0
  H  H72  1  0.61113000  0.17922000  0.94585000  1.0
  H  H73  1  0.30157000  0.69231000  0.96938000  1.0
  H  H74  1  0.28675000  0.58932000  0.03681000  1.0
  H  H75  1  0.49623000  0.53130000  0.08202000  1.0
  H  H76  1  0.71212000  0.68060000  0.98705000  1.0
  H  H77  1  0.71196000  0.53240000  0.09764000  1.0
  H  H78  1  0.08122000  0.39198000  0.15474000  1.0
  H  H79  1  0.91212000  0.44873000  0.08821000  1.0
  H  H80  1  0.03416000  0.63221000  0.11130000  1.0
  H  H81  1  0.19852000  0.56656000  0.17885000  1.0
  H  H82  1  0.85431000  0.39260000  0.34078000  1.0
  H  H83  1  0.90512000  0.32550000  0.28434000  1.0
  H  H84  1  0.80081000  0.31688000  0.36309000  1.0
  H  H85  1  0.97709000  0.21149000  0.38743000  1.0
  H  H86  1  0.06512000  0.21669000  0.30479000  1.0
  H  H87  1  0.16265000  0.20880000  0.36508000  1.0
  H  H88  1  0.72669000  0.97664000  0.80708000  1.0
  H  H89  1  0.67659000  0.03750000  0.91206000  1.0
  H  H90  1  0.42271000  0.07999000  0.97175000  1.0
  H  H91  1  0.29789000  0.99492000  0.81961000  1.0
  H  H92  1  0.79889000  0.34434000  0.11350000  1.0
  H  H93  1  0.83109000  0.36724000  0.18665000  1.0
  H  H94  1  0.80710000  0.28547000  0.17738000  1.0
  H  H95  1  0.62776000  0.30597000  0.28207000  1.0
  H  H96  1  0.63150000  0.39169000  0.28852000  1.0
  H  H97  1  0.46880000  0.36872000  0.29041000  1.0
  H  H98  1  0.75965000  0.40351000  0.52755000  1.0
  H  H99  1  0.52429000  0.35353000  0.38911000  1.0
  H  H100  1  0.64093000  0.41530000  0.44911000  1.0
  H  H101  1  0.33862000  0.38407000  0.62269000  1.0
  H  H102  1  0.23625000  0.32087000  0.55417000  1.0
  H  H103  1  0.46343000  0.80770000  0.53060000  1.0
  H  H104  1  0.41302000  0.91068000  0.46321000  1.0
  H  H105  1  0.60963000  0.96871000  0.41798000  1.0
  H  H106  1  0.87994000  0.81938000  0.51290000  1.0
  H  H107  1  0.84202000  0.96762000  0.40234000  1.0
  H  H108  1  0.12782000  0.10809000  0.34524000  1.0
  H  H109  1  0.94901000  0.05133000  0.41186000  1.0
  H  H110  1  0.27772000  0.86785000  0.38864000  1.0
  H  H111  1  0.44394000  0.93351000  0.32111000  1.0
  H  H112  1  0.08776000  0.10747000  0.15922000  1.0
  H  H113  1  0.01496000  0.17457000  0.21566000  1.0
  H  H114  1  0.98087000  0.18318000  0.13690000  1.0
  H  H115  1  0.07608000  0.28855000  0.11254000  1.0
  H  H116  1  0.08659000  0.28337000  0.19518000  1.0
  H  H117  1  0.23657000  0.29125000  0.13491000  1.0
  H  H118  1  0.01043000  0.52332000  0.69288000  1.0
  H  H119  1  0.12616000  0.46246000  0.58791000  1.0
  H  H120  1  0.97443000  0.41997000  0.52826000  1.0
  H  H121  1  0.61240000  0.50508000  0.68040000  1.0
  H  H122  1  0.75665000  0.15567000  0.38655000  1.0
  H  H123  1  0.88490000  0.13277000  0.31339000  1.0
  H  H124  1  0.76984000  0.21453000  0.32266000  1.0
  H  H125  1  0.71582000  0.19400000  0.21797000  1.0
  H  H126  1  0.81177000  0.10828000  0.21153000  1.0
  H  H127  1  0.62799000  0.13126000  0.20964000  1.0
  C  C128  1  0.00177000  0.67273000  0.56798000  1.0
  C  C129  1  0.97813000  0.69136000  0.64012000  1.0
  C  C130  1  0.85142000  0.66513000  0.67896000  1.0
  C  C131  1  0.21138000  0.86108000  0.94099000  1.0
  C  C132  1  0.07815000  0.89569000  0.97487000  1.0
  C  C133  1  0.05613000  0.90380000  0.04148000  1.0
  C  C134  1  0.91924000  0.94106000  0.08360000  1.0
  C  C135  1  0.65940000  0.95910000  0.09985000  1.0
  C  C136  1  0.16941000  0.87744000  0.07092000  1.0
  C  C137  1  0.29801000  0.84285000  0.03330000  1.0
  C  C138  1  0.61052000  0.33481000  0.01025000  1.0
  C  C139  1  0.61725000  0.39197000  0.97289000  1.0
  C  C140  1  0.50134000  0.42444000  0.94838000  1.0
  C  C141  1  0.37939000  0.39862000  0.96222000  1.0
  C  C142  1  0.37943000  0.34115000  0.00100000  1.0
  C  C143  1  0.47393000  0.67571000  0.83187000  1.0
  C  C144  1  0.93270000  0.55479000  0.85591000  1.0
  C  C145  1  0.02722000  0.52273000  0.89294000  1.0
  C  C146  1  0.04098000  0.45420000  0.90465000  1.0
  C  C147  1  0.13757000  0.41411000  0.94438000  1.0
  C  C148  1  0.95782000  0.42107000  0.87943000  1.0
  C  C149  1  0.86742000  0.45710000  0.84240000  1.0
  C  C150  1  0.11229000  0.66206000  0.66457000  1.0
  C  C151  1  0.94078000  0.76844000  0.64578000  1.0
  C  C152  1  0.38117000  0.00421000  0.16522000  1.0
  C  C153  1  0.41043000  0.97035000  0.10700000  1.0
  C  C154  1  0.55031000  0.94750000  0.07364000  1.0
  C  C155  1  0.62186000  0.99456000  0.15846000  1.0
  C  C156  1  0.43638000  0.56068000  0.82230000  1.0
  C  C157  1  0.38659000  0.63588000  0.80557000  1.0
  C  C158  1  0.22792000  0.66138000  0.83395000  1.0
  C  C159  1  0.41703000  0.64252000  0.73148000  1.0
  C  C160  1  0.74230000  0.82726000  0.93199000  1.0
  C  C161  1  0.80952000  0.80858000  0.85987000  1.0
  C  C162  1  0.69548000  0.83478000  0.82100000  1.0
  C  C163  1  0.51321000  0.63894000  0.55898000  1.0
  C  C164  1  0.44857000  0.60430000  0.52510000  1.0
  C  C165  1  0.50127000  0.59620000  0.45849000  1.0
  C  C166  1  0.44379000  0.55896000  0.41635000  1.0
  C  C167  1  0.21833000  0.54091000  0.40012000  1.0
  C  C168  1  0.61757000  0.62256000  0.42905000  1.0
  C  C169  1  0.67404000  0.65710000  0.46667000  1.0
  C  C170  1  0.45539000  0.16521000  0.48978000  1.0
  C  C171  1  0.48194000  0.10804000  0.52713000  1.0
  C  C172  1  0.37402000  0.07557000  0.55166000  1.0
  C  C173  1  0.24007000  0.10140000  0.53785000  1.0
  C  C174  1  0.22140000  0.15887000  0.49906000  1.0
  C  C175  1  0.48151000  0.82423000  0.66816000  1.0
  C  C176  1  0.84349000  0.94514000  0.64410000  1.0
  C  C177  1  0.94291000  0.97719000  0.60701000  1.0
  C  C178  1  0.89979000  0.04574000  0.59534000  1.0
  C  C179  1  0.99595000  0.08587000  0.55567000  1.0
  C  C180  1  0.75830000  0.07886000  0.62061000  1.0
  C  C181  1  0.66693000  0.04283000  0.65765000  1.0
  C  C182  1  0.93885000  0.83788000  0.83543000  1.0
  C  C183  1  0.85495000  0.73150000  0.85424000  1.0
  C  C184  1  0.05059000  0.49583000  0.33479000  1.0
  C  C185  1  0.98778000  0.52968000  0.39302000  1.0
  C  C186  1  0.07144000  0.55255000  0.42634000  1.0
  C  C187  1  0.27490000  0.50543000  0.34153000  1.0
  C  C188  1  0.31942000  0.93930000  0.67760000  1.0
  C  C189  1  0.32808000  0.86411000  0.69438000  1.0
  C  C190  1  0.22334000  0.83861000  0.66600000  1.0
  C  C191  1  0.29100000  0.85750000  0.76847000  1.0
  C  C192  1  0.99824000  0.32727000  0.43202000  1.0
  C  C193  1  0.02188000  0.30864000  0.35988000  1.0
  C  C194  1  0.14859000  0.33487000  0.32104000  1.0
  C  C195  1  0.78862000  0.13892000  0.05901000  1.0
  C  C196  1  0.92185000  0.10431000  0.02513000  1.0
  C  C197  1  0.94386000  0.09620000  0.95852000  1.0
  C  C198  1  0.08076000  0.05894000  0.91640000  1.0
  C  C199  1  0.34060000  0.04090000  0.90015000  1.0
  C  C200  1  0.83059000  0.12256000  0.92908000  1.0
  C  C201  1  0.70199000  0.15715000  0.96670000  1.0
  C  C202  1  0.38948000  0.66519000  0.98975000  1.0
  C  C203  1  0.38275000  0.60803000  0.02711000  1.0
  C  C204  1  0.49866000  0.57556000  0.05162000  1.0
  C  C205  1  0.62061000  0.60138000  0.03778000  1.0
  C  C206  1  0.62057000  0.65885000  0.99900000  1.0
  C  C207  1  0.52607000  0.32429000  0.16813000  1.0
  C  C208  1  0.06730000  0.44521000  0.14409000  1.0
  C  C209  1  0.97278000  0.47727000  0.10706000  1.0
  C  C210  1  0.95902000  0.54580000  0.09535000  1.0
  C  C211  1  0.86244000  0.58588000  0.05562000  1.0
  C  C212  1  0.04218000  0.57893000  0.12057000  1.0
  C  C213  1  0.13257000  0.54290000  0.15760000  1.0
  C  C214  1  0.88771000  0.33794000  0.33543000  1.0
  C  C215  1  0.05922000  0.23156000  0.35422000  1.0
  C  C216  1  0.61883000  0.99579000  0.83478000  1.0
  C  C217  1  0.58957000  0.02965000  0.89300000  1.0
  C  C218  1  0.44968000  0.05250000  0.92636000  1.0
  C  C219  1  0.37813000  0.00544000  0.84154000  1.0
  C  C220  1  0.56362000  0.43932000  0.17770000  1.0
  C  C221  1  0.61341000  0.36412000  0.19443000  1.0
  C  C222  1  0.77208000  0.33862000  0.16605000  1.0
  C  C223  1  0.58297000  0.35747000  0.26852000  1.0
  C  C224  1  0.25770000  0.17274000  0.06801000  1.0
  C  C225  1  0.19048000  0.19142000  0.14013000  1.0
  C  C226  1  0.30452000  0.16522000  0.17900000  1.0
  C  C227  1  0.48679000  0.36106000  0.44102000  1.0
  C  C228  1  0.55142000  0.39570000  0.47490000  1.0
  C  C229  1  0.49873000  0.40380000  0.54151000  1.0
  C  C230  1  0.55621000  0.44105000  0.58365000  1.0
  C  C231  1  0.78167000  0.45909000  0.59988000  1.0
  C  C232  1  0.38242000  0.37744000  0.57095000  1.0
  C  C233  1  0.32596000  0.34290000  0.53333000  1.0
  C  C234  1  0.54461000  0.83479000  0.51022000  1.0
  C  C235  1  0.51806000  0.89196000  0.47287000  1.0
  C  C236  1  0.62598000  0.92443000  0.44834000  1.0
  C  C237  1  0.75993000  0.89860000  0.46215000  1.0
  C  C238  1  0.77861000  0.84114000  0.50094000  1.0
  C  C239  1  0.51848000  0.17577000  0.33184000  1.0
  C  C240  1  0.15651000  0.05486000  0.35590000  1.0
  C  C241  1  0.05709000  0.02281000  0.39299000  1.0
  C  C242  1  0.10021000  0.95426000  0.40466000  1.0
  C  C243  1  0.00405000  0.91413000  0.44433000  1.0
  C  C244  1  0.24170000  0.92114000  0.37939000  1.0
  C  C245  1  0.33307000  0.95717000  0.34235000  1.0
  C  C246  1  0.06115000  0.16213000  0.16457000  1.0
  C  C247  1  0.14505000  0.26850000  0.14576000  1.0
  C  C248  1  0.94941000  0.50417000  0.66521000  1.0
  C  C249  1  0.01223000  0.47032000  0.60698000  1.0
  C  C250  1  0.92857000  0.44744000  0.57366000  1.0
  C  C251  1  0.72510000  0.49457000  0.65847000  1.0
  C  C252  1  0.68058000  0.06071000  0.32240000  1.0
  C  C253  1  0.67192000  0.13589000  0.30562000  1.0
  C  C254  1  0.77666000  0.16139000  0.33400000  1.0
  C  C255  1  0.70900000  0.14250000  0.23153000  1.0
  N  N256  1  0.79948000  0.93385000  0.06663000  1.0
  N  N257  1  0.48560000  0.01646000  0.18950000  1.0
  N  N258  1  0.31896000  0.83454000  0.96928000  1.0
  N  N259  1  0.49305000  0.31071000  0.02403000  1.0
  N  N260  1  0.26559000  0.43068000  0.93555000  1.0
  N  N261  1  0.85509000  0.52295000  0.83060000  1.0
  N  N262  1  0.29989000  0.56615000  0.43335000  1.0
  N  N263  1  0.19154000  0.48357000  0.31050000  1.0
  N  N264  1  0.62263000  0.66543000  0.53068000  1.0
  N  N265  1  0.32759000  0.18931000  0.47601000  1.0
  N  N266  1  0.13170000  0.06933000  0.56451000  1.0
  N  N267  1  0.70871000  0.97698000  0.66943000  1.0
  N  N268  1  0.20052000  0.06615000  0.93336000  1.0
  N  N269  1  0.51441000  0.98354000  0.81049000  1.0
  N  N270  1  0.68104000  0.16546000  0.03072000  1.0
  N  N271  1  0.50695000  0.68929000  0.97597000  1.0
  N  N272  1  0.73441000  0.56932000  0.06445000  1.0
  N  N273  1  0.14489000  0.47705000  0.16941000  1.0
  N  N274  1  0.70011000  0.43385000  0.56665000  1.0
  N  N275  1  0.80846000  0.51643000  0.68950000  1.0
  N  N276  1  0.37737000  0.33457000  0.46932000  1.0
  N  N277  1  0.67241000  0.81069000  0.52399000  1.0
  N  N278  1  0.86829000  0.93067000  0.43550000  1.0
  N  N279  1  0.29129000  0.02302000  0.33057000  1.0
  O  O280  1  0.90109000  0.69636000  0.53865000  1.0
  O  O281  1  0.73606000  0.67619000  0.65989000  1.0
  O  O282  1  0.92060000  0.97433000  0.13021000  1.0
  O  O283  1  0.40675000  0.72839000  0.86474000  1.0
  O  O284  1  0.60848000  0.65559000  0.82170000  1.0
  O  O285  1  0.86723000  0.63132000  0.72959000  1.0
  O  O286  1  0.34634000  0.53206000  0.85549000  1.0
  O  O287  1  0.11945000  0.63668000  0.54063000  1.0
  O  O288  1  0.10013000  0.36948000  0.98069000  1.0
  O  O289  1  0.56709000  0.53021000  0.80020000  1.0
  O  O290  1  0.63590000  0.80365000  0.96132000  1.0
  O  O291  1  0.57211000  0.82372000  0.84005000  1.0
  O  O292  1  0.52507000  0.52574000  0.36971000  1.0
  O  O293  1  0.49992000  0.77157000  0.63526000  1.0
  O  O294  1  0.58574000  0.84432000  0.67838000  1.0
  O  O295  1  0.72812000  0.86860000  0.77038000  1.0
  O  O296  1  0.23400000  0.96790000  0.64437000  1.0
  O  O297  1  0.79651000  0.86334000  0.95933000  1.0
  O  O298  1  0.95019000  0.13053000  0.51936000  1.0
  O  O299  1  0.39750000  0.96977000  0.69972000  1.0
  O  O300  1  0.09893000  0.30364000  0.46134000  1.0
  O  O301  1  0.26395000  0.32381000  0.34011000  1.0
  O  O302  1  0.07940000  0.02567000  0.86979000  1.0
  O  O303  1  0.59325000  0.27161000  0.13526000  1.0
  O  O304  1  0.39152000  0.34440000  0.17830000  1.0
  O  O305  1  0.13278000  0.36868000  0.27041000  1.0
  O  O306  1  0.65366000  0.46794000  0.14451000  1.0
  O  O307  1  0.88056000  0.36332000  0.45937000  1.0
  O  O308  1  0.89988000  0.63052000  0.01930000  1.0
  O  O309  1  0.43292000  0.46979000  0.19980000  1.0
  O  O310  1  0.36410000  0.19635000  0.03868000  1.0
  O  O311  1  0.42789000  0.17628000  0.15995000  1.0
  O  O312  1  0.47493000  0.47426000  0.63029000  1.0
  O  O313  1  0.50007000  0.22843000  0.36474000  1.0
  O  O314  1  0.41425000  0.15569000  0.32163000  1.0
  O  O315  1  0.27188000  0.13140000  0.22962000  1.0
  O  O316  1  0.76599000  0.03210000  0.35563000  1.0
  O  O317  1  0.20349000  0.13666000  0.04067000  1.0
  O  O318  1  0.04981000  0.86947000  0.48064000  1.0
  O  O319  1  0.60250000  0.03023000  0.30028000  1.0
