# generated using pymatgen
data_Hf3H41C69O16
_symmetry_space_group_name_H-M   'P 1'
_cell_length_a   19.94490000
_cell_length_b   19.96380000
_cell_length_c   20.09250000
_cell_angle_alpha   92.74570000
_cell_angle_beta   91.96270000
_cell_angle_gamma   92.87260000
_symmetry_Int_Tables_number   1
_chemical_formula_structural   Hf3H41C69O16
_chemical_formula_sum   'Hf6 H82 C138 O32'
_cell_volume   7975.73748514
_cell_formula_units_Z   2
loop_
 _symmetry_equiv_pos_site_id
 _symmetry_equiv_pos_as_xyz
  1  'x, y, z'
loop_
 _atom_site_type_symbol
 _atom_site_label
 _atom_site_symmetry_multiplicity
 _atom_site_fract_x
 _atom_site_fract_y
 _atom_site_fract_z
 _atom_site_occupancy
  Hf  Hf0  1  0.18712000  0.13278000  0.04108000  1.0
  Hf  Hf1  1  0.22564000  0.99638000  0.13538000  1.0
  Hf  Hf2  1  0.02213000  0.06734000  0.01594000  1.0
  Hf  Hf3  1  0.09130000  0.09407000  0.17827000  1.0
  Hf  Hf4  1  0.15574000  0.96891000  0.97369000  1.0
  Hf  Hf5  1  0.06014000  0.93066000  0.11074000  1.0
  H  H6  1  0.08482000  0.40989000  0.71364000  1.0
  H  H7  1  0.09168000  0.62535000  0.73257000  1.0
  H  H8  1  0.05708000  0.50869000  0.90425000  1.0
  H  H9  1  0.19115000  0.55938000  0.25009000  1.0
  H  H10  1  0.13954000  0.43755000  0.41418000  1.0
  H  H11  1  0.14424000  0.65260000  0.43868000  1.0
  H  H12  1  0.95636000  0.96609000  0.55921000  1.0
  H  H13  1  0.77699000  0.98394000  0.67022000  1.0
  H  H14  1  0.76520000  0.97737000  0.45570000  1.0
  H  H15  1  0.29648000  0.08911000  0.59645000  1.0
  H  H16  1  0.46386000  0.03484000  0.47892000  1.0
  H  H17  1  0.48473000  0.04890000  0.69264000  1.0
  H  H18  1  0.50080000  0.66817000  0.04319000  1.0
  H  H19  1  0.71649000  0.69324000  0.04865000  1.0
  H  H20  1  0.59608000  0.86018000  0.00639000  1.0
  H  H21  1  0.74610000  0.39846000  0.10890000  1.0
  H  H22  1  0.53069000  0.36943000  0.10227000  1.0
  H  H23  1  0.65418000  0.20320000  0.13849000  1.0
  H  H24  1  0.22934000  0.13343000  0.17618000  1.0
  H  H25  1  0.11879000  0.08982000  0.92005000  1.0
  H  H26  1  0.96721000  0.02959000  0.13689000  1.0
  H  H27  1  0.17864000  0.87353000  0.07048000  1.0
  H  H28  1  0.76320000  0.23144000  0.22930000  1.0
  H  H29  1  0.80066000  0.30287000  0.03453000  1.0
  H  H30  1  0.90622000  0.24110000  0.03192000  1.0
  H  H31  1  0.87299000  0.17610000  0.22957000  1.0
  H  H32  1  0.48019000  0.28971000  0.03463000  1.0
  H  H33  1  0.55188000  0.17088000  0.19311000  1.0
  H  H34  1  0.44520000  0.09971000  0.18276000  1.0
  H  H35  1  0.37278000  0.22114000  0.02779000  1.0
  H  H36  1  0.69857000  0.88781000  0.94960000  1.0
  H  H37  1  0.76793000  0.77491000  0.11357000  1.0
  H  H38  1  0.87599000  0.84233000  0.11846000  1.0
  H  H39  1  0.80582000  0.95822000  0.95802000  1.0
  H  H40  1  0.44880000  0.76492000  0.11432000  1.0
  H  H41  1  0.48754000  0.83533000  0.91945000  1.0
  H  H42  1  0.37965000  0.89414000  0.91974000  1.0
  H  H43  1  0.34557000  0.83027000  0.11761000  1.0
  H  H44  1  0.70142000  0.62040000  0.13113000  1.0
  H  H45  1  0.53149000  0.56337000  0.99885000  1.0
  H  H46  1  0.54405000  0.44466000  0.02274000  1.0
  H  H47  1  0.71396000  0.50167000  0.15512000  1.0
  H  H48  1  0.26951000  0.00869000  0.67739000  1.0
  H  H49  1  0.42876000  0.13907000  0.76885000  1.0
  H  H50  1  0.36688000  0.14423000  0.87484000  1.0
  H  H51  1  0.21078000  0.01000000  0.78452000  1.0
  H  H52  1  0.41804000  0.07960000  0.40325000  1.0
  H  H53  1  0.23713000  0.05874000  0.51406000  1.0
  H  H54  1  0.16897000  0.06229000  0.40929000  1.0
  H  H55  1  0.34932000  0.07312000  0.29847000  1.0
  H  H56  1  0.98537000  0.90781000  0.65274000  1.0
  H  H57  1  0.84803000  0.04777000  0.73342000  1.0
  H  H58  1  0.91490000  0.05618000  0.84024000  1.0
  H  H59  1  0.05368000  0.91913000  0.75952000  1.0
  H  H60  1  0.83525000  0.89394000  0.38386000  1.0
  H  H61  1  0.97205000  0.04781000  0.47570000  1.0
  H  H62  1  0.03167000  0.05529000  0.36900000  1.0
  H  H63  1  0.89848000  0.89842000  0.27869000  1.0
  H  H64  1  0.68913000  0.05849000  0.48391000  1.0
  H  H65  1  0.67288000  0.93235000  0.65122000  1.0
  H  H66  1  0.55434000  0.95981000  0.66156000  1.0
  H  H67  1  0.57063000  0.08575000  0.49421000  1.0
  H  H68  1  0.27125000  0.66973000  0.27416000  1.0
  H  H69  1  0.07207000  0.70311000  0.34034000  1.0
  H  H70  1  0.07072000  0.80773000  0.27738000  1.0
  H  H71  1  0.27233000  0.77836000  0.21726000  1.0
  H  H72  1  0.19018000  0.36427000  0.36650000  1.0
  H  H73  1  0.15401000  0.47435000  0.19023000  1.0
  H  H74  1  0.15489000  0.36861000  0.12083000  1.0
  H  H75  1  0.18062000  0.25840000  0.29773000  1.0
  H  H76  1  0.07922000  0.59212000  0.96082000  1.0
  H  H77  1  0.05491000  0.70276000  0.78278000  1.0
  H  H78  1  0.06291000  0.80853000  0.85185000  1.0
  H  H79  1  0.07726000  0.69781000  0.02946000  1.0
  H  H80  1  0.99456000  0.33508000  0.78480000  1.0
  H  H81  1  0.14899000  0.42908000  0.91795000  1.0
  H  H82  1  0.15336000  0.32385000  0.97977000  1.0
  H  H83  1  0.99555000  0.23166000  0.85032000  1.0
  H  H84  1  0.16703000  0.44211000  0.63771000  1.0
  H  H85  1  0.03675000  0.60739000  0.63026000  1.0
  H  H86  1  0.06064000  0.61922000  0.51173000  1.0
  H  H87  1  0.19090000  0.45392000  0.51915000  1.0
  C  C88  1  0.07179000  0.45311000  0.81272000  1.0
  C  C89  1  0.08098000  0.45620000  0.74410000  1.0
  C  C90  1  0.08704000  0.51865000  0.71484000  1.0
  C  C91  1  0.08302000  0.57741000  0.75533000  1.0
  C  C92  1  0.07174000  0.57585000  0.82387000  1.0
  C  C93  1  0.06634000  0.51271000  0.85144000  1.0
  C  C94  1  0.16719000  0.61255000  0.34094000  1.0
  C  C95  1  0.17733000  0.55422000  0.30170000  1.0
  C  C96  1  0.16749000  0.49016000  0.32689000  1.0
  C  C97  1  0.15026000  0.48640000  0.39386000  1.0
  C  C98  1  0.14277000  0.54395000  0.43518000  1.0
  C  C99  1  0.14995000  0.60706000  0.40758000  1.0
  C  C100  1  0.86421000  0.96992000  0.50057000  1.0
  C  C101  1  0.90195000  0.96881000  0.56066000  1.0
  C  C102  1  0.87120000  0.97333000  0.62222000  1.0
  C  C103  1  0.80143000  0.97908000  0.62265000  1.0
  C  C104  1  0.76247000  0.98104000  0.56344000  1.0
  C  C105  1  0.79449000  0.97546000  0.50238000  1.0
  C  C106  1  0.38670000  0.06853000  0.65117000  1.0
  C  C107  1  0.34825000  0.07487000  0.59226000  1.0
  C  C108  1  0.37495000  0.06421000  0.52923000  1.0
  C  C109  1  0.44236000  0.04737000  0.52676000  1.0
  C  C110  1  0.48274000  0.04267000  0.58465000  1.0
  C  C111  1  0.45435000  0.05346000  0.64703000  1.0
  C  C112  1  0.54164000  0.76633000  0.02119000  1.0
  C  C113  1  0.54662000  0.69922000  0.03733000  1.0
  C  C114  1  0.60955000  0.67203000  0.04722000  1.0
  C  C115  1  0.66734000  0.71410000  0.04234000  1.0
  C  C116  1  0.66371000  0.78191000  0.02781000  1.0
  C  C117  1  0.60034000  0.80711000  0.01559000  1.0
  C  C118  1  0.70705000  0.29871000  0.12736000  1.0
  C  C119  1  0.70079000  0.36631000  0.11359000  1.0
  C  C120  1  0.63732000  0.39263000  0.10457000  1.0
  C  C121  1  0.58025000  0.34922000  0.10783000  1.0
  C  C122  1  0.58507000  0.28088000  0.11965000  1.0
  C  C123  1  0.64900000  0.25651000  0.13110000  1.0
  C  C124  1  0.08092000  0.20989000  0.95691000  1.0
  C  C125  1  0.33470000  0.12013000  0.10106000  1.0
  C  C126  1  0.15777000  0.24041000  0.16687000  1.0
  C  C127  1  0.24784000  0.07266000  0.89911000  1.0
  C  C128  1  0.16549000  0.85834000  0.20113000  1.0
  C  C129  1  0.91470000  0.94127000  0.04381000  1.0
  C  C130  1  0.21664000  0.06030000  0.28192000  1.0
  C  C131  1  0.29783000  0.90879000  0.02666000  1.0
  C  C132  1  0.02702000  0.99688000  0.87140000  1.0
  C  C133  1  0.95419000  0.16152000  0.12297000  1.0
  C  C134  1  0.00479000  0.98611000  0.25466000  1.0
  C  C135  1  0.08221000  0.82535000  0.98341000  1.0
  C  C136  1  0.79529000  0.23464000  0.18655000  1.0
  C  C137  1  0.77415000  0.27008000  0.13157000  1.0
  C  C138  1  0.81649000  0.27512000  0.07733000  1.0
  C  C139  1  0.87562000  0.24124000  0.07587000  1.0
  C  C140  1  0.89569000  0.20470000  0.13042000  1.0
  C  C141  1  0.85646000  0.20357000  0.18684000  1.0
  C  C142  1  0.47231000  0.24908000  0.06833000  1.0
  C  C143  1  0.52336000  0.23637000  0.11549000  1.0
  C  C144  1  0.51312000  0.18146000  0.15600000  1.0
  C  C145  1  0.45336000  0.14175000  0.15075000  1.0
  C  C146  1  0.40202000  0.15665000  0.10528000  1.0
  C  C147  1  0.41254000  0.21042000  0.06362000  1.0
  C  C148  1  0.73700000  0.87840000  0.98748000  1.0
  C  C149  1  0.72596000  0.82546000  0.03023000  1.0
  C  C150  1  0.77654000  0.81393000  0.07823000  1.0
  C  C151  1  0.83657000  0.85206000  0.08189000  1.0
  C  C152  1  0.84775000  0.90419000  0.03841000  1.0
  C  C153  1  0.79704000  0.91769000  0.99169000  1.0
  C  C154  1  0.43352000  0.79300000  0.07157000  1.0
  C  C155  1  0.47550000  0.79667000  0.01698000  1.0
  C  C156  1  0.45544000  0.83299000  0.96224000  1.0
  C  C157  1  0.39539000  0.86602000  0.96229000  1.0
  C  C158  1  0.35645000  0.86590000  0.01888000  1.0
  C  C159  1  0.37570000  0.82883000  0.07334000  1.0
  C  C160  1  0.66728000  0.58185000  0.10638000  1.0
  C  C161  1  0.61570000  0.60097000  0.06285000  1.0
  C  C162  1  0.57103000  0.55020000  0.03401000  1.0
  C  C163  1  0.57816000  0.48318000  0.04757000  1.0
  C  C164  1  0.63005000  0.46399000  0.09070000  1.0
  C  C165  1  0.67438000  0.51483000  0.11999000  1.0
  C  C166  1  0.29067000  0.03890000  0.72046000  1.0
  C  C167  1  0.35313000  0.07396000  0.71560000  1.0
  C  C168  1  0.38047000  0.11142000  0.77196000  1.0
  C  C169  1  0.34598000  0.11452000  0.83134000  1.0
  C  C170  1  0.28482000  0.07777000  0.83598000  1.0
  C  C171  1  0.25766000  0.03963000  0.78001000  1.0
  C  C172  1  0.36355000  0.07408000  0.40539000  1.0
  C  C173  1  0.33323000  0.06824000  0.46724000  1.0
  C  C174  1  0.26250000  0.06450000  0.46734000  1.0
  C  C175  1  0.22370000  0.06570000  0.40842000  1.0
  C  C176  1  0.25486000  0.06756000  0.34717000  1.0
  C  C177  1  0.32526000  0.07189000  0.34633000  1.0
  C  C178  1  0.97018000  0.94107000  0.69356000  1.0
  C  C179  1  0.91156000  0.97675000  0.68546000  1.0
  C  C180  1  0.89220000  0.01825000  0.73922000  1.0
  C  C181  1  0.92972000  0.02377000  0.79876000  1.0
  C  C182  1  0.98828000  0.98826000  0.80644000  1.0
  C  C183  1  0.00828000  0.94681000  0.75324000  1.0
  C  C184  1  0.87881000  0.92885000  0.38091000  1.0
  C  C185  1  0.89963000  0.97032000  0.43707000  1.0
  C  C186  1  0.95615000  0.01472000  0.43268000  1.0
  C  C187  1  0.98961000  0.01899000  0.37354000  1.0
  C  C188  1  0.96899000  0.97702000  0.31780000  1.0
  C  C189  1  0.91398000  0.93117000  0.32211000  1.0
  C  C190  1  0.65941000  0.03551000  0.52216000  1.0
  C  C191  1  0.69012000  0.99337000  0.56684000  1.0
  C  C192  1  0.65084000  0.96672000  0.61702000  1.0
  C  C193  1  0.58400000  0.98233000  0.62299000  1.0
  C  C194  1  0.55356000  0.02518000  0.57885000  1.0
  C  C195  1  0.59258000  0.05105000  0.52810000  1.0
  C  C196  1  0.22771000  0.70065000  0.27586000  1.0
  C  C197  1  0.17142000  0.67881000  0.31066000  1.0
  C  C198  1  0.11605000  0.71963000  0.31345000  1.0
  C  C199  1  0.11523000  0.77818000  0.27880000  1.0
  C  C200  1  0.17134000  0.79928000  0.24344000  1.0
  C  C201  1  0.22842000  0.76120000  0.24386000  1.0
  C  C202  1  0.18076000  0.36598000  0.31288000  1.0
  C  C203  1  0.17140000  0.42795000  0.28412000  1.0
  C  C204  1  0.16281000  0.42760000  0.21422000  1.0
  C  C205  1  0.16236000  0.36806000  0.17483000  1.0
  C  C206  1  0.16739000  0.30659000  0.20480000  1.0
  C  C207  1  0.17689000  0.30629000  0.27433000  1.0
  C  C208  1  0.07318000  0.63890000  0.93604000  1.0
  C  C209  1  0.06819000  0.63859000  0.86590000  1.0
  C  C210  1  0.06148000  0.70075000  0.83666000  1.0
  C  C211  1  0.06462000  0.76043000  0.87518000  1.0
  C  C212  1  0.07075000  0.75990000  0.94490000  1.0
  C  C213  1  0.07286000  0.69839000  0.97523000  1.0
  C  C214  1  0.02894000  0.33293000  0.82797000  1.0
  C  C215  1  0.07133000  0.38929000  0.84736000  1.0
  C  C216  1  0.11521000  0.38584000  0.90328000  1.0
  C  C217  1  0.11764000  0.32760000  0.93799000  1.0
  C  C218  1  0.07420000  0.27191000  0.91923000  1.0
  C  C219  1  0.02928000  0.27511000  0.86446000  1.0
  C  C220  1  0.14246000  0.48029000  0.60998000  1.0
  C  C221  1  0.10000000  0.52386000  0.64315000  1.0
  C  C222  1  0.07136000  0.57405000  0.60625000  1.0
  C  C223  1  0.08485000  0.58072000  0.53931000  1.0
  C  C224  1  0.12752000  0.53733000  0.50618000  1.0
  C  C225  1  0.15595000  0.48699000  0.54303000  1.0
  O  O226  1  0.03154000  0.16763000  0.96060000  1.0
  O  O227  1  0.32418000  0.06534000  0.12963000  1.0
  O  O228  1  0.18231000  0.23084000  0.10992000  1.0
  O  O229  1  0.24687000  0.12149000  0.94179000  1.0
  O  O230  1  0.21720000  0.01475000  0.90341000  1.0
  O  O231  1  0.12386000  0.19634000  0.19855000  1.0
  O  O232  1  0.29001000  0.15057000  0.06785000  1.0
  O  O233  1  0.14012000  0.20447000  0.98308000  1.0
  O  O234  1  0.20615000  0.03291000  0.04364000  1.0
  O  O235  1  0.09433000  0.11503000  0.07924000  1.0
  O  O236  1  0.19885000  0.10450000  0.14777000  1.0
  O  O237  1  0.12069000  0.07337000  0.96463000  1.0
  O  O238  1  0.21609000  0.89779000  0.19229000  1.0
  O  O239  1  0.92511000  0.99678000  0.01640000  1.0
  O  O240  1  0.16048000  0.08670000  0.27383000  1.0
  O  O241  1  0.25639000  0.91587000  0.97844000  1.0
  O  O242  1  0.08231000  0.96882000  0.87986000  1.0
  O  O243  1  0.99424000  0.15275000  0.17197000  1.0
  O  O244  1  0.00563000  0.93813000  0.21076000  1.0
  O  O245  1  0.05862000  0.83475000  0.04088000  1.0
  O  O246  1  0.03226000  0.04526000  0.25002000  1.0
  O  O247  1  0.11874000  0.86817000  0.95291000  1.0
  O  O248  1  0.24700000  0.02637000  0.23711000  1.0
  O  O249  1  0.95726000  0.13425000  0.06386000  1.0
  O  O250  1  0.99981000  0.03491000  0.91519000  1.0
  O  O251  1  0.29471000  0.93554000  0.08598000  1.0
  O  O252  1  0.10625000  0.86281000  0.17489000  1.0
  O  O253  1  0.95856000  0.91179000  0.07885000  1.0
  O  O254  1  0.06798000  0.97822000  0.02278000  1.0
  O  O255  1  0.12633000  0.00074000  0.15829000  1.0
  O  O256  1  0.01184000  0.03042000  0.11924000  1.0
  O  O257  1  0.16341000  0.91888000  0.07163000  1.0
