# generated using pymatgen
data_ZnH14C13S(NO2)2
_symmetry_space_group_name_H-M   'P 1'
_cell_length_a   9.44288000
_cell_length_b   15.51780000
_cell_length_c   22.14720000
_cell_angle_alpha   89.99890000
_cell_angle_beta   90.00030000
_cell_angle_gamma   89.99980000
_symmetry_Int_Tables_number   1
_chemical_formula_structural   ZnH14C13S(NO2)2
_chemical_formula_sum   'Zn8 H112 C104 S8 N16 O32'
_cell_volume   3245.28952801
_cell_formula_units_Z   8
loop_
 _symmetry_equiv_pos_site_id
 _symmetry_equiv_pos_as_xyz
  1  'x, y, z'
loop_
 _atom_site_type_symbol
 _atom_site_label
 _atom_site_symmetry_multiplicity
 _atom_site_fract_x
 _atom_site_fract_y
 _atom_site_fract_z
 _atom_site_occupancy
  Zn  Zn0  1  0.81322000  0.69207000  0.51301000  1.0
  Zn  Zn1  1  0.68679000  0.30793000  0.01302000  1.0
  Zn  Zn2  1  0.18679000  0.19207000  0.98698000  1.0
  Zn  Zn3  1  0.31321000  0.80793000  0.48698000  1.0
  Zn  Zn4  1  0.18678000  0.30792000  0.48699000  1.0
  Zn  Zn5  1  0.31321000  0.69208000  0.98698000  1.0
  Zn  Zn6  1  0.81321000  0.80793000  0.01302000  1.0
  Zn  Zn7  1  0.68679000  0.19207000  0.51302000  1.0
  H  H8  1  0.81630000  0.49766000  0.49885000  1.0
  H  H9  1  0.68369000  0.50235000  0.99885000  1.0
  H  H10  1  0.18370000  0.99765000  0.00115000  1.0
  H  H11  1  0.31630000  0.00234000  0.50115000  1.0
  H  H12  1  0.18370000  0.50234000  0.50115000  1.0
  H  H13  1  0.31630000  0.49766000  0.00115000  1.0
  H  H14  1  0.81631000  0.00235000  0.99885000  1.0
  H  H15  1  0.68370000  0.99766000  0.49885000  1.0
  H  H16  1  0.67007000  0.38999000  0.44536000  1.0
  H  H17  1  0.82993000  0.61002000  0.94536000  1.0
  H  H18  1  0.32993000  0.88998000  0.05464000  1.0
  H  H19  1  0.17007000  0.11001000  0.55464000  1.0
  H  H20  1  0.32993000  0.61001000  0.55464000  1.0
  H  H21  1  0.17008000  0.38999000  0.05464000  1.0
  H  H22  1  0.67007000  0.11002000  0.94536000  1.0
  H  H23  1  0.82992000  0.89000000  0.44536000  1.0
  H  H24  1  0.39284000  0.59697000  0.39028000  1.0
  H  H25  1  0.10717000  0.40304000  0.89028000  1.0
  H  H26  1  0.60716000  0.09696000  0.10972000  1.0
  H  H27  1  0.89283000  0.90302000  0.60972000  1.0
  H  H28  1  0.60716000  0.40303000  0.60972000  1.0
  H  H29  1  0.89284000  0.59697000  0.10972000  1.0
  H  H30  1  0.39283000  0.90304000  0.89028000  1.0
  H  H31  1  0.10716000  0.09697000  0.39027000  1.0
  H  H32  1  0.55126000  0.69815000  0.44690000  1.0
  H  H33  1  0.94874000  0.30185000  0.94691000  1.0
  H  H34  1  0.44874000  0.19814000  0.05310000  1.0
  H  H35  1  0.05126000  0.80184000  0.55310000  1.0
  H  H36  1  0.44874000  0.30185000  0.55310000  1.0
  H  H37  1  0.05126000  0.69815000  0.05310000  1.0
  H  H38  1  0.55126000  0.80186000  0.94690000  1.0
  H  H39  1  0.94874000  0.19816000  0.44690000  1.0
  H  H40  1  0.43495000  0.35977000  0.39378000  1.0
  H  H41  1  0.06505000  0.64024000  0.89378000  1.0
  H  H42  1  0.56506000  0.85975000  0.10622000  1.0
  H  H43  1  0.93494000  0.14023000  0.60622000  1.0
  H  H44  1  0.56505000  0.64023000  0.60622000  1.0
  H  H45  1  0.93496000  0.35976000  0.10623000  1.0
  H  H46  1  0.43494000  0.14025000  0.89378000  1.0
  H  H47  1  0.06505000  0.85977000  0.39378000  1.0
  H  H48  1  0.32454000  0.44770000  0.37158000  1.0
  H  H49  1  0.17546000  0.55231000  0.87158000  1.0
  H  H50  1  0.67546000  0.94769000  0.12842000  1.0
  H  H51  1  0.82454000  0.05229000  0.62842000  1.0
  H  H52  1  0.67545000  0.55229000  0.62842000  1.0
  H  H53  1  0.82455000  0.44770000  0.12842000  1.0
  H  H54  1  0.32454000  0.05231000  0.87159000  1.0
  H  H55  1  0.17545000  0.94771000  0.37158000  1.0
  H  H56  1  0.60073000  0.38846000  0.31170000  1.0
  H  H57  1  0.89928000  0.61155000  0.81169000  1.0
  H  H58  1  0.39929000  0.88844000  0.18830000  1.0
  H  H59  1  0.10073000  0.11154000  0.68830000  1.0
  H  H60  1  0.39927000  0.61154000  0.68830000  1.0
  H  H61  1  0.10073000  0.38845000  0.18831000  1.0
  H  H62  1  0.60071000  0.11156000  0.81170000  1.0
  H  H63  1  0.89927000  0.88846000  0.31170000  1.0
  H  H64  1  0.51287000  0.48486000  0.29154000  1.0
  H  H65  1  0.98714000  0.51514000  0.79155000  1.0
  H  H66  1  0.48713000  0.98485000  0.20845000  1.0
  H  H67  1  0.01287000  0.01514000  0.70846000  1.0
  H  H68  1  0.48712000  0.51513000  0.70846000  1.0
  H  H69  1  0.01288000  0.48486000  0.20846000  1.0
  H  H70  1  0.51287000  0.01515000  0.79155000  1.0
  H  H71  1  0.98712000  0.98486000  0.29154000  1.0
  H  H72  1  0.37669000  0.30537000  0.28755000  1.0
  H  H73  1  0.12332000  0.69463000  0.78755000  1.0
  H  H74  1  0.62333000  0.80537000  0.21245000  1.0
  H  H75  1  0.87670000  0.19463000  0.71244000  1.0
  H  H76  1  0.62330000  0.69462000  0.71244000  1.0
  H  H77  1  0.87670000  0.30537000  0.21245000  1.0
  H  H78  1  0.37667000  0.19463000  0.78755000  1.0
  H  H79  1  0.12329000  0.80537000  0.28756000  1.0
  H  H80  1  0.29689000  0.40316000  0.26300000  1.0
  H  H81  1  0.20312000  0.59684000  0.76301000  1.0
  H  H82  1  0.70312000  0.90315000  0.23699000  1.0
  H  H83  1  0.79689000  0.09685000  0.73699000  1.0
  H  H84  1  0.70310000  0.59684000  0.73700000  1.0
  H  H85  1  0.79689000  0.40316000  0.23699000  1.0
  H  H86  1  0.29688000  0.09685000  0.76301000  1.0
  H  H87  1  0.20310000  0.90316000  0.26301000  1.0
  H  H88  1  0.39293000  0.47801000  0.16701000  1.0
  H  H89  1  0.10711000  0.52200000  0.66701000  1.0
  H  H90  1  0.60711000  0.97800000  0.33298000  1.0
  H  H91  1  0.89292000  0.02199000  0.83299000  1.0
  H  H92  1  0.60706000  0.52199000  0.83299000  1.0
  H  H93  1  0.89290000  0.47800000  0.33299000  1.0
  H  H94  1  0.39290000  0.02200000  0.66702000  1.0
  H  H95  1  0.10707000  0.97801000  0.16701000  1.0
  H  H96  1  0.51182000  0.45277000  0.06908000  1.0
  H  H97  1  0.98821000  0.54724000  0.56908000  1.0
  H  H98  1  0.48821000  0.95276000  0.43092000  1.0
  H  H99  1  0.01181000  0.04723000  0.93092000  1.0
  H  H100  1  0.48818000  0.54724000  0.93092000  1.0
  H  H101  1  0.01179000  0.45276000  0.43092000  1.0
  H  H102  1  0.51180000  0.04724000  0.56908000  1.0
  H  H103  1  0.98819000  0.95276000  0.06908000  1.0
  H  H104  1  0.68753000  0.22281000  0.12975000  1.0
  H  H105  1  0.81246000  0.77718000  0.62975000  1.0
  H  H106  1  0.31246000  0.72282000  0.37025000  1.0
  H  H107  1  0.18753000  0.27719000  0.87025000  1.0
  H  H108  1  0.31247000  0.77719000  0.87025000  1.0
  H  H109  1  0.18754000  0.22282000  0.37025000  1.0
  H  H110  1  0.68753000  0.27718000  0.62975000  1.0
  H  H111  1  0.81247000  0.72281000  0.12975000  1.0
  H  H112  1  0.56304000  0.23492000  0.22889000  1.0
  H  H113  1  0.93695000  0.76507000  0.72889000  1.0
  H  H114  1  0.43695000  0.73492000  0.27111000  1.0
  H  H115  1  0.06304000  0.26508000  0.77111000  1.0
  H  H116  1  0.43696000  0.76509000  0.77111000  1.0
  H  H117  1  0.06306000  0.23493000  0.27111000  1.0
  H  H118  1  0.56304000  0.26509000  0.72889000  1.0
  H  H119  1  0.93695000  0.73492000  0.22889000  1.0
  C  C120  1  0.72253000  0.51792000  0.47393000  1.0
  C  C121  1  0.77747000  0.48209000  0.97394000  1.0
  C  C122  1  0.27747000  0.01791000  0.02606000  1.0
  C  C123  1  0.22252000  0.98208000  0.52606000  1.0
  C  C124  1  0.27747000  0.48208000  0.52607000  1.0
  C  C125  1  0.22252000  0.51792000  0.02606000  1.0
  C  C126  1  0.72253000  0.98209000  0.97394000  1.0
  C  C127  1  0.77747000  0.01792000  0.47393000  1.0
  C  C128  1  0.64075000  0.45785000  0.44318000  1.0
  C  C129  1  0.85925000  0.54216000  0.94318000  1.0
  C  C130  1  0.35925000  0.95784000  0.05682000  1.0
  C  C131  1  0.14075000  0.04215000  0.55682000  1.0
  C  C132  1  0.35925000  0.54215000  0.55682000  1.0
  C  C133  1  0.14076000  0.45785000  0.05682000  1.0
  C  C134  1  0.64076000  0.04216000  0.94318000  1.0
  C  C135  1  0.85924000  0.95785000  0.44318000  1.0
  C  C136  1  0.52099000  0.48522000  0.41128000  1.0
  C  C137  1  0.97901000  0.51478000  0.91128000  1.0
  C  C138  1  0.47901000  0.98521000  0.08872000  1.0
  C  C139  1  0.02099000  0.01477000  0.58872000  1.0
  C  C140  1  0.47900000  0.51477000  0.58872000  1.0
  C  C141  1  0.02100000  0.48522000  0.08872000  1.0
  C  C142  1  0.52100000  0.01479000  0.91128000  1.0
  C  C143  1  0.97900000  0.98523000  0.41128000  1.0
  C  C144  1  0.48775000  0.57313000  0.41273000  1.0
  C  C145  1  0.01225000  0.42688000  0.91274000  1.0
  C  C146  1  0.51225000  0.07312000  0.08727000  1.0
  C  C147  1  0.98775000  0.92687000  0.58727000  1.0
  C  C148  1  0.51225000  0.42687000  0.58727000  1.0
  C  C149  1  0.98776000  0.57312000  0.08727000  1.0
  C  C150  1  0.48775000  0.92688000  0.91274000  1.0
  C  C151  1  0.01225000  0.07313000  0.41273000  1.0
  C  C152  1  0.57405000  0.62959000  0.44410000  1.0
  C  C153  1  0.92595000  0.37042000  0.94411000  1.0
  C  C154  1  0.42595000  0.12958000  0.05589000  1.0
  C  C155  1  0.07405000  0.87040000  0.55589000  1.0
  C  C156  1  0.42595000  0.37040000  0.55590000  1.0
  C  C157  1  0.07405000  0.62959000  0.05589000  1.0
  C  C158  1  0.57405000  0.87042000  0.94411000  1.0
  C  C159  1  0.92595000  0.12960000  0.44411000  1.0
  C  C160  1  0.43460000  0.42459000  0.37385000  1.0
  C  C161  1  0.06540000  0.57542000  0.87385000  1.0
  C  C162  1  0.56540000  0.92458000  0.12615000  1.0
  C  C163  1  0.93460000  0.07540000  0.62615000  1.0
  C  C164  1  0.56539000  0.57541000  0.62615000  1.0
  C  C165  1  0.93461000  0.42459000  0.12616000  1.0
  C  C166  1  0.43460000  0.07542000  0.87385000  1.0
  C  C167  1  0.06539000  0.92460000  0.37385000  1.0
  C  C168  1  0.49593000  0.41952000  0.30968000  1.0
  C  C169  1  0.00408000  0.58048000  0.80968000  1.0
  C  C170  1  0.50408000  0.91951000  0.19032000  1.0
  C  C171  1  0.99593000  0.08047000  0.69032000  1.0
  C  C172  1  0.50407000  0.58047000  0.69032000  1.0
  C  C173  1  0.99593000  0.41952000  0.19032000  1.0
  C  C174  1  0.49592000  0.08049000  0.80968000  1.0
  C  C175  1  0.00406000  0.91952000  0.30968000  1.0
  C  C176  1  0.39827000  0.36867000  0.26719000  1.0
  C  C177  1  0.10174000  0.63132000  0.76719000  1.0
  C  C178  1  0.60174000  0.86867000  0.23281000  1.0
  C  C179  1  0.89827000  0.13133000  0.73280000  1.0
  C  C180  1  0.60172000  0.63132000  0.73281000  1.0
  C  C181  1  0.89827000  0.36868000  0.23281000  1.0
  C  C182  1  0.39826000  0.13133000  0.76719000  1.0
  C  C183  1  0.10172000  0.86867000  0.26719000  1.0
  C  C184  1  0.46501000  0.35711000  0.20641000  1.0
  C  C185  1  0.03500000  0.64290000  0.70641000  1.0
  C  C186  1  0.53500000  0.85710000  0.29359000  1.0
  C  C187  1  0.96501000  0.14289000  0.79359000  1.0
  C  C188  1  0.53498000  0.64290000  0.79359000  1.0
  C  C189  1  0.96501000  0.35710000  0.29359000  1.0
  C  C190  1  0.46500000  0.14290000  0.70641000  1.0
  C  C191  1  0.03499000  0.85710000  0.20641000  1.0
  C  C192  1  0.45375000  0.41900000  0.16054000  1.0
  C  C193  1  0.04627000  0.58100000  0.66054000  1.0
  C  C194  1  0.54628000  0.91899000  0.33946000  1.0
  C  C195  1  0.95375000  0.08100000  0.83946000  1.0
  C  C196  1  0.54624000  0.58100000  0.83946000  1.0
  C  C197  1  0.95374000  0.41900000  0.33946000  1.0
  C  C198  1  0.45373000  0.08101000  0.66054000  1.0
  C  C199  1  0.04625000  0.91900000  0.16054000  1.0
  C  C200  1  0.52068000  0.40581000  0.10541000  1.0
  C  C201  1  0.97934000  0.59419000  0.60541000  1.0
  C  C202  1  0.47934000  0.90581000  0.39459000  1.0
  C  C203  1  0.02068000  0.09419000  0.89459000  1.0
  C  C204  1  0.47931000  0.59419000  0.89459000  1.0
  C  C205  1  0.02067000  0.40581000  0.39459000  1.0
  C  C206  1  0.52067000  0.09419000  0.60541000  1.0
  C  C207  1  0.97932000  0.90581000  0.10541000  1.0
  C  C208  1  0.61564000  0.27612000  0.13917000  1.0
  C  C209  1  0.88437000  0.72387000  0.63916000  1.0
  C  C210  1  0.38436000  0.77613000  0.36083000  1.0
  C  C211  1  0.11563000  0.22388000  0.86083000  1.0
  C  C212  1  0.38436000  0.72388000  0.86083000  1.0
  C  C213  1  0.11563000  0.27613000  0.36084000  1.0
  C  C214  1  0.61563000  0.22388000  0.63917000  1.0
  C  C215  1  0.88437000  0.77612000  0.13917000  1.0
  C  C216  1  0.54899000  0.28462000  0.19456000  1.0
  C  C217  1  0.95101000  0.71537000  0.69456000  1.0
  C  C218  1  0.45101000  0.78463000  0.30544000  1.0
  C  C219  1  0.04899000  0.21537000  0.80543000  1.0
  C  C220  1  0.45100000  0.71538000  0.80544000  1.0
  C  C221  1  0.04899000  0.28463000  0.30544000  1.0
  C  C222  1  0.54898000  0.21538000  0.69456000  1.0
  C  C223  1  0.95101000  0.78462000  0.19456000  1.0
  S  S224  1  0.07140000  0.67463000  0.44013000  1.0
  S  S225  1  0.42861000  0.32537000  0.94013000  1.0
  S  S226  1  0.92861000  0.17463000  0.05987000  1.0
  S  S227  1  0.57140000  0.82537000  0.55986000  1.0
  S  S228  1  0.92860000  0.32537000  0.55987000  1.0
  S  S229  1  0.57139000  0.67462000  0.05986000  1.0
  S  S230  1  0.07139000  0.82537000  0.94013000  1.0
  S  S231  1  0.42859000  0.17463000  0.44014000  1.0
  N  N232  1  0.69033000  0.60270000  0.47408000  1.0
  N  N233  1  0.80967000  0.39730000  0.97408000  1.0
  N  N234  1  0.30967000  0.10269000  0.02592000  1.0
  N  N235  1  0.19033000  0.89729000  0.52592000  1.0
  N  N236  1  0.30967000  0.39729000  0.52592000  1.0
  N  N237  1  0.19033000  0.60270000  0.02591000  1.0
  N  N238  1  0.69033000  0.89730000  0.97408000  1.0
  N  N239  1  0.80968000  0.10271000  0.47408000  1.0
  N  N240  1  0.60008000  0.33498000  0.09467000  1.0
  N  N241  1  0.89993000  0.66501000  0.59467000  1.0
  N  N242  1  0.39993000  0.83498000  0.40533000  1.0
  N  N243  1  0.10007000  0.16502000  0.90533000  1.0
  N  N244  1  0.39992000  0.66502000  0.90533000  1.0
  N  N245  1  0.10007000  0.33498000  0.40533000  1.0
  N  N246  1  0.60007000  0.16502000  0.59467000  1.0
  N  N247  1  0.89992000  0.83498000  0.09467000  1.0
  O  O248  1  0.95520000  0.73980000  0.45568000  1.0
  O  O249  1  0.54482000  0.26020000  0.95568000  1.0
  O  O250  1  0.04482000  0.23980000  0.04432000  1.0
  O  O251  1  0.45520000  0.76020000  0.54432000  1.0
  O  O252  1  0.04480000  0.26019000  0.54432000  1.0
  O  O253  1  0.45519000  0.73980000  0.04432000  1.0
  O  O254  1  0.95518000  0.76020000  0.95568000  1.0
  O  O255  1  0.54480000  0.23980000  0.45568000  1.0
  O  O256  1  0.20229000  0.70037000  0.47616000  1.0
  O  O257  1  0.29773000  0.29962000  0.97616000  1.0
  O  O258  1  0.79773000  0.20038000  0.02384000  1.0
  O  O259  1  0.70228000  0.79962000  0.52383000  1.0
  O  O260  1  0.79773000  0.29962000  0.52384000  1.0
  O  O261  1  0.70227000  0.70038000  0.02383000  1.0
  O  O262  1  0.20226000  0.79963000  0.97616000  1.0
  O  O263  1  0.29772000  0.20037000  0.47617000  1.0
  O  O264  1  0.10139000  0.67834000  0.37534000  1.0
  O  O265  1  0.39862000  0.32166000  0.87534000  1.0
  O  O266  1  0.89862000  0.17834000  0.12466000  1.0
  O  O267  1  0.60140000  0.82166000  0.62466000  1.0
  O  O268  1  0.89861000  0.32166000  0.62467000  1.0
  O  O269  1  0.60138000  0.67833000  0.12466000  1.0
  O  O270  1  0.10138000  0.82166000  0.87534000  1.0
  O  O271  1  0.39860000  0.17834000  0.37534000  1.0
  O  O272  1  0.02599000  0.58923000  0.46178000  1.0
  O  O273  1  0.47402000  0.41077000  0.96178000  1.0
  O  O274  1  0.97402000  0.08923000  0.03822000  1.0
  O  O275  1  0.52599000  0.91077000  0.53821000  1.0
  O  O276  1  0.97403000  0.41076000  0.53822000  1.0
  O  O277  1  0.52598000  0.58923000  0.03821000  1.0
  O  O278  1  0.02597000  0.91077000  0.96178000  1.0
  O  O279  1  0.47401000  0.08923000  0.46179000  1.0
