# generated using pymatgen
data_SnH12C9BrN3
_symmetry_space_group_name_H-M   'P 1'
_cell_length_a   8.63631000
_cell_length_b   10.72080000
_cell_length_c   13.55680000
_cell_angle_alpha   89.99980000
_cell_angle_beta   76.01600000
_cell_angle_gamma   89.99980000
_symmetry_Int_Tables_number   1
_chemical_formula_structural   SnH12C9BrN3
_chemical_formula_sum   'Sn4 H48 C36 Br4 N12'
_cell_volume   1217.99903627
_cell_formula_units_Z   4
loop_
 _symmetry_equiv_pos_site_id
 _symmetry_equiv_pos_as_xyz
  1  'x, y, z'
loop_
 _atom_site_type_symbol
 _atom_site_label
 _atom_site_symmetry_multiplicity
 _atom_site_fract_x
 _atom_site_fract_y
 _atom_site_fract_z
 _atom_site_occupancy
  Sn  Sn0  1  0.58798000  0.75048000  0.18796000  1.0
  Sn  Sn1  1  0.91201000  0.25048000  0.31204000  1.0
  Sn  Sn2  1  0.41202000  0.24952000  0.81204000  1.0
  Sn  Sn3  1  0.08799000  0.74952000  0.68796000  1.0
  H  H4  1  0.63717000  0.84872000  0.36304000  1.0
  H  H5  1  0.86283000  0.34872000  0.13695000  1.0
  H  H6  1  0.36283000  0.15128000  0.63696000  1.0
  H  H7  1  0.13717000  0.65128000  0.86304000  1.0
  H  H8  1  0.63132000  0.68247000  0.37123000  1.0
  H  H9  1  0.86867000  0.18247000  0.12877000  1.0
  H  H10  1  0.36867000  0.31754000  0.62877000  1.0
  H  H11  1  0.13132000  0.81754000  0.87123000  1.0
  H  H12  1  0.91198000  0.67633000  0.25022000  1.0
  H  H13  1  0.58802000  0.17633000  0.24978000  1.0
  H  H14  1  0.08801000  0.32367000  0.74978000  1.0
  H  H15  1  0.41198000  0.82367000  0.75022000  1.0
  H  H16  1  0.91355000  0.84053000  0.24887000  1.0
  H  H17  1  0.58645000  0.34053000  0.25113000  1.0
  H  H18  1  0.08646000  0.15947000  0.75113000  1.0
  H  H19  1  0.41355000  0.65947000  0.74887000  1.0
  H  H20  1  0.73334000  0.53065000  0.13852000  1.0
  H  H21  1  0.76666000  0.03065000  0.36148000  1.0
  H  H22  1  0.26667000  0.46936000  0.86148000  1.0
  H  H23  1  0.23334000  0.96935000  0.63852000  1.0
  H  H24  1  0.57952000  0.54842000  0.07254000  1.0
  H  H25  1  0.92048000  0.04842000  0.42746000  1.0
  H  H26  1  0.42048000  0.45158000  0.92747000  1.0
  H  H27  1  0.07952000  0.95158000  0.57254000  1.0
  H  H28  1  0.75678000  0.69913000  0.95058000  1.0
  H  H29  1  0.74322000  0.19912000  0.54943000  1.0
  H  H30  1  0.24322000  0.30087000  0.04943000  1.0
  H  H31  1  0.25678000  0.80088000  0.45057000  1.0
  H  H32  1  0.91208000  0.67391000  0.01265000  1.0
  H  H33  1  0.58792000  0.17391000  0.48735000  1.0
  H  H34  1  0.08793000  0.32609000  0.98735000  1.0
  H  H35  1  0.41208000  0.82609000  0.51265000  1.0
  H  H36  1  0.21349000  0.25746000  0.33551000  1.0
  H  H37  1  0.28650000  0.75746000  0.16449000  1.0
  H  H38  1  0.78651000  0.74254000  0.66449000  1.0
  H  H39  1  0.71350000  0.24254000  0.83551000  1.0
  H  H40  1  0.20378000  0.33432000  0.22102000  1.0
  H  H41  1  0.29622000  0.83432000  0.27898000  1.0
  H  H42  1  0.79622000  0.66568000  0.77898000  1.0
  H  H43  1  0.70378000  0.16568000  0.72102000  1.0
  H  H44  1  0.04824000  0.51404000  0.34390000  1.0
  H  H45  1  0.45175000  0.01404000  0.15610000  1.0
  H  H46  1  0.95176000  0.48596000  0.65610000  1.0
  H  H47  1  0.54824000  0.98596000  0.84390000  1.0
  H  H48  1  0.12697000  0.44247000  0.43817000  1.0
  H  H49  1  0.37303000  0.94247000  0.06183000  1.0
  H  H50  1  0.87303000  0.55753000  0.56183000  1.0
  H  H51  1  0.62697000  0.05753000  0.93817000  1.0
  C  C52  1  0.68117000  0.76200000  0.32308000  1.0
  C  C53  1  0.81883000  0.26201000  0.17692000  1.0
  C  C54  1  0.31883000  0.23800000  0.67692000  1.0
  C  C55  1  0.18117000  0.73799000  0.82308000  1.0
  C  C56  1  0.86417000  0.75912000  0.29573000  1.0
  C  C57  1  0.63583000  0.25912000  0.20427000  1.0
  C  C58  1  0.13583000  0.24088000  0.70427000  1.0
  C  C59  1  0.36417000  0.74088000  0.79573000  1.0
  C  C60  1  0.92872000  0.75838000  0.38530000  1.0
  C  C61  1  0.57128000  0.25838000  0.11470000  1.0
  C  C62  1  0.07128000  0.24162000  0.61470000  1.0
  C  C63  1  0.42872000  0.74162000  0.88530000  1.0
  C  C64  1  0.68264000  0.59389000  0.09095000  1.0
  C  C65  1  0.81735000  0.09389000  0.40905000  1.0
  C  C66  1  0.31736000  0.40611000  0.90905000  1.0
  C  C67  1  0.18264000  0.90611000  0.59095000  1.0
  C  C68  1  0.80701000  0.63032000  0.99449000  1.0
  C  C69  1  0.69299000  0.13032000  0.50552000  1.0
  C  C70  1  0.19298000  0.36968000  0.00551000  1.0
  C  C71  1  0.30701000  0.86968000  0.49448000  1.0
  C  C72  1  0.86107000  0.52297000  0.92964000  1.0
  C  C73  1  0.63893000  0.02297000  0.57036000  1.0
  C  C74  1  0.13893000  0.47703000  0.07036000  1.0
  C  C75  1  0.36107000  0.97703000  0.42964000  1.0
  C  C76  1  0.14805000  0.32727000  0.30255000  1.0
  C  C77  1  0.35195000  0.82727000  0.19744000  1.0
  C  C78  1  0.85195000  0.67272000  0.69745000  1.0
  C  C79  1  0.64805000  0.17273000  0.80255000  1.0
  C  C80  1  0.14565000  0.45387000  0.35548000  1.0
  C  C81  1  0.35435000  0.95387000  0.14452000  1.0
  C  C82  1  0.85435000  0.54613000  0.64452000  1.0
  C  C83  1  0.64565000  0.04613000  0.85548000  1.0
  C  C84  1  0.29265000  0.52208000  0.31805000  1.0
  C  C85  1  0.20735000  0.02208000  0.18195000  1.0
  C  C86  1  0.70735000  0.47792000  0.68195000  1.0
  C  C87  1  0.79265000  0.97792000  0.81805000  1.0
  Br  Br88  1  0.76981000  0.93194000  0.09137000  1.0
  Br  Br89  1  0.73019000  0.43195000  0.40863000  1.0
  Br  Br90  1  0.23018000  0.06806000  0.90863000  1.0
  Br  Br91  1  0.26982000  0.56805000  0.59137000  1.0
  N  N92  1  0.97877000  0.75646000  0.45790000  1.0
  N  N93  1  0.52123000  0.25646000  0.04210000  1.0
  N  N94  1  0.02123000  0.24353000  0.54211000  1.0
  N  N95  1  0.47877000  0.74353000  0.95790000  1.0
  N  N96  1  0.90347000  0.43626000  0.87810000  1.0
  N  N97  1  0.59653000  0.93626000  0.62189000  1.0
  N  N98  1  0.09653000  0.56374000  0.12189000  1.0
  N  N99  1  0.40347000  0.06374000  0.37810000  1.0
  N  N100  1  0.41056000  0.57599000  0.28421000  1.0
  N  N101  1  0.08944000  0.07599000  0.21579000  1.0
  N  N102  1  0.58944000  0.42401000  0.71579000  1.0
  N  N103  1  0.91055000  0.92401000  0.78421000  1.0
