# generated using pymatgen
data_Zn3H18C16(NO)12
_symmetry_space_group_name_H-M   'P 1'
_cell_length_a   4.82018000
_cell_length_b   17.10844006
_cell_length_c   17.61660000
_cell_angle_alpha   88.84440143
_cell_angle_beta   90.01090000
_cell_angle_gamma   81.89644264
_symmetry_Int_Tables_number   1
_chemical_formula_structural   Zn3H18C16(NO)12
_chemical_formula_sum   'Zn6 H36 C32 N24 O24'
_cell_volume   1437.96103702
_cell_formula_units_Z   2
loop_
 _symmetry_equiv_pos_site_id
 _symmetry_equiv_pos_as_xyz
  1  'x, y, z'
loop_
 _atom_site_type_symbol
 _atom_site_label
 _atom_site_symmetry_multiplicity
 _atom_site_fract_x
 _atom_site_fract_y
 _atom_site_fract_z
 _atom_site_occupancy
  Zn  Zn0  1  0.00348000  0.80011000  0.13311000  1.0
  Zn  Zn1  1  0.80261000  0.19971000  0.36683000  1.0
  Zn  Zn2  1  0.99654000  0.19989000  0.86689000  1.0
  Zn  Zn3  1  0.19737000  0.80029000  0.63317000  1.0
  Zn  Zn4  1  0.23548000  0.99990000  0.24988000  1.0
  Zn  Zn5  1  0.76454000  0.00009000  0.75011000  1.0
  H  H6  1  0.76792000  0.49935000  0.85468000  1.0
  H  H7  1  0.26695000  0.50060000  0.64515000  1.0
  H  H8  1  0.23210000  0.50064000  0.14532000  1.0
  H  H9  1  0.73302000  0.49941000  0.35485000  1.0
  H  H10  1  0.99354000  0.48131000  0.93465000  1.0
  H  H11  1  0.47485000  0.51868000  0.56530000  1.0
  H  H12  1  0.00648000  0.51869000  0.06536000  1.0
  H  H13  1  0.52512000  0.48133000  0.43470000  1.0
  H  H14  1  0.92103000  0.65135000  0.82316000  1.0
  H  H15  1  0.57241000  0.34865000  0.67660000  1.0
  H  H16  1  0.07898000  0.34865000  0.17685000  1.0
  H  H17  1  0.42758000  0.65135000  0.32340000  1.0
  H  H18  1  0.73031000  0.74700000  0.83559000  1.0
  H  H19  1  0.47761000  0.25298000  0.66418000  1.0
  H  H20  1  0.26970000  0.25299000  0.16441000  1.0
  H  H21  1  0.52236000  0.74703000  0.33582000  1.0
  H  H22  1  0.75548000  0.80063000  0.97222000  1.0
  H  H23  1  0.55636000  0.19931000  0.52756000  1.0
  H  H24  1  0.24454000  0.19937000  0.02778000  1.0
  H  H25  1  0.44365000  0.80068000  0.47244000  1.0
  H  H26  1  0.45801000  0.67454000  0.16702000  1.0
  H  H27  1  0.13251000  0.32541000  0.33278000  1.0
  H  H28  1  0.54200000  0.32546000  0.83299000  1.0
  H  H29  1  0.86747000  0.67459000  0.66722000  1.0
  H  H30  1  0.76696000  0.60849000  0.15416000  1.0
  H  H31  1  0.37620000  0.39125000  0.34566000  1.0
  H  H32  1  0.23305000  0.39152000  0.84584000  1.0
  H  H33  1  0.62380000  0.60874000  0.65434000  1.0
  H  H34  1  0.82389000  0.98885000  0.33040000  1.0
  H  H35  1  0.81216000  0.01101000  0.16961000  1.0
  H  H36  1  0.17612000  0.01115000  0.66959000  1.0
  H  H37  1  0.18785000  0.98899000  0.83038000  1.0
  H  H38  1  0.94748000  0.89784000  0.31623000  1.0
  H  H39  1  0.84505000  0.10201000  0.18387000  1.0
  H  H40  1  0.05252000  0.10216000  0.68376000  1.0
  H  H41  1  0.15497000  0.89799000  0.81613000  1.0
  C  C42  1  0.30663000  0.67884000  0.01924000  1.0
  C  C43  1  0.98477000  0.32128000  0.48046000  1.0
  C  C44  1  0.69340000  0.32116000  0.98076000  1.0
  C  C45  1  0.01520000  0.67873000  0.51954000  1.0
  C  C46  1  0.53649000  0.63369000  0.05758000  1.0
  C  C47  1  0.16982000  0.36639000  0.44216000  1.0
  C  C48  1  0.46352000  0.36632000  0.94242000  1.0
  C  C49  1  0.83014000  0.63362000  0.55784000  1.0
  C  C50  1  0.65055000  0.56980000  0.94256000  1.0
  C  C51  1  0.21989000  0.43029000  0.55719000  1.0
  C  C52  1  0.34948000  0.43020000  0.05744000  1.0
  C  C53  1  0.78006000  0.56972000  0.44281000  1.0
  C  C54  1  0.13582000  0.74784000  0.78499000  1.0
  C  C55  1  0.88391000  0.25224000  0.71487000  1.0
  C  C56  1  0.86417000  0.25216000  0.21502000  1.0
  C  C57  1  0.11608000  0.74776000  0.28513000  1.0
  C  C58  1  0.93974000  0.71183000  0.83968000  1.0
  C  C59  1  0.65178000  0.28818000  0.66010000  1.0
  C  C60  1  0.06027000  0.28816000  0.16033000  1.0
  C  C61  1  0.34820000  0.71182000  0.33990000  1.0
  C  C62  1  0.93946000  0.75616000  0.97619000  1.0
  C  C63  1  0.69561000  0.24383000  0.52360000  1.0
  C  C64  1  0.06056000  0.24384000  0.02381000  1.0
  C  C65  1  0.30437000  0.75618000  0.47641000  1.0
  C  C66  1  0.27322000  0.66059000  0.94285000  1.0
  C  C67  1  0.93332000  0.33953000  0.55686000  1.0
  C  C68  1  0.72680000  0.33941000  0.05715000  1.0
  C  C69  1  0.06663000  0.66048000  0.44314000  1.0
  C  C70  1  0.45650000  0.88855000  0.15579000  1.0
  C  C71  1  0.34411000  0.11132000  0.34413000  1.0
  C  C72  1  0.54353000  0.11144000  0.84420000  1.0
  C  C73  1  0.65587000  0.88868000  0.65586000  1.0
  N  N74  1  0.43339000  0.60780000  0.90156000  1.0
  N  N75  1  0.04061000  0.39233000  0.59817000  1.0
  N  N76  1  0.56663000  0.39220000  0.09844000  1.0
  N  N77  1  0.95934000  0.60768000  0.40183000  1.0
  N  N78  1  0.83317000  0.51635000  0.90558000  1.0
  N  N79  1  0.34906000  0.48370000  0.59422000  1.0
  N  N80  1  0.16685000  0.48365000  0.09442000  1.0
  N  N81  1  0.65090000  0.51631000  0.40578000  1.0
  N  N82  1  0.09442000  0.73921000  0.03846000  1.0
  N  N83  1  0.83322000  0.26079000  0.46128000  1.0
  N  N84  1  0.90562000  0.26078000  0.96154000  1.0
  N  N85  1  0.16677000  0.73921000  0.53872000  1.0
  N  N86  1  0.03814000  0.70985000  0.91726000  1.0
  N  N87  1  0.74790000  0.29018000  0.58250000  1.0
  N  N88  1  0.96188000  0.29015000  0.08274000  1.0
  N  N89  1  0.25207000  0.70983000  0.41751000  1.0
  N  N90  1  0.70669000  0.58094000  0.01694000  1.0
  N  N91  1  0.28733000  0.41912000  0.48282000  1.0
  N  N92  1  0.29334000  0.41906000  0.98306000  1.0
  N  N93  1  0.71265000  0.58089000  0.51717000  1.0
  N  N94  1  0.59208000  0.64024000  0.13191000  1.0
  N  N95  1  0.23218000  0.35978000  0.36784000  1.0
  N  N96  1  0.40794000  0.35976000  0.86809000  1.0
  N  N97  1  0.76780000  0.64022000  0.63216000  1.0
  O  O98  1  0.18797000  0.88880000  0.16374000  1.0
  O  O99  1  0.07586000  0.11100000  0.33625000  1.0
  O  O100  1  0.81206000  0.11120000  0.83626000  1.0
  O  O101  1  0.92411000  0.88900000  0.66376000  1.0
  O  O102  1  0.12405000  0.72362000  0.71615000  1.0
  O  O103  1  0.84752000  0.27645000  0.78371000  1.0
  O  O104  1  0.87592000  0.27638000  0.28386000  1.0
  O  O105  1  0.15250000  0.72355000  0.21629000  1.0
  O  O106  1  0.28298000  0.79757000  0.80692000  1.0
  O  O107  1  0.08109000  0.20256000  0.69299000  1.0
  O  O108  1  0.71703000  0.20242000  0.19308000  1.0
  O  O109  1  0.91890000  0.79743000  0.30699000  1.0
  O  O110  1  0.56161000  0.94502000  0.18884000  1.0
  O  O111  1  0.50587000  0.05491000  0.31102000  1.0
  O  O112  1  0.43843000  0.05497000  0.81115000  1.0
  O  O113  1  0.49411000  0.94509000  0.68897000  1.0
  O  O114  1  0.60305000  0.83395000  0.11786000  1.0
  O  O115  1  0.43606000  0.16592000  0.38210000  1.0
  O  O116  1  0.39696000  0.16604000  0.88214000  1.0
  O  O117  1  0.56393000  0.83407000  0.61790000  1.0
  O  O118  1  0.99905000  0.95049000  0.32781000  1.0
  O  O119  1  0.94908000  0.04936000  0.17215000  1.0
  O  O120  1  0.00095000  0.04951000  0.67218000  1.0
  O  O121  1  0.05096000  0.95063000  0.82784000  1.0
