# generated using pymatgen
data_ZnH9C18Br3NO4
_symmetry_space_group_name_H-M   'P 1'
_cell_length_a   9.76037000
_cell_length_b   10.88930000
_cell_length_c   11.04280000
_cell_angle_alpha   94.47380000
_cell_angle_beta   93.19700000
_cell_angle_gamma   91.92460000
_symmetry_Int_Tables_number   1
_chemical_formula_structural   ZnH9C18Br3NO4
_chemical_formula_sum   'Zn2 H18 C36 Br6 N2 O8'
_cell_volume   1167.42275329
_cell_formula_units_Z   2
loop_
 _symmetry_equiv_pos_site_id
 _symmetry_equiv_pos_as_xyz
  1  'x, y, z'
loop_
 _atom_site_type_symbol
 _atom_site_label
 _atom_site_symmetry_multiplicity
 _atom_site_fract_x
 _atom_site_fract_y
 _atom_site_fract_z
 _atom_site_occupancy
  Zn  Zn0  1  0.36480000  0.48482000  0.48217000  1.0
  Zn  Zn1  1  0.65231000  0.50000000  0.49524000  1.0
  H  H2  1  0.96254000  0.80968000  0.93166000  1.0
  H  H3  1  0.56081000  0.78223000  0.74666000  1.0
  H  H4  1  0.03607000  0.96595000  0.79346000  1.0
  H  H5  1  0.66930000  0.14117000  0.61693000  1.0
  H  H6  1  0.14363000  0.04326000  0.40433000  1.0
  H  H7  1  0.97848000  0.09929000  0.23955000  1.0
  H  H8  1  0.06322000  0.15958000  0.04298000  1.0
  H  H9  1  0.72376000  0.71738000  0.90646000  1.0
  H  H10  1  0.87368000  0.02869000  0.63035000  1.0
  H  H11  1  0.35701000  0.84601000  0.36523000  1.0
  H  H12  1  0.47987000  0.11065000  0.17823000  1.0
  H  H13  1  0.68012000  0.40225000  0.12030000  1.0
  H  H14  1  0.18323000  0.51941000  0.84631000  1.0
  H  H15  1  0.86386000  0.32818000  0.57276000  1.0
  H  H16  1  0.16541000  0.76877000  0.47420000  1.0
  H  H17  1  0.15090000  0.69785000  0.32197000  1.0
  H  H18  1  0.90617000  0.78409000  0.47078000  1.0
  H  H19  1  0.89272000  0.71181000  0.31907000  1.0
  C  C20  1  0.48595000  0.49860000  0.25438000  1.0
  C  C21  1  0.08841000  0.10141000  0.22620000  1.0
  C  C22  1  0.13491000  0.13574000  0.11585000  1.0
  C  C23  1  0.52158000  0.73073000  0.50850000  1.0
  C  C24  1  0.27581000  0.13751000  0.10046000  1.0
  C  C25  1  0.37027000  0.10864000  0.19256000  1.0
  C  C26  1  0.32268000  0.07473000  0.30342000  1.0
  C  C27  1  0.38858000  0.53829000  0.04107000  1.0
  C  C28  1  0.48912000  0.49331000  0.11902000  1.0
  C  C29  1  0.60038000  0.43974000  0.06257000  1.0
  C  C30  1  0.61097000  0.43289000  0.93635000  1.0
  C  C31  1  0.89055000  0.83772000  0.86075000  1.0
  C  C32  1  0.51134000  0.48064000  0.85759000  1.0
  C  C33  1  0.40009000  0.53035000  0.91555000  1.0
  C  C34  1  0.26293000  0.58451000  0.88882000  1.0
  C  C35  1  0.51666000  0.48224000  0.72271000  1.0
  C  C36  1  0.25493000  0.60315000  0.03301000  1.0
  C  C37  1  0.94369000  0.58575000  0.46074000  1.0
  C  C38  1  0.92771000  0.40142000  0.54078000  1.0
  C  C39  1  0.07104000  0.39478000  0.54337000  1.0
  C  C40  1  0.08570000  0.57740000  0.46179000  1.0
  C  C41  1  0.10673000  0.70107000  0.41130000  1.0
  C  C42  1  0.60356000  0.07436000  0.56003000  1.0
  C  C43  1  0.94446000  0.71033000  0.40970000  1.0
  C  C44  1  0.51411000  0.25560000  0.46614000  1.0
  C  C45  1  0.75701000  0.78624000  0.84654000  1.0
  C  C46  1  0.66539000  0.82185000  0.75544000  1.0
  C  C47  1  0.70566000  0.90933000  0.67611000  1.0
  C  C48  1  0.84024000  0.96112000  0.69171000  1.0
  C  C49  1  0.93175000  0.92567000  0.78306000  1.0
  C  C50  1  0.51292000  0.11896000  0.47238000  1.0
  C  C51  1  0.42033000  0.03714000  0.40117000  1.0
  C  C52  1  0.42403000  0.91218000  0.42168000  1.0
  C  C53  1  0.51675000  0.86781000  0.50749000  1.0
  C  C54  1  0.60870000  0.94935000  0.58009000  1.0
  C  C55  1  0.18091000  0.06973000  0.31849000  1.0
  Br  Br56  1  0.34083000  0.17794000  0.94785000  1.0
  Br  Br57  1  0.76276000  0.34707000  0.87522000  1.0
  Br  Br58  1  0.25543000  0.72739000  0.79303000  1.0
  Br  Br59  1  0.26555000  0.77378000  0.10396000  1.0
  Br  Br60  1  0.09229000  0.51596000  0.08791000  1.0
  Br  Br61  1  0.14740000  0.25883000  0.61435000  1.0
  N  N62  1  0.86200000  0.49787000  0.49782000  1.0
  N  N63  1  0.15354000  0.48214000  0.50055000  1.0
  O  O64  1  0.37101000  0.51748000  0.30003000  1.0
  O  O65  1  0.59990000  0.48256000  0.31145000  1.0
  O  O66  1  0.40882000  0.67147000  0.51899000  1.0
  O  O67  1  0.63798000  0.68460000  0.49352000  1.0
  O  O68  1  0.40254000  0.45761000  0.66322000  1.0
  O  O69  1  0.63026000  0.51118000  0.68078000  1.0
  O  O70  1  0.40230000  0.30475000  0.43573000  1.0
  O  O71  1  0.62817000  0.31334000  0.49693000  1.0
