# generated using pymatgen
data_CuH8C16S2N2(ClF2)2
_symmetry_space_group_name_H-M   'P 1'
_cell_length_a   7.62129000
_cell_length_b   8.25512000
_cell_length_c   9.77992829
_cell_angle_alpha   81.26969300
_cell_angle_beta   73.53753076
_cell_angle_gamma   75.17800000
_symmetry_Int_Tables_number   1
_chemical_formula_structural   CuH8C16S2N2(ClF2)2
_chemical_formula_sum   'Cu1 H8 C16 S2 N2 Cl2 F4'
_cell_volume   568.35229964
_cell_formula_units_Z   1
loop_
 _symmetry_equiv_pos_site_id
 _symmetry_equiv_pos_as_xyz
  1  'x, y, z'
loop_
 _atom_site_type_symbol
 _atom_site_label
 _atom_site_symmetry_multiplicity
 _atom_site_fract_x
 _atom_site_fract_y
 _atom_site_fract_z
 _atom_site_occupancy
  Cu  Cu0  1  0.00000000  0.00000000  0.00002000  1.0
  H  H1  1  0.31590000  0.05399000  0.09187000  1.0
  H  H2  1  0.68408000  0.94606000  0.90819000  1.0
  H  H3  1  0.52653000  0.25551000  0.02314000  1.0
  H  H4  1  0.47347000  0.74453000  0.97688000  1.0
  H  H5  1  0.44638000  0.51149000  0.85178000  1.0
  H  H6  1  0.55359000  0.48853000  0.14822000  1.0
  H  H7  1  0.16453000  0.55097000  0.76241000  1.0
  H  H8  1  0.83547000  0.44900000  0.23757000  1.0
  C  C9  1  0.29029000  0.16378000  0.01672000  1.0
  C  C10  1  0.70968000  0.83627000  0.98330000  1.0
  C  C11  1  0.40627000  0.27720000  0.97775000  1.0
  C  C12  1  0.59371000  0.72286000  0.02226000  1.0
  C  C13  1  0.36256000  0.41668000  0.88292000  1.0
  C  C14  1  0.63739000  0.58336000  0.11709000  1.0
  C  C15  1  0.20520000  0.43880000  0.83099000  1.0
  C  C16  1  0.79477000  0.56120000  0.16902000  1.0
  C  C17  1  0.09861000  0.31654000  0.87253000  1.0
  C  C18  1  0.90138000  0.68346000  0.12747000  1.0
  C  C19  1  0.95469000  0.42439000  0.64264000  1.0
  C  C20  1  0.04534000  0.57553000  0.35735000  1.0
  C  C21  1  0.84356000  0.57657000  0.59982000  1.0
  C  C22  1  0.15646000  0.42339000  0.40014000  1.0
  C  C23  1  0.11200000  0.34870000  0.53933000  1.0
  C  C24  1  0.88804000  0.65126000  0.46061000  1.0
  S  S25  1  0.89218000  0.32985000  0.81803000  1.0
  S  S26  1  0.10785000  0.67010000  0.18194000  1.0
  N  N27  1  0.85798000  0.81859000  0.03743000  1.0
  N  N28  1  0.14200000  0.18144000  0.96259000  1.0
  Cl  Cl29  1  0.77174000  0.14412000  0.16964000  1.0
  Cl  Cl30  1  0.22827000  0.85587000  0.83038000  1.0
  F  F31  1  0.30864000  0.34405000  0.30509000  1.0
  F  F32  1  0.69137000  0.65594000  0.69491000  1.0
  F  F33  1  0.22233000  0.20171000  0.57385000  1.0
  F  F34  1  0.77773000  0.79827000  0.42613000  1.0
