# generated using pymatgen
data_CoH19C23N3O8
_symmetry_space_group_name_H-M   'P 1'
_cell_length_a   7.22709000
_cell_length_b   7.91156000
_cell_length_c   10.42230000
_cell_angle_alpha   83.83600000
_cell_angle_beta   72.45140000
_cell_angle_gamma   64.48530000
_symmetry_Int_Tables_number   1
_chemical_formula_structural   CoH19C23N3O8
_chemical_formula_sum   'Co1 H19 C23 N3 O8'
_cell_volume   512.60034455
_cell_formula_units_Z   1
loop_
 _symmetry_equiv_pos_site_id
 _symmetry_equiv_pos_as_xyz
  1  'x, y, z'
loop_
 _atom_site_type_symbol
 _atom_site_label
 _atom_site_symmetry_multiplicity
 _atom_site_fract_x
 _atom_site_fract_y
 _atom_site_fract_z
 _atom_site_occupancy
  Co  Co0  1  0.49712000  0.49554000  0.49991000  1.0
  H  H1  1  0.94915000  0.49038000  0.50973000  1.0
  H  H2  1  0.68411000  0.26668000  0.09243000  1.0
  H  H3  1  0.58880000  0.08518000  0.29104000  1.0
  H  H4  1  0.29937000  0.98278000  0.31942000  1.0
  H  H5  1  0.09481000  0.06831000  0.14896000  1.0
  H  H6  1  0.04713000  0.21916000  0.92928000  1.0
  H  H7  1  0.27274000  0.69985000  0.14373000  1.0
  H  H8  1  0.24097000  0.84316000  0.92028000  1.0
  H  H9  1  0.04350000  0.94229000  0.74763000  1.0
  H  H10  1  0.71831000  0.88494000  0.78080000  1.0
  H  H11  1  0.58868000  0.73300000  0.98518000  1.0
  H  H12  1  0.61869000  0.59759000  0.20808000  1.0
  H  H13  1  0.79154000  0.53617000  0.70605000  1.0
  H  H14  1  0.83941000  0.39706000  0.84518000  1.0
  H  H15  1  0.91921000  0.28932000  0.68481000  1.0
  H  H16  1  0.84679000  0.02022000  0.58625000  1.0
  H  H17  1  0.94957000  0.15775000  0.46230000  1.0
  H  H18  1  0.92995000  0.95828000  0.41183000  1.0
  H  H19  1  0.54194000  0.14037000  0.51154000  1.0
  C  C20  1  0.41512000  0.40041000  0.79407000  1.0
  C  C21  1  0.44713000  0.26253000  0.00891000  1.0
  C  C22  1  0.55853000  0.21999000  0.10458000  1.0
  C  C23  1  0.50322000  0.11903000  0.21528000  1.0
  C  C24  1  0.33732000  0.06293000  0.23179000  1.0
  C  C25  1  0.22530000  0.10899000  0.13707000  1.0
  C  C26  1  0.27946000  0.20970000  0.02222000  1.0
  C  C27  1  0.17537000  0.26163000  0.91956000  1.0
  C  C28  1  0.23447000  0.35805000  0.80763000  1.0
  C  C29  1  0.11947000  0.41376000  0.70613000  1.0
  C  C30  1  0.17812000  0.55162000  0.37139000  1.0
  C  C31  1  0.05429000  0.59862000  0.27403000  1.0
  C  C32  1  0.12901000  0.67859000  0.15580000  1.0
  C  C33  1  0.02428000  0.73505000  0.05446000  1.0
  C  C34  1  0.09608000  0.82229000  0.93532000  1.0
  C  C35  1  0.98674000  0.87725000  0.83936000  1.0
  C  C36  1  0.80231000  0.84426000  0.85814000  1.0
  C  C37  1  0.73023000  0.75832000  0.97188000  1.0
  C  C38  1  0.83668000  0.70214000  0.07435000  1.0
  C  C39  1  0.76259000  0.61913000  0.19332000  1.0
  C  C40  1  0.86204000  0.56800000  0.29683000  1.0
  C  C41  1  0.90742000  0.40806000  0.73786000  1.0
  C  C42  1  0.85422000  0.07642000  0.48470000  1.0
  N  N43  1  0.20428000  0.46424000  0.58704000  1.0
  N  N44  1  0.09075000  0.50459000  0.49609000  1.0
  N  N45  1  0.43379000  0.88530000  0.56037000  1.0
  O  O46  1  0.50039000  0.47375000  0.69754000  1.0
  O  O47  1  0.50718000  0.35685000  0.89779000  1.0
  O  O48  1  0.35826000  0.55740000  0.34428000  1.0
  O  O49  1  0.78996000  0.49132000  0.40865000  1.0
  O  O50  1  0.35015000  0.79178000  0.52309000  1.0
  O  O51  1  0.58941000  0.80835000  0.60765000  1.0
  O  O52  1  0.35023000  0.06237000  0.54655000  1.0
  O  O53  1  0.64471000  0.19906000  0.47317000  1.0
