# generated using pymatgen
data_LiH8C9NO4
_symmetry_space_group_name_H-M   'P 1'
_cell_length_a   4.86917000
_cell_length_b   11.54870000
_cell_length_c   15.22810000
_cell_angle_alpha   89.99980000
_cell_angle_beta   89.99960000
_cell_angle_gamma   89.99950000
_symmetry_Int_Tables_number   1
_chemical_formula_structural   LiH8C9NO4
_chemical_formula_sum   'Li4 H32 C36 N4 O16'
_cell_volume   856.31540594
_cell_formula_units_Z   4
loop_
 _symmetry_equiv_pos_site_id
 _symmetry_equiv_pos_as_xyz
  1  'x, y, z'
loop_
 _atom_site_type_symbol
 _atom_site_label
 _atom_site_symmetry_multiplicity
 _atom_site_fract_x
 _atom_site_fract_y
 _atom_site_fract_z
 _atom_site_occupancy
  Li  Li0  1  0.13741000  0.34114000  0.01701000  1.0
  Li  Li1  1  0.63742000  0.15886000  0.98299000  1.0
  Li  Li2  1  0.86258000  0.84114000  0.48299000  1.0
  Li  Li3  1  0.36259000  0.65885000  0.51700000  1.0
  H  H4  1  0.13441000  0.66980000  0.96780000  1.0
  H  H5  1  0.63441000  0.83020000  0.03221000  1.0
  H  H6  1  0.86559000  0.16980000  0.53220000  1.0
  H  H7  1  0.36558000  0.33018000  0.46779000  1.0
  H  H8  1  0.11881000  0.88160000  0.93515000  1.0
  H  H9  1  0.61883000  0.61840000  0.06486000  1.0
  H  H10  1  0.88119000  0.38160000  0.56485000  1.0
  H  H11  1  0.38115000  0.11838000  0.43513000  1.0
  H  H12  1  0.44994000  0.96476000  0.82756000  1.0
  H  H13  1  0.94995000  0.53525000  0.17245000  1.0
  H  H14  1  0.55008000  0.46475000  0.67245000  1.0
  H  H15  1  0.05003000  0.03524000  0.32754000  1.0
  H  H16  1  0.78139000  0.83801000  0.75159000  1.0
  H  H17  1  0.28141000  0.66200000  0.24842000  1.0
  H  H18  1  0.21862000  0.33801000  0.74842000  1.0
  H  H19  1  0.71858000  0.16200000  0.25158000  1.0
  H  H20  1  0.16467000  0.58529000  0.69994000  1.0
  H  H21  1  0.66468000  0.91472000  0.30006000  1.0
  H  H22  1  0.83534000  0.08528000  0.80006000  1.0
  H  H23  1  0.33533000  0.41472000  0.19994000  1.0
  H  H24  1  0.12337000  0.72965000  0.73451000  1.0
  H  H25  1  0.62339000  0.77035000  0.26549000  1.0
  H  H26  1  0.87664000  0.22964000  0.76549000  1.0
  H  H27  1  0.37660000  0.27036000  0.23451000  1.0
  H  H28  1  0.66506000  0.35538000  0.90304000  1.0
  H  H29  1  0.16507000  0.14462000  0.09697000  1.0
  H  H30  1  0.33493000  0.85538000  0.59696000  1.0
  H  H31  1  0.83492000  0.64461000  0.40304000  1.0
  H  H32  1  0.81619000  0.47154000  0.84698000  1.0
  H  H33  1  0.31621000  0.02846000  0.15302000  1.0
  H  H34  1  0.18382000  0.97154000  0.65302000  1.0
  H  H35  1  0.68377000  0.52846000  0.34698000  1.0
  C  C36  1  0.65153000  0.68209000  0.81846000  1.0
  C  C37  1  0.15155000  0.81792000  0.18154000  1.0
  C  C38  1  0.34847000  0.18208000  0.68155000  1.0
  C  C39  1  0.84843000  0.31791000  0.31846000  1.0
  C  C40  1  0.46671000  0.63415000  0.88060000  1.0
  C  C41  1  0.96672000  0.86586000  0.11941000  1.0
  C  C42  1  0.53329000  0.13414000  0.61940000  1.0
  C  C43  1  0.03327000  0.36585000  0.38059000  1.0
  C  C44  1  0.45437000  0.50978000  0.90778000  1.0
  C  C45  1  0.95439000  0.99023000  0.09222000  1.0
  C  C46  1  0.54563000  0.00977000  0.59221000  1.0
  C  C47  1  0.04560000  0.49022000  0.40778000  1.0
  C  C48  1  0.27652000  0.70839000  0.92097000  1.0
  C  C49  1  0.77653000  0.79161000  0.07904000  1.0
  C  C50  1  0.72348000  0.20838000  0.57903000  1.0
  C  C51  1  0.22346000  0.29160000  0.42096000  1.0
  C  C52  1  0.26836000  0.82622000  0.90263000  1.0
  C  C53  1  0.76837000  0.67379000  0.09737000  1.0
  C  C54  1  0.73164000  0.32621000  0.59737000  1.0
  C  C55  1  0.23162000  0.17378000  0.40262000  1.0
  C  C56  1  0.45374000  0.87233000  0.84201000  1.0
  C  C57  1  0.95375000  0.62768000  0.15800000  1.0
  C  C58  1  0.54628000  0.37232000  0.65799000  1.0
  C  C59  1  0.04623000  0.12767000  0.34200000  1.0
  C  C60  1  0.64231000  0.80077000  0.79976000  1.0
  C  C61  1  0.14232000  0.69923000  0.20024000  1.0
  C  C62  1  0.35770000  0.30077000  0.70024000  1.0
  C  C63  1  0.85767000  0.19922000  0.29976000  1.0
  C  C64  1  0.01063000  0.65300000  0.71145000  1.0
  C  C65  1  0.51064000  0.84700000  0.28855000  1.0
  C  C66  1  0.98938000  0.15300000  0.78855000  1.0
  C  C67  1  0.48936000  0.34700000  0.21144000  1.0
  C  C68  1  0.86547000  0.67930000  0.62446000  1.0
  C  C69  1  0.36548000  0.82071000  0.37554000  1.0
  C  C70  1  0.13454000  0.17929000  0.87555000  1.0
  C  C71  1  0.63452000  0.32071000  0.12446000  1.0
  N  N72  1  0.65514000  0.43857000  0.88116000  1.0
  N  N73  1  0.15514000  0.06144000  0.11885000  1.0
  N  N74  1  0.34486000  0.93856000  0.61885000  1.0
  N  N75  1  0.84486000  0.56143000  0.38116000  1.0
  O  O76  1  0.25893000  0.47506000  0.95505000  1.0
  O  O77  1  0.75894000  0.02495000  0.04496000  1.0
  O  O78  1  0.74106000  0.97505000  0.54495000  1.0
  O  O79  1  0.24105000  0.52494000  0.45504000  1.0
  O  O80  1  0.83388000  0.60867000  0.77842000  1.0
  O  O81  1  0.33390000  0.89133000  0.22157000  1.0
  O  O82  1  0.16613000  0.10867000  0.72157000  1.0
  O  O83  1  0.66611000  0.39133000  0.27843000  1.0
  O  O84  1  0.61723000  0.65288000  0.61497000  1.0
  O  O85  1  0.11722000  0.84713000  0.38503000  1.0
  O  O86  1  0.38280000  0.15288000  0.88503000  1.0
  O  O87  1  0.88277000  0.34712000  0.11497000  1.0
  O  O88  1  0.01876000  0.72739000  0.56647000  1.0
  O  O89  1  0.51875000  0.77262000  0.43353000  1.0
  O  O90  1  0.98127000  0.22738000  0.93353000  1.0
  O  O91  1  0.48124000  0.27262000  0.06647000  1.0
