# generated using pymatgen
data_ZnH10C7N8
_symmetry_space_group_name_H-M   'P 1'
_cell_length_a   9.59106000
_cell_length_b   9.59112000
_cell_length_c   20.68170000
_cell_angle_alpha   89.98940000
_cell_angle_beta   89.98950000
_cell_angle_gamma   60.00800000
_symmetry_Int_Tables_number   1
_chemical_formula_structural   ZnH10C7N8
_chemical_formula_sum   'Zn6 H60 C42 N48'
_cell_volume   1647.73661674
_cell_formula_units_Z   6
loop_
 _symmetry_equiv_pos_site_id
 _symmetry_equiv_pos_as_xyz
  1  'x, y, z'
loop_
 _atom_site_type_symbol
 _atom_site_label
 _atom_site_symmetry_multiplicity
 _atom_site_fract_x
 _atom_site_fract_y
 _atom_site_fract_z
 _atom_site_occupancy
  Zn  Zn0  1  0.48763000  0.93315000  0.41629000  1.0
  Zn  Zn1  1  0.57914000  0.48768000  0.74955000  1.0
  Zn  Zn2  1  0.93318000  0.57926000  0.08292000  1.0
  Zn  Zn3  1  0.06685000  0.51237000  0.58370000  1.0
  Zn  Zn4  1  0.51232000  0.42086000  0.25045000  1.0
  Zn  Zn5  1  0.42074000  0.06682000  0.91708000  1.0
  H  H6  1  0.36367000  0.98218000  0.55949000  1.0
  H  H7  1  0.65413000  0.36365000  0.89276000  1.0
  H  H8  1  0.98220000  0.65419000  0.22613000  1.0
  H  H9  1  0.01782000  0.63633000  0.44051000  1.0
  H  H10  1  0.63635000  0.34587000  0.10724000  1.0
  H  H11  1  0.34581000  0.01781000  0.77386000  1.0
  H  H12  1  0.20326000  0.13947000  0.59990000  1.0
  H  H13  1  0.65724000  0.20321000  0.93317000  1.0
  H  H14  1  0.13951000  0.65728000  0.26654000  1.0
  H  H15  1  0.86053000  0.79674000  0.40010000  1.0
  H  H16  1  0.79679000  0.34276000  0.06683000  1.0
  H  H17  1  0.34272000  0.86049000  0.73346000  1.0
  H  H18  1  0.93815000  0.92435000  0.24005000  1.0
  H  H19  1  0.13754000  0.93821000  0.57337000  1.0
  H  H20  1  0.92428000  0.13749000  0.90676000  1.0
  H  H21  1  0.07565000  0.06185000  0.75995000  1.0
  H  H22  1  0.06179000  0.86246000  0.42663000  1.0
  H  H23  1  0.86251000  0.07570000  0.09324000  1.0
  H  H24  1  0.83244000  0.12070000  0.21462000  1.0
  H  H25  1  0.04684000  0.83251000  0.54796000  1.0
  H  H26  1  0.12068000  0.04683000  0.88139000  1.0
  H  H27  1  0.87929000  0.16757000  0.78537000  1.0
  H  H28  1  0.16748000  0.95316000  0.45204000  1.0
  H  H29  1  0.95318000  0.87931000  0.11861000  1.0
  H  H30  1  0.24130000  0.28584000  0.31654000  1.0
  H  H31  1  0.47278000  0.24126000  0.64990000  1.0
  H  H32  1  0.28605000  0.47275000  0.98325000  1.0
  H  H33  1  0.71416000  0.75870000  0.68346000  1.0
  H  H34  1  0.75873000  0.52722000  0.35010000  1.0
  H  H35  1  0.52725000  0.71395000  0.01675000  1.0
  H  H36  1  0.30128000  0.42185000  0.34514000  1.0
  H  H37  1  0.27680000  0.30122000  0.67847000  1.0
  H  H38  1  0.42196000  0.27675000  0.01184000  1.0
  H  H39  1  0.57815000  0.69872000  0.65486000  1.0
  H  H40  1  0.69877000  0.72321000  0.32153000  1.0
  H  H41  1  0.72325000  0.57804000  0.98816000  1.0
  H  H42  1  0.18672000  0.03622000  0.27523000  1.0
  H  H43  1  0.77721000  0.18639000  0.60866000  1.0
  H  H44  1  0.03625000  0.77720000  0.94196000  1.0
  H  H45  1  0.96381000  0.81327000  0.72477000  1.0
  H  H46  1  0.81361000  0.22280000  0.39135000  1.0
  H  H47  1  0.22282000  0.96373000  0.05804000  1.0
  H  H48  1  0.99817000  0.23090000  0.26514000  1.0
  H  H49  1  0.77098000  0.99789000  0.59843000  1.0
  H  H50  1  0.23105000  0.77084000  0.93177000  1.0
  H  H51  1  0.76913000  0.00182000  0.73485000  1.0
  H  H52  1  0.00212000  0.22903000  0.40157000  1.0
  H  H53  1  0.22917000  0.76894000  0.06823000  1.0
  H  H54  1  0.31556000  0.11561000  0.18908000  1.0
  H  H55  1  0.56920000  0.31546000  0.52247000  1.0
  H  H56  1  0.11518000  0.56916000  0.85576000  1.0
  H  H57  1  0.88439000  0.68444000  0.81092000  1.0
  H  H58  1  0.68455000  0.43083000  0.47753000  1.0
  H  H59  1  0.43084000  0.88481000  0.14425000  1.0
  H  H60  1  0.12477000  0.30876000  0.17890000  1.0
  H  H61  1  0.56675000  0.12474000  0.51216000  1.0
  H  H62  1  0.30842000  0.56662000  0.84550000  1.0
  H  H63  1  0.69124000  0.87523000  0.82110000  1.0
  H  H64  1  0.87527000  0.43327000  0.48784000  1.0
  H  H65  1  0.43337000  0.69157000  0.15450000  1.0
  C  C66  1  0.24699000  0.19149000  0.50936000  1.0
  C  C67  1  0.56135000  0.24706000  0.84267000  1.0
  C  C68  1  0.19156000  0.56144000  0.17603000  1.0
  C  C69  1  0.80851000  0.75301000  0.49064000  1.0
  C  C70  1  0.75293000  0.43864000  0.15733000  1.0
  C  C71  1  0.43855000  0.80844000  0.82397000  1.0
  C  C72  1  0.27648000  0.28560000  0.41860000  1.0
  C  C73  1  0.43769000  0.27661000  0.75194000  1.0
  C  C74  1  0.28565000  0.43774000  0.08530000  1.0
  C  C75  1  0.71440000  0.72352000  0.58140000  1.0
  C  C76  1  0.72338000  0.56231000  0.24806000  1.0
  C  C77  1  0.56225000  0.71435000  0.91470000  1.0
  C  C78  1  0.32251000  0.29877000  0.35082000  1.0
  C  C79  1  0.37859000  0.32255000  0.68415000  1.0
  C  C80  1  0.29888000  0.37858000  0.01750000  1.0
  C  C81  1  0.70123000  0.67749000  0.64918000  1.0
  C  C82  1  0.67744000  0.62141000  0.31585000  1.0
  C  C83  1  0.62141000  0.70112000  0.98250000  1.0
  C  C84  1  0.49201000  0.17873000  0.33251000  1.0
  C  C85  1  0.32916000  0.49203000  0.66581000  1.0
  C  C86  1  0.17876000  0.32921000  0.99918000  1.0
  C  C87  1  0.82127000  0.50799000  0.66749000  1.0
  C  C88  1  0.50796000  0.67084000  0.33419000  1.0
  C  C89  1  0.67079000  0.82124000  0.00082000  1.0
  C  C90  1  0.72502000  0.06307000  0.28652000  1.0
  C  C91  1  0.21190000  0.72505000  0.61982000  1.0
  C  C92  1  0.06297000  0.21190000  0.95325000  1.0
  C  C93  1  0.93693000  0.27498000  0.71347000  1.0
  C  C94  1  0.27494000  0.78810000  0.38018000  1.0
  C  C95  1  0.78810000  0.93702000  0.04675000  1.0
  C  C96  1  0.12257000  0.15176000  0.25028000  1.0
  C  C97  1  0.72579000  0.12232000  0.58365000  1.0
  C  C98  1  0.15173000  0.72575000  0.91696000  1.0
  C  C99  1  0.84826000  0.87742000  0.74972000  1.0
  C  C100  1  0.87767000  0.27422000  0.41635000  1.0
  C  C101  1  0.27427000  0.84825000  0.08304000  1.0
  C  C102  1  0.19092000  0.19375000  0.20383000  1.0
  C  C103  1  0.61555000  0.19081000  0.53719000  1.0
  C  C104  1  0.19345000  0.61554000  0.87049000  1.0
  C  C105  1  0.80626000  0.80908000  0.79616000  1.0
  C  C106  1  0.80919000  0.38447000  0.46281000  1.0
  C  C107  1  0.38447000  0.80654000  0.12952000  1.0
  N  N108  1  0.17325000  0.35244000  0.51408000  1.0
  N  N109  1  0.47416000  0.17330000  0.84741000  1.0
  N  N110  1  0.35250000  0.47422000  0.18076000  1.0
  N  N111  1  0.64756000  0.82675000  0.48592000  1.0
  N  N112  1  0.82670000  0.52584000  0.15259000  1.0
  N  N113  1  0.52577000  0.64750000  0.81924000  1.0
  N  N114  1  0.19129000  0.41283000  0.45562000  1.0
  N  N115  1  0.39571000  0.19135000  0.78897000  1.0
  N  N116  1  0.41288000  0.39573000  0.12232000  1.0
  N  N117  1  0.58717000  0.80871000  0.54438000  1.0
  N  N118  1  0.80865000  0.60430000  0.21103000  1.0
  N  N119  1  0.60426000  0.58712000  0.87768000  1.0
  N  N120  1  0.31287000  0.14438000  0.44942000  1.0
  N  N121  1  0.54255000  0.31298000  0.78273000  1.0
  N  N122  1  0.14445000  0.54264000  0.11609000  1.0
  N  N123  1  0.85562000  0.68713000  0.55058000  1.0
  N  N124  1  0.68702000  0.45745000  0.21728000  1.0
  N  N125  1  0.45735000  0.85555000  0.88391000  1.0
  N  N126  1  0.25273000  0.08687000  0.55609000  1.0
  N  N127  1  0.66032000  0.25273000  0.88935000  1.0
  N  N128  1  0.08693000  0.66038000  0.22272000  1.0
  N  N129  1  0.91313000  0.74727000  0.44391000  1.0
  N  N130  1  0.74727000  0.33968000  0.11065000  1.0
  N  N131  1  0.33962000  0.91307000  0.77727000  1.0
  N  N132  1  0.58322000  0.20758000  0.29006000  1.0
  N  N133  1  0.20919000  0.58323000  0.62335000  1.0
  N  N134  1  0.20753000  0.20917000  0.95675000  1.0
  N  N135  1  0.79242000  0.41678000  0.70994000  1.0
  N  N136  1  0.41677000  0.79081000  0.37665000  1.0
  N  N137  1  0.79083000  0.79246000  0.04325000  1.0
  N  N138  1  0.57260000  0.02764000  0.35304000  1.0
  N  N139  1  0.39969000  0.57262000  0.68633000  1.0
  N  N140  1  0.02767000  0.39974000  0.01971000  1.0
  N  N141  1  0.97235000  0.42740000  0.64696000  1.0
  N  N142  1  0.42737000  0.60031000  0.31367000  1.0
  N  N143  1  0.60025000  0.97233000  0.98029000  1.0
  N  N144  1  0.72395000  0.95099000  0.32468000  1.0
  N  N145  1  0.32503000  0.72397000  0.65797000  1.0
  N  N146  1  0.95096000  0.32506000  0.99139000  1.0
  N  N147  1  0.04900000  0.27605000  0.67532000  1.0
  N  N148  1  0.27602000  0.67497000  0.34203000  1.0
  N  N149  1  0.67494000  0.04904000  0.00861000  1.0
  N  N150  1  0.85400000  0.04055000  0.25058000  1.0
  N  N151  1  0.10547000  0.85404000  0.58390000  1.0
  N  N152  1  0.04047000  0.10542000  0.91733000  1.0
  N  N153  1  0.95945000  0.14600000  0.74942000  1.0
  N  N154  1  0.14595000  0.89453000  0.41610000  1.0
  N  N155  1  0.89458000  0.95952000  0.08267000  1.0
