# generated using pymatgen
data_ZnH30(C4O)4
_symmetry_space_group_name_H-M   'P 1'
_cell_length_a   4.67892000
_cell_length_b   9.22428000
_cell_length_c   21.02570000
_cell_angle_alpha   101.16200000
_cell_angle_beta   90.00000000
_cell_angle_gamma   90.00000000
_symmetry_Int_Tables_number   1
_chemical_formula_structural   ZnH30(C4O)4
_chemical_formula_sum   'Zn2 H60 C32 O8'
_cell_volume   890.29646240
_cell_formula_units_Z   2
loop_
 _symmetry_equiv_pos_site_id
 _symmetry_equiv_pos_as_xyz
  1  'x, y, z'
loop_
 _atom_site_type_symbol
 _atom_site_label
 _atom_site_symmetry_multiplicity
 _atom_site_fract_x
 _atom_site_fract_y
 _atom_site_fract_z
 _atom_site_occupancy
  Zn  Zn0  1  0.06326000  0.00279000  0.99920000  1.0
  Zn  Zn1  1  0.93674000  0.50279000  0.99920000  1.0
  H  H2  1  0.30624000  0.71667000  0.90766000  1.0
  H  H3  1  0.69376000  0.21667000  0.90766000  1.0
  H  H4  1  0.27845000  0.83962000  0.85499000  1.0
  H  H5  1  0.72155000  0.33962000  0.85500000  1.0
  H  H6  1  0.77181000  0.61851000  0.85609000  1.0
  H  H7  1  0.22819000  0.11851000  0.85609000  1.0
  H  H8  1  0.76479000  0.75039000  0.80606000  1.0
  H  H9  1  0.23521000  0.25039000  0.80606000  1.0
  H  H10  1  0.30552000  0.64227000  0.75549000  1.0
  H  H11  1  0.69448000  0.14227000  0.75549000  1.0
  H  H12  1  0.31179000  0.50854000  0.80460000  1.0
  H  H13  1  0.68822000  0.00854000  0.80460000  1.0
  H  H14  1  0.77683000  0.54747000  0.70595000  1.0
  H  H15  1  0.22317000  0.04747000  0.70595000  1.0
  H  H16  1  0.77776000  0.41028000  0.75346000  1.0
  H  H17  1  0.22224000  0.91028000  0.75346000  1.0
  H  H18  1  0.31131000  0.44612000  0.65464000  1.0
  H  H19  1  0.68869000  0.94612000  0.65464000  1.0
  H  H20  1  0.32037000  0.30602000  0.70068000  1.0
  H  H21  1  0.67964000  0.80602000  0.70068000  1.0
  H  H22  1  0.77532000  0.35463000  0.60158000  1.0
  H  H23  1  0.22468000  0.85463000  0.60158000  1.0
  H  H24  1  0.78609000  0.21377000  0.64711000  1.0
  H  H25  1  0.21391000  0.71377000  0.64711000  1.0
  H  H26  1  0.33409000  0.10334000  0.59410000  1.0
  H  H27  1  0.66591000  0.60334000  0.59410000  1.0
  H  H28  1  0.58913000  0.12173000  0.53381000  1.0
  H  H29  1  0.41087000  0.62173000  0.53381000  1.0
  H  H30  1  0.30412000  0.25021000  0.55106000  1.0
  H  H31  1  0.69588000  0.75021000  0.55106000  1.0
  H  H32  1  0.85278000  0.66325000  0.13873000  1.0
  H  H33  1  0.14722000  0.16325000  0.13873000  1.0
  H  H34  1  0.53487000  0.67873000  0.09682000  1.0
  H  H35  1  0.46513000  0.17873000  0.09681000  1.0
  H  H36  1  0.78631000  0.92831000  0.20072000  1.0
  H  H37  1  0.21368000  0.42831000  0.20072000  1.0
  H  H38  1  0.45716000  0.93568000  0.16108000  1.0
  H  H39  1  0.54285000  0.43568000  0.16108000  1.0
  H  H40  1  0.27399000  0.72470000  0.20948000  1.0
  H  H41  1  0.72601000  0.22470000  0.20948000  1.0
  H  H42  1  0.60707000  0.71105000  0.24649000  1.0
  H  H43  1  0.39294000  0.21105000  0.24649000  1.0
  H  H44  1  0.55263000  0.97219000  0.30915000  1.0
  H  H45  1  0.44737000  0.47219000  0.30915000  1.0
  H  H46  1  0.21260000  0.98190000  0.27427000  1.0
  H  H47  1  0.78740000  0.48190000  0.27427000  1.0
  H  H48  1  0.38675000  0.75800000  0.35809000  1.0
  H  H49  1  0.61325000  0.25800000  0.35809000  1.0
  H  H50  1  0.04462000  0.77091000  0.32448000  1.0
  H  H51  1  0.95538000  0.27091000  0.32448000  1.0
  H  H52  1  0.33825000  0.01882000  0.42112000  1.0
  H  H53  1  0.66175000  0.51882000  0.42112000  1.0
  H  H54  1  0.99471000  0.02965000  0.38833000  1.0
  H  H55  1  0.00530000  0.52965000  0.38833000  1.0
  H  H56  1  0.17750000  0.80988000  0.47436000  1.0
  H  H57  1  0.82250000  0.30987000  0.47436000  1.0
  H  H58  1  0.96248000  0.96892000  0.49951000  1.0
  H  H59  1  0.03752000  0.46892000  0.49951000  1.0
  H  H60  1  0.83093000  0.81850000  0.44089000  1.0
  H  H61  1  0.16907000  0.31850000  0.44089000  1.0
  C  C62  1  0.59403000  0.89577000  0.92787000  1.0
  C  C63  1  0.40596000  0.39577000  0.92787000  1.0
  C  C64  1  0.43670000  0.78136000  0.87962000  1.0
  C  C65  1  0.56329000  0.28136000  0.87962000  1.0
  C  C66  1  0.62624000  0.68186000  0.83059000  1.0
  C  C67  1  0.37376000  0.18186000  0.83059000  1.0
  C  C68  1  0.45138000  0.57701000  0.78015000  1.0
  C  C69  1  0.54862000  0.07701000  0.78015000  1.0
  C  C70  1  0.63439000  0.47792000  0.72934000  1.0
  C  C71  1  0.36561000  0.97792000  0.72934000  1.0
  C  C72  1  0.45838000  0.37771000  0.67745000  1.0
  C  C73  1  0.54162000  0.87771000  0.67745000  1.0
  C  C74  1  0.63832000  0.28238000  0.62467000  1.0
  C  C75  1  0.36168000  0.78238000  0.62467000  1.0
  C  C76  1  0.45742000  0.18408000  0.57309000  1.0
  C  C77  1  0.54258000  0.68409000  0.57309000  1.0
  C  C78  1  0.87679000  0.80602000  0.07146000  1.0
  C  C79  1  0.12321000  0.30601000  0.07146000  1.0
  C  C80  1  0.71285000  0.74456000  0.12203000  1.0
  C  C81  1  0.28715000  0.24456000  0.12203000  1.0
  C  C82  1  0.60544000  0.85989000  0.17889000  1.0
  C  C83  1  0.39456000  0.35989000  0.17889000  1.0
  C  C84  1  0.45977000  0.79050000  0.23065000  1.0
  C  C85  1  0.54023000  0.29050000  0.23065000  1.0
  C  C86  1  0.36631000  0.90450000  0.28961000  1.0
  C  C87  1  0.63369000  0.40450000  0.28961000  1.0
  C  C88  1  0.23395000  0.83683000  0.34349000  1.0
  C  C89  1  0.76605000  0.33683000  0.34349000  1.0
  C  C90  1  0.14919000  0.95195000  0.40298000  1.0
  C  C91  1  0.85081000  0.45195000  0.40298000  1.0
  C  C92  1  0.02291000  0.88399000  0.45743000  1.0
  C  C93  1  0.97709000  0.38399000  0.45743000  1.0
  O  O94  1  0.46963000  0.96940000  0.97805000  1.0
  O  O95  1  0.53036000  0.46940000  0.97805000  1.0
  O  O96  1  0.85925000  0.91648000  0.91835000  1.0
  O  O97  1  0.14074000  0.41648000  0.91835000  1.0
  O  O98  1  0.92354000  0.94480000  0.08030000  1.0
  O  O99  1  0.07646000  0.44481000  0.08030000  1.0
  O  O100  1  0.96654000  0.72059000  0.01998000  1.0
  O  O101  1  0.03346000  0.22059000  0.01998000  1.0
