# generated using pymatgen
data_Co2H28C34O15
_symmetry_space_group_name_H-M   'P 1'
_cell_length_a   10.12770000
_cell_length_b   18.41270000
_cell_length_c   26.93690000
_cell_angle_alpha   89.99930000
_cell_angle_beta   99.97870000
_cell_angle_gamma   89.99970000
_symmetry_Int_Tables_number   1
_chemical_formula_structural   Co2H28C34O15
_chemical_formula_sum   'Co8 H112 C136 O60'
_cell_volume   4947.15839695
_cell_formula_units_Z   4
loop_
 _symmetry_equiv_pos_site_id
 _symmetry_equiv_pos_as_xyz
  1  'x, y, z'
loop_
 _atom_site_type_symbol
 _atom_site_label
 _atom_site_symmetry_multiplicity
 _atom_site_fract_x
 _atom_site_fract_y
 _atom_site_fract_z
 _atom_site_occupancy
  Co  Co0  1  0.47803000  0.70300000  0.31062000  1.0
  Co  Co1  1  0.52194000  0.20300000  0.18936000  1.0
  Co  Co2  1  0.51788000  0.29774000  0.68959000  1.0
  Co  Co3  1  0.48212000  0.79773000  0.81041000  1.0
  Co  Co4  1  0.63201000  0.77110000  0.21966000  1.0
  Co  Co5  1  0.36798000  0.27110000  0.28032000  1.0
  Co  Co6  1  0.36988000  0.22836000  0.78056000  1.0
  Co  Co7  1  0.63013000  0.72836000  0.71944000  1.0
  H  H8  1  0.23261000  0.58146000  0.41317000  1.0
  H  H9  1  0.76736000  0.08143000  0.08683000  1.0
  H  H10  1  0.76302000  0.41839000  0.58818000  1.0
  H  H11  1  0.23697000  0.91839000  0.91183000  1.0
  H  H12  1  0.80361000  0.60739000  0.39921000  1.0
  H  H13  1  0.19636000  0.10737000  0.10079000  1.0
  H  H14  1  0.19254000  0.39572000  0.60210000  1.0
  H  H15  1  0.80745000  0.89571000  0.89790000  1.0
  H  H16  1  0.01713000  0.71062000  0.29335000  1.0
  H  H17  1  0.98283000  0.21062000  0.20665000  1.0
  H  H18  1  0.98151000  0.28938000  0.70744000  1.0
  H  H19  1  0.01848000  0.78940000  0.79255000  1.0
  H  H20  1  0.53197000  0.99820000  0.24975000  1.0
  H  H21  1  0.46808000  0.49820000  0.25025000  1.0
  H  H22  1  0.46590000  0.00136000  0.74894000  1.0
  H  H23  1  0.53413000  0.50135000  0.75107000  1.0
  H  H24  1  0.51975000  0.88019000  0.38695000  1.0
  H  H25  1  0.48025000  0.38019000  0.11304000  1.0
  H  H26  1  0.47616000  0.12013000  0.61190000  1.0
  H  H27  1  0.52382000  0.62012000  0.88810000  1.0
  H  H28  1  0.50017000  0.11376000  0.38597000  1.0
  H  H29  1  0.49983000  0.61376000  0.11402000  1.0
  H  H30  1  0.49985000  0.88668000  0.61255000  1.0
  H  H31  1  0.50016000  0.38667000  0.88745000  1.0
  H  H32  1  0.16862000  0.66009000  0.47764000  1.0
  H  H33  1  0.83136000  0.16007000  0.02237000  1.0
  H  H34  1  0.82791000  0.34096000  0.52338000  1.0
  H  H35  1  0.17205000  0.84093000  0.97662000  1.0
  H  H36  1  0.10861000  0.52255000  0.63082000  1.0
  H  H37  1  0.89138000  0.02254000  0.86919000  1.0
  H  H38  1  0.88651000  0.47935000  0.37038000  1.0
  H  H39  1  0.11350000  0.97934000  0.12962000  1.0
  H  H40  1  0.28716000  0.93778000  0.39009000  1.0
  H  H41  1  0.71284000  0.43778000  0.10991000  1.0
  H  H42  1  0.71148000  0.06315000  0.60855000  1.0
  H  H43  1  0.28853000  0.56314000  0.89145000  1.0
  H  H44  1  0.74551000  0.04386000  0.42675000  1.0
  H  H45  1  0.25449000  0.54387000  0.07324000  1.0
  H  H46  1  0.25275000  0.95665000  0.57182000  1.0
  H  H47  1  0.74726000  0.45665000  0.92818000  1.0
  H  H48  1  0.37130000  0.71652000  0.49572000  1.0
  H  H49  1  0.62871000  0.21653000  0.00428000  1.0
  H  H50  1  0.62666000  0.28278000  0.50474000  1.0
  H  H51  1  0.37331000  0.78274000  0.99527000  1.0
  H  H52  1  0.39040000  0.79667000  0.53462000  1.0
  H  H53  1  0.60962000  0.29668000  0.96538000  1.0
  H  H54  1  0.61154000  0.20239000  0.46606000  1.0
  H  H55  1  0.38843000  0.70237000  0.03396000  1.0
  H  H56  1  0.22866000  0.77263000  0.50073000  1.0
  H  H57  1  0.77135000  0.27263000  0.99927000  1.0
  H  H58  1  0.77170000  0.22818000  0.50043000  1.0
  H  H59  1  0.22827000  0.72815000  0.99958000  1.0
  H  H60  1  0.90876000  0.12368000  0.41111000  1.0
  H  H61  1  0.09124000  0.62369000  0.08888000  1.0
  H  H62  1  0.09041000  0.87604000  0.58727000  1.0
  H  H63  1  0.90958000  0.37603000  0.91273000  1.0
  H  H64  1  0.08276000  0.10854000  0.43641000  1.0
  H  H65  1  0.91723000  0.60855000  0.06358000  1.0
  H  H66  1  0.91624000  0.89101000  0.56215000  1.0
  H  H67  1  0.08376000  0.39100000  0.93785000  1.0
  H  H68  1  0.96942000  0.03291000  0.42603000  1.0
  H  H69  1  0.03057000  0.53292000  0.07396000  1.0
  H  H70  1  0.02915000  0.96680000  0.57276000  1.0
  H  H71  1  0.97085000  0.46679000  0.92724000  1.0
  H  H72  1  0.07649000  0.92707000  0.34495000  1.0
  H  H73  1  0.92351000  0.42707000  0.15505000  1.0
  H  H74  1  0.92324000  0.07274000  0.65339000  1.0
  H  H75  1  0.07678000  0.57271000  0.84660000  1.0
  H  H76  1  0.97436000  0.84795000  0.34766000  1.0
  H  H77  1  0.02565000  0.34796000  0.15234000  1.0
  H  H78  1  0.02637000  0.15149000  0.65080000  1.0
  H  H79  1  0.97362000  0.65145000  0.84917000  1.0
  H  H80  1  0.15385000  0.84014000  0.36039000  1.0
  H  H81  1  0.84617000  0.34014000  0.13962000  1.0
  H  H82  1  0.84704000  0.16012000  0.63859000  1.0
  H  H83  1  0.15294000  0.66010000  0.86139000  1.0
  H  H84  1  0.26018000  0.55818000  0.69993000  1.0
  H  H85  1  0.73984000  0.05820000  0.80007000  1.0
  H  H86  1  0.73810000  0.44207000  0.30057000  1.0
  H  H87  1  0.26195000  0.94207000  0.19943000  1.0
  H  H88  1  0.11558000  0.61679000  0.68892000  1.0
  H  H89  1  0.88445000  0.11680000  0.81109000  1.0
  H  H90  1  0.88370000  0.38431000  0.31272000  1.0
  H  H91  1  0.11635000  0.88431000  0.18729000  1.0
  H  H92  1  0.27256000  0.65058000  0.72221000  1.0
  H  H93  1  0.72748000  0.15060000  0.77780000  1.0
  H  H94  1  0.72825000  0.34937000  0.27892000  1.0
  H  H95  1  0.27180000  0.84936000  0.22109000  1.0
  H  H96  1  0.47870000  0.79082000  0.12175000  1.0
  H  H97  1  0.52132000  0.29083000  0.37825000  1.0
  H  H98  1  0.52205000  0.20631000  0.87857000  1.0
  H  H99  1  0.47797000  0.70628000  0.62143000  1.0
  H  H100  1  0.46574000  0.85789000  0.15278000  1.0
  H  H101  1  0.53424000  0.35789000  0.34721000  1.0
  H  H102  1  0.53291000  0.14033000  0.84614000  1.0
  H  H103  1  0.46715000  0.64030000  0.65387000  1.0
  H  H104  1  0.74418000  0.82244000  0.15348000  1.0
  H  H105  1  0.25585000  0.32243000  0.34652000  1.0
  H  H106  1  0.25396000  0.17242000  0.84415000  1.0
  H  H107  1  0.74608000  0.67241000  0.65586000  1.0
  H  H108  1  0.83685000  0.75642000  0.17930000  1.0
  H  H109  1  0.16317000  0.25642000  0.32071000  1.0
  H  H110  1  0.16096000  0.23848000  0.81918000  1.0
  H  H111  1  0.83906000  0.73848000  0.68083000  1.0
  H  H112  1  0.85636000  0.67177000  0.22497000  1.0
  H  H113  1  0.14364000  0.17175000  0.27504000  1.0
  H  H114  1  0.14308000  0.32535000  0.77573000  1.0
  H  H115  1  0.85691000  0.82536000  0.72427000  1.0
  H  H116  1  0.82200000  0.63339000  0.17277000  1.0
  H  H117  1  0.17813000  0.13338000  0.32724000  1.0
  H  H118  1  0.17667000  0.36097000  0.82886000  1.0
  H  H119  1  0.82331000  0.86097000  0.67113000  1.0
  C  C120  1  0.76691000  0.69160000  0.31647000  1.0
  C  C121  1  0.23305000  0.19160000  0.18352000  1.0
  C  C122  1  0.23151000  0.31096000  0.68430000  1.0
  C  C123  1  0.76848000  0.81097000  0.81570000  1.0
  C  C124  1  0.26077000  0.67107000  0.33360000  1.0
  C  C125  1  0.73920000  0.17105000  0.16640000  1.0
  C  C126  1  0.73692000  0.32797000  0.66718000  1.0
  C  C127  1  0.26307000  0.82799000  0.83282000  1.0
  C  C128  1  0.13636000  0.64864000  0.35197000  1.0
  C  C129  1  0.86362000  0.14862000  0.14803000  1.0
  C  C130  1  0.86108000  0.35132000  0.64908000  1.0
  C  C131  1  0.13890000  0.85133000  0.85091000  1.0
  C  C132  1  0.13735000  0.60351000  0.39400000  1.0
  C  C133  1  0.86262000  0.10349000  0.10600000  1.0
  C  C134  1  0.85891000  0.39694000  0.60721000  1.0
  C  C135  1  0.14108000  0.89693000  0.89280000  1.0
  C  C136  1  0.50725000  0.99745000  0.44768000  1.0
  C  C137  1  0.49275000  0.49744000  0.05231000  1.0
  C  C138  1  0.49116000  0.00324000  0.55100000  1.0
  C  C139  1  0.50883000  0.50324000  0.94900000  1.0
  C  C140  1  0.89584000  0.66079000  0.34296000  1.0
  C  C141  1  0.10413000  0.16078000  0.15703000  1.0
  C  C142  1  0.10162000  0.34102000  0.65812000  1.0
  C  C143  1  0.89836000  0.84102000  0.84188000  1.0
  C  C144  1  0.52439000  0.93211000  0.31568000  1.0
  C  C145  1  0.47566000  0.43211000  0.18432000  1.0
  C  C146  1  0.47233000  0.06789000  0.68310000  1.0
  C  C147  1  0.52768000  0.56789000  0.81690000  1.0
  C  C148  1  0.89753000  0.61743000  0.38580000  1.0
  C  C149  1  0.10243000  0.11741000  0.11420000  1.0
  C  C150  1  0.09884000  0.38483000  0.61543000  1.0
  C  C151  1  0.90114000  0.88482000  0.88457000  1.0
  C  C152  1  0.51476000  0.06287000  0.31524000  1.0
  C  C153  1  0.48526000  0.56287000  0.18475000  1.0
  C  C154  1  0.48410000  0.93710000  0.68335000  1.0
  C  C155  1  0.51593000  0.43709000  0.81665000  1.0
  C  C156  1  0.07730000  0.56488000  0.50475000  1.0
  C  C157  1  0.92268000  0.06487000  0.99526000  1.0
  C  C158  1  0.91794000  0.43668000  0.49643000  1.0
  C  C159  1  0.08204000  0.93667000  0.00357000  1.0
  C  C160  1  0.01201000  0.54169000  0.45663000  1.0
  C  C161  1  0.98797000  0.04167000  0.04337000  1.0
  C  C162  1  0.98297000  0.45998000  0.54458000  1.0
  C  C163  1  0.01701000  0.95997000  0.95542000  1.0
  C  C164  1  0.01531000  0.67605000  0.32600000  1.0
  C  C165  1  0.98466000  0.17604000  0.17399000  1.0
  C  C166  1  0.98260000  0.32442000  0.67497000  1.0
  C  C167  1  0.01738000  0.82443000  0.82503000  1.0
  C  C168  1  0.01743000  0.58724000  0.41134000  1.0
  C  C169  1  0.98254000  0.08721000  0.08866000  1.0
  C  C170  1  0.97832000  0.41427000  0.58985000  1.0
  C  C171  1  0.02166000  0.91427000  0.91015000  1.0
  C  C172  1  0.51331000  0.99698000  0.39332000  1.0
  C  C173  1  0.48669000  0.49698000  0.10667000  1.0
  C  C174  1  0.48497000  0.00342000  0.60538000  1.0
  C  C175  1  0.51503000  0.50341000  0.89462000  1.0
  C  C176  1  0.52566000  0.99758000  0.28968000  1.0
  C  C177  1  0.47437000  0.49758000  0.21031000  1.0
  C  C178  1  0.47219000  0.00223000  0.70901000  1.0
  C  C179  1  0.52785000  0.50223000  0.79100000  1.0
  C  C180  1  0.51918000  0.93190000  0.36728000  1.0
  C  C181  1  0.48082000  0.43189000  0.13272000  1.0
  C  C182  1  0.47770000  0.06831000  0.63149000  1.0
  C  C183  1  0.52232000  0.56830000  0.86851000  1.0
  C  C184  1  0.52472000  0.86120000  0.28961000  1.0
  C  C185  1  0.47530000  0.36119000  0.21038000  1.0
  C  C186  1  0.47056000  0.13880000  0.70915000  1.0
  C  C187  1  0.52942000  0.63880000  0.79085000  1.0
  C  C188  1  0.06139000  0.52410000  0.54910000  1.0
  C  C189  1  0.93859000  0.02409000  0.95091000  1.0
  C  C190  1  0.93364000  0.47758000  0.45210000  1.0
  C  C191  1  0.06634000  0.97756000  0.04790000  1.0
  C  C192  1  0.50858000  0.06238000  0.36669000  1.0
  C  C193  1  0.49142000  0.56238000  0.13330000  1.0
  C  C194  1  0.49057000  0.93791000  0.63192000  1.0
  C  C195  1  0.50946000  0.43789000  0.86808000  1.0
  C  C196  1  0.61610000  0.02590000  0.48200000  1.0
  C  C197  1  0.38390000  0.52590000  0.01799000  1.0
  C  C198  1  0.38230000  0.97481000  0.51665000  1.0
  C  C199  1  0.61770000  0.47481000  0.98335000  1.0
  C  C200  1  0.15819000  0.62893000  0.51098000  1.0
  C  C201  1  0.84178000  0.12892000  0.98903000  1.0
  C  C202  1  0.83812000  0.37226000  0.49009000  1.0
  C  C203  1  0.16185000  0.87223000  0.00992000  1.0
  C  C204  1  0.39102000  0.97114000  0.46400000  1.0
  C  C205  1  0.60898000  0.47112000  0.03600000  1.0
  C  C206  1  0.60740000  0.02963000  0.53467000  1.0
  C  C207  1  0.39260000  0.52962000  0.96533000  1.0
  C  C208  1  0.12413000  0.55144000  0.59711000  1.0
  C  C209  1  0.87587000  0.05143000  0.90290000  1.0
  C  C210  1  0.87152000  0.45017000  0.40405000  1.0
  C  C211  1  0.12847000  0.95015000  0.09596000  1.0
  C  C212  1  0.28032000  0.94145000  0.42984000  1.0
  C  C213  1  0.71968000  0.44145000  0.07016000  1.0
  C  C214  1  0.71826000  0.05934000  0.56878000  1.0
  C  C215  1  0.28174000  0.55933000  0.93121000  1.0
  C  C216  1  0.22261000  0.65188000  0.55743000  1.0
  C  C217  1  0.77740000  0.15187000  0.94257000  1.0
  C  C218  1  0.77503000  0.34889000  0.44354000  1.0
  C  C219  1  0.22496000  0.84886000  0.05646000  1.0
  C  C220  1  0.73713000  0.04917000  0.46628000  1.0
  C  C221  1  0.26287000  0.54917000  0.03372000  1.0
  C  C222  1  0.26131000  0.95138000  0.53231000  1.0
  C  C223  1  0.73870000  0.45137000  0.96769000  1.0
  C  C224  1  0.16691000  0.91683000  0.44614000  1.0
  C  C225  1  0.83309000  0.41682000  0.05387000  1.0
  C  C226  1  0.83179000  0.08372000  0.55242000  1.0
  C  C227  1  0.16821000  0.58371000  0.94757000  1.0
  C  C228  1  0.20265000  0.61272000  0.60177000  1.0
  C  C229  1  0.79736000  0.11271000  0.89823000  1.0
  C  C230  1  0.79438000  0.38840000  0.39928000  1.0
  C  C231  1  0.20563000  0.88839000  0.10073000  1.0
  C  C232  1  0.84276000  0.07696000  0.49993000  1.0
  C  C233  1  0.15724000  0.57696000  0.00006000  1.0
  C  C234  1  0.15585000  0.92348000  0.49861000  1.0
  C  C235  1  0.84416000  0.42347000  0.00139000  1.0
  C  C236  1  0.32428000  0.75118000  0.52107000  1.0
  C  C237  1  0.67574000  0.25119000  0.97894000  1.0
  C  C238  1  0.67571000  0.24860000  0.47971000  1.0
  C  C239  1  0.32426000  0.74857000  0.02030000  1.0
  C  C240  1  0.98015000  0.09045000  0.43718000  1.0
  C  C241  1  0.01985000  0.59046000  0.06281000  1.0
  C  C242  1  0.01871000  0.90935000  0.56138000  1.0
  C  C243  1  0.98130000  0.40934000  0.93862000  1.0
  C  C244  1  0.06783000  0.87499000  0.36435000  1.0
  C  C245  1  0.93218000  0.37499000  0.13566000  1.0
  C  C246  1  0.93231000  0.12496000  0.63422000  1.0
  C  C247  1  0.06769000  0.62493000  0.86576000  1.0
  C  C248  1  0.22528000  0.61437000  0.69205000  1.0
  C  C249  1  0.77474000  0.11438000  0.80795000  1.0
  C  C250  1  0.77384000  0.38616000  0.30900000  1.0
  C  C251  1  0.22621000  0.88616000  0.19100000  1.0
  C  C252  1  0.50426000  0.13270000  0.28732000  1.0
  C  C253  1  0.49574000  0.63270000  0.21266000  1.0
  C  C254  1  0.49594000  0.86707000  0.71116000  1.0
  C  C255  1  0.50407000  0.36707000  0.78885000  1.0
  O  O256  1  0.37723000  0.65668000  0.36012000  1.0
  O  O257  1  0.62274000  0.15667000  0.13987000  1.0
  O  O258  1  0.62067000  0.34514000  0.64158000  1.0
  O  O259  1  0.37930000  0.84515000  0.85843000  1.0
  O  O260  1  0.25330000  0.70570000  0.29261000  1.0
  O  O261  1  0.74664000  0.20567000  0.20739000  1.0
  O  O262  1  0.74377000  0.29038000  0.70687000  1.0
  O  O263  1  0.25622000  0.79040000  0.79312000  1.0
  O  O264  1  0.66990000  0.69315000  0.34040000  1.0
  O  O265  1  0.33004000  0.19315000  0.15958000  1.0
  O  O266  1  0.32849000  0.31242000  0.66026000  1.0
  O  O267  1  0.67151000  0.81241000  0.83975000  1.0
  O  O268  1  0.57271000  0.85884000  0.24852000  1.0
  O  O269  1  0.42728000  0.35882000  0.25146000  1.0
  O  O270  1  0.42945000  0.14052000  0.75163000  1.0
  O  O271  1  0.57057000  0.64052000  0.74837000  1.0
  O  O272  1  0.76342000  0.71453000  0.27092000  1.0
  O  O273  1  0.23656000  0.21452000  0.22907000  1.0
  O  O274  1  0.23640000  0.28555000  0.72921000  1.0
  O  O275  1  0.76359000  0.78556000  0.77079000  1.0
  O  O276  1  0.47453000  0.80799000  0.30975000  1.0
  O  O277  1  0.52547000  0.30799000  0.19024000  1.0
  O  O278  1  0.51249000  0.19306000  0.68735000  1.0
  O  O279  1  0.48750000  0.69306000  0.81265000  1.0
  O  O280  1  0.52534000  0.13136000  0.24239000  1.0
  O  O281  1  0.47461000  0.63137000  0.25760000  1.0
  O  O282  1  0.47304000  0.86772000  0.75586000  1.0
  O  O283  1  0.52697000  0.36770000  0.74415000  1.0
  O  O284  1  0.05891000  0.88621000  0.41625000  1.0
  O  O285  1  0.94110000  0.38621000  0.08375000  1.0
  O  O286  1  0.94020000  0.11415000  0.58219000  1.0
  O  O287  1  0.05981000  0.61413000  0.91779000  1.0
  O  O288  1  0.30441000  0.71175000  0.56530000  1.0
  O  O289  1  0.69561000  0.21175000  0.93471000  1.0
  O  O290  1  0.69531000  0.28825000  0.43555000  1.0
  O  O291  1  0.30466000  0.78822000  0.06446000  1.0
  O  O292  1  0.26505000  0.64140000  0.64681000  1.0
  O  O293  1  0.73497000  0.14141000  0.85320000  1.0
  O  O294  1  0.73297000  0.35946000  0.35415000  1.0
  O  O295  1  0.26705000  0.85945000  0.14586000  1.0
  O  O296  1  0.96142000  0.09986000  0.48825000  1.0
  O  O297  1  0.03858000  0.59987000  0.01174000  1.0
  O  O298  1  0.03725000  0.90042000  0.51026000  1.0
  O  O299  1  0.96276000  0.40042000  0.98974000  1.0
  O  O300  1  0.47246000  0.18925000  0.31080000  1.0
  O  O301  1  0.52754000  0.68924000  0.18919000  1.0
  O  O302  1  0.53106000  0.81114000  0.68789000  1.0
  O  O303  1  0.46896000  0.31113000  0.81212000  1.0
  O  O304  1  0.53454000  0.82521000  0.14393000  1.0
  O  O305  1  0.46546000  0.32521000  0.35606000  1.0
  O  O306  1  0.46524000  0.17296000  0.85581000  1.0
  O  O307  1  0.53479000  0.67295000  0.64420000  1.0
  O  O308  1  0.78998000  0.80274000  0.18559000  1.0
  O  O309  1  0.21002000  0.30273000  0.31441000  1.0
  O  O310  1  0.20879000  0.19286000  0.81218000  1.0
  O  O311  1  0.79123000  0.69285000  0.68782000  1.0
  O  O312  1  0.88402000  0.66808000  0.19148000  1.0
  O  O313  1  0.11604000  0.16806000  0.30854000  1.0
  O  O314  1  0.11402000  0.32764000  0.80904000  1.0
  O  O315  1  0.88597000  0.82764000  0.69096000  1.0
