# generated using pymatgen
data_CoH12C16(N4O)2
_symmetry_space_group_name_H-M   'P 1'
_cell_length_a   7.05875000
_cell_length_b   10.14140000
_cell_length_c   12.14530000
_cell_angle_alpha   89.99990000
_cell_angle_beta   90.00000000
_cell_angle_gamma   104.53200000
_symmetry_Int_Tables_number   1
_chemical_formula_structural   CoH12C16(N4O)2
_chemical_formula_sum   'Co2 H24 C32 N16 O4'
_cell_volume   841.61360995
_cell_formula_units_Z   2
loop_
 _symmetry_equiv_pos_site_id
 _symmetry_equiv_pos_as_xyz
  1  'x, y, z'
loop_
 _atom_site_type_symbol
 _atom_site_label
 _atom_site_symmetry_multiplicity
 _atom_site_fract_x
 _atom_site_fract_y
 _atom_site_fract_z
 _atom_site_occupancy
  Co  Co0  1  0.00000000  0.00000000  0.00000000  1.0
  Co  Co1  1  0.50000000  0.50000000  0.50000000  1.0
  H  H2  1  0.97648000  0.21540000  0.19991000  1.0
  H  H3  1  0.47648000  0.71540000  0.30009000  1.0
  H  H4  1  0.02352000  0.78460000  0.80009000  1.0
  H  H5  1  0.52352000  0.28461000  0.69990000  1.0
  H  H6  1  0.85769000  0.20821000  0.39679000  1.0
  H  H7  1  0.35769000  0.70821000  0.10321000  1.0
  H  H8  1  0.14231000  0.79179000  0.60321000  1.0
  H  H9  1  0.64231000  0.29179000  0.89679000  1.0
  H  H10  1  0.57001000  0.15556000  0.51999000  1.0
  H  H11  1  0.07001000  0.65556000  0.98001000  1.0
  H  H12  1  0.42998000  0.84444000  0.48001000  1.0
  H  H13  1  0.92999000  0.34444000  0.01999000  1.0
  H  H14  1  0.33669000  0.06898000  0.46940000  1.0
  H  H15  1  0.83668000  0.56897000  0.03060000  1.0
  H  H16  1  0.66331000  0.93102000  0.53060000  1.0
  H  H17  1  0.16331000  0.43102000  0.96940000  1.0
  H  H18  1  0.31080000  0.94917000  0.28422000  1.0
  H  H19  1  0.81080000  0.44917000  0.21578000  1.0
  H  H20  1  0.68920000  0.05083000  0.71578000  1.0
  H  H21  1  0.18920000  0.55082000  0.78422000  1.0
  H  H22  1  0.44814000  0.96923000  0.09264000  1.0
  H  H23  1  0.94814000  0.46923000  0.40737000  1.0
  H  H24  1  0.55185000  0.03077000  0.90736000  1.0
  H  H25  1  0.05186000  0.53077000  0.59263000  1.0
  C  C26  1  0.83128000  0.15952000  0.22560000  1.0
  C  C27  1  0.33129000  0.65952000  0.27441000  1.0
  C  C28  1  0.16872000  0.84048000  0.77441000  1.0
  C  C29  1  0.66871000  0.34048000  0.72559000  1.0
  C  C30  1  0.76244000  0.15261000  0.33255000  1.0
  C  C31  1  0.26244000  0.65261000  0.16745000  1.0
  C  C32  1  0.23756000  0.84739000  0.66745000  1.0
  C  C33  1  0.73756000  0.34739000  0.83255000  1.0
  C  C34  1  0.57208000  0.07739000  0.35735000  1.0
  C  C35  1  0.07209000  0.57739000  0.14265000  1.0
  C  C36  1  0.42791000  0.92261000  0.64265000  1.0
  C  C37  1  0.92791000  0.42261000  0.85735000  1.0
  C  C38  1  0.49160000  0.06676000  0.47199000  1.0
  C  C39  1  0.99160000  0.56676000  0.02801000  1.0
  C  C40  1  0.50839000  0.93324000  0.52801000  1.0
  C  C41  1  0.00840000  0.43324000  0.97199000  1.0
  C  C42  1  0.45957000  0.00909000  0.27000000  1.0
  C  C43  1  0.95957000  0.50908000  0.23000000  1.0
  C  C44  1  0.54043000  0.99091000  0.73000000  1.0
  C  C45  1  0.04044000  0.49091000  0.77000000  1.0
  C  C46  1  0.53201000  0.01717000  0.16379000  1.0
  C  C47  1  0.03202000  0.51717000  0.33621000  1.0
  C  C48  1  0.46799000  0.98283000  0.83621000  1.0
  C  C49  1  0.96799000  0.48282000  0.66379000  1.0
  C  C50  1  0.67158000  0.75257000  0.89537000  1.0
  C  C51  1  0.17158000  0.25257000  0.60463000  1.0
  C  C52  1  0.32843000  0.24743000  0.10463000  1.0
  C  C53  1  0.82842000  0.74743000  0.39537000  1.0
  C  C54  1  0.53788000  0.62508000  0.74501000  1.0
  C  C55  1  0.03789000  0.12508000  0.75499000  1.0
  C  C56  1  0.46211000  0.37492000  0.25499000  1.0
  C  C57  1  0.96211000  0.87492000  0.24501000  1.0
  N  N58  1  0.71585000  0.09329000  0.14263000  1.0
  N  N59  1  0.21585000  0.59329000  0.35737000  1.0
  N  N60  1  0.28415000  0.90671000  0.85737000  1.0
  N  N61  1  0.78415000  0.40671000  0.64263000  1.0
  N  N62  1  0.78229000  0.83748000  0.94582000  1.0
  N  N63  1  0.28230000  0.33748000  0.55418000  1.0
  N  N64  1  0.21771000  0.16252000  0.05418000  1.0
  N  N65  1  0.71770000  0.66252000  0.44582000  1.0
  N  N66  1  0.54129000  0.65563000  0.84904000  1.0
  N  N67  1  0.04130000  0.15563000  0.65097000  1.0
  N  N68  1  0.45871000  0.34437000  0.15097000  1.0
  N  N69  1  0.95871000  0.84437000  0.34903000  1.0
  N  N70  1  0.51468000  0.58593000  0.65349000  1.0
  N  N71  1  0.01468000  0.08593000  0.84651000  1.0
  N  N72  1  0.48532000  0.41407000  0.34652000  1.0
  N  N73  1  0.98532000  0.91407000  0.15348000  1.0
  O  O74  1  0.78344000  0.10297000  0.03988000  1.0
  O  O75  1  0.28345000  0.60298000  0.46012000  1.0
  O  O76  1  0.21656000  0.89703000  0.96012000  1.0
  O  O77  1  0.71655000  0.39702000  0.53988000  1.0
