# generated using pymatgen
data_AgPH17C10N3O2
_symmetry_space_group_name_H-M   'P 1'
_cell_length_a   11.16970000
_cell_length_b   13.27590000
_cell_length_c   20.45010000
_cell_angle_alpha   90.00050000
_cell_angle_beta   90.00000000
_cell_angle_gamma   89.99990000
_symmetry_Int_Tables_number   1
_chemical_formula_structural   AgPH17C10N3O2
_chemical_formula_sum   'Ag8 P8 H136 C80 N24 O16'
_cell_volume   3032.50075237
_cell_formula_units_Z   8
loop_
 _symmetry_equiv_pos_site_id
 _symmetry_equiv_pos_as_xyz
  1  'x, y, z'
loop_
 _atom_site_type_symbol
 _atom_site_label
 _atom_site_symmetry_multiplicity
 _atom_site_fract_x
 _atom_site_fract_y
 _atom_site_fract_z
 _atom_site_occupancy
  Ag  Ag0  1  0.20575000  0.89044000  0.72263000  1.0
  Ag  Ag1  1  0.70577000  0.60956000  0.77734000  1.0
  Ag  Ag2  1  0.79427000  0.60955000  0.22265000  1.0
  Ag  Ag3  1  0.29425000  0.89043000  0.27736000  1.0
  Ag  Ag4  1  0.79426000  0.10956000  0.27737000  1.0
  Ag  Ag5  1  0.29422000  0.39042000  0.22264000  1.0
  Ag  Ag6  1  0.20573000  0.39045000  0.77737000  1.0
  Ag  Ag7  1  0.70575000  0.10955000  0.72265000  1.0
  P  P8  1  0.10454000  0.74048000  0.70753000  1.0
  P  P9  1  0.60454000  0.75951000  0.79246000  1.0
  P  P10  1  0.89546000  0.75952000  0.20754000  1.0
  P  P11  1  0.39546000  0.74047000  0.29246000  1.0
  P  P12  1  0.89546000  0.25952000  0.29246000  1.0
  P  P13  1  0.39546000  0.24048000  0.20754000  1.0
  P  P14  1  0.10454000  0.24048000  0.79246000  1.0
  P  P15  1  0.60454000  0.25952000  0.70754000  1.0
  H  H16  1  0.33542000  0.03998000  0.52713000  1.0
  H  H17  1  0.83542000  0.46002000  0.97286000  1.0
  H  H18  1  0.66458000  0.46003000  0.02713000  1.0
  H  H19  1  0.16458000  0.03997000  0.47287000  1.0
  H  H20  1  0.66458000  0.96002000  0.47287000  1.0
  H  H21  1  0.16459000  0.53998000  0.02714000  1.0
  H  H22  1  0.33541000  0.53998000  0.97287000  1.0
  H  H23  1  0.83541000  0.96002000  0.52713000  1.0
  H  H24  1  0.49097000  0.09267000  0.60579000  1.0
  H  H25  1  0.99098000  0.40733000  0.89421000  1.0
  H  H26  1  0.50903000  0.40733000  0.10579000  1.0
  H  H27  1  0.00903000  0.09267000  0.39421000  1.0
  H  H28  1  0.50903000  0.90732000  0.39421000  1.0
  H  H29  1  0.00903000  0.59267000  0.10579000  1.0
  H  H30  1  0.49097000  0.59267000  0.89421000  1.0
  H  H31  1  0.99097000  0.90733000  0.60579000  1.0
  H  H32  1  0.57727000  0.98472000  0.58827000  1.0
  H  H33  1  0.07728000  0.51528000  0.91172000  1.0
  H  H34  1  0.42272000  0.51527000  0.08828000  1.0
  H  H35  1  0.92273000  0.98472000  0.41172000  1.0
  H  H36  1  0.42273000  0.01527000  0.41172000  1.0
  H  H37  1  0.92273000  0.48473000  0.08827000  1.0
  H  H38  1  0.57727000  0.48473000  0.91173000  1.0
  H  H39  1  0.07727000  0.01527000  0.58827000  1.0
  H  H40  1  0.34469000  0.87002000  0.47496000  1.0
  H  H41  1  0.84469000  0.62997000  0.02504000  1.0
  H  H42  1  0.65531000  0.62998000  0.97496000  1.0
  H  H43  1  0.15530000  0.87002000  0.52504000  1.0
  H  H44  1  0.65531000  0.12997000  0.52504000  1.0
  H  H45  1  0.15531000  0.37003000  0.97496000  1.0
  H  H46  1  0.34469000  0.37002000  0.02504000  1.0
  H  H47  1  0.84469000  0.12997000  0.47496000  1.0
  H  H48  1  0.48613000  0.84899000  0.51074000  1.0
  H  H49  1  0.98613000  0.65101000  0.98926000  1.0
  H  H50  1  0.51386000  0.65101000  0.01074000  1.0
  H  H51  1  0.01386000  0.84899000  0.48926000  1.0
  H  H52  1  0.51387000  0.15101000  0.48926000  1.0
  H  H53  1  0.01387000  0.34899000  0.01074000  1.0
  H  H54  1  0.48613000  0.34899000  0.98926000  1.0
  H  H55  1  0.98613000  0.15100000  0.51074000  1.0
  H  H56  1  0.94760000  0.72463000  0.79229000  1.0
  H  H57  1  0.44760000  0.77537000  0.70771000  1.0
  H  H58  1  0.05240000  0.77537000  0.29229000  1.0
  H  H59  1  0.55240000  0.72463000  0.20771000  1.0
  H  H60  1  0.05240000  0.27537000  0.20771000  1.0
  H  H61  1  0.55240000  0.22463000  0.29229000  1.0
  H  H62  1  0.94760000  0.22463000  0.70771000  1.0
  H  H63  1  0.44759000  0.27538000  0.79229000  1.0
  H  H64  1  0.89053000  0.77099000  0.71649000  1.0
  H  H65  1  0.39053000  0.72901000  0.78350000  1.0
  H  H66  1  0.10948000  0.72901000  0.21650000  1.0
  H  H67  1  0.60947000  0.77099000  0.28350000  1.0
  H  H68  1  0.10947000  0.22901000  0.28350000  1.0
  H  H69  1  0.60947000  0.27099000  0.21650000  1.0
  H  H70  1  0.89053000  0.27099000  0.78350000  1.0
  H  H71  1  0.39053000  0.22902000  0.71649000  1.0
  H  H72  1  0.26575000  0.61819000  0.71438000  1.0
  H  H73  1  0.76575000  0.88181000  0.78562000  1.0
  H  H74  1  0.73425000  0.88181000  0.21438000  1.0
  H  H75  1  0.23425000  0.61819000  0.28562000  1.0
  H  H76  1  0.73425000  0.38181000  0.28562000  1.0
  H  H77  1  0.23425000  0.11818000  0.21438000  1.0
  H  H78  1  0.26575000  0.11819000  0.78562000  1.0
  H  H79  1  0.76575000  0.38181000  0.71438000  1.0
  H  H80  1  0.19209000  0.62720000  0.79092000  1.0
  H  H81  1  0.69208000  0.87280000  0.70908000  1.0
  H  H82  1  0.80792000  0.87280000  0.29092000  1.0
  H  H83  1  0.30791000  0.62720000  0.20908000  1.0
  H  H84  1  0.80792000  0.37280000  0.20908000  1.0
  H  H85  1  0.30792000  0.12720000  0.29092000  1.0
  H  H86  1  0.19208000  0.12720000  0.70908000  1.0
  H  H87  1  0.69208000  0.37280000  0.79092000  1.0
  H  H88  1  0.02258000  0.75038000  0.59630000  1.0
  H  H89  1  0.52258000  0.74962000  0.90370000  1.0
  H  H90  1  0.97742000  0.74962000  0.09630000  1.0
  H  H91  1  0.47742000  0.75037000  0.40370000  1.0
  H  H92  1  0.97742000  0.24963000  0.40370000  1.0
  H  H93  1  0.47742000  0.25038000  0.09630000  1.0
  H  H94  1  0.02257000  0.25038000  0.90370000  1.0
  H  H95  1  0.52257000  0.24963000  0.59630000  1.0
  H  H96  1  0.16579000  0.69353000  0.59684000  1.0
  H  H97  1  0.66580000  0.80647000  0.90316000  1.0
  H  H98  1  0.83421000  0.80647000  0.09684000  1.0
  H  H99  1  0.33421000  0.69353000  0.40316000  1.0
  H  H100  1  0.83420000  0.30647000  0.40316000  1.0
  H  H101  1  0.33421000  0.19353000  0.09684000  1.0
  H  H102  1  0.16579000  0.19353000  0.90316000  1.0
  H  H103  1  0.66579000  0.30647000  0.59684000  1.0
  H  H104  1  0.86210000  0.52298000  0.64283000  1.0
  H  H105  1  0.36210000  0.97702000  0.85717000  1.0
  H  H106  1  0.13790000  0.97702000  0.14284000  1.0
  H  H107  1  0.63789000  0.52298000  0.35716000  1.0
  H  H108  1  0.13789000  0.47702000  0.35716000  1.0
  H  H109  1  0.63790000  0.02298000  0.14283000  1.0
  H  H110  1  0.86211000  0.02298000  0.85716000  1.0
  H  H111  1  0.36211000  0.47703000  0.64283000  1.0
  H  H112  1  0.84781000  0.65591000  0.62934000  1.0
  H  H113  1  0.34781000  0.84409000  0.87066000  1.0
  H  H114  1  0.15220000  0.84409000  0.12934000  1.0
  H  H115  1  0.65220000  0.65591000  0.37066000  1.0
  H  H116  1  0.15219000  0.34409000  0.37066000  1.0
  H  H117  1  0.65219000  0.15591000  0.12934000  1.0
  H  H118  1  0.84780000  0.15591000  0.87066000  1.0
  H  H119  1  0.34781000  0.34410000  0.62934000  1.0
  H  H120  1  0.94504000  0.46208000  0.74591000  1.0
  H  H121  1  0.44504000  0.03792000  0.75409000  1.0
  H  H122  1  0.05496000  0.03793000  0.24591000  1.0
  H  H123  1  0.55495000  0.46207000  0.25409000  1.0
  H  H124  1  0.05495000  0.53792000  0.25409000  1.0
  H  H125  1  0.55496000  0.96208000  0.24590000  1.0
  H  H126  1  0.94504000  0.96208000  0.75409000  1.0
  H  H127  1  0.44505000  0.53793000  0.74591000  1.0
  H  H128  1  0.99603000  0.55140000  0.80452000  1.0
  H  H129  1  0.49602000  0.94861000  0.69548000  1.0
  H  H130  1  0.00398000  0.94861000  0.30452000  1.0
  H  H131  1  0.50397000  0.55139000  0.19548000  1.0
  H  H132  1  0.00398000  0.44861000  0.19548000  1.0
  H  H133  1  0.50398000  0.05139000  0.30452000  1.0
  H  H134  1  0.99602000  0.05140000  0.69548000  1.0
  H  H135  1  0.49602000  0.44861000  0.80452000  1.0
  H  H136  1  0.05216000  0.44462000  0.64270000  1.0
  H  H137  1  0.55216000  0.05538000  0.85730000  1.0
  H  H138  1  0.94784000  0.05538000  0.14271000  1.0
  H  H139  1  0.44784000  0.44462000  0.35729000  1.0
  H  H140  1  0.94783000  0.55538000  0.35730000  1.0
  H  H141  1  0.44784000  0.94462000  0.14270000  1.0
  H  H142  1  0.05216000  0.94462000  0.85729000  1.0
  H  H143  1  0.55217000  0.55538000  0.64271000  1.0
  H  H144  1  0.18357000  0.51835000  0.62826000  1.0
  H  H145  1  0.68357000  0.98165000  0.87174000  1.0
  H  H146  1  0.81643000  0.98165000  0.12827000  1.0
  H  H147  1  0.31643000  0.51834000  0.37174000  1.0
  H  H148  1  0.81642000  0.48166000  0.37174000  1.0
  H  H149  1  0.31643000  0.01834000  0.12826000  1.0
  H  H150  1  0.18357000  0.01835000  0.87173000  1.0
  H  H151  1  0.68357000  0.48165000  0.62827000  1.0
  C  C152  1  0.34135000  0.93485000  0.60574000  1.0
  C  C153  1  0.84136000  0.56515000  0.89426000  1.0
  C  C154  1  0.65865000  0.56515000  0.10574000  1.0
  C  C155  1  0.15864000  0.93485000  0.39427000  1.0
  C  C156  1  0.65865000  0.06514000  0.39427000  1.0
  C  C157  1  0.15863000  0.43485000  0.10573000  1.0
  C  C158  1  0.34136000  0.43485000  0.89427000  1.0
  C  C159  1  0.84136000  0.06515000  0.60573000  1.0
  C  C160  1  0.39890000  0.98301000  0.54565000  1.0
  C  C161  1  0.89890000  0.51700000  0.95434000  1.0
  C  C162  1  0.60110000  0.51700000  0.04565000  1.0
  C  C163  1  0.10110000  0.98300000  0.45435000  1.0
  C  C164  1  0.60110000  0.01699000  0.45435000  1.0
  C  C165  1  0.10111000  0.48301000  0.04565000  1.0
  C  C166  1  0.39889000  0.48301000  0.95435000  1.0
  C  C167  1  0.89889000  0.01699000  0.54565000  1.0
  C  C168  1  0.51335000  0.03874000  0.56678000  1.0
  C  C169  1  0.01336000  0.46126000  0.93322000  1.0
  C  C170  1  0.48664000  0.46126000  0.06678000  1.0
  C  C171  1  0.98665000  0.03874000  0.43322000  1.0
  C  C172  1  0.48665000  0.96125000  0.43322000  1.0
  C  C173  1  0.98665000  0.53874000  0.06677000  1.0
  C  C174  1  0.51335000  0.53874000  0.93323000  1.0
  C  C175  1  0.01335000  0.96125000  0.56677000  1.0
  C  C176  1  0.42705000  0.90813000  0.49092000  1.0
  C  C177  1  0.92705000  0.59188000  0.00908000  1.0
  C  C178  1  0.57294000  0.59188000  0.99092000  1.0
  C  C179  1  0.07295000  0.90812000  0.50908000  1.0
  C  C180  1  0.57295000  0.09187000  0.50908000  1.0
  C  C181  1  0.07295000  0.40813000  0.99092000  1.0
  C  C182  1  0.42705000  0.40813000  0.00908000  1.0
  C  C183  1  0.92705000  0.09187000  0.49092000  1.0
  C  C184  1  0.95138000  0.71560000  0.73881000  1.0
  C  C185  1  0.45138000  0.78440000  0.76119000  1.0
  C  C186  1  0.04863000  0.78440000  0.23881000  1.0
  C  C187  1  0.54862000  0.71559000  0.26119000  1.0
  C  C188  1  0.04862000  0.28440000  0.26119000  1.0
  C  C189  1  0.54863000  0.21560000  0.23881000  1.0
  C  C190  1  0.95138000  0.21560000  0.76119000  1.0
  C  C191  1  0.45137000  0.28441000  0.73881000  1.0
  C  C192  1  0.17733000  0.62375000  0.73781000  1.0
  C  C193  1  0.67732000  0.87625000  0.76219000  1.0
  C  C194  1  0.82268000  0.87625000  0.23782000  1.0
  C  C195  1  0.32267000  0.62374000  0.26219000  1.0
  C  C196  1  0.82267000  0.37625000  0.26219000  1.0
  C  C197  1  0.32268000  0.12374000  0.23781000  1.0
  C  C198  1  0.17732000  0.12375000  0.76219000  1.0
  C  C199  1  0.67732000  0.37625000  0.73781000  1.0
  C  C200  1  0.07896000  0.69553000  0.62213000  1.0
  C  C201  1  0.57896000  0.80446000  0.87787000  1.0
  C  C202  1  0.92104000  0.80446000  0.12214000  1.0
  C  C203  1  0.42104000  0.69553000  0.37787000  1.0
  C  C204  1  0.92104000  0.30447000  0.37787000  1.0
  C  C205  1  0.42104000  0.19553000  0.12213000  1.0
  C  C206  1  0.07896000  0.19554000  0.87787000  1.0
  C  C207  1  0.57896000  0.30447000  0.62214000  1.0
  C  C208  1  0.90388000  0.59688000  0.65137000  1.0
  C  C209  1  0.40388000  0.90311000  0.84863000  1.0
  C  C210  1  0.09612000  0.90312000  0.15137000  1.0
  C  C211  1  0.59611000  0.59688000  0.34863000  1.0
  C  C212  1  0.09611000  0.40313000  0.34863000  1.0
  C  C213  1  0.59612000  0.09689000  0.15137000  1.0
  C  C214  1  0.90389000  0.09688000  0.84863000  1.0
  C  C215  1  0.40389000  0.40312000  0.65137000  1.0
  C  C216  1  0.98723000  0.53617000  0.75217000  1.0
  C  C217  1  0.48723000  0.96383000  0.74783000  1.0
  C  C218  1  0.01278000  0.96383000  0.25217000  1.0
  C  C219  1  0.51276000  0.53617000  0.24783000  1.0
  C  C220  1  0.01277000  0.46384000  0.24783000  1.0
  C  C221  1  0.51277000  0.03617000  0.25217000  1.0
  C  C222  1  0.98723000  0.03617000  0.74783000  1.0
  C  C223  1  0.48723000  0.46384000  0.75217000  1.0
  C  C224  1  0.09443000  0.51844000  0.65088000  1.0
  C  C225  1  0.59444000  0.98155000  0.84911000  1.0
  C  C226  1  0.90557000  0.98155000  0.15089000  1.0
  C  C227  1  0.40556000  0.51844000  0.34911000  1.0
  C  C228  1  0.90556000  0.48156000  0.34912000  1.0
  C  C229  1  0.40556000  0.01844000  0.15089000  1.0
  C  C230  1  0.09443000  0.01845000  0.84911000  1.0
  C  C231  1  0.59444000  0.48156000  0.65089000  1.0
  N  N232  1  0.90818000  0.61300000  0.72283000  1.0
  N  N233  1  0.40817000  0.88700000  0.77717000  1.0
  N  N234  1  0.09183000  0.88700000  0.22283000  1.0
  N  N235  1  0.59182000  0.61300000  0.27717000  1.0
  N  N236  1  0.09182000  0.38700000  0.27717000  1.0
  N  N237  1  0.59183000  0.11300000  0.22283000  1.0
  N  N238  1  0.90817000  0.11300000  0.77717000  1.0
  N  N239  1  0.40817000  0.38701000  0.72283000  1.0
  N  N240  1  0.10809000  0.53175000  0.72245000  1.0
  N  N241  1  0.60809000  0.96826000  0.77755000  1.0
  N  N242  1  0.89191000  0.96826000  0.22246000  1.0
  N  N243  1  0.39190000  0.53174000  0.27755000  1.0
  N  N244  1  0.89190000  0.46826000  0.27755000  1.0
  N  N245  1  0.39191000  0.03174000  0.22245000  1.0
  N  N246  1  0.10809000  0.03175000  0.77755000  1.0
  N  N247  1  0.60810000  0.46826000  0.72245000  1.0
  N  N248  1  0.02137000  0.59603000  0.61999000  1.0
  N  N249  1  0.52137000  0.90397000  0.88000000  1.0
  N  N250  1  0.97863000  0.90398000  0.12000000  1.0
  N  N251  1  0.47863000  0.59602000  0.38000000  1.0
  N  N252  1  0.97863000  0.40398000  0.38001000  1.0
  N  N253  1  0.47864000  0.09602000  0.12000000  1.0
  N  N254  1  0.02137000  0.09603000  0.88000000  1.0
  N  N255  1  0.52137000  0.40398000  0.62000000  1.0
  O  O256  1  0.28292000  0.99545000  0.64340000  1.0
  O  O257  1  0.78294000  0.50455000  0.85659000  1.0
  O  O258  1  0.71709000  0.50455000  0.14340000  1.0
  O  O259  1  0.21708000  0.99547000  0.35660000  1.0
  O  O260  1  0.71709000  0.00454000  0.35660000  1.0
  O  O261  1  0.21707000  0.49546000  0.14341000  1.0
  O  O262  1  0.28291000  0.49546000  0.85660000  1.0
  O  O263  1  0.78291000  0.00454000  0.64340000  1.0
  O  O264  1  0.35714000  0.84221000  0.61716000  1.0
  O  O265  1  0.85712000  0.65780000  0.88284000  1.0
  O  O266  1  0.64287000  0.65779000  0.11716000  1.0
  O  O267  1  0.14288000  0.84220000  0.38284000  1.0
  O  O268  1  0.64288000  0.15779000  0.38284000  1.0
  O  O269  1  0.14286000  0.34220000  0.11716000  1.0
  O  O270  1  0.35712000  0.34220000  0.88284000  1.0
  O  O271  1  0.85714000  0.15780000  0.61717000  1.0
