# generated using pymatgen
data_AlH5C8S2N2O5
_symmetry_space_group_name_H-M   'P 1'
_cell_length_a   6.72663000
_cell_length_b   14.41190000
_cell_length_c   19.88150000
_cell_angle_alpha   89.71220000
_cell_angle_beta   89.57280000
_cell_angle_gamma   86.77850000
_symmetry_Int_Tables_number   1
_chemical_formula_structural   AlH5C8S2N2O5
_chemical_formula_sum   'Al4 H20 C32 S8 N8 O20'
_cell_volume   1924.26286929
_cell_formula_units_Z   4
loop_
 _symmetry_equiv_pos_site_id
 _symmetry_equiv_pos_as_xyz
  1  'x, y, z'
loop_
 _atom_site_type_symbol
 _atom_site_label
 _atom_site_symmetry_multiplicity
 _atom_site_fract_x
 _atom_site_fract_y
 _atom_site_fract_z
 _atom_site_occupancy
  Al  Al0  1  0.97542000  0.99684000  0.50003000  1.0
  Al  Al1  1  0.47495000  0.00404000  0.50075000  1.0
  Al  Al2  1  0.02496000  0.49605000  0.99943000  1.0
  Al  Al3  1  0.52446000  0.50310000  0.00006000  1.0
  H  H4  1  0.20400000  0.12461000  0.49893000  1.0
  H  H5  1  0.72886000  0.87677000  0.49362000  1.0
  H  H6  1  0.29561000  0.37529000  0.99987000  1.0
  H  H7  1  0.77067000  0.62342000  0.00476000  1.0
  H  H8  1  0.19682000  0.14967000  0.29393000  1.0
  H  H9  1  0.09609000  0.10078000  0.36539000  1.0
  H  H10  1  0.30318000  0.35096000  0.20674000  1.0
  H  H11  1  0.40360000  0.39963000  0.13517000  1.0
  H  H12  1  0.68766000  0.85087000  0.72419000  1.0
  H  H13  1  0.59704000  0.90338000  0.65114000  1.0
  H  H14  1  0.81208000  0.64814000  0.77531000  1.0
  H  H15  1  0.90285000  0.59583000  0.84839000  1.0
  H  H16  1  0.79051000  0.85128000  0.27933000  1.0
  H  H17  1  0.87685000  0.90713000  0.34945000  1.0
  H  H18  1  0.70950000  0.65002000  0.21997000  1.0
  H  H19  1  0.62328000  0.59411000  0.14987000  1.0
  H  H20  1  0.19849000  0.14590000  0.71089000  1.0
  H  H21  1  0.09826000  0.09063000  0.64265000  1.0
  H  H22  1  0.30209000  0.35288000  0.78973000  1.0
  H  H23  1  0.40217000  0.40846000  0.85789000  1.0
  C  C24  1  0.72092000  0.10344000  0.59638000  1.0
  C  C25  1  0.70987000  0.11193000  0.40889000  1.0
  C  C26  1  0.24079000  0.89677000  0.40448000  1.0
  C  C27  1  0.24137000  0.89030000  0.59155000  1.0
  C  C28  1  0.77948000  0.39553000  0.90435000  1.0
  C  C29  1  0.78994000  0.38887000  0.09179000  1.0
  C  C30  1  0.25900000  0.60422000  0.09499000  1.0
  C  C31  1  0.25855000  0.60905000  0.90795000  1.0
  C  C32  1  0.89464000  0.17486000  0.30806000  1.0
  C  C33  1  0.60536000  0.32599000  0.19264000  1.0
  C  C34  1  0.72253000  0.16628000  0.34789000  1.0
  C  C35  1  0.77745000  0.33457000  0.15282000  1.0
  C  C36  1  0.65099000  0.26746000  0.24933000  1.0
  C  C37  1  0.84902000  0.23346000  0.25140000  1.0
  C  C38  1  0.39772000  0.82718000  0.69981000  1.0
  C  C39  1  0.10206000  0.67198000  0.79960000  1.0
  C  C40  1  0.24286000  0.83567000  0.65252000  1.0
  C  C41  1  0.25689000  0.66358000  0.84691000  1.0
  C  C42  1  0.15583000  0.73204000  0.74593000  1.0
  C  C43  1  0.34391000  0.76701000  0.75340000  1.0
  C  C44  1  0.08959000  0.83002000  0.29979000  1.0
  C  C45  1  0.41058000  0.67141000  0.19941000  1.0
  C  C46  1  0.24861000  0.84091000  0.34432000  1.0
  C  C47  1  0.25146000  0.66049000  0.15493000  1.0
  C  C48  1  0.34878000  0.73357000  0.25222000  1.0
  C  C49  1  0.15148000  0.76800000  0.24691000  1.0
  C  C50  1  0.89670000  0.16866000  0.69680000  1.0
  C  C51  1  0.60374000  0.32987000  0.80412000  1.0
  C  C52  1  0.72771000  0.15942000  0.65623000  1.0
  C  C53  1  0.77273000  0.33929000  0.84464000  1.0
  C  C54  1  0.65193000  0.26727000  0.75021000  1.0
  C  C55  1  0.84846000  0.23102000  0.75086000  1.0
  S  S56  1  0.51306000  0.22904000  0.31618000  1.0
  S  S57  1  0.98692000  0.27189000  0.18455000  1.0
  S  S58  1  0.03786000  0.77168000  0.67376000  1.0
  S  S59  1  0.46194000  0.72742000  0.82556000  1.0
  S  S60  1  0.46612000  0.77600000  0.32150000  1.0
  S  S61  1  0.03397000  0.72540000  0.17772000  1.0
  S  S62  1  0.51851000  0.22672000  0.68386000  1.0
  S  S63  1  0.98194000  0.27182000  0.81714000  1.0
  N  N64  1  0.07444000  0.13082000  0.31952000  1.0
  N  N65  1  0.42545000  0.36997000  0.18117000  1.0
  N  N66  1  0.56876000  0.87270000  0.69617000  1.0
  N  N67  1  0.93108000  0.62641000  0.80332000  1.0
  N  N68  1  0.90727000  0.87469000  0.30490000  1.0
  N  N69  1  0.59277000  0.62662000  0.19438000  1.0
  N  N70  1  0.07667000  0.12313000  0.68765000  1.0
  N  N71  1  0.42383000  0.37555000  0.81307000  1.0
  O  O72  1  0.89052000  0.06704000  0.57628000  1.0
  O  O73  1  0.53850000  0.08847000  0.42967000  1.0
  O  O74  1  0.40225000  0.91148000  0.43555000  1.0
  O  O75  1  0.07865000  0.90015000  0.55822000  1.0
  O  O76  1  0.06548000  0.92850000  0.42285000  1.0
  O  O77  1  0.40627000  0.92582000  0.57468000  1.0
  O  O78  1  0.55432000  0.09298000  0.56717000  1.0
  O  O79  1  0.87611000  0.09052000  0.43836000  1.0
  O  O80  1  0.21605000  0.05747000  0.50195000  1.0
  O  O81  1  0.72908000  0.94359000  0.49817000  1.0
  O  O82  1  0.94608000  0.40640000  0.93345000  1.0
  O  O83  1  0.62355000  0.41035000  0.06245000  1.0
  O  O84  1  0.43423000  0.57250000  0.07659000  1.0
  O  O85  1  0.09358000  0.57376000  0.92506000  1.0
  O  O86  1  0.09740000  0.58910000  0.06414000  1.0
  O  O87  1  0.42157000  0.59913000  0.94110000  1.0
  O  O88  1  0.60967000  0.43174000  0.92444000  1.0
  O  O89  1  0.96123000  0.41221000  0.07087000  1.0
  O  O90  1  0.28379000  0.44253000  0.99844000  1.0
  O  O91  1  0.77077000  0.55642000  0.00158000  1.0
