# generated using pymatgen
data_ZnH9C10N3O2
_symmetry_space_group_name_H-M   'P 1'
_cell_length_a   9.55657000
_cell_length_b   9.69061000
_cell_length_c   27.81950000
_cell_angle_alpha   90.00010000
_cell_angle_beta   89.99990000
_cell_angle_gamma   90.00000000
_symmetry_Int_Tables_number   1
_chemical_formula_structural   ZnH9C10N3O2
_chemical_formula_sum   'Zn8 H72 C80 N24 O16'
_cell_volume   2576.33587541
_cell_formula_units_Z   8
loop_
 _symmetry_equiv_pos_site_id
 _symmetry_equiv_pos_as_xyz
  1  'x, y, z'
loop_
 _atom_site_type_symbol
 _atom_site_label
 _atom_site_symmetry_multiplicity
 _atom_site_fract_x
 _atom_site_fract_y
 _atom_site_fract_z
 _atom_site_occupancy
  Zn  Zn0  1  0.56125000  0.12060000  0.04859000  1.0
  Zn  Zn1  1  0.43875000  0.62061000  0.45141000  1.0
  Zn  Zn2  1  0.93875000  0.87939000  0.54859000  1.0
  Zn  Zn3  1  0.06125000  0.37939000  0.95141000  1.0
  Zn  Zn4  1  0.43875000  0.87939000  0.95141000  1.0
  Zn  Zn5  1  0.56125000  0.37939000  0.54859000  1.0
  Zn  Zn6  1  0.06125000  0.12061000  0.45141000  1.0
  Zn  Zn7  1  0.93875000  0.62061000  0.04859000  1.0
  H  H8  1  0.67699000  0.65553000  0.97026000  1.0
  H  H9  1  0.32301000  0.15554000  0.52974000  1.0
  H  H10  1  0.82301000  0.34446000  0.47026000  1.0
  H  H11  1  0.17699000  0.84447000  0.02974000  1.0
  H  H12  1  0.32301000  0.34447000  0.02974000  1.0
  H  H13  1  0.67699000  0.84447000  0.47026000  1.0
  H  H14  1  0.17699000  0.65554000  0.52974000  1.0
  H  H15  1  0.82301000  0.15554000  0.97026000  1.0
  H  H16  1  0.82536000  0.92321000  0.07808000  1.0
  H  H17  1  0.17464000  0.42321000  0.42192000  1.0
  H  H18  1  0.67464000  0.07678000  0.57808000  1.0
  H  H19  1  0.32536000  0.57679000  0.92192000  1.0
  H  H20  1  0.17464000  0.07679000  0.92192000  1.0
  H  H21  1  0.82536000  0.57678000  0.57808000  1.0
  H  H22  1  0.32536000  0.92322000  0.42192000  1.0
  H  H23  1  0.67464000  0.42321000  0.07808000  1.0
  H  H24  1  0.54606000  0.04293000  0.20329000  1.0
  H  H25  1  0.45394000  0.54293000  0.29671000  1.0
  H  H26  1  0.95394000  0.95707000  0.70329000  1.0
  H  H27  1  0.04606000  0.45707000  0.79671000  1.0
  H  H28  1  0.45394000  0.95707000  0.79671000  1.0
  H  H29  1  0.54606000  0.45707000  0.70329000  1.0
  H  H30  1  0.04606000  0.04293000  0.29671000  1.0
  H  H31  1  0.95394000  0.54293000  0.20329000  1.0
  H  H32  1  0.48761000  0.06279000  0.28973000  1.0
  H  H33  1  0.51239000  0.56279000  0.21027000  1.0
  H  H34  1  0.01239000  0.93721000  0.78974000  1.0
  H  H35  1  0.98761000  0.43721000  0.71027000  1.0
  H  H36  1  0.51239000  0.93721000  0.71027000  1.0
  H  H37  1  0.48761000  0.43721000  0.78973000  1.0
  H  H38  1  0.98761000  0.06279000  0.21027000  1.0
  H  H39  1  0.01239000  0.56279000  0.28973000  1.0
  H  H40  1  0.23073000  0.41784000  0.25864000  1.0
  H  H41  1  0.76927000  0.91784000  0.24136000  1.0
  H  H42  1  0.26927000  0.58216000  0.75864000  1.0
  H  H43  1  0.73073000  0.08216000  0.74136000  1.0
  H  H44  1  0.76927000  0.58216000  0.74136000  1.0
  H  H45  1  0.23073000  0.08216000  0.75864000  1.0
  H  H46  1  0.73073000  0.41784000  0.24136000  1.0
  H  H47  1  0.26927000  0.91784000  0.25864000  1.0
  H  H48  1  0.29755000  0.40216000  0.17253000  1.0
  H  H49  1  0.70245000  0.90216000  0.32747000  1.0
  H  H50  1  0.20245000  0.59784000  0.67253000  1.0
  H  H51  1  0.79755000  0.09784000  0.82747000  1.0
  H  H52  1  0.70245000  0.59784000  0.82747000  1.0
  H  H53  1  0.29755000  0.09784000  0.67253000  1.0
  H  H54  1  0.79755000  0.40216000  0.32747000  1.0
  H  H55  1  0.20245000  0.90216000  0.17253000  1.0
  H  H56  1  0.41151000  0.30615000  0.35239000  1.0
  H  H57  1  0.58849000  0.80615000  0.14761000  1.0
  H  H58  1  0.08849000  0.69385000  0.85239000  1.0
  H  H59  1  0.91151000  0.19385000  0.64762000  1.0
  H  H60  1  0.58849000  0.69385000  0.64761000  1.0
  H  H61  1  0.41151000  0.19385000  0.85239000  1.0
  H  H62  1  0.91151000  0.30615000  0.14761000  1.0
  H  H63  1  0.08849000  0.80615000  0.35238000  1.0
  H  H64  1  0.30352000  0.15687000  0.34991000  1.0
  H  H65  1  0.69648000  0.65687000  0.15009000  1.0
  H  H66  1  0.19648000  0.84313000  0.84991000  1.0
  H  H67  1  0.80352000  0.34312000  0.65009000  1.0
  H  H68  1  0.69648000  0.84313000  0.65009000  1.0
  H  H69  1  0.30352000  0.34313000  0.84991000  1.0
  H  H70  1  0.80352000  0.15688000  0.15009000  1.0
  H  H71  1  0.19648000  0.65688000  0.34991000  1.0
  H  H72  1  0.23097000  0.32261000  0.33876000  1.0
  H  H73  1  0.76903000  0.82261000  0.16124000  1.0
  H  H74  1  0.26903000  0.67739000  0.83876000  1.0
  H  H75  1  0.73097000  0.17739000  0.66124000  1.0
  H  H76  1  0.76903000  0.67739000  0.66124000  1.0
  H  H77  1  0.23097000  0.17739000  0.83876000  1.0
  H  H78  1  0.73097000  0.32261000  0.16124000  1.0
  H  H79  1  0.26903000  0.82261000  0.33876000  1.0
  C  C80  1  0.68915000  0.74131000  0.99500000  1.0
  C  C81  1  0.31085000  0.24131000  0.50500000  1.0
  C  C82  1  0.81085000  0.25869000  0.49500000  1.0
  C  C83  1  0.18915000  0.75869000  0.00500000  1.0
  C  C84  1  0.31085000  0.25869000  0.00500000  1.0
  C  C85  1  0.68915000  0.75869000  0.49500000  1.0
  C  C86  1  0.18915000  0.74131000  0.50500000  1.0
  C  C87  1  0.81085000  0.24131000  0.99500000  1.0
  C  C88  1  0.76254000  0.87924000  0.04942000  1.0
  C  C89  1  0.23746000  0.37924000  0.45058000  1.0
  C  C90  1  0.73746000  0.12076000  0.54942000  1.0
  C  C91  1  0.26254000  0.62076000  0.95058000  1.0
  C  C92  1  0.23746000  0.12076000  0.95058000  1.0
  C  C93  1  0.76254000  0.62075000  0.54942000  1.0
  C  C94  1  0.26254000  0.87925000  0.45058000  1.0
  C  C95  1  0.73746000  0.37924000  0.04942000  1.0
  C  C96  1  0.46924000  0.21398000  0.13106000  1.0
  C  C97  1  0.53077000  0.71399000  0.36894000  1.0
  C  C98  1  0.03077000  0.78602000  0.63106000  1.0
  C  C99  1  0.96924000  0.28601000  0.86894000  1.0
  C  C100  1  0.53076000  0.78602000  0.86894000  1.0
  C  C101  1  0.46924000  0.28601000  0.63106000  1.0
  C  C102  1  0.96924000  0.21398000  0.36894000  1.0
  C  C103  1  0.03076000  0.71399000  0.13106000  1.0
  C  C104  1  0.42748000  0.22244000  0.18250000  1.0
  C  C105  1  0.57252000  0.72244000  0.31750000  1.0
  C  C106  1  0.07252000  0.77756000  0.68250000  1.0
  C  C107  1  0.92748000  0.27756000  0.81750000  1.0
  C  C108  1  0.57252000  0.77756000  0.81750000  1.0
  C  C109  1  0.42748000  0.27756000  0.68250000  1.0
  C  C110  1  0.92748000  0.22244000  0.31750000  1.0
  C  C111  1  0.07252000  0.72244000  0.18250000  1.0
  C  C112  1  0.47853000  0.12597000  0.21579000  1.0
  C  C113  1  0.52147000  0.62597000  0.28421000  1.0
  C  C114  1  0.02147000  0.87404000  0.71579000  1.0
  C  C115  1  0.97853000  0.37403000  0.78421000  1.0
  C  C116  1  0.52147000  0.87403000  0.78421000  1.0
  C  C117  1  0.47853000  0.37403000  0.71579000  1.0
  C  C118  1  0.97853000  0.12596000  0.28421000  1.0
  C  C119  1  0.02147000  0.62597000  0.21579000  1.0
  C  C120  1  0.44461000  0.13735000  0.26425000  1.0
  C  C121  1  0.55539000  0.63735000  0.23575000  1.0
  C  C122  1  0.05539000  0.86265000  0.76425000  1.0
  C  C123  1  0.94461000  0.36265000  0.73575000  1.0
  C  C124  1  0.55539000  0.86265000  0.73575000  1.0
  C  C125  1  0.44461000  0.36265000  0.76425000  1.0
  C  C126  1  0.94461000  0.13735000  0.23575000  1.0
  C  C127  1  0.05539000  0.63735000  0.26425000  1.0
  C  C128  1  0.35631000  0.24321000  0.28060000  1.0
  C  C129  1  0.64369000  0.74321000  0.21940000  1.0
  C  C130  1  0.14369000  0.75679000  0.78060000  1.0
  C  C131  1  0.85631000  0.25679000  0.71940000  1.0
  C  C132  1  0.64369000  0.75679000  0.71940000  1.0
  C  C133  1  0.35631000  0.25679000  0.78060000  1.0
  C  C134  1  0.85631000  0.24321000  0.21940000  1.0
  C  C135  1  0.14369000  0.74321000  0.28060000  1.0
  C  C136  1  0.30204000  0.33665000  0.24683000  1.0
  C  C137  1  0.69796000  0.83665000  0.25317000  1.0
  C  C138  1  0.19796000  0.66336000  0.74683000  1.0
  C  C139  1  0.80203000  0.16335000  0.75317000  1.0
  C  C140  1  0.69796000  0.66336000  0.75317000  1.0
  C  C141  1  0.30204000  0.16335000  0.74683000  1.0
  C  C142  1  0.80204000  0.33664000  0.25317000  1.0
  C  C143  1  0.19797000  0.83665000  0.24683000  1.0
  C  C144  1  0.33850000  0.32798000  0.19845000  1.0
  C  C145  1  0.66150000  0.82798000  0.30155000  1.0
  C  C146  1  0.16150000  0.67202000  0.69845000  1.0
  C  C147  1  0.83850000  0.17202000  0.80155000  1.0
  C  C148  1  0.66150000  0.67202000  0.80155000  1.0
  C  C149  1  0.33850000  0.17202000  0.69845000  1.0
  C  C150  1  0.83850000  0.32798000  0.30155000  1.0
  C  C151  1  0.16150000  0.82798000  0.19845000  1.0
  C  C152  1  0.32351000  0.25765000  0.33317000  1.0
  C  C153  1  0.67649000  0.75765000  0.16683000  1.0
  C  C154  1  0.17649000  0.74235000  0.83317000  1.0
  C  C155  1  0.82351000  0.24235000  0.66683000  1.0
  C  C156  1  0.67649000  0.74235000  0.66683000  1.0
  C  C157  1  0.32351000  0.24235000  0.83317000  1.0
  C  C158  1  0.82351000  0.25765000  0.16683000  1.0
  C  C159  1  0.17649000  0.75766000  0.33317000  1.0
  N  N160  1  0.65171000  0.93899000  0.02932000  1.0
  N  N161  1  0.34829000  0.43899000  0.47068000  1.0
  N  N162  1  0.84829000  0.06101000  0.52932000  1.0
  N  N163  1  0.15171000  0.56101000  0.97068000  1.0
  N  N164  1  0.34829000  0.06101000  0.97068000  1.0
  N  N165  1  0.65171000  0.56101000  0.52932000  1.0
  N  N166  1  0.15171000  0.93899000  0.47068000  1.0
  N  N167  1  0.84829000  0.43899000  0.02932000  1.0
  N  N168  1  0.60504000  0.85066000  0.99431000  1.0
  N  N169  1  0.39496000  0.35066000  0.50569000  1.0
  N  N170  1  0.89496000  0.14934000  0.49431000  1.0
  N  N171  1  0.10504000  0.64934000  0.00569000  1.0
  N  N172  1  0.39496000  0.14934000  0.00569000  1.0
  N  N173  1  0.60504000  0.64934000  0.49431000  1.0
  N  N174  1  0.10504000  0.85066000  0.50569000  1.0
  N  N175  1  0.89496000  0.35066000  0.99431000  1.0
  N  N176  1  0.78910000  0.75520000  0.02909000  1.0
  N  N177  1  0.21090000  0.25520000  0.47091000  1.0
  N  N178  1  0.71090000  0.24480000  0.52909000  1.0
  N  N179  1  0.28910000  0.74480000  0.97091000  1.0
  N  N180  1  0.21090000  0.24480000  0.97091000  1.0
  N  N181  1  0.78910000  0.74480000  0.52909000  1.0
  N  N182  1  0.28910000  0.75520000  0.47091000  1.0
  N  N183  1  0.71090000  0.25520000  0.02909000  1.0
  O  O184  1  0.52439000  0.09721000  0.11703000  1.0
  O  O185  1  0.47561000  0.59721000  0.38297000  1.0
  O  O186  1  0.97561000  0.90280000  0.61703000  1.0
  O  O187  1  0.02439000  0.40279000  0.88297000  1.0
  O  O188  1  0.47561000  0.90279000  0.88297000  1.0
  O  O189  1  0.52439000  0.40279000  0.61703000  1.0
  O  O190  1  0.02439000  0.09721000  0.38297000  1.0
  O  O191  1  0.97561000  0.59721000  0.11703000  1.0
  O  O192  1  0.45385000  0.31449000  0.10274000  1.0
  O  O193  1  0.54616000  0.81449000  0.39726000  1.0
  O  O194  1  0.04615000  0.68551000  0.60274000  1.0
  O  O195  1  0.95385000  0.18550000  0.89726000  1.0
  O  O196  1  0.54615000  0.68550000  0.89726000  1.0
  O  O197  1  0.45385000  0.18550000  0.60274000  1.0
  O  O198  1  0.95384000  0.31449000  0.39726000  1.0
  O  O199  1  0.04615000  0.81450000  0.10274000  1.0
