# generated using pymatgen
data_ZnH21C22N7O4
_symmetry_space_group_name_H-M   'P 1'
_cell_length_a   23.08950000
_cell_length_b   24.09700000
_cell_length_c   24.30300000
_cell_angle_alpha   94.49470000
_cell_angle_beta   115.67500000
_cell_angle_gamma   116.17200000
_symmetry_Int_Tables_number   1
_chemical_formula_structural   ZnH21C22N7O4
_chemical_formula_sum   'Zn4 H84 C88 N28 O16'
_cell_volume   10312.57729097
_cell_formula_units_Z   4
loop_
 _symmetry_equiv_pos_site_id
 _symmetry_equiv_pos_as_xyz
  1  'x, y, z'
loop_
 _atom_site_type_symbol
 _atom_site_label
 _atom_site_symmetry_multiplicity
 _atom_site_fract_x
 _atom_site_fract_y
 _atom_site_fract_z
 _atom_site_occupancy
  Zn  Zn0  1  0.49922000  0.04189000  0.54490000  1.0
  Zn  Zn1  1  0.50481000  0.96034000  0.45639000  1.0
  Zn  Zn2  1  0.49986000  0.45991000  0.95360000  1.0
  Zn  Zn3  1  0.50296000  0.54119000  0.04779000  1.0
  H  H4  1  0.42837000  0.32115000  0.89067000  1.0
  H  H5  1  0.43214000  0.24633000  0.81785000  1.0
  H  H6  1  0.39967000  0.08761000  0.68743000  1.0
  H  H7  1  0.56834000  0.26099000  0.68283000  1.0
  H  H8  1  0.56775000  0.30997000  0.75546000  1.0
  H  H9  1  0.42965000  0.19124000  0.74236000  1.0
  H  H10  1  0.57605000  0.67967000  0.11331000  1.0
  H  H11  1  0.56503000  0.75347000  0.17979000  1.0
  H  H12  1  0.59784000  0.91157000  0.30912000  1.0
  H  H13  1  0.41924000  0.74010000  0.30610000  1.0
  H  H14  1  0.43801000  0.68890000  0.25069000  1.0
  H  H15  1  0.55179000  0.80923000  0.23986000  1.0
  H  H16  1  0.49636000  0.42908000  0.17372000  1.0
  H  H17  1  0.49380000  0.35723000  0.24072000  1.0
  H  H18  1  0.48438000  0.26080000  0.37994000  1.0
  H  H19  1  0.49966000  0.14039000  0.25251000  1.0
  H  H20  1  0.50832000  0.20815000  0.20897000  1.0
  H  H21  1  0.48013000  0.28682000  0.28832000  1.0
  H  H22  1  0.50737000  0.57388000  0.82753000  1.0
  H  H23  1  0.50403000  0.64373000  0.75874000  1.0
  H  H24  1  0.50404000  0.73797000  0.61619000  1.0
  H  H25  1  0.49602000  0.85974000  0.74900000  1.0
  H  H26  1  0.50247000  0.79881000  0.79856000  1.0
  H  H27  1  0.49481000  0.70373000  0.70090000  1.0
  H  H28  1  0.73902000  0.67394000  0.17545000  1.0
  H  H29  1  0.87883000  0.74037000  0.24296000  1.0
  H  H30  1  0.11196000  0.87801000  0.38512000  1.0
  H  H31  1  0.11940000  0.75550000  0.25247000  1.0
  H  H32  1  0.00703000  0.71061000  0.20320000  1.0
  H  H33  1  0.99710000  0.78782000  0.30119000  1.0
  H  H34  1  0.26461000  0.32977000  0.82450000  1.0
  H  H35  1  0.12489000  0.25926000  0.75975000  1.0
  H  H36  1  0.89459000  0.11570000  0.62183000  1.0
  H  H37  1  0.88205000  0.23916000  0.74891000  1.0
  H  H38  1  0.99506000  0.29299000  0.79273000  1.0
  H  H39  1  0.00775000  0.19884000  0.71337000  1.0
  H  H40  1  0.56900000  0.52459000  0.89500000  1.0
  H  H41  1  0.60059000  0.51610000  0.84417000  1.0
  H  H42  1  0.62064000  0.40193000  0.78192000  1.0
  H  H43  1  0.65800000  0.47027000  0.84077000  1.0
  H  H44  1  0.57635000  0.16679000  0.56759000  1.0
  H  H45  1  0.61096000  0.24269000  0.61571000  1.0
  H  H46  1  0.41790000  0.98003000  0.59231000  1.0
  H  H47  1  0.37482000  0.98629000  0.63269000  1.0
  H  H48  1  0.42715000  0.47465000  0.10052000  1.0
  H  H49  1  0.35841000  0.47627000  0.11119000  1.0
  H  H50  1  0.38418000  0.59705000  0.22274000  1.0
  H  H51  1  0.38650000  0.53040000  0.20081000  1.0
  H  H52  1  0.40104000  0.83704000  0.40987000  1.0
  H  H53  1  0.37026000  0.76069000  0.36655000  1.0
  H  H54  1  0.61320000  0.01947000  0.43417000  1.0
  H  H55  1  0.64504000  0.01290000  0.38329000  1.0
  H  H56  1  0.49881000  0.32599000  0.00474000  1.0
  H  H57  1  0.47384000  0.24814000  0.00913000  1.0
  H  H58  1  0.51303000  0.19564000  0.13680000  1.0
  H  H59  1  0.53936000  0.23070000  0.08813000  1.0
  H  H60  1  0.50683000  0.03028000  0.34159000  1.0
  H  H61  1  0.50236000  0.05052000  0.27230000  1.0
  H  H62  1  0.47815000  0.16272000  0.48227000  1.0
  H  H63  1  0.46773000  0.22594000  0.45982000  1.0
  H  H64  1  0.48911000  0.66717000  0.99020000  1.0
  H  H65  1  0.45903000  0.71816000  0.96036000  1.0
  H  H66  1  0.49985000  0.81142000  0.87181000  1.0
  H  H67  1  0.52353000  0.80003000  0.94380000  1.0
  H  H68  1  0.51458000  0.98219000  0.67487000  1.0
  H  H69  1  0.51542000  0.95843000  0.74055000  1.0
  H  H70  1  0.50366000  0.83458000  0.51132000  1.0
  H  H71  1  0.50320000  0.76477000  0.52767000  1.0
  H  H72  1  0.68748000  0.50920000  0.01546000  1.0
  H  H73  1  0.77104000  0.51068000  0.04667000  1.0
  H  H74  1  0.95168000  0.63932000  0.13109000  1.0
  H  H75  1  0.86962000  0.59111000  0.06036000  1.0
  H  H76  1  0.31868000  0.85006000  0.32655000  1.0
  H  H77  1  0.23206000  0.78882000  0.26055000  1.0
  H  H78  1  0.31353000  0.98199000  0.48925000  1.0
  H  H79  1  0.22359000  0.96185000  0.47340000  1.0
  H  H80  1  0.31438000  0.48565000  0.99169000  1.0
  H  H81  1  0.22902000  0.45448000  0.98880000  1.0
  H  H82  1  0.04942000  0.36185000  0.86686000  1.0
  H  H83  1  0.12847000  0.43614000  0.91041000  1.0
  H  H84  1  0.68037000  0.15575000  0.65958000  1.0
  H  H85  1  0.76718000  0.21772000  0.72854000  1.0
  H  H86  1  0.69450000  0.00753000  0.51938000  1.0
  H  H87  1  0.78420000  0.02385000  0.54141000  1.0
  C  C88  1  0.50231000  0.92397000  0.57412000  1.0
  C  C89  1  0.35085000  0.92816000  0.42706000  1.0
  C  C90  1  0.50123000  0.08307000  0.43226000  1.0
  C  C91  1  0.65351000  0.06957000  0.56910000  1.0
  C  C92  1  0.65014000  0.56858000  0.07040000  1.0
  C  C93  1  0.50481000  0.58587000  0.93631000  1.0
  C  C94  1  0.35238000  0.43320000  0.93108000  1.0
  C  C95  1  0.49717000  0.41475000  0.06424000  1.0
  C  C96  1  0.46407000  0.33998000  0.87032000  1.0
  C  C97  1  0.46664000  0.29911000  0.82996000  1.0
  C  C98  1  0.51567000  0.32583000  0.80612000  1.0
  C  C99  1  0.55905000  0.39454000  0.82447000  1.0
  C  C100  1  0.54876000  0.43350000  0.86263000  1.0
  C  C101  1  0.52176000  0.28488000  0.76439000  1.0
  C  C102  1  0.47640000  0.21907000  0.73500000  1.0
  C  C103  1  0.43922000  0.11171000  0.67168000  1.0
  C  C104  1  0.48386000  0.18016000  0.69226000  1.0
  C  C105  1  0.53345000  0.20813000  0.67017000  1.0
  C  C106  1  0.53744000  0.16758000  0.62916000  1.0
  C  C107  1  0.44548000  0.07331000  0.63046000  1.0
  C  C108  1  0.53777000  0.66040000  0.13118000  1.0
  C  C109  1  0.53075000  0.70067000  0.16779000  1.0
  C  C110  1  0.48069000  0.67376000  0.19056000  1.0
  C  C111  1  0.43867000  0.60496000  0.17319000  1.0
  C  C112  1  0.44949000  0.56639000  0.13525000  1.0
  C  C113  1  0.47526000  0.71450000  0.23314000  1.0
  C  C114  1  0.51321000  0.78081000  0.25528000  1.0
  C  C115  1  0.55788000  0.88808000  0.32462000  1.0
  C  C116  1  0.50906000  0.81990000  0.30087000  1.0
  C  C117  1  0.45933000  0.79267000  0.32301000  1.0
  C  C118  1  0.46024000  0.83368000  0.36794000  1.0
  C  C119  1  0.55639000  0.92699000  0.36971000  1.0
  C  C120  1  0.49853000  0.37088000  0.10371000  1.0
  C  C121  1  0.49653000  0.38503000  0.16016000  1.0
  C  C122  1  0.49512000  0.34476000  0.19739000  1.0
  C  C123  1  0.49772000  0.28834000  0.18161000  1.0
  C  C124  1  0.50125000  0.27422000  0.12605000  1.0
  C  C125  1  0.50034000  0.31459000  0.08624000  1.0
  C  C126  1  0.49878000  0.24659000  0.22151000  1.0
  C  C127  1  0.48973000  0.24945000  0.27292000  1.0
  C  C128  1  0.48881000  0.21904000  0.36691000  1.0
  C  C129  1  0.49210000  0.20615000  0.31147000  1.0
  C  C130  1  0.49792000  0.15250000  0.29573000  1.0
  C  C131  1  0.50164000  0.11245000  0.33437000  1.0
  C  C132  1  0.49898000  0.12543000  0.39191000  1.0
  C  C133  1  0.49206000  0.18021000  0.40696000  1.0
  C  C134  1  0.50325000  0.63020000  0.89734000  1.0
  C  C135  1  0.50518000  0.61682000  0.84071000  1.0
  C  C136  1  0.50255000  0.65561000  0.80211000  1.0
  C  C137  1  0.49914000  0.71147000  0.81821000  1.0
  C  C138  1  0.49685000  0.72544000  0.87452000  1.0
  C  C139  1  0.49746000  0.68436000  0.91365000  1.0
  C  C140  1  0.49963000  0.75448000  0.77959000  1.0
  C  C141  1  0.49776000  0.74698000  0.72289000  1.0
  C  C142  1  0.50275000  0.78104000  0.63149000  1.0
  C  C143  1  0.49975000  0.79298000  0.68711000  1.0
  C  C144  1  0.49918000  0.84907000  0.70629000  1.0
  C  C145  1  0.50094000  0.89230000  0.67108000  1.0
  C  C146  1  0.50297000  0.88033000  0.61317000  1.0
  C  C147  1  0.50521000  0.82345000  0.59470000  1.0
  C  C148  1  0.73431000  0.60670000  0.10789000  1.0
  C  C149  1  0.77296000  0.66161000  0.16321000  1.0
  C  C150  1  0.85084000  0.69818000  0.20075000  1.0
  C  C151  1  0.89552000  0.68296000  0.18482000  1.0
  C  C152  1  0.85770000  0.62826000  0.12954000  1.0
  C  C153  1  0.77713000  0.58931000  0.09142000  1.0
  C  C154  1  0.97762000  0.72259000  0.22255000  1.0
  C  C155  1  0.02274000  0.77327000  0.27899000  1.0
  C  C156  1  0.14402000  0.86553000  0.36988000  1.0
  C  C157  1  0.10526000  0.81178000  0.31444000  1.0
  C  C158  1  0.14759000  0.79734000  0.29516000  1.0
  C  C159  1  0.22665000  0.83467000  0.33026000  1.0
  C  C160  1  0.26762000  0.88952000  0.38809000  1.0
  C  C161  1  0.22362000  0.90495000  0.40647000  1.0
  C  C162  1  0.26831000  0.39452000  0.89347000  1.0
  C  C163  1  0.23026000  0.33995000  0.83808000  1.0
  C  C164  1  0.15248000  0.30078000  0.80243000  1.0
  C  C165  1  0.10729000  0.31440000  0.81911000  1.0
  C  C166  1  0.14444000  0.36907000  0.87416000  1.0
  C  C167  1  0.22496000  0.40900000  0.91195000  1.0
  C  C168  1  0.02519000  0.27508000  0.78008000  1.0
  C  C169  1  0.98109000  0.21915000  0.72874000  1.0
  C  C170  1  0.86134000  0.12875000  0.63472000  1.0
  C  C171  1  0.89860000  0.18233000  0.69007000  1.0
  C  C172  1  0.85506000  0.19835000  0.70570000  1.0
  C  C173  1  0.77579000  0.16278000  0.66714000  1.0
  C  C174  1  0.73661000  0.10790000  0.60960000  1.0
  C  C175  1  0.78216000  0.09167000  0.59465000  1.0
  N  N176  1  0.50448000  0.40629000  0.88680000  1.0
  N  N177  1  0.49392000  0.10069000  0.60915000  1.0
  N  N178  1  0.49719000  0.59403000  0.11438000  1.0
  N  N179  1  0.50790000  0.90031000  0.39114000  1.0
  N  N180  1  0.58670000  0.49979000  0.87646000  1.0
  N  N181  1  0.60937000  0.42900000  0.80502000  1.0
  N  N182  1  0.58754000  0.19417000  0.60924000  1.0
  N  N183  1  0.40081000  0.00660000  0.60879000  1.0
  N  N184  1  0.41325000  0.50001000  0.12326000  1.0
  N  N185  1  0.38580000  0.57015000  0.18986000  1.0
  N  N186  1  0.41435000  0.80755000  0.39210000  1.0
  N  N187  1  0.60246000  0.99342000  0.39207000  1.0
  N  N188  1  0.50452000  0.29721000  0.03299000  1.0
  N  N189  1  0.50327000  0.21969000  0.10473000  1.0
  N  N190  1  0.50908000  0.06207000  0.31634000  1.0
  N  N191  1  0.49002000  0.19774000  0.46119000  1.0
  N  N192  1  0.49471000  0.70182000  0.96780000  1.0
  N  N193  1  0.49119000  0.77793000  0.89477000  1.0
  N  N194  1  0.49845000  0.94539000  0.69310000  1.0
  N  N195  1  0.51115000  0.80921000  0.54263000  1.0
  N  N196  1  0.74521000  0.53673000  0.03778000  1.0
  N  N197  1  0.89523000  0.60705000  0.10952000  1.0
  N  N198  1  0.26330000  0.81561000  0.30818000  1.0
  N  N199  1  0.25654000  0.95805000  0.45831000  1.0
  N  N200  1  0.25665000  0.46241000  0.96440000  1.0
  N  N201  1  0.10645000  0.38680000  0.89695000  1.0
  N  N202  1  0.73786000  0.18231000  0.68550000  1.0
  N  N203  1  0.75082000  0.04078000  0.54047000  1.0
  O  O204  1  0.49888000  0.97403000  0.59189000  1.0
  O  O205  1  0.50459000  0.91168000  0.52296000  1.0
  O  O206  1  0.38829000  0.91192000  0.40936000  1.0
  O  O207  1  0.38520000  0.97701000  0.47817000  1.0
  O  O208  1  0.50335000  0.03245000  0.41528000  1.0
  O  O209  1  0.50091000  0.09764000  0.48455000  1.0
  O  O210  1  0.61473000  0.08379000  0.58592000  1.0
  O  O211  1  0.62053000  0.02175000  0.51680000  1.0
  O  O212  1  0.61507000  0.51990000  0.01884000  1.0
  O  O213  1  0.61688000  0.58621000  0.09150000  1.0
  O  O214  1  0.50364000  0.59839000  0.98793000  1.0
  O  O215  1  0.50695000  0.53643000  0.91613000  1.0
  O  O216  1  0.38704000  0.48228000  0.98223000  1.0
  O  O217  1  0.38610000  0.41534000  0.91085000  1.0
  O  O218  1  0.49953000  0.40228000  0.01323000  1.0
  O  O219  1  0.49364000  0.46370000  0.08326000  1.0
