# generated using pymatgen
data_KH6C8O3F
_symmetry_space_group_name_H-M   'P 1'
_cell_length_a   6.59888000
_cell_length_b   6.90246000
_cell_length_c   18.48280000
_cell_angle_alpha   89.99980000
_cell_angle_beta   93.30260000
_cell_angle_gamma   90.00000000
_symmetry_Int_Tables_number   1
_chemical_formula_structural   KH6C8O3F
_chemical_formula_sum   'K4 H24 C32 O12 F4'
_cell_volume   840.46574802
_cell_formula_units_Z   4
loop_
 _symmetry_equiv_pos_site_id
 _symmetry_equiv_pos_as_xyz
  1  'x, y, z'
loop_
 _atom_site_type_symbol
 _atom_site_label
 _atom_site_symmetry_multiplicity
 _atom_site_fract_x
 _atom_site_fract_y
 _atom_site_fract_z
 _atom_site_occupancy
  K  K0  1  0.75281000  0.51689000  0.43817000  1.0
  K  K1  1  0.74718000  0.01689000  0.56184000  1.0
  K  K2  1  0.24719000  0.48311000  0.56183000  1.0
  K  K3  1  0.25281000  0.98311000  0.43816000  1.0
  H  H4  1  0.33038000  0.33214000  0.18055000  1.0
  H  H5  1  0.16962000  0.83214000  0.81945000  1.0
  H  H6  1  0.66962000  0.66787000  0.81945000  1.0
  H  H7  1  0.83038000  0.16786000  0.18055000  1.0
  H  H8  1  0.46759000  0.33419000  0.05834000  1.0
  H  H9  1  0.03242000  0.83419000  0.94166000  1.0
  H  H10  1  0.53241000  0.66581000  0.94166000  1.0
  H  H11  1  0.96759000  0.16582000  0.05834000  1.0
  H  H12  1  0.98177000  0.66849000  0.13877000  1.0
  H  H13  1  0.51823000  0.16849000  0.86123000  1.0
  H  H14  1  0.01823000  0.33150000  0.86123000  1.0
  H  H15  1  0.48177000  0.83151000  0.13877000  1.0
  H  H16  1  0.84508000  0.66960000  0.26289000  1.0
  H  H17  1  0.65492000  0.16960000  0.73711000  1.0
  H  H18  1  0.15492000  0.33040000  0.73711000  1.0
  H  H19  1  0.34508000  0.83040000  0.26289000  1.0
  H  H20  1  0.34108000  0.26632000  0.30748000  1.0
  H  H21  1  0.15892000  0.76632000  0.69252000  1.0
  H  H22  1  0.65892000  0.73368000  0.69252000  1.0
  H  H23  1  0.84109000  0.23368000  0.30748000  1.0
  H  H24  1  0.20245000  0.47269000  0.27365000  1.0
  H  H25  1  0.29755000  0.97269000  0.72634000  1.0
  H  H26  1  0.79755000  0.52731000  0.72635000  1.0
  H  H27  1  0.70245000  0.02731000  0.27365000  1.0
  C  C28  1  0.57903000  0.50289000  0.22966000  1.0
  C  C29  1  0.92097000  0.00289000  0.77034000  1.0
  C  C30  1  0.42097000  0.49711000  0.77034000  1.0
  C  C31  1  0.07903000  0.99711000  0.22966000  1.0
  C  C32  1  0.47274000  0.40645000  0.17264000  1.0
  C  C33  1  0.02726000  0.90644000  0.82736000  1.0
  C  C34  1  0.52726000  0.59356000  0.82736000  1.0
  C  C35  1  0.97274000  0.09355000  0.17264000  1.0
  C  C36  1  0.54866000  0.40708000  0.10348000  1.0
  C  C37  1  0.95134000  0.90708000  0.89652000  1.0
  C  C38  1  0.45133000  0.59292000  0.89652000  1.0
  C  C39  1  0.04866000  0.09292000  0.10348000  1.0
  C  C40  1  0.72896000  0.50330000  0.09297000  1.0
  C  C41  1  0.77104000  0.00330000  0.90703000  1.0
  C  C42  1  0.27104000  0.49670000  0.90703000  1.0
  C  C43  1  0.22896000  0.99670000  0.09297000  1.0
  C  C44  1  0.83964000  0.59634000  0.14913000  1.0
  C  C45  1  0.66036000  0.09634000  0.85087000  1.0
  C  C46  1  0.16036000  0.40366000  0.85087000  1.0
  C  C47  1  0.33964000  0.90366000  0.14913000  1.0
  C  C48  1  0.76375000  0.59555000  0.21793000  1.0
  C  C49  1  0.73625000  0.09555000  0.78207000  1.0
  C  C50  1  0.23625000  0.40445000  0.78207000  1.0
  C  C51  1  0.26375000  0.90445000  0.21793000  1.0
  C  C52  1  0.32504000  0.42415000  0.31270000  1.0
  C  C53  1  0.17496000  0.92415000  0.68730000  1.0
  C  C54  1  0.67496000  0.57585000  0.68730000  1.0
  C  C55  1  0.82504000  0.07585000  0.31270000  1.0
  C  C56  1  0.26192000  0.47280000  0.38901000  1.0
  C  C57  1  0.23808000  0.97279000  0.61099000  1.0
  C  C58  1  0.73808000  0.52720000  0.61099000  1.0
  C  C59  1  0.76192000  0.02721000  0.38901000  1.0
  O  O60  1  0.51269000  0.51786000  0.29868000  1.0
  O  O61  1  0.98730000  0.01787000  0.70132000  1.0
  O  O62  1  0.48731000  0.48214000  0.70132000  1.0
  O  O63  1  0.01270000  0.98213000  0.29868000  1.0
  O  O64  1  0.35104000  0.60918000  0.42383000  1.0
  O  O65  1  0.14895000  0.10918000  0.57617000  1.0
  O  O66  1  0.64896000  0.39082000  0.57617000  1.0
  O  O67  1  0.85105000  0.89082000  0.42383000  1.0
  O  O68  1  0.11880000  0.36908000  0.41113000  1.0
  O  O69  1  0.38120000  0.86909000  0.58887000  1.0
  O  O70  1  0.88120000  0.63092000  0.58887000  1.0
  O  O71  1  0.61880000  0.13092000  0.41113000  1.0
  F  F72  1  0.80200000  0.50550000  0.02511000  1.0
  F  F73  1  0.69800000  0.00550000  0.97489000  1.0
  F  F74  1  0.19799000  0.49450000  0.97489000  1.0
  F  F75  1  0.30200000  0.99450000  0.02511000  1.0
