# generated using pymatgen
data_ZnH22C34(NO)4
_symmetry_space_group_name_H-M   'P 1'
_cell_length_a   11.74680000
_cell_length_b   11.74680000
_cell_length_c   12.44250000
_cell_angle_alpha   65.94190000
_cell_angle_beta   65.94150000
_cell_angle_gamma   67.28650000
_symmetry_Int_Tables_number   1
_chemical_formula_structural   ZnH22C34(NO)4
_chemical_formula_sum   'Zn2 H44 C68 N8 O8'
_cell_volume   1380.87424431
_cell_formula_units_Z   2
loop_
 _symmetry_equiv_pos_site_id
 _symmetry_equiv_pos_as_xyz
  1  'x, y, z'
loop_
 _atom_site_type_symbol
 _atom_site_label
 _atom_site_symmetry_multiplicity
 _atom_site_fract_x
 _atom_site_fract_y
 _atom_site_fract_z
 _atom_site_occupancy
  Zn  Zn0  1  0.41749000  0.58252000  0.25000000  1.0
  Zn  Zn1  1  0.58252000  0.41748000  0.75000000  1.0
  H  H2  1  0.40318000  0.13160000  0.29539000  1.0
  H  H3  1  0.86841000  0.59682000  0.20461000  1.0
  H  H4  1  0.59682000  0.86841000  0.70461000  1.0
  H  H5  1  0.13159000  0.40318000  0.79539000  1.0
  H  H6  1  0.29338000  0.03853000  0.26554000  1.0
  H  H7  1  0.96147000  0.70662000  0.23446000  1.0
  H  H8  1  0.70662000  0.96147000  0.73446000  1.0
  H  H9  1  0.03853000  0.29338000  0.76554000  1.0
  H  H10  1  0.31486000  0.86682000  0.18870000  1.0
  H  H11  1  0.13318000  0.68515000  0.31129000  1.0
  H  H12  1  0.68515000  0.13318000  0.81129000  1.0
  H  H13  1  0.86682000  0.31485000  0.68871000  1.0
  H  H14  1  0.38863000  0.58018000  0.50660000  1.0
  H  H15  1  0.41983000  0.61137000  0.99340000  1.0
  H  H16  1  0.61137000  0.41982000  0.49340000  1.0
  H  H17  1  0.58018000  0.38863000  0.00660000  1.0
  H  H18  1  0.37251000  0.74071000  0.59487000  1.0
  H  H19  1  0.25929000  0.62749000  0.90512000  1.0
  H  H20  1  0.62749000  0.25929000  0.40512000  1.0
  H  H21  1  0.74070000  0.37251000  0.09488000  1.0
  H  H22  1  0.27498000  0.90278000  0.67382000  1.0
  H  H23  1  0.09722000  0.72503000  0.82617000  1.0
  H  H24  1  0.72502000  0.09722000  0.32618000  1.0
  H  H25  1  0.90277000  0.27497000  0.17382000  1.0
  H  H26  1  0.33884000  0.27197000  0.58823000  1.0
  H  H27  1  0.72803000  0.66116000  0.91177000  1.0
  H  H28  1  0.66117000  0.72803000  0.41178000  1.0
  H  H29  1  0.27197000  0.33884000  0.08823000  1.0
  H  H30  1  0.12745000  0.96235000  0.84565000  1.0
  H  H31  1  0.03765000  0.87255000  0.65435000  1.0
  H  H32  1  0.87255000  0.03765000  0.15435000  1.0
  H  H33  1  0.96235000  0.12745000  0.34565000  1.0
  H  H34  1  0.09766000  0.92250000  0.06590000  1.0
  H  H35  1  0.07750000  0.90234000  0.43410000  1.0
  H  H36  1  0.90234000  0.07750000  0.93410000  1.0
  H  H37  1  0.92250000  0.09766000  0.56590000  1.0
  H  H38  1  0.38099000  0.09947000  0.97853000  1.0
  H  H39  1  0.90053000  0.61901000  0.52147000  1.0
  H  H40  1  0.61901000  0.90053000  0.02147000  1.0
  H  H41  1  0.09946000  0.38099000  0.47853000  1.0
  H  H42  1  0.41898000  0.15254000  0.75442000  1.0
  H  H43  1  0.84746000  0.58101000  0.74559000  1.0
  H  H44  1  0.58101000  0.84746000  0.24559000  1.0
  H  H45  1  0.15254000  0.41899000  0.25441000  1.0
  C  C46  1  0.40943000  0.33208000  0.33886000  1.0
  C  C47  1  0.66792000  0.59056000  0.16114000  1.0
  C  C48  1  0.59057000  0.66792000  0.66114000  1.0
  C  C49  1  0.33208000  0.40944000  0.83886000  1.0
  C  C50  1  0.37276000  0.21222000  0.43364000  1.0
  C  C51  1  0.78779000  0.62724000  0.06636000  1.0
  C  C52  1  0.62724000  0.78778000  0.56636000  1.0
  C  C53  1  0.21221000  0.37276000  0.93364000  1.0
  C  C54  1  0.37175000  0.11719000  0.39437000  1.0
  C  C55  1  0.88282000  0.62825000  0.10563000  1.0
  C  C56  1  0.62825000  0.88281000  0.60563000  1.0
  C  C57  1  0.11718000  0.37175000  0.89437000  1.0
  C  C58  1  0.33396000  0.00593000  0.48000000  1.0
  C  C59  1  0.99408000  0.66604000  0.01999000  1.0
  C  C60  1  0.66604000  0.99407000  0.52000000  1.0
  C  C61  1  0.00592000  0.33397000  0.98001000  1.0
  C  C62  1  0.33511000  0.90586000  0.43660000  1.0
  C  C63  1  0.09415000  0.66490000  0.06340000  1.0
  C  C64  1  0.66489000  0.09414000  0.56340000  1.0
  C  C65  1  0.90585000  0.33511000  0.93660000  1.0
  C  C66  1  0.31700000  0.93830000  0.32166000  1.0
  C  C67  1  0.06171000  0.68300000  0.17833000  1.0
  C  C68  1  0.68300000  0.06171000  0.67833000  1.0
  C  C69  1  0.93829000  0.31700000  0.82167000  1.0
  C  C70  1  0.32919000  0.84171000  0.27789000  1.0
  C  C71  1  0.15829000  0.67082000  0.22211000  1.0
  C  C72  1  0.67082000  0.15829000  0.72211000  1.0
  C  C73  1  0.84171000  0.32918000  0.77789000  1.0
  C  C74  1  0.36887000  0.68260000  0.45525000  1.0
  C  C75  1  0.31740000  0.63113000  0.04474000  1.0
  C  C76  1  0.63113000  0.31740000  0.54474000  1.0
  C  C77  1  0.68260000  0.36887000  0.95526000  1.0
  C  C78  1  0.35779000  0.77438000  0.50488000  1.0
  C  C79  1  0.22562000  0.64221000  0.99511000  1.0
  C  C80  1  0.64221000  0.22562000  0.49512000  1.0
  C  C81  1  0.77438000  0.35779000  0.00489000  1.0
  C  C82  1  0.30081000  0.99044000  0.60595000  1.0
  C  C83  1  0.00957000  0.69919000  0.89405000  1.0
  C  C84  1  0.69919000  0.00956000  0.39405000  1.0
  C  C85  1  0.99043000  0.30081000  0.10595000  1.0
  C  C86  1  0.30424000  0.08358000  0.64685000  1.0
  C  C87  1  0.91642000  0.69575000  0.85315000  1.0
  C  C88  1  0.69576000  0.91642000  0.35315000  1.0
  C  C89  1  0.08357000  0.30424000  0.14685000  1.0
  C  C90  1  0.33859000  0.19586000  0.55953000  1.0
  C  C91  1  0.80415000  0.66141000  0.94047000  1.0
  C  C92  1  0.66141000  0.80414000  0.44047000  1.0
  C  C93  1  0.19585000  0.33859000  0.05954000  1.0
  C  C94  1  0.27753000  0.06067000  0.77959000  1.0
  C  C95  1  0.93933000  0.72247000  0.72041000  1.0
  C  C96  1  0.72247000  0.93932000  0.22041000  1.0
  C  C97  1  0.06067000  0.27754000  0.27959000  1.0
  C  C98  1  0.18594000  0.99504000  0.87055000  1.0
  C  C99  1  0.00496000  0.81406000  0.62945000  1.0
  C  C100  1  0.81406000  0.00496000  0.12945000  1.0
  C  C101  1  0.99504000  0.18593000  0.37055000  1.0
  C  C102  1  0.16914000  0.97273000  0.99419000  1.0
  C  C103  1  0.02727000  0.83086000  0.50581000  1.0
  C  C104  1  0.83086000  0.02727000  0.00581000  1.0
  C  C105  1  0.97273000  0.16914000  0.49419000  1.0
  C  C106  1  0.32527000  0.07100000  0.94616000  1.0
  C  C107  1  0.92900000  0.67473000  0.55385000  1.0
  C  C108  1  0.67473000  0.92900000  0.05385000  1.0
  C  C109  1  0.07100000  0.32527000  0.44615000  1.0
  C  C110  1  0.34689000  0.10075000  0.82026000  1.0
  C  C111  1  0.89925000  0.65311000  0.67974000  1.0
  C  C112  1  0.65311000  0.89925000  0.17974000  1.0
  C  C113  1  0.10074000  0.34689000  0.32026000  1.0
  N  N114  1  0.35753000  0.71540000  0.34216000  1.0
  N  N115  1  0.28461000  0.64248000  0.15784000  1.0
  N  N116  1  0.64248000  0.28460000  0.65784000  1.0
  N  N117  1  0.71539000  0.35752000  0.84216000  1.0
  N  N118  1  0.23781000  0.00811000  0.03328000  1.0
  N  N119  1  0.99189000  0.76218000  0.46672000  1.0
  N  N120  1  0.76218000  0.99189000  0.96672000  1.0
  N  N121  1  0.00811000  0.23781000  0.53328000  1.0
  O  O122  1  0.38498000  0.42505000  0.38294000  1.0
  O  O123  1  0.57495000  0.61501000  0.11706000  1.0
  O  O124  1  0.61502000  0.57495000  0.61706000  1.0
  O  O125  1  0.42505000  0.38499000  0.88294000  1.0
  O  O126  1  0.45833000  0.33788000  0.22732000  1.0
  O  O127  1  0.66212000  0.54168000  0.27268000  1.0
  O  O128  1  0.54167000  0.66212000  0.77268000  1.0
  O  O129  1  0.33788000  0.45832000  0.72732000  1.0
