# generated using pymatgen
data_CdH14C19N2O5
_symmetry_space_group_name_H-M   'P 1'
_cell_length_a   11.75220000
_cell_length_b   11.76740000
_cell_length_c   13.27720000
_cell_angle_alpha   88.42310000
_cell_angle_beta   88.47510000
_cell_angle_gamma   79.98560000
_symmetry_Int_Tables_number   1
_chemical_formula_structural   CdH14C19N2O5
_chemical_formula_sum   'Cd4 H56 C76 N8 O20'
_cell_volume   1807.03725950
_cell_formula_units_Z   4
loop_
 _symmetry_equiv_pos_site_id
 _symmetry_equiv_pos_as_xyz
  1  'x, y, z'
loop_
 _atom_site_type_symbol
 _atom_site_label
 _atom_site_symmetry_multiplicity
 _atom_site_fract_x
 _atom_site_fract_y
 _atom_site_fract_z
 _atom_site_occupancy
  Cd  Cd0  1  0.98115000  0.45178000  0.14808000  1.0
  Cd  Cd1  1  0.54820000  0.01880000  0.35186000  1.0
  Cd  Cd2  1  0.01886000  0.54821000  0.85192000  1.0
  Cd  Cd3  1  0.45177000  0.98121000  0.64814000  1.0
  H  H4  1  0.90298000  0.41253000  0.52908000  1.0
  H  H5  1  0.58751000  0.09736000  0.97099000  1.0
  H  H6  1  0.09702000  0.58750000  0.47092000  1.0
  H  H7  1  0.41250000  0.90263000  0.02902000  1.0
  H  H8  1  0.76314000  0.38304000  0.66903000  1.0
  H  H9  1  0.61699000  0.23707000  0.83101000  1.0
  H  H10  1  0.23687000  0.61700000  0.33096000  1.0
  H  H11  1  0.38303000  0.76292000  0.16900000  1.0
  H  H12  1  0.56501000  0.35535000  0.63234000  1.0
  H  H13  1  0.64463000  0.43496000  0.86761000  1.0
  H  H14  1  0.43500000  0.64467000  0.36766000  1.0
  H  H15  1  0.35538000  0.56504000  0.13240000  1.0
  H  H16  1  0.63612000  0.40422000  0.31526000  1.0
  H  H17  1  0.59579000  0.36375000  0.18473000  1.0
  H  H18  1  0.36388000  0.59579000  0.68474000  1.0
  H  H19  1  0.40421000  0.63624000  0.81528000  1.0
  H  H20  1  0.32011000  0.33648000  0.47862000  1.0
  H  H21  1  0.66345000  0.67947000  0.02146000  1.0
  H  H22  1  0.67989000  0.66354000  0.52138000  1.0
  H  H23  1  0.33656000  0.32052000  0.97855000  1.0
  H  H24  1  0.39201000  0.38854000  0.57847000  1.0
  H  H25  1  0.61121000  0.60793000  0.92153000  1.0
  H  H26  1  0.60800000  0.61147000  0.42153000  1.0
  H  H27  1  0.38880000  0.39207000  0.07848000  1.0
  H  H28  1  0.80858000  0.28005000  0.11495000  1.0
  H  H29  1  0.71953000  0.19126000  0.38504000  1.0
  H  H30  1  0.19143000  0.71994000  0.88503000  1.0
  H  H31  1  0.28045000  0.80875000  0.61495000  1.0
  H  H32  1  0.79352000  0.07295000  0.12283000  1.0
  H  H33  1  0.92700000  0.20622000  0.37718000  1.0
  H  H34  1  0.20650000  0.92703000  0.87718000  1.0
  H  H35  1  0.07299000  0.79377000  0.62282000  1.0
  H  H36  1  0.78785000  0.90417000  0.14354000  1.0
  H  H37  1  0.09576000  0.21189000  0.35646000  1.0
  H  H38  1  0.21218000  0.09582000  0.85644000  1.0
  H  H39  1  0.90421000  0.78810000  0.64354000  1.0
  H  H40  1  0.79497000  0.69362000  0.16966000  1.0
  H  H41  1  0.30663000  0.20479000  0.33030000  1.0
  H  H42  1  0.20505000  0.30638000  0.83032000  1.0
  H  H43  1  0.69333000  0.79521000  0.66969000  1.0
  H  H44  1  0.15244000  0.62852000  0.15865000  1.0
  H  H45  1  0.37176000  0.84778000  0.34127000  1.0
  H  H46  1  0.84758000  0.37146000  0.84136000  1.0
  H  H47  1  0.62822000  0.15222000  0.65875000  1.0
  H  H48  1  0.16370000  0.83352000  0.13333000  1.0
  H  H49  1  0.16644000  0.83657000  0.36670000  1.0
  H  H50  1  0.83633000  0.16647000  0.86671000  1.0
  H  H51  1  0.83355000  0.16342000  0.63333000  1.0
  H  H52  1  0.16816000  0.99828000  0.11689000  1.0
  H  H53  1  0.00170000  0.83212000  0.38310000  1.0
  H  H54  1  0.83186000  0.00172000  0.88311000  1.0
  H  H55  1  0.99826000  0.16787000  0.61690000  1.0
  H  H56  1  0.16570000  0.20851000  0.11229000  1.0
  H  H57  1  0.79113000  0.83460000  0.38767000  1.0
  H  H58  1  0.83431000  0.79149000  0.88770000  1.0
  H  H59  1  0.20884000  0.16541000  0.61230000  1.0
  C  C60  1  0.85908000  0.42428000  0.32652000  1.0
  C  C61  1  0.57568000  0.14109000  0.17348000  1.0
  C  C62  1  0.14092000  0.57573000  0.67347000  1.0
  C  C63  1  0.42431000  0.85891000  0.82652000  1.0
  C  C64  1  0.77806000  0.40864000  0.41337000  1.0
  C  C65  1  0.59136000  0.22208000  0.08665000  1.0
  C  C66  1  0.22194000  0.59138000  0.58662000  1.0
  C  C67  1  0.40864000  0.77792000  0.91336000  1.0
  C  C68  1  0.81495000  0.40179000  0.51340000  1.0
  C  C69  1  0.59823000  0.18528000  0.98664000  1.0
  C  C70  1  0.18505000  0.59823000  0.48659000  1.0
  C  C71  1  0.40177000  0.81472000  0.01336000  1.0
  C  C72  1  0.73681000  0.38408000  0.59076000  1.0
  C  C73  1  0.61595000  0.26335000  0.90927000  1.0
  C  C74  1  0.26319000  0.61594000  0.40924000  1.0
  C  C75  1  0.38407000  0.73665000  0.09074000  1.0
  C  C76  1  0.62434000  0.36843000  0.57037000  1.0
  C  C77  1  0.63158000  0.37567000  0.92961000  1.0
  C  C78  1  0.37567000  0.63159000  0.42963000  1.0
  C  C79  1  0.36843000  0.62432000  0.07040000  1.0
  C  C80  1  0.58838000  0.37396000  0.47017000  1.0
  C  C81  1  0.62604000  0.41153000  0.02980000  1.0
  C  C82  1  0.41162000  0.62605000  0.52983000  1.0
  C  C83  1  0.37396000  0.58846000  0.97021000  1.0
  C  C84  1  0.66481000  0.39717000  0.39265000  1.0
  C  C85  1  0.60284000  0.33516000  0.10733000  1.0
  C  C86  1  0.33519000  0.60284000  0.60735000  1.0
  C  C87  1  0.39716000  0.66484000  0.89267000  1.0
  C  C88  1  0.40384000  0.32852000  0.51564000  1.0
  C  C89  1  0.67139000  0.59596000  0.98436000  1.0
  C  C90  1  0.59616000  0.67149000  0.48436000  1.0
  C  C91  1  0.32861000  0.40404000  0.01565000  1.0
  C  C92  1  0.43690000  0.20492000  0.55648000  1.0
  C  C93  1  0.79508000  0.56304000  0.94351000  1.0
  C  C94  1  0.56308000  0.79509000  0.44352000  1.0
  C  C95  1  0.20492000  0.43695000  0.05650000  1.0
  C  C96  1  0.88621000  0.21427000  0.11520000  1.0
  C  C97  1  0.78541000  0.11374000  0.38483000  1.0
  C  C98  1  0.11380000  0.78571000  0.88479000  1.0
  C  C99  1  0.21458000  0.88626000  0.61516000  1.0
  C  C100  1  0.87868000  0.09769000  0.11972000  1.0
  C  C101  1  0.90216000  0.12122000  0.38031000  1.0
  C  C102  1  0.12133000  0.90230000  0.88028000  1.0
  C  C103  1  0.09782000  0.87878000  0.61969000  1.0
  C  C104  1  0.98006000  0.01474000  0.12284000  1.0
  C  C105  1  0.98515000  0.01995000  0.37720000  1.0
  C  C106  1  0.01996000  0.98525000  0.87717000  1.0
  C  C107  1  0.01483000  0.98005000  0.62280000  1.0
  C  C108  1  0.97641000  0.88997000  0.13525000  1.0
  C  C109  1  0.11005000  0.02360000  0.36476000  1.0
  C  C110  1  0.02361000  0.11002000  0.86475000  1.0
  C  C111  1  0.88993000  0.97639000  0.63525000  1.0
  C  C112  1  0.87179000  0.84727000  0.14540000  1.0
  C  C113  1  0.15276000  0.12809000  0.35460000  1.0
  C  C114  1  0.12824000  0.15272000  0.85459000  1.0
  C  C115  1  0.84722000  0.87191000  0.64540000  1.0
  C  C116  1  0.87450000  0.72925000  0.16008000  1.0
  C  C117  1  0.27091000  0.12540000  0.33989000  1.0
  C  C118  1  0.12553000  0.27074000  0.83991000  1.0
  C  C119  1  0.72906000  0.87460000  0.66011000  1.0
  C  C120  1  0.07368000  0.69267000  0.15547000  1.0
  C  C121  1  0.30752000  0.92641000  0.34448000  1.0
  C  C122  1  0.92634000  0.30731000  0.84453000  1.0
  C  C123  1  0.69246000  0.07358000  0.65554000  1.0
  C  C124  1  0.07886000  0.80882000  0.14106000  1.0
  C  C125  1  0.19123000  0.92126000  0.35893000  1.0
  C  C126  1  0.92117000  0.19117000  0.85895000  1.0
  C  C127  1  0.80875000  0.07873000  0.64108000  1.0
  C  C128  1  0.08518000  0.05627000  0.11677000  1.0
  C  C129  1  0.94361000  0.91497000  0.38327000  1.0
  C  C130  1  0.91484000  0.94373000  0.88324000  1.0
  C  C131  1  0.05635000  0.08502000  0.61673000  1.0
  C  C132  1  0.08517000  0.17440000  0.11299000  1.0
  C  C133  1  0.82533000  0.91498000  0.38704000  1.0
  C  C134  1  0.91484000  0.82560000  0.88701000  1.0
  C  C135  1  0.17464000  0.08502000  0.61294000  1.0
  N  N136  1  0.98742000  0.25309000  0.11354000  1.0
  N  N137  1  0.74660000  0.01265000  0.38650000  1.0
  N  N138  1  0.01259000  0.74691000  0.88645000  1.0
  N  N139  1  0.25337000  0.98735000  0.61349000  1.0
  N  N140  1  0.97373000  0.65252000  0.16447000  1.0
  N  N141  1  0.34766000  0.02626000  0.33548000  1.0
  N  N142  1  0.02629000  0.34747000  0.83553000  1.0
  N  N143  1  0.65232000  0.97374000  0.66453000  1.0
  O  O144  1  0.81308000  0.46087000  0.24261000  1.0
  O  O145  1  0.53912000  0.18693000  0.25739000  1.0
  O  O146  1  0.18691000  0.53915000  0.75739000  1.0
  O  O147  1  0.46086000  0.81307000  0.74261000  1.0
  O  O148  1  0.96762000  0.39750000  0.33816000  1.0
  O  O149  1  0.60243000  0.03273000  0.16181000  1.0
  O  O150  1  0.03238000  0.60252000  0.66182000  1.0
  O  O151  1  0.39757000  0.96727000  0.83819000  1.0
  O  O152  1  0.48152000  0.36013000  0.44020000  1.0
  O  O153  1  0.63981000  0.51825000  0.05975000  1.0
  O  O154  1  0.51848000  0.63987000  0.55980000  1.0
  O  O155  1  0.36019000  0.48175000  0.94026000  1.0
  O  O156  1  0.49613000  0.12757000  0.50296000  1.0
  O  O157  1  0.87264000  0.50378000  0.99698000  1.0
  O  O158  1  0.50385000  0.87243000  0.49704000  1.0
  O  O159  1  0.12736000  0.49620000  0.00304000  1.0
  O  O160  1  0.39955000  0.18528000  0.64515000  1.0
  O  O161  1  0.81464000  0.60053000  0.85486000  1.0
  O  O162  1  0.60043000  0.81473000  0.35484000  1.0
  O  O163  1  0.18537000  0.39946000  0.14515000  1.0
