# generated using pymatgen
data_AgH15C9SN2O3
_symmetry_space_group_name_H-M   'P 1'
_cell_length_a   7.14322000
_cell_length_b   8.11916000
_cell_length_c   11.36870000
_cell_angle_alpha   107.58800000
_cell_angle_beta   99.27570000
_cell_angle_gamma   101.25700000
_symmetry_Int_Tables_number   1
_chemical_formula_structural   AgH15C9SN2O3
_chemical_formula_sum   'Ag2 H30 C18 S2 N4 O6'
_cell_volume   599.09833368
_cell_formula_units_Z   2
loop_
 _symmetry_equiv_pos_site_id
 _symmetry_equiv_pos_as_xyz
  1  'x, y, z'
loop_
 _atom_site_type_symbol
 _atom_site_label
 _atom_site_symmetry_multiplicity
 _atom_site_fract_x
 _atom_site_fract_y
 _atom_site_fract_z
 _atom_site_occupancy
  Ag  Ag0  1  0.98010000  0.81414000  0.56770000  1.0
  Ag  Ag1  1  0.01990000  0.18586000  0.43230000  1.0
  H  H2  1  0.56921000  0.59498000  0.40935000  1.0
  H  H3  1  0.43079000  0.40502000  0.59065000  1.0
  H  H4  1  0.75151000  0.21437000  0.80125000  1.0
  H  H5  1  0.24849000  0.78564000  0.19874000  1.0
  H  H6  1  0.91886000  0.13343000  0.71607000  1.0
  H  H7  1  0.08114000  0.86657000  0.28393000  1.0
  H  H8  1  0.21515000  0.59789000  0.40476000  1.0
  H  H9  1  0.78485000  0.40211000  0.59524000  1.0
  H  H10  1  0.23019000  0.11308000  0.69880000  1.0
  H  H11  1  0.76981000  0.88692000  0.30120000  1.0
  H  H12  1  0.47438000  0.24030000  0.75691000  1.0
  H  H13  1  0.52561000  0.75970000  0.24309000  1.0
  H  H14  1  0.98241000  0.12302000  0.94055000  1.0
  H  H15  1  0.01759000  0.87698000  0.05946000  1.0
  H  H16  1  0.93341000  0.90680000  0.82388000  1.0
  H  H17  1  0.06659000  0.09321000  0.17612000  1.0
  H  H18  1  0.74840000  0.96804000  0.90082000  1.0
  H  H19  1  0.25160000  0.03196000  0.09918000  1.0
  H  H20  1  0.32221000  0.19122000  0.93236000  1.0
  H  H21  1  0.67778000  0.80878000  0.06764000  1.0
  H  H22  1  0.52351000  0.09464000  0.92335000  1.0
  H  H23  1  0.47649000  0.90537000  0.07665000  1.0
  H  H24  1  0.28120000  0.95562000  0.85918000  1.0
  H  H25  1  0.71880000  0.04439000  0.14082000  1.0
  H  H26  1  0.30392000  0.46637000  0.92824000  1.0
  H  H27  1  0.69608000  0.53363000  0.07177000  1.0
  H  H28  1  0.23140000  0.67188000  0.97705000  1.0
  H  H29  1  0.76859000  0.32812000  0.02295000  1.0
  H  H30  1  0.04769000  0.46182000  0.90800000  1.0
  H  H31  1  0.95231000  0.53818000  0.09200000  1.0
  C  C32  1  0.63245000  0.95859000  0.65674000  1.0
  C  C33  1  0.36755000  0.04142000  0.34326000  1.0
  C  C34  1  0.53000000  0.69887000  0.48000000  1.0
  C  C35  1  0.47000000  0.30113000  0.52000000  1.0
  C  C36  1  0.79836000  0.09317000  0.75926000  1.0
  C  C37  1  0.20163000  0.90684000  0.24074000  1.0
  C  C38  1  0.33562000  0.70162000  0.47653000  1.0
  C  C39  1  0.66438000  0.29837000  0.52346000  1.0
  C  C40  1  0.43457000  0.96384000  0.65143000  1.0
  C  C41  1  0.56543000  0.03616000  0.34857000  1.0
  C  C42  1  0.37718000  0.10980000  0.74347000  1.0
  C  C43  1  0.62282000  0.89020000  0.25652000  1.0
  C  C44  1  0.86987000  0.01851000  0.86238000  1.0
  C  C45  1  0.13013000  0.98150000  0.13762000  1.0
  C  C46  1  0.37633000  0.08625000  0.87222000  1.0
  C  C47  1  0.62368000  0.91374000  0.12778000  1.0
  C  C48  1  0.19284000  0.53614000  0.90784000  1.0
  C  C49  1  0.80716000  0.46386000  0.09217000  1.0
  S  S50  1  0.18548000  0.54979000  0.75308000  1.0
  S  S51  1  0.81453000  0.45021000  0.24693000  1.0
  N  N52  1  0.67726000  0.82751000  0.56929000  1.0
  N  N53  1  0.32274000  0.17249000  0.43071000  1.0
  N  N54  1  0.28921000  0.83472000  0.56069000  1.0
  N  N55  1  0.71079000  0.16528000  0.43931000  1.0
  O  O56  1  0.03810000  0.65019000  0.73403000  1.0
  O  O57  1  0.96191000  0.34980000  0.26597000  1.0
  O  O58  1  0.11880000  0.36146000  0.66666667  1.0
  O  O59  1  0.88121000  0.63854000  0.33333333  1.0
  O  O60  1  0.38544000  0.63841000  0.75434000  1.0
  O  O61  1  0.61457000  0.36159000  0.24566000  1.0
