# generated using pymatgen
data_K2H48C36Cl8O17
_symmetry_space_group_name_H-M   'P 1'
_cell_length_a   10.38960000
_cell_length_b   11.53590000
_cell_length_c   11.63800000
_cell_angle_alpha   77.40790000
_cell_angle_beta   64.26310000
_cell_angle_gamma   69.70050000
_symmetry_Int_Tables_number   1
_chemical_formula_structural   K2H48C36Cl8O17
_chemical_formula_sum   'K2 H48 C36 Cl8 O17'
_cell_volume   1174.69175856
_cell_formula_units_Z   1
loop_
 _symmetry_equiv_pos_site_id
 _symmetry_equiv_pos_as_xyz
  1  'x, y, z'
loop_
 _atom_site_type_symbol
 _atom_site_label
 _atom_site_symmetry_multiplicity
 _atom_site_fract_x
 _atom_site_fract_y
 _atom_site_fract_z
 _atom_site_occupancy
  K  K0  1  0.15291000  0.82595000  0.83818000  1.0
  K  K1  1  0.84709000  0.17405000  0.16182000  1.0
  H  H2  1  0.95071000  0.14008000  0.71914000  1.0
  H  H3  1  0.04929000  0.85992000  0.28086000  1.0
  H  H4  1  0.98519000  0.12828000  0.55636000  1.0
  H  H5  1  0.01482000  0.87172000  0.44364000  1.0
  H  H6  1  0.25714000  0.00994000  0.52453000  1.0
  H  H7  1  0.74286000  0.99006000  0.47547000  1.0
  H  H8  1  0.19818000  0.17176000  0.54782000  1.0
  H  H9  1  0.80182000  0.82824000  0.45218000  1.0
  H  H10  1  0.39715000  0.12683000  0.62335000  1.0
  H  H11  1  0.60285000  0.87317000  0.37665000  1.0
  H  H12  1  0.44546000  0.96424000  0.60896000  1.0
  H  H13  1  0.55454000  0.03576000  0.39104000  1.0
  H  H14  1  0.50748000  0.02792000  0.77304000  1.0
  H  H15  1  0.49252000  0.97208000  0.22696000  1.0
  H  H16  1  0.31053000  0.07504000  0.86682000  1.0
  H  H17  1  0.68947000  0.92496000  0.13319000  1.0
  H  H18  1  0.31669000  0.93348000  0.02918000  1.0
  H  H19  1  0.68331000  0.06652000  0.97082000  1.0
  H  H20  1  0.51529000  0.86674000  0.96127000  1.0
  H  H21  1  0.48471000  0.13326000  0.03873000  1.0
  H  H22  1  0.46920000  0.66518000  0.95384000  1.0
  H  H23  1  0.53080000  0.33482000  0.04616000  1.0
  H  H24  1  0.41169000  0.71178000  0.11003000  1.0
  H  H25  1  0.58831000  0.28822000  0.88997000  1.0
  H  H26  1  0.21816000  0.61437000  0.21422000  1.0
  H  H27  1  0.78185000  0.38563000  0.78578000  1.0
  H  H28  1  0.27618000  0.54693000  0.06873000  1.0
  H  H29  1  0.72382000  0.45307000  0.93127000  1.0
  H  H30  1  0.00911000  0.56515000  0.21822000  1.0
  H  H31  1  0.99089000  0.43485000  0.78178000  1.0
  H  H32  1  0.96947000  0.73120000  0.19862000  1.0
  H  H33  1  0.03053000  0.26880000  0.80138000  1.0
  H  H34  1  0.79634000  0.72660000  0.12200000  1.0
  H  H35  1  0.20366000  0.27340000  0.87800000  1.0
  H  H36  1  0.85611000  0.56358000  0.10336000  1.0
  H  H37  1  0.14389000  0.43642000  0.89664000  1.0
  H  H38  1  0.95037000  0.61432000  0.86284000  1.0
  H  H39  1  0.04963000  0.38568000  0.13716000  1.0
  H  H40  1  0.75219000  0.66212000  0.94946000  1.0
  H  H41  1  0.24781000  0.33788000  0.05054000  1.0
  H  H42  1  0.74120000  0.82236000  0.76720000  1.0
  H  H43  1  0.25880000  0.17764000  0.23280000  1.0
  H  H44  1  0.94039000  0.76103000  0.69412000  1.0
  H  H45  1  0.05961000  0.23897000  0.30588000  1.0
  H  H46  1  0.82552000  0.98794000  0.62619000  1.0
  H  H47  1  0.17448000  0.01206000  0.37381000  1.0
  H  H48  1  0.78345000  0.02367000  0.78279000  1.0
  H  H49  1  0.21655000  0.97633000  0.21721000  1.0
  C  C50  1  0.27372000  0.53321000  0.63790000  1.0
  C  C51  1  0.72628000  0.46679000  0.36210000  1.0
  C  C52  1  0.25146000  0.49835000  0.53472000  1.0
  C  C53  1  0.74854000  0.50164000  0.46527000  1.0
  C  C54  1  0.34622000  0.39712000  0.46746000  1.0
  C  C55  1  0.65378000  0.60288000  0.53254000  1.0
  C  C56  1  0.48004000  0.31875000  0.49083000  1.0
  C  C57  1  0.51996000  0.68125000  0.50917000  1.0
  C  C58  1  0.49536000  0.34803000  0.60034000  1.0
  C  C59  1  0.50464000  0.65197000  0.39966000  1.0
  C  C60  1  0.40015000  0.44945000  0.66774000  1.0
  C  C61  1  0.59985000  0.55055000  0.33226000  1.0
  C  C62  1  0.02221000  0.08438000  0.63559000  1.0
  C  C63  1  0.97779000  0.91562000  0.36441000  1.0
  C  C64  1  0.18299000  0.08020000  0.59459000  1.0
  C  C65  1  0.81701000  0.91980000  0.40541000  1.0
  C  C66  1  0.37183000  0.03939000  0.67296000  1.0
  C  C67  1  0.62818000  0.96061000  0.32704000  1.0
  C  C68  1  0.39983000  0.01214000  0.79416000  1.0
  C  C69  1  0.60017000  0.98787000  0.20584000  1.0
  C  C70  1  0.40779000  0.86256000  0.96643000  1.0
  C  C71  1  0.59221000  0.13744000  0.03357000  1.0
  C  C72  1  0.38877000  0.73582000  0.02235000  1.0
  C  C73  1  0.61123000  0.26418000  0.97765000  1.0
  C  C74  1  0.20297000  0.62944000  0.12320000  1.0
  C  C75  1  0.79704000  0.37056000  0.87680000  1.0
  C  C76  1  0.04191000  0.64437000  0.15201000  1.0
  C  C77  1  0.95809000  0.35563000  0.84799000  1.0
  C  C78  1  0.87765000  0.65311000  0.05766000  1.0
  C  C79  1  0.12235000  0.34689000  0.94234000  1.0
  C  C80  1  0.85827000  0.67844000  0.93252000  1.0
  C  C81  1  0.14173000  0.32156000  0.06748000  1.0
  C  C82  1  0.84850000  0.82897000  0.75975000  1.0
  C  C83  1  0.15150000  0.17103000  0.24025000  1.0
  C  C84  1  0.85988000  0.95845000  0.70814000  1.0
  C  C85  1  0.14012000  0.04155000  0.29186000  1.0
  Cl  Cl86  1  0.09715000  0.59005000  0.50698000  1.0
  Cl  Cl87  1  0.90285000  0.40995000  0.49302000  1.0
  Cl  Cl88  1  0.31629000  0.35321000  0.35205000  1.0
  Cl  Cl89  1  0.68372000  0.64679000  0.64795000  1.0
  Cl  Cl90  1  0.63631000  0.24524000  0.64088000  1.0
  Cl  Cl91  1  0.36369000  0.75477000  0.35912000  1.0
  Cl  Cl92  1  0.41786000  0.48374000  0.79518000  1.0
  Cl  Cl93  1  0.58214000  0.51626000  0.20482000  1.0
  O  O94  1  0.18647000  0.62493000  0.69961000  1.0
  O  O95  1  0.81353000  0.37507000  0.30038000  1.0
  O  O96  1  0.57158000  0.23108000  0.42491000  1.0
  O  O97  1  0.42842000  0.76891000  0.57509000  1.0
  O  O98  1  0.00000000  0.00000000  0.00000000  1.0
  O  O99  1  0.00948000  0.96082000  0.66884000  1.0
  O  O100  1  0.99052000  0.03918000  0.33116000  1.0
  O  O101  1  0.21928000  0.05007000  0.70445000  1.0
  O  O102  1  0.78072000  0.94993000  0.29555000  1.0
  O  O103  1  0.40383000  0.88661000  0.84252000  1.0
  O  O104  1  0.59617000  0.11339000  0.15748000  1.0
  O  O105  1  0.23968000  0.73857000  0.05130000  1.0
  O  O106  1  0.76032000  0.26143000  0.94870000  1.0
  O  O107  1  0.02611000  0.64778000  0.03523000  1.0
  O  O108  1  0.97389000  0.35222000  0.96477000  1.0
  O  O109  1  0.85616000  0.80343000  0.88295000  1.0
  O  O110  1  0.14384000  0.19657000  0.11705000  1.0
