# generated using pymatgen
data_AgH19C24(NO2)2
_symmetry_space_group_name_H-M   'P 1'
_cell_length_a   9.58463000
_cell_length_b   9.69572000
_cell_length_c   12.04650000
_cell_angle_alpha   103.17100000
_cell_angle_beta   102.91100000
_cell_angle_gamma   108.64900000
_symmetry_Int_Tables_number   1
_chemical_formula_structural   AgH19C24(NO2)2
_chemical_formula_sum   'Ag2 H38 C48 N4 O8'
_cell_volume   978.08440410
_cell_formula_units_Z   2
loop_
 _symmetry_equiv_pos_site_id
 _symmetry_equiv_pos_as_xyz
  1  'x, y, z'
loop_
 _atom_site_type_symbol
 _atom_site_label
 _atom_site_symmetry_multiplicity
 _atom_site_fract_x
 _atom_site_fract_y
 _atom_site_fract_z
 _atom_site_occupancy
  Ag  Ag0  1  0.97141000  0.28056000  0.42739000  1.0
  Ag  Ag1  1  0.02859000  0.71944000  0.57261000  1.0
  H  H2  1  0.81126000  0.65529000  0.72502000  1.0
  H  H3  1  0.18873000  0.34471000  0.27498000  1.0
  H  H4  1  0.64393000  0.14537000  0.48408000  1.0
  H  H5  1  0.35607000  0.85463000  0.51592000  1.0
  H  H6  1  0.59822000  0.88578000  0.50507000  1.0
  H  H7  1  0.40178000  0.11422000  0.49493000  1.0
  H  H8  1  0.02813000  0.49871000  0.85290000  1.0
  H  H9  1  0.97187000  0.50129000  0.14710000  1.0
  H  H10  1  0.19168000  0.47530000  0.03266000  1.0
  H  H11  1  0.80832000  0.52469000  0.96734000  1.0
  H  H12  1  0.15182000  0.21759000  0.05325000  1.0
  H  H13  1  0.84817000  0.78241000  0.94676000  1.0
  H  H14  1  0.95388000  0.98329000  0.89318000  1.0
  H  H15  1  0.04612000  0.01671000  0.10682000  1.0
  H  H16  1  0.65530000  0.30015000  0.35434000  1.0
  H  H17  1  0.34471000  0.69985000  0.64565000  1.0
  H  H18  1  0.46855000  0.30252000  0.17799000  1.0
  H  H19  1  0.53145000  0.69748000  0.82201000  1.0
  H  H20  1  0.74010000  0.17180000  0.96280000  1.0
  H  H21  1  0.25990000  0.82820000  0.03719000  1.0
  H  H22  1  0.91569000  0.17356000  0.14871000  1.0
  H  H23  1  0.08431000  0.82644000  0.85128000  1.0
  H  H24  1  0.35666000  0.16528000  0.93718000  1.0
  H  H25  1  0.64333000  0.83472000  0.06282000  1.0
  H  H26  1  0.46883000  0.36053000  0.97392000  1.0
  H  H27  1  0.53117000  0.63947000  0.02608000  1.0
  H  H28  1  0.50107000  0.09735000  0.79723000  1.0
  H  H29  1  0.49893000  0.90265000  0.20277000  1.0
  H  H30  1  0.61951000  0.29448000  0.83461000  1.0
  H  H31  1  0.38049000  0.70552000  0.16539000  1.0
  H  H32  1  0.53670000  0.42612000  0.70230000  1.0
  H  H33  1  0.46331000  0.57389000  0.29771000  1.0
  H  H34  1  0.32393000  0.44715000  0.55439000  1.0
  H  H35  1  0.67607000  0.55285000  0.44561000  1.0
  H  H36  1  0.99086000  0.07850000  0.59066000  1.0
  H  H37  1  0.00913000  0.92150000  0.40933000  1.0
  H  H38  1  0.18769000  0.04055000  0.73768000  1.0
  H  H39  1  0.81231000  0.95945000  0.26232000  1.0
  C  C40  1  0.80787000  0.26613000  0.66105000  1.0
  C  C41  1  0.19213000  0.73387000  0.33896000  1.0
  C  C42  1  0.70699000  0.13447000  0.56672000  1.0
  C  C43  1  0.29302000  0.86553000  0.43329000  1.0
  C  C44  1  0.68139000  0.98838000  0.57839000  1.0
  C  C45  1  0.31861000  0.01162000  0.42161000  1.0
  C  C46  1  0.76169000  0.97002000  0.68128000  1.0
  C  C47  1  0.23831000  0.02997000  0.31872000  1.0
  C  C48  1  0.87567000  0.10321000  0.77796000  1.0
  C  C49  1  0.12433000  0.89678000  0.22204000  1.0
  C  C50  1  0.89716000  0.25352000  0.76754000  1.0
  C  C51  1  0.10284000  0.74649000  0.23246000  1.0
  C  C52  1  0.01317000  0.38581000  0.86103000  1.0
  C  C53  1  0.98684000  0.61419000  0.13897000  1.0
  C  C54  1  0.10439000  0.37296000  0.96093000  1.0
  C  C55  1  0.89561000  0.62703000  0.03907000  1.0
  C  C56  1  0.08155000  0.22660000  0.97266000  1.0
  C  C57  1  0.91845000  0.77339000  0.02734000  1.0
  C  C58  1  0.96978000  0.09557000  0.88401000  1.0
  C  C59  1  0.03022000  0.90443000  0.11599000  1.0
  C  C60  1  0.81910000  0.41935000  0.64662000  1.0
  C  C61  1  0.18090000  0.58065000  0.35338000  1.0
  C  C62  1  0.72188000  0.80641000  0.67935000  1.0
  C  C63  1  0.27811000  0.19359000  0.32065000  1.0
  C  C64  1  0.66989000  0.27115000  0.26607000  1.0
  C  C65  1  0.33011000  0.72885000  0.73393000  1.0
  C  C66  1  0.56558000  0.27217000  0.16613000  1.0
  C  C67  1  0.43442000  0.72783000  0.83386000  1.0
  C  C68  1  0.58692000  0.23804000  0.05320000  1.0
  C  C69  1  0.41308000  0.76196000  0.94680000  1.0
  C  C70  1  0.71460000  0.19996000  0.04689000  1.0
  C  C71  1  0.28540000  0.80004000  0.95310000  1.0
  C  C72  1  0.81439000  0.20066000  0.15096000  1.0
  C  C73  1  0.18561000  0.79934000  0.84904000  1.0
  C  C74  1  0.47389000  0.24589000  0.94826000  1.0
  C  C75  1  0.52611000  0.75411000  0.05174000  1.0
  C  C76  1  0.50382000  0.21481000  0.82694000  1.0
  C  C77  1  0.49618000  0.78520000  0.17306000  1.0
  C  C78  1  0.38129000  0.23153000  0.73428000  1.0
  C  C79  1  0.61871000  0.76848000  0.26572000  1.0
  C  C80  1  0.41686000  0.34709000  0.68138000  1.0
  C  C81  1  0.58314000  0.65291000  0.31862000  1.0
  C  C82  1  0.29854000  0.35966000  0.59814000  1.0
  C  C83  1  0.70147000  0.64034000  0.40186000  1.0
  C  C84  1  0.11305000  0.15357000  0.61775000  1.0
  C  C85  1  0.88695000  0.84644000  0.38225000  1.0
  C  C86  1  0.22455000  0.13346000  0.70057000  1.0
  C  C87  1  0.77544000  0.86654000  0.29943000  1.0
  N  N88  1  0.79455000  0.23711000  0.25975000  1.0
  N  N89  1  0.20545000  0.76289000  0.74024000  1.0
  N  N90  1  0.14814000  0.26436000  0.56612000  1.0
  N  N91  1  0.85187000  0.73564000  0.43388000  1.0
  O  O92  1  0.84194000  0.44451000  0.55273000  1.0
  O  O93  1  0.15806000  0.55549000  0.44727000  1.0
  O  O94  1  0.79989000  0.51146000  0.73165000  1.0
  O  O95  1  0.20011000  0.48854000  0.26835000  1.0
  O  O96  1  0.58911000  0.70740000  0.62542000  1.0
  O  O97  1  0.41088000  0.29259000  0.37457000  1.0
  O  O98  1  0.83952000  0.77740000  0.73573000  1.0
  O  O99  1  0.16048000  0.22260000  0.26426000  1.0
