# generated using pymatgen
data_CoH9C8N5O2
_symmetry_space_group_name_H-M   'P 1'
_cell_length_a   15.51700727
_cell_length_b   15.51710000
_cell_length_c   15.51730000
_cell_angle_alpha   65.86000000
_cell_angle_beta   65.85798261
_cell_angle_gamma   100.48779369
_symmetry_Int_Tables_number   1
_chemical_formula_structural   CoH9C8N5O2
_chemical_formula_sum   'Co8 H72 C64 N40 O16'
_cell_volume   2824.35230479
_cell_formula_units_Z   8
loop_
 _symmetry_equiv_pos_site_id
 _symmetry_equiv_pos_as_xyz
  1  'x, y, z'
loop_
 _atom_site_type_symbol
 _atom_site_label
 _atom_site_symmetry_multiplicity
 _atom_site_fract_x
 _atom_site_fract_y
 _atom_site_fract_z
 _atom_site_occupancy
  Co  Co0  1  0.52427000  0.01484000  0.55877000  1.0
  Co  Co1  1  0.07364000  0.08307000  0.94121000  1.0
  Co  Co2  1  0.58293000  0.02422000  0.99061000  1.0
  Co  Co3  1  0.51483000  0.57355000  0.50940000  1.0
  Co  Co4  1  0.47575000  0.98514000  0.44129000  1.0
  Co  Co5  1  0.92646000  0.91707000  0.05869000  1.0
  Co  Co6  1  0.41688000  0.97568000  0.00948000  1.0
  Co  Co7  1  0.48516000  0.42638000  0.49053000  1.0
  H  H8  1  0.39379000  0.98943000  0.79393000  1.0
  H  H9  1  0.19842000  0.71338000  0.79836000  1.0
  H  H10  1  0.14517000  0.79896000  0.75104000  1.0
  H  H11  1  0.09190000  0.74421000  0.94862000  1.0
  H  H12  1  0.17566000  0.87913000  0.85736000  1.0
  H  H13  1  0.22483000  0.78865000  0.90664000  1.0
  H  H14  1  0.81936000  0.10763000  0.78186000  1.0
  H  H15  1  0.87633000  0.15527000  0.45962000  1.0
  H  H16  1  0.75846000  0.12855000  0.46229000  1.0
  H  H17  1  0.28335000  0.18774000  0.70609000  1.0
  H  H18  1  0.01176000  0.99676000  0.70166000  1.0
  H  H19  1  0.05003000  0.89619000  0.74897000  1.0
  H  H20  1  0.19284000  0.04051000  0.55139000  1.0
  H  H21  1  0.23651000  0.03302000  0.64265000  1.0
  H  H22  1  0.19529000  0.13145000  0.59337000  1.0
  H  H23  1  0.38950000  0.60123000  0.71816000  1.0
  H  H24  1  0.11489000  0.33595000  0.04041000  1.0
  H  H25  1  0.09085000  0.22076000  0.03770000  1.0
  H  H26  1  0.68773000  0.89381000  0.09566000  1.0
  H  H27  1  0.49669000  0.69836000  0.01503000  1.0
  H  H28  1  0.39618000  0.64517000  0.15381000  1.0
  H  H29  1  0.54049000  0.59188000  0.15229000  1.0
  H  H30  1  0.53299000  0.67558000  0.20350000  1.0
  H  H31  1  0.63144000  0.72477000  0.06381000  1.0
  H  H32  1  0.10120000  0.31938000  0.78832000  1.0
  H  H33  1  0.83593000  0.37636000  0.77897000  1.0
  H  H34  1  0.72073000  0.25840000  0.87012000  1.0
  H  H35  1  0.48947000  0.78337000  0.40434000  1.0
  H  H36  1  0.21341000  0.51174000  0.48498000  1.0
  H  H37  1  0.29900000  0.55001000  0.34620000  1.0
  H  H38  1  0.24417000  0.69278000  0.34771000  1.0
  H  H39  1  0.37909000  0.73652000  0.29649000  1.0
  H  H40  1  0.28857000  0.69528000  0.43618000  1.0
  H  H41  1  0.60771000  0.88951000  0.71167000  1.0
  H  H42  1  0.65532000  0.61490000  0.72104000  1.0
  H  H43  1  0.62852000  0.59083000  0.62989000  1.0
  H  H44  1  0.60617000  0.01055000  0.20613000  1.0
  H  H45  1  0.80162000  0.28659000  0.20167000  1.0
  H  H46  1  0.85485000  0.20100000  0.24897000  1.0
  H  H47  1  0.90812000  0.25580000  0.05141000  1.0
  H  H48  1  0.82436000  0.12087000  0.14262000  1.0
  H  H49  1  0.77520000  0.21138000  0.09336000  1.0
  H  H50  1  0.18060000  0.89224000  0.21821000  1.0
  H  H51  1  0.12364000  0.84463000  0.54045000  1.0
  H  H52  1  0.24157000  0.87145000  0.53770000  1.0
  H  H53  1  0.71667000  0.81232000  0.29389000  1.0
  H  H54  1  0.98827000  0.00329000  0.29832000  1.0
  H  H55  1  0.94998000  0.10382000  0.25102000  1.0
  H  H56  1  0.80721000  0.95952000  0.44859000  1.0
  H  H57  1  0.76350000  0.96698000  0.35737000  1.0
  H  H58  1  0.80475000  0.86856000  0.40663000  1.0
  H  H59  1  0.61047000  0.39882000  0.28181000  1.0
  H  H60  1  0.88508000  0.66410000  0.95957000  1.0
  H  H61  1  0.90917000  0.77929000  0.96228000  1.0
  H  H62  1  0.31229000  0.10621000  0.90434000  1.0
  H  H63  1  0.50325000  0.30162000  0.98498000  1.0
  H  H64  1  0.60377000  0.35480000  0.84619000  1.0
  H  H65  1  0.45944000  0.40803000  0.84770000  1.0
  H  H66  1  0.46695000  0.32430000  0.79654000  1.0
  H  H67  1  0.36851000  0.27516000  0.93618000  1.0
  H  H68  1  0.89881000  0.68065000  0.21169000  1.0
  H  H69  1  0.16408000  0.62365000  0.22102000  1.0
  H  H70  1  0.27928000  0.74160000  0.12987000  1.0
  H  H71  1  0.51055000  0.21664000  0.59563000  1.0
  H  H72  1  0.78663000  0.48827000  0.51502000  1.0
  H  H73  1  0.70101000  0.44999000  0.65380000  1.0
  H  H74  1  0.75574000  0.30715000  0.65229000  1.0
  H  H75  1  0.62085000  0.26352000  0.70346000  1.0
  H  H76  1  0.71135000  0.30474000  0.56380000  1.0
  H  H77  1  0.39235000  0.11051000  0.28830000  1.0
  H  H78  1  0.34467000  0.38511000  0.27898000  1.0
  H  H79  1  0.37148000  0.40915000  0.37012000  1.0
  C  C80  1  0.47373000  0.01652000  0.77178000  1.0
  C  C81  1  0.64104000  0.07115000  0.67840000  1.0
  C  C82  1  0.74966000  0.10633000  0.60760000  1.0
  C  C83  1  0.30865000  0.86933000  0.67634000  1.0
  C  C84  1  0.20064000  0.79113000  0.77754000  1.0
  C  C85  1  0.17140000  0.80110000  0.87841000  1.0
  C  C86  1  0.60540000  0.05356000  0.78573000  1.0
  C  C87  1  0.76725000  0.09758000  0.75284000  1.0
  C  C88  1  0.28829000  0.24552000  0.72824000  1.0
  C  C89  1  0.24955000  0.31945000  0.82161000  1.0
  C  C90  1  0.21394000  0.35728000  0.89241000  1.0
  C  C91  1  0.04569000  0.98498000  0.82366000  1.0
  C  C92  1  0.06870000  0.97816000  0.72246000  1.0
  C  C93  1  0.17954000  0.04981000  0.62159000  1.0
  C  C94  1  0.33929000  0.39115000  0.71427000  1.0
  C  C95  1  0.35043000  0.52011000  0.74717000  1.0
  C  C96  1  0.74550000  0.97376000  0.04277000  1.0
  C  C97  1  0.81938000  0.14106000  0.93017000  1.0
  C  C98  1  0.85723000  0.24969000  0.85672000  1.0
  C  C99  1  0.48491000  0.80861000  0.06071000  1.0
  C  C100  1  0.47816000  0.70063000  0.09052000  1.0
  C  C101  1  0.54978000  0.67137000  0.12971000  1.0
  C  C102  1  0.89111000  0.10545000  0.94818000  1.0
  C  C103  1  0.02006000  0.26729000  0.83039000  1.0
  C  C104  1  0.51654000  0.78826000  0.45722000  1.0
  C  C105  1  0.57123000  0.74953000  0.56984000  1.0
  C  C106  1  0.60641000  0.71394000  0.64328000  1.0
  C  C107  1  0.36933000  0.54565000  0.43930000  1.0
  C  C108  1  0.29116000  0.56870000  0.40949000  1.0
  C  C109  1  0.30108000  0.67951000  0.37029000  1.0
  C  C110  1  0.55363000  0.83927000  0.55182000  1.0
  C  C111  1  0.59768000  0.85043000  0.66962000  1.0
  C  C112  1  0.52626000  0.98349000  0.22826000  1.0
  C  C113  1  0.35896000  0.92882000  0.32164000  1.0
  C  C114  1  0.25033000  0.89361000  0.39244000  1.0
  C  C115  1  0.69138000  0.13067000  0.32370000  1.0
  C  C116  1  0.79938000  0.20883000  0.22247000  1.0
  C  C117  1  0.82862000  0.19890000  0.12159000  1.0
  C  C118  1  0.39457000  0.94641000  0.21433000  1.0
  C  C119  1  0.23271000  0.90232000  0.24723000  1.0
  C  C120  1  0.71175000  0.75454000  0.27174000  1.0
  C  C121  1  0.75046000  0.68061000  0.17835000  1.0
  C  C122  1  0.78606000  0.64279000  0.10755000  1.0
  C  C123  1  0.95438000  0.01507000  0.17630000  1.0
  C  C124  1  0.93132000  0.02185000  0.27752000  1.0
  C  C125  1  0.82050000  0.95021000  0.37840000  1.0
  C  C126  1  0.66074000  0.60891000  0.28567000  1.0
  C  C127  1  0.64956000  0.47995000  0.25277000  1.0
  C  C128  1  0.25453000  0.02626000  0.95722000  1.0
  C  C129  1  0.18062000  0.85895000  0.06984000  1.0
  C  C130  1  0.14276000  0.75032000  0.14329000  1.0
  C  C131  1  0.51500000  0.19132000  0.93934000  1.0
  C  C132  1  0.52180000  0.29933000  0.90950000  1.0
  C  C133  1  0.45016000  0.32855000  0.87030000  1.0
  C  C134  1  0.10890000  0.89459000  0.05182000  1.0
  C  C135  1  0.97994000  0.73274000  0.16963000  1.0
  C  C136  1  0.48347000  0.21174000  0.54277000  1.0
  C  C137  1  0.42881000  0.25047000  0.43014000  1.0
  C  C138  1  0.39362000  0.28605000  0.35669000  1.0
  C  C139  1  0.63067000  0.45436000  0.56067000  1.0
  C  C140  1  0.70885000  0.43133000  0.59050000  1.0
  C  C141  1  0.69887000  0.32049000  0.62969000  1.0
  C  C142  1  0.44640000  0.16070000  0.44818000  1.0
  C  C143  1  0.40236000  0.14957000  0.33037000  1.0
  N  N144  1  0.55446000  0.04654000  0.67111000  1.0
  N  N145  1  0.79789000  0.12880000  0.50185000  1.0
  N  N146  1  0.81028000  0.11762000  0.64906000  1.0
  N  N147  1  0.50016000  0.01976000  0.84411000  1.0
  N  N148  1  0.66578000  0.06634000  0.82601000  1.0
  N  N149  1  0.21765000  0.22558000  0.82890000  1.0
  N  N150  1  0.13066000  0.29975000  0.99816000  1.0
  N  N151  1  0.26668000  0.45936000  0.85095000  1.0
  N  N152  1  0.36386000  0.34428000  0.65590000  1.0
  N  N153  1  0.39235000  0.49181000  0.67399000  1.0
  N  N154  1  0.72553000  0.05449000  0.99210000  1.0
  N  N155  1  0.79971000  0.29791000  0.83095000  1.0
  N  N156  1  0.95929000  0.31030000  0.80742000  1.0
  N  N157  1  0.84426000  0.00021000  0.01957000  1.0
  N  N158  1  0.99177000  0.16583000  0.90058000  1.0
  N  N159  1  0.54659000  0.71762000  0.50790000  1.0
  N  N160  1  0.62886000  0.63065000  0.66905000  1.0
  N  N161  1  0.61772000  0.76669000  0.69260000  1.0
  N  N162  1  0.51979000  0.86381000  0.48042000  1.0
  N  N163  1  0.56640000  0.89233000  0.59942000  1.0
  N  N164  1  0.44553000  0.95344000  0.32893000  1.0
  N  N165  1  0.20210000  0.87115000  0.49819000  1.0
  N  N166  1  0.18969000  0.88229000  0.35101000  1.0
  N  N167  1  0.49982000  0.98024000  0.15594000  1.0
  N  N168  1  0.33419000  0.93360000  0.17405000  1.0
  N  N169  1  0.78237000  0.77447000  0.17107000  1.0
  N  N170  1  0.86935000  0.70031000  0.00180000  1.0
  N  N171  1  0.73331000  0.54073000  0.14899000  1.0
  N  N172  1  0.63617000  0.65577000  0.34407000  1.0
  N  N173  1  0.60766000  0.50826000  0.32595000  1.0
  N  N174  1  0.27449000  0.94554000  0.00789000  1.0
  N  N175  1  0.20028000  0.70209000  0.16906000  1.0
  N  N176  1  0.04067000  0.68969000  0.19263000  1.0
  N  N177  1  0.15578000  0.99982000  0.98042000  1.0
  N  N178  1  0.00823000  0.83421000  0.09941000  1.0
  N  N179  1  0.45344000  0.28238000  0.49210000  1.0
  N  N180  1  0.37115000  0.36934000  0.33094000  1.0
  N  N181  1  0.38232000  0.23330000  0.30736000  1.0
  N  N182  1  0.48022000  0.13618000  0.51959000  1.0
  N  N183  1  0.43361000  0.10763000  0.40058000  1.0
  O  O184  1  0.37456000  0.91342000  0.69016000  1.0
  O  O185  1  0.32924000  0.88644000  0.58037000  1.0
  O  O186  1  0.10360000  0.06471000  0.80985000  1.0
  O  O187  1  0.96682000  0.90960000  0.91963000  1.0
  O  O188  1  0.56465000  0.87457000  0.03884000  1.0
  O  O189  1  0.40953000  0.82920000  0.05723000  1.0
  O  O190  1  0.41342000  0.60352000  0.46117000  1.0
  O  O191  1  0.38645000  0.46680000  0.44276000  1.0
  O  O192  1  0.62543000  0.08657000  0.30992000  1.0
  O  O193  1  0.67080000  0.11359000  0.41966000  1.0
  O  O194  1  0.89650000  0.93534000  0.19008000  1.0
  O  O195  1  0.03325000  0.09045000  0.08035000  1.0
  O  O196  1  0.43526000  0.12539000  0.96120000  1.0
  O  O197  1  0.59039000  0.17073000  0.94278000  1.0
  O  O198  1  0.58659000  0.39648000  0.53882000  1.0
  O  O199  1  0.61353000  0.53320000  0.55721000  1.0
