# generated using pymatgen
data_CuH10C18I3N3O4
_symmetry_space_group_name_H-M   'P 1'
_cell_length_a   8.98264000
_cell_length_b   9.48907000
_cell_length_c   14.25050000
_cell_angle_alpha   89.99990000
_cell_angle_beta   89.99980000
_cell_angle_gamma   72.50500000
_symmetry_Int_Tables_number   1
_chemical_formula_structural   CuH10C18I3N3O4
_chemical_formula_sum   'Cu2 H20 C36 I6 N6 O8'
_cell_volume   1158.48175093
_cell_formula_units_Z   2
loop_
 _symmetry_equiv_pos_site_id
 _symmetry_equiv_pos_as_xyz
  1  'x, y, z'
loop_
 _atom_site_type_symbol
 _atom_site_label
 _atom_site_symmetry_multiplicity
 _atom_site_fract_x
 _atom_site_fract_y
 _atom_site_fract_z
 _atom_site_occupancy
  Cu  Cu0  1  0.81202000  0.23902000  0.42695000  1.0
  Cu  Cu1  1  0.18798000  0.76099000  0.92695000  1.0
  H  H2  1  0.91978000  0.98848000  0.28858000  1.0
  H  H3  1  0.08021000  0.01153000  0.78859000  1.0
  H  H4  1  0.13984000  0.75160000  0.28596000  1.0
  H  H5  1  0.86014000  0.24840000  0.78597000  1.0
  H  H6  1  0.34458000  0.70643000  0.41382000  1.0
  H  H7  1  0.65540000  0.29356000  0.91383000  1.0
  H  H8  1  0.31901000  0.89744000  0.53689000  1.0
  H  H9  1  0.68099000  0.10254000  0.03691000  1.0
  H  H10  1  0.29090000  0.08291000  0.62649000  1.0
  H  H11  1  0.70911000  0.91708000  0.12650000  1.0
  H  H12  1  0.20963000  0.28956000  0.74302000  1.0
  H  H13  1  0.79039000  0.71042000  0.24302000  1.0
  H  H14  1  0.94887000  0.47745000  0.72579000  1.0
  H  H15  1  0.05114000  0.52252000  0.22578000  1.0
  H  H16  1  0.77465000  0.45240000  0.59190000  1.0
  H  H17  1  0.22535000  0.54758000  0.09189000  1.0
  H  H18  1  0.12439000  0.32975000  0.97108000  1.0
  H  H19  1  0.87560000  0.67025000  0.47109000  1.0
  H  H20  1  0.03341000  0.47226000  0.89681000  1.0
  H  H21  1  0.96659000  0.52775000  0.39682000  1.0
  C  C22  1  0.01039000  0.96212000  0.34226000  1.0
  C  C23  1  0.98960000  0.03788000  0.84227000  1.0
  C  C24  1  0.13417000  0.83206000  0.34119000  1.0
  C  C25  1  0.86582000  0.16794000  0.84120000  1.0
  C  C26  1  0.24703000  0.80781000  0.41163000  1.0
  C  C27  1  0.75296000  0.19218000  0.91164000  1.0
  C  C28  1  0.23283000  0.91391000  0.48108000  1.0
  C  C29  1  0.76717000  0.08608000  0.98109000  1.0
  C  C30  1  0.10403000  0.04043000  0.47937000  1.0
  C  C31  1  0.89597000  0.95956000  0.97938000  1.0
  C  C32  1  0.07204000  0.15644000  0.55106000  1.0
  C  C33  1  0.92796000  0.84355000  0.05107000  1.0
  C  C34  1  0.17577000  0.16375000  0.62263000  1.0
  C  C35  1  0.82424000  0.83624000  0.12264000  1.0
  C  C36  1  0.13136000  0.27955000  0.68671000  1.0
  C  C37  1  0.86865000  0.72043000  0.18672000  1.0
  C  C38  1  0.98605000  0.38541000  0.67693000  1.0
  C  C39  1  0.01396000  0.61457000  0.17693000  1.0
  C  C40  1  0.88893000  0.37259000  0.60331000  1.0
  C  C41  1  0.11108000  0.62739000  0.10330000  1.0
  C  C42  1  0.80082000  0.35418000  0.26022000  1.0
  C  C43  1  0.19918000  0.64582000  0.76023000  1.0
  C  C44  1  0.78031000  0.40422000  0.15853000  1.0
  C  C45  1  0.21968000  0.59579000  0.65853000  1.0
  C  C46  1  0.90189000  0.36002000  0.09319000  1.0
  C  C47  1  0.09811000  0.63999000  0.59319000  1.0
  C  C48  1  0.89849000  0.43357000  0.00581000  1.0
  C  C49  1  0.10151000  0.56644000  0.50581000  1.0
  C  C50  1  0.75732000  0.54513000  0.98349000  1.0
  C  C51  1  0.24268000  0.45488000  0.48349000  1.0
  C  C52  1  0.62870000  0.58225000  0.04355000  1.0
  C  C53  1  0.37130000  0.41776000  0.54355000  1.0
  C  C54  1  0.64458000  0.51556000  0.13231000  1.0
  C  C55  1  0.35542000  0.48445000  0.63231000  1.0
  C  C56  1  0.47540000  0.69264000  0.01266000  1.0
  C  C57  1  0.52460000  0.30737000  0.51266000  1.0
  I  I58  1  0.74347000  0.66814000  0.85854000  1.0
  I  I59  1  0.25653000  0.33187000  0.35854000  1.0
  I  I60  1  0.10433000  0.18388000  0.12642000  1.0
  I  I61  1  0.89567000  0.81613000  0.62643000  1.0
  I  I62  1  0.47026000  0.60073000  0.23317000  1.0
  I  I63  1  0.52974000  0.39929000  0.73317000  1.0
  N  N64  1  0.99537000  0.06274000  0.41034000  1.0
  N  N65  1  0.00462000  0.93726000  0.91035000  1.0
  N  N66  1  0.93116000  0.26034000  0.54234000  1.0
  N  N67  1  0.06884000  0.73964000  0.04233000  1.0
  N  N68  1  0.02207000  0.39695000  0.94547000  1.0
  N  N69  1  0.97792000  0.60306000  0.44547000  1.0
  O  O70  1  0.75464000  0.24485000  0.28672000  1.0
  O  O71  1  0.24536000  0.75515000  0.78672000  1.0
  O  O72  1  0.86033000  0.42698000  0.31434000  1.0
  O  O73  1  0.13966000  0.57304000  0.81434000  1.0
  O  O74  1  0.38684000  0.62697000  0.96977000  1.0
  O  O75  1  0.61316000  0.37304000  0.46977000  1.0
  O  O76  1  0.44622000  0.82683000  0.02824000  1.0
  O  O77  1  0.55378000  0.17318000  0.52825000  1.0
