# generated using pymatgen
data_AgH10C13SNO2
_symmetry_space_group_name_H-M   'P 1'
_cell_length_a   9.00744000
_cell_length_b   9.13513000
_cell_length_c   15.71390000
_cell_angle_alpha   97.97860000
_cell_angle_beta   98.42360000
_cell_angle_gamma   107.21700000
_symmetry_Int_Tables_number   1
_chemical_formula_structural   AgH10C13SNO2
_chemical_formula_sum   'Ag4 H40 C52 S4 N4 O8'
_cell_volume   1198.82262062
_cell_formula_units_Z   4
loop_
 _symmetry_equiv_pos_site_id
 _symmetry_equiv_pos_as_xyz
  1  'x, y, z'
loop_
 _atom_site_type_symbol
 _atom_site_label
 _atom_site_symmetry_multiplicity
 _atom_site_fract_x
 _atom_site_fract_y
 _atom_site_fract_z
 _atom_site_occupancy
  Ag  Ag0  1  0.38899000  0.73404000  0.75235000  1.0
  Ag  Ag1  1  0.61101000  0.26597000  0.24764000  1.0
  Ag  Ag2  1  0.20726000  0.14925000  0.73483000  1.0
  Ag  Ag3  1  0.79274000  0.85076000  0.26518000  1.0
  H  H4  1  0.50094000  0.88785000  0.03663000  1.0
  H  H5  1  0.49906000  0.11216000  0.96337000  1.0
  H  H6  1  0.51241000  0.96462000  0.19647000  1.0
  H  H7  1  0.48759000  0.03539000  0.80352000  1.0
  H  H8  1  0.00863000  0.62379000  0.00065000  1.0
  H  H9  1  0.99137000  0.37621000  0.99935000  1.0
  H  H10  1  0.02002000  0.69073000  0.16117000  1.0
  H  H11  1  0.97997000  0.30927000  0.83883000  1.0
  H  H12  1  0.39826000  0.93673000  0.32121000  1.0
  H  H13  1  0.60174000  0.06327000  0.67879000  1.0
  H  H14  1  0.22227000  0.77535000  0.31347000  1.0
  H  H15  1  0.77773000  0.22466000  0.68653000  1.0
  H  H16  1  0.06977000  0.22524000  0.41879000  1.0
  H  H17  1  0.93022000  0.77476000  0.58122000  1.0
  H  H18  1  0.09420000  0.27702000  0.57910000  1.0
  H  H19  1  0.90580000  0.72297000  0.42090000  1.0
  H  H20  1  0.32283000  0.89223000  0.45125000  1.0
  H  H21  1  0.67716000  0.10776000  0.54874000  1.0
  H  H22  1  0.32971000  0.95049000  0.60811000  1.0
  H  H23  1  0.67029000  0.04951000  0.39189000  1.0
  H  H24  1  0.43574000  0.32316000  0.50624000  1.0
  H  H25  1  0.56426000  0.67683000  0.49377000  1.0
  H  H26  1  0.43242000  0.39855000  0.66436000  1.0
  H  H27  1  0.56759000  0.60144000  0.33564000  1.0
  H  H28  1  0.94609000  0.49339000  0.56570000  1.0
  H  H29  1  0.05391000  0.50661000  0.43430000  1.0
  H  H30  1  0.94358000  0.55874000  0.72368000  1.0
  H  H31  1  0.05642000  0.44127000  0.27632000  1.0
  H  H32  1  0.77533000  0.48895000  0.84027000  1.0
  H  H33  1  0.22469000  0.51106000  0.15973000  1.0
  H  H34  1  0.56636000  0.45809000  0.81225000  1.0
  H  H35  1  0.43365000  0.54191000  0.18775000  1.0
  H  H36  1  0.64351000  0.50568000  0.95796000  1.0
  H  H37  1  0.35650000  0.49432000  0.04204000  1.0
  H  H38  1  0.67513000  0.56589000  0.11768000  1.0
  H  H39  1  0.32487000  0.43411000  0.88232000  1.0
  H  H40  1  0.84451000  0.00306000  0.96544000  1.0
  H  H41  1  0.15549000  0.99694000  0.03456000  1.0
  H  H42  1  0.87085000  0.04357000  0.12637000  1.0
  H  H43  1  0.12914000  0.95643000  0.87363000  1.0
  C  C44  1  0.24422000  0.70757000  0.91116000  1.0
  C  C45  1  0.75578000  0.29243000  0.08884000  1.0
  C  C46  1  0.25393000  0.75046000  0.00876000  1.0
  C  C47  1  0.74607000  0.24955000  0.99123000  1.0
  C  C48  1  0.39612000  0.84566000  0.06446000  1.0
  C  C49  1  0.60388000  0.15434000  0.93554000  1.0
  C  C50  1  0.40147000  0.88827000  0.15376000  1.0
  C  C51  1  0.59853000  0.11173000  0.84624000  1.0
  C  C52  1  0.11836000  0.69774000  0.04444000  1.0
  C  C53  1  0.88164000  0.30226000  0.95556000  1.0
  C  C54  1  0.12469000  0.73823000  0.13400000  1.0
  C  C55  1  0.87531000  0.26176000  0.86600000  1.0
  C  C56  1  0.26647000  0.83526000  0.18969000  1.0
  C  C57  1  0.73352000  0.16474000  0.81031000  1.0
  C  C58  1  0.27511000  0.87880000  0.28642000  1.0
  C  C59  1  0.72489000  0.12120000  0.71358000  1.0
  C  C60  1  0.19106000  0.05097000  0.41959000  1.0
  C  C61  1  0.80894000  0.94903000  0.58041000  1.0
  C  C62  1  0.12696000  0.16068000  0.45830000  1.0
  C  C63  1  0.87303000  0.83932000  0.54171000  1.0
  C  C64  1  0.13872000  0.18894000  0.54813000  1.0
  C  C65  1  0.86128000  0.81107000  0.45188000  1.0
  C  C66  1  0.26854000  0.97713000  0.47541000  1.0
  C  C67  1  0.73146000  0.02287000  0.52460000  1.0
  C  C68  1  0.27395000  0.01084000  0.56471000  1.0
  C  C69  1  0.72605000  0.98916000  0.43529000  1.0
  C  C70  1  0.69188000  0.37109000  0.42916000  1.0
  C  C71  1  0.30812000  0.62892000  0.57084000  1.0
  C  C72  1  0.69009000  0.40391000  0.52527000  1.0
  C  C73  1  0.30991000  0.59608000  0.47473000  1.0
  C  C74  1  0.54613000  0.37498000  0.55414000  1.0
  C  C75  1  0.45387000  0.62501000  0.44586000  1.0
  C  C76  1  0.54512000  0.41710000  0.64272000  1.0
  C  C77  1  0.45488000  0.58289000  0.35728000  1.0
  C  C78  1  0.83281000  0.47171000  0.58689000  1.0
  C  C79  1  0.16719000  0.52829000  0.41311000  1.0
  C  C80  1  0.83185000  0.50949000  0.67588000  1.0
  C  C81  1  0.16815000  0.49051000  0.32412000  1.0
  C  C82  1  0.68710000  0.48304000  0.70441000  1.0
  C  C83  1  0.31290000  0.51697000  0.29559000  1.0
  C  C84  1  0.68344000  0.52026000  0.80003000  1.0
  C  C85  1  0.31657000  0.47974000  0.19997000  1.0
  C  C86  1  0.74011000  0.75039000  0.94633000  1.0
  C  C87  1  0.25989000  0.24961000  0.05368000  1.0
  C  C88  1  0.69283000  0.62707000  0.99146000  1.0
  C  C89  1  0.30718000  0.37293000  0.00854000  1.0
  C  C90  1  0.71006000  0.66034000  0.08174000  1.0
  C  C91  1  0.28993000  0.33966000  0.91826000  1.0
  C  C92  1  0.80461000  0.90299000  0.99656000  1.0
  C  C93  1  0.19539000  0.09701000  0.00345000  1.0
  C  C94  1  0.81915000  0.92633000  0.08652000  1.0
  C  C95  1  0.18084000  0.07367000  0.91348000  1.0
  S  S96  1  0.16679000  0.01568000  0.30644000  1.0
  S  S97  1  0.83321000  0.98432000  0.69356000  1.0
  S  S98  1  0.72634000  0.72965000  0.83408000  1.0
  S  S99  1  0.27366000  0.27035000  0.16592000  1.0
  N  N100  1  0.20964000  0.11393000  0.60131000  1.0
  N  N101  1  0.79037000  0.88606000  0.39869000  1.0
  N  N102  1  0.77183000  0.80707000  0.12954000  1.0
  N  N103  1  0.22816000  0.19293000  0.87046000  1.0
  O  O104  1  0.37863000  0.75955000  0.88694000  1.0
  O  O105  1  0.62137000  0.24046000  0.11307000  1.0
  O  O106  1  0.11407000  0.62895000  0.86219000  1.0
  O  O107  1  0.88594000  0.37104000  0.13780000  1.0
  O  O108  1  0.80322000  0.45562000  0.40025000  1.0
  O  O109  1  0.19678000  0.54438000  0.59975000  1.0
  O  O110  1  0.57474000  0.25676000  0.38032000  1.0
  O  O111  1  0.42526000  0.74325000  0.61968000  1.0
