# generated using pymatgen
data_LaH18C14N3O7
_symmetry_space_group_name_H-M   'P 1'
_cell_length_a   8.80027000
_cell_length_b   13.46860000
_cell_length_c   15.21220000
_cell_angle_alpha   89.99960000
_cell_angle_beta   89.99990000
_cell_angle_gamma   71.73800000
_symmetry_Int_Tables_number   1
_chemical_formula_structural   LaH18C14N3O7
_chemical_formula_sum   'La4 H72 C56 N12 O28'
_cell_volume   1712.24738994
_cell_formula_units_Z   4
loop_
 _symmetry_equiv_pos_site_id
 _symmetry_equiv_pos_as_xyz
  1  'x, y, z'
loop_
 _atom_site_type_symbol
 _atom_site_label
 _atom_site_symmetry_multiplicity
 _atom_site_fract_x
 _atom_site_fract_y
 _atom_site_fract_z
 _atom_site_occupancy
  La  La0  1  0.19368000  0.51465000  0.07689000  1.0
  La  La1  1  0.30632000  0.98536000  0.57689000  1.0
  La  La2  1  0.80632000  0.48536000  0.92311000  1.0
  La  La3  1  0.69367000  0.01464000  0.42311000  1.0
  H  H4  1  0.20909000  0.44939000  0.87887000  1.0
  H  H5  1  0.29091000  0.05061000  0.37887000  1.0
  H  H6  1  0.79090000  0.55061000  0.12113000  1.0
  H  H7  1  0.70910000  0.94939000  0.62113000  1.0
  H  H8  1  0.36880000  0.48081000  0.90425000  1.0
  H  H9  1  0.13120000  0.01919000  0.40425000  1.0
  H  H10  1  0.63120000  0.51919000  0.09575000  1.0
  H  H11  1  0.86879000  0.98081000  0.59575000  1.0
  H  H12  1  0.43763000  0.18945000  0.19555000  1.0
  H  H13  1  0.06236000  0.31054000  0.69556000  1.0
  H  H14  1  0.56236000  0.81055000  0.80444000  1.0
  H  H15  1  0.93764000  0.68946000  0.30444000  1.0
  H  H16  1  0.51630000  0.29440000  0.19210000  1.0
  H  H17  1  0.98369000  0.20561000  0.69210000  1.0
  H  H18  1  0.48370000  0.70561000  0.80790000  1.0
  H  H19  1  0.01631000  0.79439000  0.30790000  1.0
  H  H20  1  0.32094000  0.29509000  0.31489000  1.0
  H  H21  1  0.17905000  0.20490000  0.81490000  1.0
  H  H22  1  0.67906000  0.70491000  0.68510000  1.0
  H  H23  1  0.82095000  0.79509000  0.18510000  1.0
  H  H24  1  0.16795000  0.31562000  0.23468000  1.0
  H  H25  1  0.33203000  0.18438000  0.73469000  1.0
  H  H26  1  0.83204000  0.68438000  0.76532000  1.0
  H  H27  1  0.66797000  0.81562000  0.26532000  1.0
  H  H28  1  0.46426000  0.27613000  0.96482000  1.0
  H  H29  1  0.03573000  0.22388000  0.46482000  1.0
  H  H30  1  0.53573000  0.72388000  0.03518000  1.0
  H  H31  1  0.96426000  0.77612000  0.53518000  1.0
  H  H32  1  0.59008000  0.20124000  0.04877000  1.0
  H  H33  1  0.90991000  0.29877000  0.54877000  1.0
  H  H34  1  0.40991000  0.79877000  0.95123000  1.0
  H  H35  1  0.09008000  0.70123000  0.45123000  1.0
  H  H36  1  0.20495000  0.20472000  0.11664000  1.0
  H  H37  1  0.29504000  0.29527000  0.61665000  1.0
  H  H38  1  0.79505000  0.79527000  0.88336000  1.0
  H  H39  1  0.70495000  0.70473000  0.38335000  1.0
  H  H40  1  0.32576000  0.16265000  0.02406000  1.0
  H  H41  1  0.17423000  0.33735000  0.52406000  1.0
  H  H42  1  0.67423000  0.83735000  0.97594000  1.0
  H  H43  1  0.82577000  0.66265000  0.47594000  1.0
  H  H44  1  0.11779000  0.56098000  0.33925000  1.0
  H  H45  1  0.38221000  0.93901000  0.83925000  1.0
  H  H46  1  0.88221000  0.43902000  0.66074000  1.0
  H  H47  1  0.61780000  0.06099000  0.16075000  1.0
  H  H48  1  0.10307000  0.43614000  0.36252000  1.0
  H  H49  1  0.39692000  0.06385000  0.86252000  1.0
  H  H50  1  0.89693000  0.56386000  0.63748000  1.0
  H  H51  1  0.60308000  0.93615000  0.13748000  1.0
  H  H52  1  0.49282000  0.43363000  0.24682000  1.0
  H  H53  1  0.00717000  0.06636000  0.74682000  1.0
  H  H54  1  0.50717000  0.56637000  0.75318000  1.0
  H  H55  1  0.99284000  0.93364000  0.25318000  1.0
  H  H56  1  0.41217000  0.45352000  0.35468000  1.0
  H  H57  1  0.08782000  0.04648000  0.85468000  1.0
  H  H58  1  0.58782000  0.54648000  0.64532000  1.0
  H  H59  1  0.91219000  0.95352000  0.14532000  1.0
  H  H60  1  0.46886000  0.61507000  0.39335000  1.0
  H  H61  1  0.03114000  0.88492000  0.89335000  1.0
  H  H62  1  0.53115000  0.38492000  0.60665000  1.0
  H  H63  1  0.96885000  0.11508000  0.10665000  1.0
  H  H64  1  0.41845000  0.80596000  0.36354000  1.0
  H  H65  1  0.08157000  0.69403000  0.86354000  1.0
  H  H66  1  0.58157000  0.19403000  0.63646000  1.0
  H  H67  1  0.91843000  0.30598000  0.13646000  1.0
  H  H68  1  0.28367000  0.88256000  0.22279000  1.0
  H  H69  1  0.21636000  0.61744000  0.72279000  1.0
  H  H70  1  0.71634000  0.11744000  0.77722000  1.0
  H  H71  1  0.78364000  0.38256000  0.27722000  1.0
  H  H72  1  0.19372000  0.76528000  0.12025000  1.0
  H  H73  1  0.30629000  0.73472000  0.62025000  1.0
  H  H74  1  0.80628000  0.23473000  0.87975000  1.0
  H  H75  1  0.69371000  0.26527000  0.37976000  1.0
  C  C76  1  0.40659000  0.27360000  0.18255000  1.0
  C  C77  1  0.09340000  0.22640000  0.68255000  1.0
  C  C78  1  0.59341000  0.72640000  0.81745000  1.0
  C  C79  1  0.90660000  0.77360000  0.31745000  1.0
  C  C80  1  0.28221000  0.32943000  0.24952000  1.0
  C  C81  1  0.21778000  0.17057000  0.74952000  1.0
  C  C82  1  0.71779000  0.67057000  0.75048000  1.0
  C  C83  1  0.78222000  0.82943000  0.25048000  1.0
  C  C84  1  0.49855000  0.27707000  0.03410000  1.0
  C  C85  1  0.00145000  0.22294000  0.53410000  1.0
  C  C86  1  0.50145000  0.72293000  0.96589000  1.0
  C  C87  1  0.99855000  0.77706000  0.46590000  1.0
  C  C88  1  0.57467000  0.36377000  0.04233000  1.0
  C  C89  1  0.92532000  0.13623000  0.54233000  1.0
  C  C90  1  0.42532000  0.63623000  0.95767000  1.0
  C  C91  1  0.07468000  0.86377000  0.45768000  1.0
  C  C92  1  0.25518000  0.23347000  0.05934000  1.0
  C  C93  1  0.24482000  0.26653000  0.55934000  1.0
  C  C94  1  0.74483000  0.76653000  0.94066000  1.0
  C  C95  1  0.75517000  0.73347000  0.44066000  1.0
  C  C96  1  0.11332000  0.29400000  0.00232000  1.0
  C  C97  1  0.38667000  0.20600000  0.50232000  1.0
  C  C98  1  0.88667000  0.70600000  0.99768000  1.0
  C  C99  1  0.61333000  0.79400000  0.49768000  1.0
  C  C100  1  0.10844000  0.48930000  0.30829000  1.0
  C  C101  1  0.39155000  0.01069000  0.80829000  1.0
  C  C102  1  0.89156000  0.51069000  0.69171000  1.0
  C  C103  1  0.60845000  0.98931000  0.19171000  1.0
  C  C104  1  0.94919000  0.52056000  0.25858000  1.0
  C  C105  1  0.55081000  0.97945000  0.75858000  1.0
  C  C106  1  0.05081000  0.47944000  0.74142000  1.0
  C  C107  1  0.44919000  0.02056000  0.24142000  1.0
  C  C108  1  0.38590000  0.47531000  0.28499000  1.0
  C  C109  1  0.11409000  0.02469000  0.78499000  1.0
  C  C110  1  0.61410000  0.52469000  0.71501000  1.0
  C  C111  1  0.88591000  0.97531000  0.21501000  1.0
  C  C112  1  0.35684000  0.59108000  0.27220000  1.0
  C  C113  1  0.14316000  0.90892000  0.77220000  1.0
  C  C114  1  0.64316000  0.40891000  0.72780000  1.0
  C  C115  1  0.85684000  0.09108000  0.22780000  1.0
  C  C116  1  0.40847000  0.65100000  0.33333333  1.0
  C  C117  1  0.09152000  0.84900000  0.83337000  1.0
  C  C118  1  0.59153000  0.34900000  0.66663000  1.0
  C  C119  1  0.90848000  0.15100000  0.16663000  1.0
  C  C120  1  0.38251000  0.75683000  0.31627000  1.0
  C  C121  1  0.11749000  0.74316000  0.81627000  1.0
  C  C122  1  0.61750000  0.24316000  0.68374000  1.0
  C  C123  1  0.88250000  0.25684000  0.18374000  1.0
  C  C124  1  0.30546000  0.80025000  0.23870000  1.0
  C  C125  1  0.19454000  0.69975000  0.73870000  1.0
  C  C126  1  0.69454000  0.19976000  0.76131000  1.0
  C  C127  1  0.80545000  0.30025000  0.26130000  1.0
  C  C128  1  0.25613000  0.73578000  0.18144000  1.0
  C  C129  1  0.24387000  0.76422000  0.68144000  1.0
  C  C130  1  0.74387000  0.26422000  0.81856000  1.0
  C  C131  1  0.75613000  0.23578000  0.31856000  1.0
  N  N132  1  0.35577000  0.29622000  0.08981000  1.0
  N  N133  1  0.14422000  0.20378000  0.58981000  1.0
  N  N134  1  0.64423000  0.70378000  0.91019000  1.0
  N  N135  1  0.85578000  0.79622000  0.41019000  1.0
  N  N136  1  0.24938000  0.44433000  0.25206000  1.0
  N  N137  1  0.25061000  0.05567000  0.75206000  1.0
  N  N138  1  0.75061000  0.55567000  0.74794000  1.0
  N  N139  1  0.74939000  0.94433000  0.24794000  1.0
  N  N140  1  0.28079000  0.63367000  0.19759000  1.0
  N  N141  1  0.21921000  0.86633000  0.69759000  1.0
  N  N142  1  0.71921000  0.36633000  0.80241000  1.0
  N  N143  1  0.78080000  0.13367000  0.30241000  1.0
  O  O144  1  0.49991000  0.44467000  0.08780000  1.0
  O  O145  1  0.00009000  0.05533000  0.58780000  1.0
  O  O146  1  0.50009000  0.55533000  0.91220000  1.0
  O  O147  1  0.99991000  0.94467000  0.41220000  1.0
  O  O148  1  0.70470000  0.35192000  0.00242000  1.0
  O  O149  1  0.79530000  0.14809000  0.50242000  1.0
  O  O150  1  0.29531000  0.64809000  0.99758000  1.0
  O  O151  1  0.20469000  0.85191000  0.49759000  1.0
  O  O152  1  0.04939000  0.39273000  0.02157000  1.0
  O  O153  1  0.45060000  0.10727000  0.52157000  1.0
  O  O154  1  0.95060000  0.60727000  0.97843000  1.0
  O  O155  1  0.54940000  0.89273000  0.47843000  1.0
  O  O156  1  0.05918000  0.24852000  0.94483000  1.0
  O  O157  1  0.44080000  0.25148000  0.44482000  1.0
  O  O158  1  0.94080000  0.75148000  0.05517000  1.0
  O  O159  1  0.55921000  0.74852000  0.55518000  1.0
  O  O160  1  0.95865000  0.53613000  0.17487000  1.0
  O  O161  1  0.54136000  0.96387000  0.67487000  1.0
  O  O162  1  0.04136000  0.46387000  0.82513000  1.0
  O  O163  1  0.45864000  0.03613000  0.32513000  1.0
  O  O164  1  0.82302000  0.53305000  0.30041000  1.0
  O  O165  1  0.67697000  0.96696000  0.80041000  1.0
  O  O166  1  0.17698000  0.46695000  0.69959000  1.0
  O  O167  1  0.32302000  0.03304000  0.19958000  1.0
  O  O168  1  0.29500000  0.44275000  0.92415000  1.0
  O  O169  1  0.20499000  0.05725000  0.42415000  1.0
  O  O170  1  0.70499000  0.55725000  0.07585000  1.0
  O  O171  1  0.79501000  0.94275000  0.57585000  1.0
