# generated using pymatgen
data_CdH8C12S2(BrN2)2
_symmetry_space_group_name_H-M   'P 1'
_cell_length_a   5.78862000
_cell_length_b   9.62085000
_cell_length_c   14.90480000
_cell_angle_alpha   78.25800000
_cell_angle_beta   89.99960000
_cell_angle_gamma   89.99930000
_symmetry_Int_Tables_number   1
_chemical_formula_structural   CdH8C12S2(BrN2)2
_chemical_formula_sum   'Cd2 H16 C24 S4 Br4 N8'
_cell_volume   812.69971796
_cell_formula_units_Z   2
loop_
 _symmetry_equiv_pos_site_id
 _symmetry_equiv_pos_as_xyz
  1  'x, y, z'
loop_
 _atom_site_type_symbol
 _atom_site_label
 _atom_site_symmetry_multiplicity
 _atom_site_fract_x
 _atom_site_fract_y
 _atom_site_fract_z
 _atom_site_occupancy
  Cd  Cd0  1  0.50000000  0.50000000  0.50000000  1.0
  Cd  Cd1  1  0.99999000  0.00000000  0.00000000  1.0
  H  H2  1  0.26685000  0.19140000  0.54038000  1.0
  H  H3  1  0.76684000  0.30861000  0.95962000  1.0
  H  H4  1  0.73316000  0.80860000  0.45961000  1.0
  H  H5  1  0.23316000  0.69139000  0.04039000  1.0
  H  H6  1  0.67143000  0.87770000  0.72392000  1.0
  H  H7  1  0.17144000  0.62230000  0.77607000  1.0
  H  H8  1  0.32859000  0.12230000  0.27607000  1.0
  H  H9  1  0.82857000  0.37769000  0.22393000  1.0
  H  H10  1  0.94442000  0.07309000  0.74075000  1.0
  H  H11  1  0.44443000  0.42690000  0.75926000  1.0
  H  H12  1  0.05559000  0.92692000  0.25924000  1.0
  H  H13  1  0.55558000  0.57309000  0.24075000  1.0
  H  H14  1  0.86706000  0.31973000  0.65254000  1.0
  H  H15  1  0.36705000  0.18027000  0.84747000  1.0
  H  H16  1  0.13293000  0.68028000  0.34746000  1.0
  H  H17  1  0.63294000  0.81972000  0.15254000  1.0
  C  C18  1  0.00550000  0.43252000  0.40186000  1.0
  C  C19  1  0.50548000  0.06748000  0.09815000  1.0
  C  C20  1  0.99450000  0.56749000  0.59815000  1.0
  C  C21  1  0.49451000  0.93252000  0.90185000  1.0
  C  C22  1  0.41434000  0.16163000  0.58572000  1.0
  C  C23  1  0.91433000  0.33838000  0.91429000  1.0
  C  C24  1  0.58566000  0.83838000  0.41428000  1.0
  C  C25  1  0.08565000  0.66161000  0.08572000  1.0
  C  C26  1  0.44924000  0.02150000  0.63125000  1.0
  C  C27  1  0.94923000  0.47850000  0.86876000  1.0
  C  C28  1  0.55078000  0.97851000  0.36875000  1.0
  C  C29  1  0.05076000  0.52148000  0.13124000  1.0
  C  C30  1  0.64106000  0.98643000  0.68774000  1.0
  C  C31  1  0.14107000  0.51357000  0.81226000  1.0
  C  C32  1  0.35893000  0.01357000  0.31225000  1.0
  C  C33  1  0.85893000  0.48642000  0.18774000  1.0
  C  C34  1  0.79337000  0.09538000  0.69642000  1.0
  C  C35  1  0.29338000  0.40463000  0.80358000  1.0
  C  C36  1  0.20663000  0.90464000  0.30357000  1.0
  C  C37  1  0.70663000  0.59537000  0.19642000  1.0
  C  C38  1  0.74997000  0.23263000  0.64813000  1.0
  C  C39  1  0.24997000  0.26737000  0.85188000  1.0
  C  C40  1  0.25001000  0.76737000  0.35187000  1.0
  C  C41  1  0.75002000  0.73263000  0.14813000  1.0
  S  S42  1  0.25819000  0.37661000  0.37625000  1.0
  S  S43  1  0.75818000  0.12340000  0.12375000  1.0
  S  S44  1  0.74180000  0.62341000  0.62374000  1.0
  S  S45  1  0.24181000  0.87659000  0.87626000  1.0
  Br  Br46  1  0.23423000  0.88063000  0.61349000  1.0
  Br  Br47  1  0.73421000  0.61937000  0.88651000  1.0
  Br  Br48  1  0.76579000  0.11938000  0.38650000  1.0
  Br  Br49  1  0.26580000  0.38062000  0.11349000  1.0
  N  N50  1  0.82235000  0.47617000  0.41783000  1.0
  N  N51  1  0.32234000  0.02383000  0.08217000  1.0
  N  N52  1  0.17765000  0.52385000  0.58217000  1.0
  N  N53  1  0.67765000  0.97616000  0.91783000  1.0
  N  N54  1  0.56367000  0.26508000  0.59378000  1.0
  N  N55  1  0.06365000  0.23493000  0.90622000  1.0
  N  N56  1  0.43634000  0.73493000  0.40622000  1.0
  N  N57  1  0.93634000  0.76507000  0.09378000  1.0
