# generated using pymatgen
data_Al2H8C11O10
_symmetry_space_group_name_H-M   'P 1'
_cell_length_a   6.65523000
_cell_length_b   11.28180000
_cell_length_c   16.18800000
_cell_angle_alpha   101.11460000
_cell_angle_beta   89.99870000
_cell_angle_gamma   89.99910000
_symmetry_Int_Tables_number   1
_chemical_formula_structural   Al2H8C11O10
_chemical_formula_sum   'Al4 H16 C22 O20'
_cell_volume   1192.64580955
_cell_formula_units_Z   2
loop_
 _symmetry_equiv_pos_site_id
 _symmetry_equiv_pos_as_xyz
  1  'x, y, z'
loop_
 _atom_site_type_symbol
 _atom_site_label
 _atom_site_symmetry_multiplicity
 _atom_site_fract_x
 _atom_site_fract_y
 _atom_site_fract_z
 _atom_site_occupancy
  Al  Al0  1  0.00494000  0.50407000  0.50210000  1.0
  Al  Al1  1  0.99502000  0.00407000  0.00211000  1.0
  Al  Al2  1  0.50506000  0.50044000  0.50060000  1.0
  Al  Al3  1  0.49491000  0.00045000  0.00060000  1.0
  H  H4  1  0.97932000  0.33988000  0.70407000  1.0
  H  H5  1  0.02063000  0.83985000  0.20406000  1.0
  H  H6  1  0.95346000  0.20272000  0.80604000  1.0
  H  H7  1  0.04646000  0.70269000  0.30602000  1.0
  H  H8  1  0.41171000  0.23571000  0.82330000  1.0
  H  H9  1  0.58821000  0.73569000  0.32328000  1.0
  H  H10  1  0.50115000  0.17915000  0.59182000  1.0
  H  H11  1  0.57907000  0.26639000  0.68799000  1.0
  H  H12  1  0.43301000  0.13419000  0.68853000  1.0
  H  H13  1  0.49879000  0.67915000  0.09181000  1.0
  H  H14  1  0.56692000  0.63418000  0.18852000  1.0
  H  H15  1  0.42090000  0.76640000  0.18797000  1.0
  H  H16  1  0.76067000  0.35335000  0.44630000  1.0
  H  H17  1  0.23931000  0.85334000  0.94630000  1.0
  H  H18  1  0.25903000  0.65368000  0.49157000  1.0
  H  H19  1  0.74095000  0.15368000  0.99158000  1.0
  C  C20  1  0.75872000  0.64161000  0.40495000  1.0
  C  C21  1  0.24124000  0.14162000  0.90497000  1.0
  C  C22  1  0.74682000  0.63888000  0.63431000  1.0
  C  C23  1  0.25312000  0.13888000  0.13431000  1.0
  C  C24  1  0.24787000  0.36200000  0.59484000  1.0
  C  C25  1  0.75208000  0.86199000  0.09482000  1.0
  C  C26  1  0.25928000  0.35894000  0.36828000  1.0
  C  C27  1  0.74072000  0.85892000  0.86827000  1.0
  C  C28  1  0.25255000  0.28061000  0.28622000  1.0
  C  C29  1  0.74746000  0.78059000  0.78623000  1.0
  C  C30  1  0.25127000  0.21644000  0.21680000  1.0
  C  C31  1  0.74871000  0.71644000  0.71680000  1.0
  C  C32  1  0.11186000  0.28807000  0.71562000  1.0
  C  C33  1  0.88811000  0.78804000  0.21559000  1.0
  C  C34  1  0.26497000  0.28445000  0.65962000  1.0
  C  C35  1  0.73498000  0.78443000  0.15961000  1.0
  C  C36  1  0.10257000  0.22886000  0.78719000  1.0
  C  C37  1  0.89736000  0.72885000  0.28718000  1.0
  C  C38  1  0.26001000  0.20674000  0.83480000  1.0
  C  C39  1  0.73992000  0.70674000  0.33480000  1.0
  C  C40  1  0.45349000  0.21132000  0.65719000  1.0
  C  C41  1  0.54646000  0.71131000  0.15718000  1.0
  O  O42  1  0.57790000  0.59407000  0.60858000  1.0
  O  O43  1  0.42209000  0.09407000  0.10858000  1.0
  O  O44  1  0.93218000  0.60618000  0.42383000  1.0
  O  O45  1  0.06778000  0.10620000  0.92384000  1.0
  O  O46  1  0.09330000  0.37910000  0.40754000  1.0
  O  O47  1  0.90672000  0.87909000  0.90754000  1.0
  O  O48  1  0.91343000  0.62344000  0.59546000  1.0
  O  O49  1  0.08652000  0.12344000  0.09547000  1.0
  O  O50  1  0.07815000  0.40713000  0.58185000  1.0
  O  O51  1  0.92180000  0.90711000  0.08184000  1.0
  O  O52  1  0.59381000  0.62425000  0.44195000  1.0
  O  O53  1  0.40613000  0.12425000  0.94195000  1.0
  O  O54  1  0.75618000  0.42737000  0.48828000  1.0
  O  O55  1  0.24381000  0.92738000  0.98827000  1.0
  O  O56  1  0.41065000  0.37825000  0.55680000  1.0
  O  O57  1  0.58933000  0.87823000  0.05678000  1.0
  O  O58  1  0.43183000  0.39976000  0.39293000  1.0
  O  O59  1  0.56816000  0.89975000  0.89293000  1.0
  O  O60  1  0.25606000  0.57624000  0.50907000  1.0
  O  O61  1  0.74389000  0.07623000  0.00907000  1.0
