# generated using pymatgen
data_CoH12C4N2(ClO2)2
_symmetry_space_group_name_H-M   'P 1'
_cell_length_a   7.73976000
_cell_length_b   8.04741000
_cell_length_c   8.21951000
_cell_angle_alpha   89.99990000
_cell_angle_beta   73.79400000
_cell_angle_gamma   89.99980000
_symmetry_Int_Tables_number   1
_chemical_formula_structural   CoH12C4N2(ClO2)2
_chemical_formula_sum   'Co2 H24 C8 N4 Cl4 O8'
_cell_volume   491.60966014
_cell_formula_units_Z   2
loop_
 _symmetry_equiv_pos_site_id
 _symmetry_equiv_pos_as_xyz
  1  'x, y, z'
loop_
 _atom_site_type_symbol
 _atom_site_label
 _atom_site_symmetry_multiplicity
 _atom_site_fract_x
 _atom_site_fract_y
 _atom_site_fract_z
 _atom_site_occupancy
  Co  Co0  1  0.00000000  0.00000000  0.00000000  1.0
  Co  Co1  1  0.00000000  0.50000000  0.50000000  1.0
  H  H2  1  0.11267000  0.93994000  0.66736000  1.0
  H  H3  1  0.88733000  0.43995000  0.83264000  1.0
  H  H4  1  0.88733000  0.06006000  0.33264000  1.0
  H  H5  1  0.11267000  0.56006000  0.16736000  1.0
  H  H6  1  0.02271000  0.11609000  0.68867000  1.0
  H  H7  1  0.97729000  0.61609000  0.81132000  1.0
  H  H8  1  0.97730000  0.88391000  0.31132000  1.0
  H  H9  1  0.02271000  0.38391000  0.18867000  1.0
  H  H10  1  0.63111000  0.11445000  0.86379000  1.0
  H  H11  1  0.36889000  0.61445000  0.63622000  1.0
  H  H12  1  0.36889000  0.88555000  0.13621000  1.0
  H  H13  1  0.63111000  0.38555000  0.36378000  1.0
  H  H14  1  0.50650000  0.32467000  0.77330000  1.0
  H  H15  1  0.49350000  0.82467000  0.72671000  1.0
  H  H16  1  0.49350000  0.67533000  0.22671000  1.0
  H  H17  1  0.50650000  0.17533000  0.27329000  1.0
  H  H18  1  0.34310000  0.41740000  0.95139000  1.0
  H  H19  1  0.65690000  0.91739000  0.54861000  1.0
  H  H20  1  0.65691000  0.58260000  0.04861000  1.0
  H  H21  1  0.34309000  0.08261000  0.45139000  1.0
  H  H22  1  0.26760000  0.31247000  0.79270000  1.0
  H  H23  1  0.73240000  0.81247000  0.70731000  1.0
  H  H24  1  0.73240000  0.68753000  0.20731000  1.0
  H  H25  1  0.26760000  0.18753000  0.29269000  1.0
  C  C26  1  0.50498000  0.07114000  0.94889000  1.0
  C  C27  1  0.49502000  0.57115000  0.55111000  1.0
  C  C28  1  0.49502000  0.92885000  0.05111000  1.0
  C  C29  1  0.50498000  0.42886000  0.44888000  1.0
  C  C30  1  0.37110000  0.31420000  0.86048000  1.0
  C  C31  1  0.62891000  0.81420000  0.63953000  1.0
  C  C32  1  0.62891000  0.68580000  0.13953000  1.0
  C  C33  1  0.37109000  0.18580000  0.36047000  1.0
  N  N34  1  0.35971000  0.15957000  0.95540000  1.0
  N  N35  1  0.64029000  0.65956000  0.54460000  1.0
  N  N36  1  0.64029000  0.84043000  0.04460000  1.0
  N  N37  1  0.35971000  0.34043000  0.45540000  1.0
  Cl  Cl38  1  0.16513000  0.73431000  0.94749000  1.0
  Cl  Cl39  1  0.83487000  0.23431000  0.55250000  1.0
  Cl  Cl40  1  0.83487000  0.26570000  0.05250000  1.0
  Cl  Cl41  1  0.16513000  0.76570000  0.44750000  1.0
  O  O42  1  0.09928000  0.04271000  0.73612000  1.0
  O  O43  1  0.90072000  0.54272000  0.76388000  1.0
  O  O44  1  0.90072000  0.95729000  0.26388000  1.0
  O  O45  1  0.09928000  0.45729000  0.23612000  1.0
  O  O46  1  0.20164000  0.12207000  0.05752000  1.0
  O  O47  1  0.79836000  0.62207000  0.44248000  1.0
  O  O48  1  0.79836000  0.87793000  0.94249000  1.0
  O  O49  1  0.20164000  0.37793000  0.55752000  1.0
