# generated using pymatgen
data_CoH10C8S2(N2O3)2
_symmetry_space_group_name_H-M   'P 1'
_cell_length_a   6.85103000
_cell_length_b   6.92813000
_cell_length_c   7.34348000
_cell_angle_alpha   106.32100000
_cell_angle_beta   93.49660000
_cell_angle_gamma   63.97900000
_symmetry_Int_Tables_number   1
_chemical_formula_structural   CoH10C8S2(N2O3)2
_chemical_formula_sum   'Co1 H10 C8 S2 N4 O6'
_cell_volume   299.81751010
_cell_formula_units_Z   1
loop_
 _symmetry_equiv_pos_site_id
 _symmetry_equiv_pos_as_xyz
  1  'x, y, z'
loop_
 _atom_site_type_symbol
 _atom_site_label
 _atom_site_symmetry_multiplicity
 _atom_site_fract_x
 _atom_site_fract_y
 _atom_site_fract_z
 _atom_site_occupancy
  Co  Co0  1  0.00000000  0.00000000  0.00000000  1.0
  H  H1  1  0.97023000  0.92480000  0.60008000  1.0
  H  H2  1  0.02977000  0.07521000  0.39992000  1.0
  H  H3  1  0.61834000  0.57270000  0.60763000  1.0
  H  H4  1  0.38165000  0.42730000  0.39237000  1.0
  H  H5  1  0.59923000  0.80823000  0.13204000  1.0
  H  H6  1  0.40077000  0.19177000  0.86796000  1.0
  H  H7  1  0.32538000  0.69488000  0.12167000  1.0
  H  H8  1  0.67462000  0.30512000  0.87832000  1.0
  H  H9  1  0.36067000  0.64636000  0.89528000  1.0
  H  H10  1  0.63933000  0.35364000  0.10471000  1.0
  C  C11  1  0.80004000  0.75289000  0.62872000  1.0
  C  C12  1  0.19996000  0.24712000  0.37127000  1.0
  C  C13  1  0.59674000  0.67227000  0.36148000  1.0
  C  C14  1  0.40326000  0.32773000  0.63852000  1.0
  C  C15  1  0.65579000  0.79217000  0.27050000  1.0
  C  C16  1  0.34420000  0.20782000  0.72950000  1.0
  C  C17  1  0.79652000  0.88400000  0.35407000  1.0
  C  C18  1  0.20348000  0.11600000  0.64593000  1.0
  S  S19  1  0.88134000  0.73583000  0.84899000  1.0
  S  S20  1  0.11866000  0.26417000  0.15102000  1.0
  N  N21  1  0.86187000  0.85887000  0.53274000  1.0
  N  N22  1  0.13813000  0.14113000  0.46726000  1.0
  N  N23  1  0.67141000  0.65660000  0.53960000  1.0
  N  N24  1  0.32859000  0.34340000  0.46041000  1.0
  O  O25  1  0.47654000  0.57189000  0.29050000  1.0
  O  O26  1  0.52346000  0.42811000  0.70950000  1.0
  O  O27  1  0.86959000  0.99003000  0.28318000  1.0
  O  O28  1  0.13042000  0.00997000  0.71683000  1.0
  O  O29  1  0.28591000  0.76534000  0.01497000  1.0
  O  O30  1  0.71410000  0.23466000  0.98503000  1.0
