# generated using pymatgen
data_NbNiH8C8N4OF5
_symmetry_space_group_name_H-M   'P 1'
_cell_length_a   9.76985000
_cell_length_b   9.76986000
_cell_length_c   10.50078125
_cell_angle_alpha   117.72326397
_cell_angle_beta   117.72280533
_cell_angle_gamma   89.99980000
_symmetry_Int_Tables_number   1
_chemical_formula_structural   NbNiH8C8N4OF5
_chemical_formula_sum   'Nb2 Ni2 H16 C16 N8 O2 F10'
_cell_volume   754.84804551
_cell_formula_units_Z   2
loop_
 _symmetry_equiv_pos_site_id
 _symmetry_equiv_pos_as_xyz
  1  'x, y, z'
loop_
 _atom_site_type_symbol
 _atom_site_label
 _atom_site_symmetry_multiplicity
 _atom_site_fract_x
 _atom_site_fract_y
 _atom_site_fract_z
 _atom_site_occupancy
  Nb  Nb0  1  0.00000000  0.00000000  0.00000000  1.0
  Nb  Nb1  1  0.50000000  0.50000000  0.00000000  1.0
  Ni  Ni2  1  0.23928000  0.23927000  0.47855000  1.0
  Ni  Ni3  1  0.76072000  0.76073000  0.52145000  1.0
  H  H4  1  0.90146000  0.04365000  0.26448000  1.0
  H  H5  1  0.36302000  0.22083000  0.26448000  1.0
  H  H6  1  0.22083000  0.90146000  0.26448000  1.0
  H  H7  1  0.04365000  0.36302000  0.26448000  1.0
  H  H8  1  0.59954000  0.28246000  0.72176000  1.0
  H  H9  1  0.12221000  0.43931000  0.72176000  1.0
  H  H10  1  0.28245000  0.12222000  0.72176000  1.0
  H  H11  1  0.43931000  0.59954000  0.72176000  1.0
  H  H12  1  0.09854000  0.95635000  0.73552000  1.0
  H  H13  1  0.63698000  0.77917000  0.73552000  1.0
  H  H14  1  0.77917000  0.09854000  0.73552000  1.0
  H  H15  1  0.95635000  0.63698000  0.73552000  1.0
  H  H16  1  0.40046000  0.71754000  0.27824000  1.0
  H  H17  1  0.87779000  0.56069000  0.27824000  1.0
  H  H18  1  0.71755000  0.87778000  0.27824000  1.0
  H  H19  1  0.56070000  0.40046000  0.27824000  1.0
  C  C20  1  0.94455000  0.02600000  0.37086000  1.0
  C  C21  1  0.42631000  0.34486000  0.37086000  1.0
  C  C22  1  0.34486000  0.94455000  0.37086000  1.0
  C  C23  1  0.02600000  0.42631000  0.37086000  1.0
  C  C24  1  0.55442000  0.15591000  0.62203000  1.0
  C  C25  1  0.06760000  0.46613000  0.62203000  1.0
  C  C26  1  0.15590000  0.06760000  0.62203000  1.0
  C  C27  1  0.46613000  0.55443000  0.62203000  1.0
  C  C28  1  0.05544000  0.97400000  0.62913000  1.0
  C  C29  1  0.57369000  0.65513000  0.62914000  1.0
  C  C30  1  0.65514000  0.05545000  0.62914000  1.0
  C  C31  1  0.97400000  0.57369000  0.62914000  1.0
  C  C32  1  0.44557000  0.84410000  0.37797000  1.0
  C  C33  1  0.93240000  0.53387000  0.37797000  1.0
  C  C34  1  0.84410000  0.93240000  0.37797000  1.0
  C  C35  1  0.53388000  0.44557000  0.37797000  1.0
  N  N36  1  0.10097000  0.09417000  0.49417000  1.0
  N  N37  1  0.39320000  0.40001000  0.49417000  1.0
  N  N38  1  0.40000000  0.10097000  0.49417000  1.0
  N  N39  1  0.09416000  0.39321000  0.49417000  1.0
  N  N40  1  0.89904000  0.90584000  0.50583000  1.0
  N  N41  1  0.60680000  0.59999000  0.50583000  1.0
  N  N42  1  0.60000000  0.89903000  0.50583000  1.0
  N  N43  1  0.90584000  0.60679000  0.50583000  1.0
  O  O44  1  0.11910000  0.11910000  0.23820000  1.0
  O  O45  1  0.88091000  0.88091000  0.76181000  1.0
  F  F46  1  0.37782000  0.37782000  0.75564000  1.0
  F  F47  1  0.62218000  0.62218000  0.24436000  1.0
  F  F48  1  0.79775000  0.97522000  0.00000000  1.0
  F  F49  1  0.20225000  0.02478000  0.00000000  1.0
  F  F50  1  0.02478000  0.79775000  1.00000000  1.0
  F  F51  1  0.97521000  0.20226000  0.00000000  1.0
  F  F52  1  0.69488000  0.48898000  1.00000000  1.0
  F  F53  1  0.30512000  0.51102000  0.00000000  1.0
  F  F54  1  0.48898000  0.30512000  0.00000000  1.0
  F  F55  1  0.51101000  0.69488000  0.99999000  1.0
