# generated using pymatgen
data_ZnH14C15N3O4
_symmetry_space_group_name_H-M   'P 1'
_cell_length_a   10.34480000
_cell_length_b   14.72810000
_cell_length_c   14.97530000
_cell_angle_alpha   115.38700000
_cell_angle_beta   90.00070000
_cell_angle_gamma   110.55600000
_symmetry_Int_Tables_number   1
_chemical_formula_structural   ZnH14C15N3O4
_chemical_formula_sum   'Zn4 H56 C60 N12 O16'
_cell_volume   1899.23854228
_cell_formula_units_Z   4
loop_
 _symmetry_equiv_pos_site_id
 _symmetry_equiv_pos_as_xyz
  1  'x, y, z'
loop_
 _atom_site_type_symbol
 _atom_site_label
 _atom_site_symmetry_multiplicity
 _atom_site_fract_x
 _atom_site_fract_y
 _atom_site_fract_z
 _atom_site_occupancy
  Zn  Zn0  1  0.34709000  0.41926000  0.96773000  1.0
  Zn  Zn1  1  0.92780000  0.58075000  0.53227000  1.0
  Zn  Zn2  1  0.65290000  0.58074000  0.03226000  1.0
  Zn  Zn3  1  0.07221000  0.41925000  0.46773000  1.0
  H  H4  1  0.78162000  0.26490000  0.78757000  1.0
  H  H5  1  0.71209000  0.29951000  0.89953000  1.0
  H  H6  1  0.55076000  0.84784000  0.01013000  1.0
  H  H7  1  0.13626000  0.36043000  0.10374000  1.0
  H  H8  1  0.84732000  0.28506000  0.04691000  1.0
  H  H9  1  0.12452000  0.41283000  0.80216000  1.0
  H  H10  1  0.96296000  0.29971000  0.73621000  1.0
  H  H11  1  0.12025000  0.27871000  0.74832000  1.0
  H  H12  1  0.58488000  0.10418000  0.78473000  1.0
  H  H13  1  0.67794000  0.11893000  0.89179000  1.0
  H  H14  1  0.26719000  0.54537000  0.76860000  1.0
  H  H15  1  0.25797000  0.84904000  0.80533000  1.0
  H  H16  1  0.76232000  0.05833000  0.68367000  1.0
  H  H17  1  0.87749000  0.09647000  0.79193000  1.0
  H  H18  1  0.51683000  0.73516000  0.71257000  1.0
  H  H19  1  0.41267000  0.70052000  0.60062000  1.0
  H  H20  1  0.70324000  0.15211000  0.48996000  1.0
  H  H21  1  0.77563000  0.63954000  0.39625000  1.0
  H  H22  1  0.56213000  0.71500000  0.45321000  1.0
  H  H23  1  0.71193000  0.58739000  0.69796000  1.0
  H  H24  1  0.66353000  0.70054000  0.76392000  1.0
  H  H25  1  0.84179000  0.72150000  0.75175000  1.0
  H  H26  1  0.48065000  0.89587000  0.71548000  1.0
  H  H27  1  0.55883000  0.88113000  0.60835000  1.0
  H  H28  1  0.72176000  0.45459000  0.73127000  1.0
  H  H29  1  0.40900000  0.15095000  0.69459000  1.0
  H  H30  1  0.70404000  0.94173000  0.81641000  1.0
  H  H31  1  0.78094000  0.90352000  0.70809000  1.0
  H  H32  1  0.21838000  0.73510000  0.21244000  1.0
  H  H33  1  0.28790000  0.70049000  0.10047000  1.0
  H  H34  1  0.44922000  0.15214000  0.98987000  1.0
  H  H35  1  0.86374000  0.63957000  0.89626000  1.0
  H  H36  1  0.15268000  0.71495000  0.95310000  1.0
  H  H37  1  0.87547000  0.58717000  0.19785000  1.0
  H  H38  1  0.03704000  0.70029000  0.26379000  1.0
  H  H39  1  0.87975000  0.72129000  0.25168000  1.0
  H  H40  1  0.41512000  0.89582000  0.21527000  1.0
  H  H41  1  0.32207000  0.88107000  0.10821000  1.0
  H  H42  1  0.73280000  0.45463000  0.23140000  1.0
  H  H43  1  0.74204000  0.15096000  0.19467000  1.0
  H  H44  1  0.23769000  0.94167000  0.31633000  1.0
  H  H45  1  0.12252000  0.90354000  0.20808000  1.0
  H  H46  1  0.48317000  0.26484000  0.28743000  1.0
  H  H47  1  0.58734000  0.29949000  0.39938000  1.0
  H  H48  1  0.29677000  0.84789000  0.51004000  1.0
  H  H49  1  0.22437000  0.36046000  0.60375000  1.0
  H  H50  1  0.43788000  0.28501000  0.54679000  1.0
  H  H51  1  0.28808000  0.41262000  0.30204000  1.0
  H  H52  1  0.33648000  0.29947000  0.23608000  1.0
  H  H53  1  0.15822000  0.27851000  0.24826000  1.0
  H  H54  1  0.51936000  0.10413000  0.28452000  1.0
  H  H55  1  0.44118000  0.11888000  0.39165000  1.0
  H  H56  1  0.27824000  0.54541000  0.26872000  1.0
  H  H57  1  0.59099000  0.84905000  0.30541000  1.0
  H  H58  1  0.29597000  0.05827000  0.18359000  1.0
  H  H59  1  0.21908000  0.09649000  0.29191000  1.0
  C  C60  1  0.41062000  0.68990000  0.89563000  1.0
  C  C61  1  0.76947000  0.25107000  0.85394000  1.0
  C  C62  1  0.46604000  0.80346000  0.94561000  1.0
  C  C63  1  0.40975000  0.86067000  0.91313000  1.0
  C  C64  1  0.45647000  0.62556000  0.93476000  1.0
  C  C65  1  0.07491000  0.34144000  0.03485000  1.0
  C  C66  1  0.93276000  0.30452000  0.00785000  1.0
  C  C67  1  0.06067000  0.32865000  0.78681000  1.0
  C  C68  1  0.03619000  0.32519000  0.88338000  1.0
  C  C69  1  0.69119000  0.12968000  0.82351000  1.0
  C  C70  1  0.30633000  0.63387000  0.80980000  1.0
  C  C71  1  0.25256000  0.69036000  0.77585000  1.0
  C  C72  1  0.30164000  0.80399000  0.82930000  1.0
  C  C73  1  0.14707000  0.62762000  0.68011000  1.0
  C  C74  1  0.76575000  0.05885000  0.75757000  1.0
  C  C75  1  0.72082000  0.31005000  0.60435000  1.0
  C  C76  1  0.51846000  0.74901000  0.64621000  1.0
  C  C77  1  0.66283000  0.19650000  0.55443000  1.0
  C  C78  1  0.54927000  0.13933000  0.58689000  1.0
  C  C79  1  0.83101000  0.37440000  0.56523000  1.0
  C  C80  1  0.73337000  0.65861000  0.46518000  1.0
  C  C81  1  0.62821000  0.69559000  0.49225000  1.0
  C  C82  1  0.73226000  0.67158000  0.71328000  1.0
  C  C83  1  0.71115000  0.67500000  0.61671000  1.0
  C  C84  1  0.56144000  0.87040000  0.67664000  1.0
  C  C85  1  0.67244000  0.36610000  0.69012000  1.0
  C  C86  1  0.56219000  0.30963000  0.72408000  1.0
  C  C87  1  0.49774000  0.19602000  0.67066000  1.0
  C  C88  1  0.51937000  0.37228000  0.81983000  1.0
  C  C89  1  0.70688000  0.94120000  0.74250000  1.0
  C  C90  1  0.58936000  0.31009000  0.10437000  1.0
  C  C91  1  0.23053000  0.74893000  0.14606000  1.0
  C  C92  1  0.53394000  0.19653000  0.05439000  1.0
  C  C93  1  0.59024000  0.13932000  0.08687000  1.0
  C  C94  1  0.54347000  0.37441000  0.06524000  1.0
  C  C95  1  0.92509000  0.65856000  0.96515000  1.0
  C  C96  1  0.06723000  0.69549000  0.99215000  1.0
  C  C97  1  0.93932000  0.67135000  0.21319000  1.0
  C  C98  1  0.96380000  0.67481000  0.11662000  1.0
  C  C99  1  0.30881000  0.87033000  0.17649000  1.0
  C  C100  1  0.69366000  0.36613000  0.19019000  1.0
  C  C101  1  0.74744000  0.30964000  0.22414000  1.0
  C  C102  1  0.69836000  0.19601000  0.17070000  1.0
  C  C103  1  0.85295000  0.37237000  0.31988000  1.0
  C  C104  1  0.23425000  0.94116000  0.24243000  1.0
  C  C105  1  0.27920000  0.68995000  0.39566000  1.0
  C  C106  1  0.48155000  0.25100000  0.35379000  1.0
  C  C107  1  0.33718000  0.80350000  0.44557000  1.0
  C  C108  1  0.45073000  0.86067000  0.41310000  1.0
  C  C109  1  0.16900000  0.62560000  0.43476000  1.0
  C  C110  1  0.26664000  0.34139000  0.53482000  1.0
  C  C111  1  0.37180000  0.30441000  0.50776000  1.0
  C  C112  1  0.26775000  0.32843000  0.28672000  1.0
  C  C113  1  0.28886000  0.32501000  0.38329000  1.0
  C  C114  1  0.43857000  0.12960000  0.32336000  1.0
  C  C115  1  0.32757000  0.63391000  0.30989000  1.0
  C  C116  1  0.43780000  0.69037000  0.27591000  1.0
  C  C117  1  0.50226000  0.80398000  0.32934000  1.0
  C  C118  1  0.48060000  0.62770000  0.18016000  1.0
  C  C119  1  0.29313000  0.05881000  0.25750000  1.0
  N  N120  1  0.90950000  0.29487000  0.91248000  1.0
  N  N121  1  0.45644000  0.97554000  0.95935000  1.0
  N  N122  1  0.13796000  0.35402000  0.95735000  1.0
  N  N123  1  0.61474000  0.70531000  0.58765000  1.0
  N  N124  1  0.48100000  0.02447000  0.54069000  1.0
  N  N125  1  0.78394000  0.64607000  0.54267000  1.0
  N  N126  1  0.09049000  0.70513000  0.08753000  1.0
  N  N127  1  0.54356000  0.02445000  0.04065000  1.0
  N  N128  1  0.86204000  0.64598000  0.04265000  1.0
  N  N129  1  0.38528000  0.29470000  0.41235000  1.0
  N  N130  1  0.51900000  0.97552000  0.45931000  1.0
  N  N131  1  0.21607000  0.35394000  0.45733000  1.0
  O  O132  1  0.58308000  0.66578000  0.97780000  1.0
  O  O133  1  0.36022000  0.53641000  0.92198000  1.0
  O  O134  1  0.06294000  0.66903000  0.66893000  1.0
  O  O135  1  0.15399000  0.53848000  0.61796000  1.0
  O  O136  1  0.91732000  0.33413000  0.52214000  1.0
  O  O137  1  0.82399000  0.46359000  0.57806000  1.0
  O  O138  1  0.39383000  0.33091000  0.83099000  1.0
  O  O139  1  0.61543000  0.46138000  0.88206000  1.0
  O  O140  1  0.41687000  0.33418000  0.02220000  1.0
  O  O141  1  0.63971000  0.46357000  0.07800000  1.0
  O  O142  1  0.93707000  0.33096000  0.33106000  1.0
  O  O143  1  0.84603000  0.46153000  0.38203000  1.0
  O  O144  1  0.08269000  0.66586000  0.47786000  1.0
  O  O145  1  0.17603000  0.53641000  0.42193000  1.0
  O  O146  1  0.60614000  0.66906000  0.16899000  1.0
  O  O147  1  0.38453000  0.53860000  0.11794000  1.0
