# generated using pymatgen
data_Zn2H32C38N10O
_symmetry_space_group_name_H-M   'P 1'
_cell_length_a   19.96960000
_cell_length_b   20.00850000
_cell_length_c   20.72870000
_cell_angle_alpha   106.65200000
_cell_angle_beta   106.66100000
_cell_angle_gamma   113.61000000
_symmetry_Int_Tables_number   1
_chemical_formula_structural   Zn2H32C38N10O
_chemical_formula_sum   'Zn4 H64 C76 N20 O2'
_cell_volume   6465.91933549
_cell_formula_units_Z   2
loop_
 _symmetry_equiv_pos_site_id
 _symmetry_equiv_pos_as_xyz
  1  'x, y, z'
loop_
 _atom_site_type_symbol
 _atom_site_label
 _atom_site_symmetry_multiplicity
 _atom_site_fract_x
 _atom_site_fract_y
 _atom_site_fract_z
 _atom_site_occupancy
  Zn  Zn0  1  0.61083000  0.61668000  0.49802000  1.0
  Zn  Zn1  1  0.39777000  0.39641000  0.49851000  1.0
  Zn  Zn2  1  0.51493000  0.59691000  0.60110000  1.0
  Zn  Zn3  1  0.49609000  0.41788000  0.39575000  1.0
  H  H4  1  0.78316000  0.64812000  0.61462000  1.0
  H  H5  1  0.23882000  0.38241000  0.38821000  1.0
  H  H6  1  0.52165000  0.77627000  0.65440000  1.0
  H  H7  1  0.36534000  0.23756000  0.24396000  1.0
  H  H8  1  0.24101000  0.19919000  0.38192000  1.0
  H  H9  1  0.63227000  0.79330000  0.50378000  1.0
  H  H10  1  0.35843000  0.40193000  0.25409000  1.0
  H  H11  1  0.39487000  0.64670000  0.52116000  1.0
  H  H12  1  0.05905000  0.43010000  0.47346000  1.0
  H  H13  1  0.94489000  0.42885000  0.48373000  1.0
  H  H14  1  0.02268000  0.64119000  0.50590000  1.0
  H  H15  1  0.49830000  0.35219000  0.60932000  1.0
  H  H16  1  0.01740000  0.58195000  0.55520000  1.0
  H  H17  1  0.13467000  0.58370000  0.55301000  1.0
  H  H18  1  0.14387000  0.64866000  0.50939000  1.0
  H  H19  1  0.89655000  0.46222000  0.31164000  1.0
  H  H20  1  0.94567000  0.56972000  0.36110000  1.0
  H  H21  1  0.01925000  0.47979000  0.31004000  1.0
  H  H22  1  0.88953000  0.37780000  0.38393000  1.0
  H  H23  1  0.00641000  0.38670000  0.37388000  1.0
  H  H24  1  0.07058000  0.58665000  0.36642000  1.0
  H  H25  1  0.65247000  0.08565000  0.68757000  1.0
  H  H26  1  0.47837000  0.61477000  0.74793000  1.0
  H  H27  1  0.67174000  0.20848000  0.68616000  1.0
  H  H28  1  0.62831000  0.12331000  0.48293000  1.0
  H  H29  1  0.70712000  0.17926000  0.57718000  1.0
  H  H30  1  0.68976000  0.05680000  0.57816000  1.0
  H  H31  1  0.61124000  0.00099000  0.48389000  1.0
  H  H32  1  0.45551000  0.09331000  0.53148000  1.0
  H  H33  1  0.48064000  0.07281000  0.45614000  1.0
  H  H34  1  0.43788000  0.97048000  0.53174000  1.0
  H  H35  1  0.56891000  0.17485000  0.66782000  1.0
  H  H36  1  0.54898000  0.05109000  0.66706000  1.0
  H  H37  1  0.62783000  0.38079000  0.34540000  1.0
  H  H38  1  0.46345000  0.95016000  0.45654000  1.0
  H  H39  1  0.40865000  0.61203000  0.81965000  1.0
  H  H40  1  0.38004000  0.61275000  0.92887000  1.0
  H  H41  1  0.46589000  0.67393000  0.26407000  1.0
  H  H42  1  0.30220000  0.35029000  0.72713000  1.0
  H  H43  1  0.26381000  0.41556000  0.02626000  1.0
  H  H44  1  0.29516000  0.41209000  0.14959000  1.0
  H  H45  1  0.28476000  0.09629000  0.16527000  1.0
  H  H46  1  0.31300000  0.35199000  0.61347000  1.0
  H  H47  1  0.17625000  0.95866000  0.05830000  1.0
  H  H48  1  0.03318000  0.80907000  0.86348000  1.0
  H  H49  1  0.12483000  0.08016000  0.27048000  1.0
  H  H50  1  0.01775000  0.94132000  0.16366000  1.0
  H  H51  1  0.76040000  0.63352000  0.83871000  1.0
  H  H52  1  0.78547000  0.64160000  0.49410000  1.0
  H  H53  1  0.62508000  0.37416000  0.47122000  1.0
  H  H54  1  0.64841000  0.60818000  0.74433000  1.0
  H  H55  1  0.51895000  0.66666667  0.37771000  1.0
  H  H56  1  0.47538000  0.75216000  0.19820000  1.0
  H  H57  1  0.48633000  0.70412000  0.11827000  1.0
  H  H58  1  0.39700000  0.70794000  0.10404000  1.0
  H  H59  1  0.24763000  0.27668000  0.78643000  1.0
  H  H60  1  0.29366000  0.33147000  0.88736000  1.0
  H  H61  1  0.19752000  0.31388000  0.83194000  1.0
  H  H62  1  0.02927000  0.73995000  0.75084000  1.0
  H  H63  1  0.02103000  0.82801000  0.76002000  1.0
  H  H64  1  0.98207000  0.74779000  0.66776000  1.0
  H  H65  1  0.97408000  0.76599000  0.07573000  1.0
  H  H66  1  0.97093000  0.68537000  0.00635000  1.0
  H  H67  1  0.90053000  0.66005000  0.04592000  1.0
  C  C68  1  0.73836000  0.63451000  0.63590000  1.0
  C  C69  1  0.57421000  0.34131000  0.54922000  1.0
  C  C70  1  0.38358000  0.48215000  0.70629000  1.0
  C  C71  1  0.73764000  0.50912000  0.42175000  1.0
  C  C72  1  0.48633000  0.60072000  0.35745000  1.0
  C  C73  1  0.28875000  0.44577000  0.42486000  1.0
  C  C74  1  0.54987000  0.76878000  0.61735000  1.0
  C  C75  1  0.34494000  0.24089000  0.28742000  1.0
  C  C76  1  0.28111000  0.22173000  0.35737000  1.0
  C  C77  1  0.60630000  0.77707000  0.54031000  1.0
  C  C78  1  0.40410000  0.46573000  0.29439000  1.0
  C  C79  1  0.52377000  0.36519000  0.57154000  1.0
  C  C80  1  0.36851000  0.58094000  0.49306000  1.0
  C  C81  1  0.42057000  0.53746000  0.28627000  1.0
  C  C82  1  0.28574000  0.51762000  0.44530000  1.0
  C  C83  1  0.57230000  0.81376000  0.57801000  1.0
  C  C84  1  0.27536000  0.18169000  0.28628000  1.0
  C  C85  1  0.94603000  0.43257000  0.43212000  1.0
  C  C86  1  0.02239000  0.58580000  0.50476000  1.0
  C  C87  1  0.10140000  0.58960000  0.50465000  1.0
  C  C88  1  0.21492000  0.52244000  0.43257000  1.0
  C  C89  1  0.94520000  0.50993000  0.43324000  1.0
  C  C90  1  0.44136000  0.55092000  0.70543000  1.0
  C  C91  1  0.02329000  0.43659000  0.42693000  1.0
  C  C92  1  0.07957000  0.51957000  0.43058000  1.0
  C  C93  1  0.03136000  0.52684000  0.36248000  1.0
  C  C94  1  0.95048000  0.51716000  0.36207000  1.0
  C  C95  1  0.15344000  0.52308000  0.42975000  1.0
  C  C96  1  0.87067000  0.50612000  0.43252000  1.0
  C  C97  1  0.80811000  0.50601000  0.42645000  1.0
  C  C98  1  0.60786000  0.15767000  0.64805000  1.0
  C  C99  1  0.64309000  0.12834000  0.54009000  1.0
  C  C100  1  0.63171000  0.04738000  0.54069000  1.0
  C  C101  1  0.65443000  0.44534000  0.38165000  1.0
  C  C102  1  0.56461000  0.88012000  0.57542000  1.0
  C  C103  1  0.58645000  0.14966000  0.56719000  1.0
  C  C104  1  0.59541000  0.07638000  0.64836000  1.0
  C  C105  1  0.56692000  0.01192000  0.56795000  1.0
  C  C106  1  0.48465000  0.99652000  0.51361000  1.0
  C  C107  1  0.49615000  0.07774000  0.51331000  1.0
  C  C108  1  0.56064000  0.93762000  0.57001000  1.0
  C  C109  1  0.59436000  0.22487000  0.56638000  1.0
  C  C110  1  0.59181000  0.28332000  0.56206000  1.0
  C  C111  1  0.38725000  0.54233000  0.21635000  1.0
  C  C112  1  0.35790000  0.41691000  0.63740000  1.0
  C  C113  1  0.32602000  0.47023000  0.14819000  1.0
  C  C114  1  0.30756000  0.47164000  0.07925000  1.0
  C  C115  1  0.34830000  0.54542000  0.07553000  1.0
  C  C116  1  0.40186000  0.62023000  0.14331000  1.0
  C  C117  1  0.42062000  0.61678000  0.21212000  1.0
  C  C118  1  0.36253000  0.55569000  0.88348000  1.0
  C  C119  1  0.37914000  0.55488000  0.82306000  1.0
  C  C120  1  0.32448000  0.48257000  0.88899000  1.0
  C  C121  1  0.35929000  0.48110000  0.76610000  1.0
  C  C122  1  0.31814000  0.40809000  0.77053000  1.0
  C  C123  1  0.73472000  0.57859000  0.45754000  1.0
  C  C124  1  0.29968000  0.40696000  0.83037000  1.0
  C  C125  1  0.82441000  0.67614000  0.77710000  1.0
  C  C126  1  0.81970000  0.67223000  0.84235000  1.0
  C  C127  1  0.88749000  0.71604000  0.91368000  1.0
  C  C128  1  0.96513000  0.77194000  0.92193000  1.0
  C  C129  1  0.97232000  0.76749000  0.85508000  1.0
  C  C130  1  0.90467000  0.72075000  0.78414000  1.0
  C  C131  1  0.16614000  0.98589000  0.10537000  1.0
  C  C132  1  0.22594000  0.06293000  0.16500000  1.0
  C  C133  1  0.09009000  0.94168000  0.10439000  1.0
  C  C134  1  0.58829000  0.37601000  0.50060000  1.0
  C  C135  1  0.21272000  0.09924000  0.22559000  1.0
  C  C136  1  0.13717000  0.05369000  0.22476000  1.0
  C  C137  1  0.07705000  0.97616000  0.16538000  1.0
  C  C138  1  0.66984000  0.61372000  0.70246000  1.0
  C  C139  1  0.74935000  0.64049000  0.70816000  1.0
  C  C140  1  0.44238000  0.70064000  0.14118000  1.0
  C  C141  1  0.25743000  0.32776000  0.83394000  1.0
  C  C142  1  0.99054000  0.76129000  0.72560000  1.0
  C  C143  1  0.93367000  0.70385000  0.02812000  1.0
  N  N144  1  0.65959000  0.60781000  0.59242000  1.0
  N  N145  1  0.36689000  0.46546000  0.45990000  1.0
  N  N146  1  0.56869000  0.71028000  0.60365000  1.0
  N  N147  1  0.38814000  0.30978000  0.35348000  1.0
  N  N148  1  0.34844000  0.29781000  0.39718000  1.0
  N  N149  1  0.60398000  0.71567000  0.55578000  1.0
  N  N150  1  0.45684000  0.48545000  0.36380000  1.0
  N  N151  1  0.41598000  0.54842000  0.50190000  1.0
  N  N152  1  0.34564000  0.54909000  0.00831000  1.0
  N  N153  1  0.31576000  0.47967000  0.95307000  1.0
  N  N154  1  0.03392000  0.84003000  0.98693000  1.0
  N  N155  1  0.50745000  0.40824000  0.53680000  1.0
  N  N156  1  0.02250000  0.86606000  0.04428000  1.0
  N  N157  1  0.44900000  0.52851000  0.64163000  1.0
  N  N158  1  0.60656000  0.47460000  0.39328000  1.0
  N  N159  1  0.39685000  0.44492000  0.59902000  1.0
  N  N160  1  0.65670000  0.55771000  0.44048000  1.0
  N  N161  1  0.54701000  0.41491000  0.49316000  1.0
  N  N162  1  0.61761000  0.59529000  0.63349000  1.0
  N  N163  1  0.50738000  0.56847000  0.40269000  1.0
  O  O164  1  0.91020000  0.71816000  0.71898000  1.0
  O  O165  1  0.87177000  0.70132000  0.96961000  1.0
