# generated using pymatgen
data_Zr3H36C55O18
_symmetry_space_group_name_H-M   'P 1'
_cell_length_a   19.01360000
_cell_length_b   19.01618126
_cell_length_c   19.01650000
_cell_angle_alpha   90.04571528
_cell_angle_beta   60.05020000
_cell_angle_gamma   59.99307356
_symmetry_Int_Tables_number   1
_chemical_formula_structural   Zr3H36C55O18
_chemical_formula_sum   'Zr6 H72 C110 O36'
_cell_volume   4863.10681782
_cell_formula_units_Z   2
loop_
 _symmetry_equiv_pos_site_id
 _symmetry_equiv_pos_as_xyz
  1  'x, y, z'
loop_
 _atom_site_type_symbol
 _atom_site_label
 _atom_site_symmetry_multiplicity
 _atom_site_fract_x
 _atom_site_fract_y
 _atom_site_fract_z
 _atom_site_occupancy
  Zr  Zr0  1  0.81369000  0.09341000  0.59217000  1.0
  Zr  Zr1  1  0.18517000  0.90583000  0.40819000  1.0
  Zr  Zr2  1  0.99873000  0.90715000  0.59352000  1.0
  Zr  Zr3  1  0.00019000  0.09220000  0.40698000  1.0
  Zr  Zr4  1  0.99937000  0.90664000  0.40725000  1.0
  Zr  Zr5  1  0.99943000  0.09267000  0.59325000  1.0
  H  H6  1  0.85283000  0.92692000  0.57214000  1.0
  H  H7  1  0.14600000  0.92496000  0.28089000  1.0
  H  H8  1  0.14485000  0.92668000  0.57452000  1.0
  H  H9  1  0.85403000  0.21938000  0.57267000  1.0
  H  H10  1  0.43284000  0.87816000  0.39800000  1.0
  H  H11  1  0.20935000  0.12450000  0.59860000  1.0
  H  H12  1  0.56574000  0.10325000  0.62078000  1.0
  H  H13  1  0.78909000  0.90229000  0.37478000  1.0
  H  H14  1  0.61233000  0.81223000  0.42228000  1.0
  H  H15  1  0.60965000  0.81630000  0.33065000  1.0
  H  H16  1  0.34392000  0.19052000  0.57950000  1.0
  H  H17  1  0.25636000  0.18307000  0.67001000  1.0
  H  H18  1  0.38683000  0.07784000  0.68760000  1.0
  H  H19  1  0.38889000  0.16972000  0.68353000  1.0
  H  H20  1  0.65413000  0.92056000  0.30948000  1.0
  H  H21  1  0.74215000  0.83026000  0.31682000  1.0
  H  H22  1  0.43280000  0.68708000  0.17009000  1.0
  H  H23  1  0.20972000  0.66415000  0.19225000  1.0
  H  H24  1  0.56607000  0.33130000  0.81186000  1.0
  H  H25  1  0.78942000  0.30850000  0.83488000  1.0
  H  H26  1  0.61164000  0.57540000  0.96556000  1.0
  H  H27  1  0.60968000  0.57333000  0.05945000  1.0
  H  H28  1  0.34459000  0.46425000  0.07520000  1.0
  H  H29  1  0.25670000  0.55970000  0.07290000  1.0
  H  H30  1  0.38671000  0.53543000  0.92521000  1.0
  H  H31  1  0.38926000  0.44116000  0.92635000  1.0
  H  H32  1  0.65503000  0.42425000  0.03513000  1.0
  H  H33  1  0.74235000  0.42740000  0.94010000  1.0
  H  H34  1  0.01648000  0.10264000  0.81323000  1.0
  H  H35  1  0.97278000  0.90082000  0.83578000  1.0
  H  H36  1  0.01939000  0.87820000  0.16894000  1.0
  H  H37  1  0.97496000  0.12402000  0.19093000  1.0
  H  H38  1  0.10994000  0.07684000  0.92416000  1.0
  H  H39  1  0.01369000  0.16895000  0.92671000  1.0
  H  H40  1  0.88814000  0.92056000  0.03692000  1.0
  H  H41  1  0.98488000  0.83015000  0.94174000  1.0
  H  H42  1  0.10947000  0.81185000  0.96523000  1.0
  H  H43  1  0.01384000  0.81617000  0.05972000  1.0
  H  H44  1  0.88966000  0.19039000  0.07610000  1.0
  H  H45  1  0.98886000  0.18182000  0.07187000  1.0
  H  H46  1  0.98035000  0.68777000  0.39828000  1.0
  H  H47  1  0.02477000  0.66530000  0.59968000  1.0
  H  H48  1  0.98286000  0.32939000  0.61995000  1.0
  H  H49  1  0.02657000  0.30810000  0.37444000  1.0
  H  H50  1  0.89073000  0.57406000  0.42152000  1.0
  H  H51  1  0.98668000  0.57262000  0.33025000  1.0
  H  H52  1  0.11062000  0.46473000  0.58012000  1.0
  H  H53  1  0.01179000  0.55966000  0.67087000  1.0
  H  H54  1  0.89020000  0.53349000  0.68736000  1.0
  H  H55  1  0.98645000  0.43964000  0.68307000  1.0
  H  H56  1  0.11193000  0.42410000  0.30921000  1.0
  H  H57  1  0.01508000  0.42589000  0.31556000  1.0
  H  H58  1  0.43672000  0.88685000  0.17919000  1.0
  H  H59  1  0.61461000  0.81963000  0.06324000  1.0
  H  H60  1  0.20855000  0.10594000  0.17781000  1.0
  H  H61  1  0.56252000  0.11598000  0.82443000  1.0
  H  H62  1  0.38465000  0.17783000  0.93500000  1.0
  H  H63  1  0.79064000  0.88643000  0.81534000  1.0
  H  H64  1  0.20852000  0.68700000  0.62327000  1.0
  H  H65  1  0.43034000  0.66561000  0.37711000  1.0
  H  H66  1  0.79020000  0.33161000  0.39668000  1.0
  H  H67  1  0.56836000  0.30731000  0.59713000  1.0
  H  H68  1  0.34779000  0.57379000  0.68837000  1.0
  H  H69  1  0.25752000  0.57198000  0.68473000  1.0
  H  H70  1  0.61296000  0.46558000  0.31023000  1.0
  H  H71  1  0.60745000  0.56111000  0.31816000  1.0
  H  H72  1  0.65123000  0.53587000  0.42273000  1.0
  H  H73  1  0.74124000  0.44200000  0.33060000  1.0
  H  H74  1  0.38555000  0.42341000  0.57976000  1.0
  H  H75  1  0.39119000  0.42551000  0.66972000  1.0
  H  H76  1  0.79971000  0.88749000  0.91786000  1.0
  H  H77  1  0.19941000  0.21748000  0.18788000  1.0
  C  C78  1  0.76276000  0.00317000  0.49746000  1.0
  C  C79  1  0.23593000  0.76033000  0.26712000  1.0
  C  C80  1  0.23580000  0.00154000  0.49793000  1.0
  C  C81  1  0.76307000  0.23395000  0.73847000  1.0
  C  C82  1  0.76152000  0.00297000  0.73780000  1.0
  C  C83  1  0.76480000  0.23377000  0.49629000  1.0
  C  C84  1  0.23758000  0.99921000  0.26527000  1.0
  C  C85  1  0.23397000  0.76112000  0.49987000  1.0
  C  C86  1  0.00289000  0.76172000  0.49871000  1.0
  C  C87  1  0.99277000  0.00288000  0.73994000  1.0
  C  C88  1  0.00627000  0.23252000  0.49666000  1.0
  C  C89  1  0.99617000  0.00146000  0.26574000  1.0
  C  C90  1  0.59557000  0.85479000  0.38517000  1.0
  C  C91  1  0.33485000  0.14621000  0.61484000  1.0
  C  C92  1  0.40316000  0.11506000  0.64505000  1.0
  C  C93  1  0.66354000  0.88531000  0.35376000  1.0
  C  C94  1  0.41403000  0.93161000  0.44168000  1.0
  C  C95  1  0.48762000  0.93018000  0.44226000  1.0
  C  C96  1  0.28762000  0.07092000  0.55518000  1.0
  C  C97  1  0.36005000  0.07147000  0.55618000  1.0
  C  C98  1  0.58457000  0.05919000  0.56762000  1.0
  C  C99  1  0.51099000  0.05820000  0.56947000  1.0
  C  C100  1  0.71086000  0.94557000  0.42847000  1.0
  C  C101  1  0.63843000  0.94423000  0.42826000  1.0
  C  C102  1  0.31403000  0.00155000  0.49799000  1.0
  C  C103  1  0.46073000  0.00072000  0.49938000  1.0
  C  C104  1  0.68452000  0.00297000  0.49761000  1.0
  C  C105  1  0.53783000  0.00086000  0.49913000  1.0
  C  C106  1  0.59544000  0.54909000  0.01904000  1.0
  C  C107  1  0.33528000  0.51797000  0.04941000  1.0
  C  C108  1  0.40337000  0.48148000  0.95092000  1.0
  C  C109  1  0.66391000  0.45057000  0.98179000  1.0
  C  C110  1  0.41406000  0.65274000  0.14475000  1.0
  C  C111  1  0.48768000  0.58117000  0.07003000  1.0
  C  C112  1  0.28790000  0.63973000  0.15730000  1.0
  C  C113  1  0.36036000  0.56727000  0.08338000  1.0
  C  C114  1  0.58487000  0.35623000  0.84646000  1.0
  C  C115  1  0.51127000  0.43054000  0.91849000  1.0
  C  C116  1  0.71119000  0.34338000  0.85946000  1.0
  C  C117  1  0.63875000  0.41696000  0.93230000  1.0
  C  C118  1  0.31417000  0.68248000  0.18850000  1.0
  C  C119  1  0.46092000  0.53767000  0.03942000  1.0
  C  C120  1  0.68484000  0.31245000  0.81655000  1.0
  C  C121  1  0.53810000  0.46083000  0.96216000  1.0
  C  C122  1  0.02998000  0.11431000  0.95089000  1.0
  C  C123  1  0.96758000  0.88504000  0.98287000  1.0
  C  C124  1  0.02984000  0.85454000  0.01917000  1.0
  C  C125  1  0.96946000  0.14554000  0.04930000  1.0
  C  C126  1  0.00733000  0.05871000  0.84769000  1.0
  C  C127  1  0.01057000  0.05772000  0.91921000  1.0
  C  C128  1  0.98204000  0.94495000  0.86069000  1.0
  C  C129  1  0.98316000  0.94383000  0.93335000  1.0
  C  C130  1  0.00993000  0.93145000  0.14385000  1.0
  C  C131  1  0.01184000  0.92992000  0.06975000  1.0
  C  C132  1  0.98483000  0.07049000  0.15631000  1.0
  C  C133  1  0.98515000  0.07097000  0.08293000  1.0
  C  C134  1  0.99340000  0.00248000  0.81791000  1.0
  C  C135  1  0.99760000  0.00050000  0.96283000  1.0
  C  C136  1  0.99656000  0.00136000  0.18733000  1.0
  C  C137  1  0.99850000  0.00037000  0.03943000  1.0
  C  C138  1  0.97039000  0.54822000  0.38472000  1.0
  C  C139  1  0.03083000  0.51787000  0.61529000  1.0
  C  C140  1  0.97011000  0.48017000  0.64478000  1.0
  C  C141  1  0.03244000  0.44966000  0.35313000  1.0
  C  C142  1  0.98989000  0.65318000  0.44202000  1.0
  C  C143  1  0.98824000  0.58085000  0.44223000  1.0
  C  C144  1  0.01498000  0.64053000  0.55595000  1.0
  C  C145  1  0.01495000  0.56734000  0.55656000  1.0
  C  C146  1  0.99214000  0.35461000  0.56682000  1.0
  C  C147  1  0.98924000  0.42921000  0.56890000  1.0
  C  C148  1  0.01742000  0.34226000  0.42777000  1.0
  C  C149  1  0.01664000  0.41587000  0.42760000  1.0
  C  C150  1  0.00303000  0.68342000  0.49869000  1.0
  C  C151  1  0.00162000  0.53717000  0.49930000  1.0
  C  C152  1  0.00589000  0.31098000  0.49675000  1.0
  C  C153  1  0.00236000  0.45975000  0.49863000  1.0
  C  C154  1  0.41658000  0.93558000  0.14940000  1.0
  C  C155  1  0.49024000  0.93496000  0.07504000  1.0
  C  C156  1  0.59343000  0.87017000  0.03549000  1.0
  C  C157  1  0.28785000  0.06166000  0.14905000  1.0
  C  C158  1  0.35859000  0.06617000  0.07690000  1.0
  C  C159  1  0.33257000  0.13147000  0.03773000  1.0
  C  C160  1  0.58259000  0.06606000  0.85305000  1.0
  C  C161  1  0.50894000  0.06532000  0.92603000  1.0
  C  C162  1  0.40581000  0.12891000  0.96437000  1.0
  C  C163  1  0.71133000  0.93696000  0.85037000  1.0
  C  C164  1  0.64060000  0.93553000  0.92557000  1.0
  C  C165  1  0.66665000  0.87034000  0.96481000  1.0
  C  C166  1  0.31633000  0.99856000  0.18597000  1.0
  C  C167  1  0.46200000  0.00104000  0.03854000  1.0
  C  C168  1  0.68281000  0.00239000  0.81583000  1.0
  C  C169  1  0.53718000  0.00055000  0.96385000  1.0
  C  C170  1  0.33629000  0.54795000  0.64597000  1.0
  C  C171  1  0.59469000  0.51903000  0.35472000  1.0
  C  C172  1  0.66251000  0.48210000  0.38543000  1.0
  C  C173  1  0.40396000  0.44942000  0.61496000  1.0
  C  C174  1  0.28670000  0.65287000  0.56977000  1.0
  C  C175  1  0.36000000  0.58091000  0.57087000  1.0
  C  C176  1  0.41226000  0.64072000  0.43053000  1.0
  C  C177  1  0.48673000  0.56798000  0.42964000  1.0
  C  C178  1  0.71202000  0.35630000  0.44073000  1.0
  C  C179  1  0.63872000  0.43074000  0.44210000  1.0
  C  C180  1  0.58643000  0.34266000  0.55416000  1.0
  C  C181  1  0.51196000  0.41627000  0.55591000  1.0
  C  C182  1  0.31234000  0.68316000  0.49999000  1.0
  C  C183  1  0.46057000  0.53777000  0.50017000  1.0
  C  C184  1  0.68637000  0.31219000  0.49668000  1.0
  C  C185  1  0.53815000  0.46068000  0.49958000  1.0
  C  C186  1  0.77162000  0.80158000  0.93390000  1.0
  C  C187  1  0.22771000  0.20568000  0.07385000  1.0
  O  O188  1  0.73378000  0.06228000  0.55805000  1.0
  O  O189  1  0.26489000  0.79186000  0.29736000  1.0
  O  O190  1  0.26469000  0.94091000  0.43890000  1.0
  O  O191  1  0.73416000  0.20377000  0.70679000  1.0
  O  O192  1  0.85141000  0.94282000  0.70789000  1.0
  O  O193  1  0.85550000  0.20359000  0.43750000  1.0
  O  O194  1  0.14769000  0.05919000  0.29505000  1.0
  O  O195  1  0.14324000  0.79303000  0.56037000  1.0
  O  O196  1  0.00160000  0.79321000  0.43955000  1.0
  O  O197  1  0.99529000  0.06138000  0.70785000  1.0
  O  O198  1  0.00367000  0.20301000  0.55772000  1.0
  O  O199  1  0.99720000  0.94113000  0.29605000  1.0
  O  O200  1  0.99132000  0.94383000  0.70964000  1.0
  O  O201  1  0.00763000  0.20082000  0.43620000  1.0
  O  O202  1  0.99638000  0.06112000  0.29665000  1.0
  O  O203  1  0.00250000  0.79292000  0.55868000  1.0
  O  O204  1  0.73206000  0.06297000  0.70778000  1.0
  O  O205  1  0.26294000  0.79165000  0.43978000  1.0
  O  O206  1  0.26703000  0.93969000  0.29580000  1.0
  O  O207  1  0.73584000  0.20270000  0.55586000  1.0
  O  O208  1  0.85373000  0.20288000  0.70774000  1.0
  O  O209  1  0.85343000  0.94338000  0.43775000  1.0
  O  O210  1  0.14527000  0.79122000  0.29806000  1.0
  O  O211  1  0.14517000  0.06137000  0.55763000  1.0
  O  O212  1  0.89543000  0.15694000  0.55195000  1.0
  O  O213  1  0.10344000  0.94735000  0.55349000  1.0
  O  O214  1  0.10489000  0.94662000  0.34327000  1.0
  O  O215  1  0.89396000  0.94817000  0.55269000  1.0
  O  O216  1  0.07611000  0.88385000  0.46228000  1.0
  O  O217  1  0.92272000  0.03839000  0.46115000  1.0
  O  O218  1  0.07718000  0.03759000  0.46154000  1.0
  O  O219  1  0.92173000  0.03872000  0.61588000  1.0
  O  O220  1  0.83441000  0.82621000  0.91137000  1.0
  O  O221  1  0.80134000  0.72761000  0.93160000  1.0
  O  O222  1  0.16479000  0.24584000  0.16127000  1.0
  O  O223  1  0.19824000  0.23334000  0.02949000  1.0
