# generated using pymatgen
data_LaH6(CO)8
_symmetry_space_group_name_H-M   'P 1'
_cell_length_a   9.08616000
_cell_length_b   9.08617000
_cell_length_c   12.89920000
_cell_angle_alpha   83.78270000
_cell_angle_beta   83.78280000
_cell_angle_gamma   86.61050000
_symmetry_Int_Tables_number   1
_chemical_formula_structural   LaH6(CO)8
_chemical_formula_sum   'La4 H24 C32 O32'
_cell_volume   1051.23605876
_cell_formula_units_Z   4
loop_
 _symmetry_equiv_pos_site_id
 _symmetry_equiv_pos_as_xyz
  1  'x, y, z'
loop_
 _atom_site_type_symbol
 _atom_site_label
 _atom_site_symmetry_multiplicity
 _atom_site_fract_x
 _atom_site_fract_y
 _atom_site_fract_z
 _atom_site_occupancy
  La  La0  1  0.19108000  0.26014000  0.22357000  1.0
  La  La1  1  0.73985000  0.80892000  0.27643000  1.0
  La  La2  1  0.80892000  0.73986000  0.77643000  1.0
  La  La3  1  0.26014000  0.19107000  0.72357000  1.0
  H  H4  1  0.17861000  0.55161000  0.97777000  1.0
  H  H5  1  0.44839000  0.82138000  0.52222000  1.0
  H  H6  1  0.82139000  0.44838000  0.02223000  1.0
  H  H7  1  0.55161000  0.17861000  0.47777000  1.0
  H  H8  1  0.37091000  0.59542000  0.96539000  1.0
  H  H9  1  0.40458000  0.62908000  0.53461000  1.0
  H  H10  1  0.62908000  0.40457000  0.03461000  1.0
  H  H11  1  0.59542000  0.37092000  0.46539000  1.0
  H  H12  1  0.21393000  0.73438000  0.09913000  1.0
  H  H13  1  0.26562000  0.78607000  0.40086000  1.0
  H  H14  1  0.78607000  0.26561000  0.90086000  1.0
  H  H15  1  0.73438000  0.21393000  0.59913000  1.0
  H  H16  1  0.35814000  0.61821000  0.15458000  1.0
  H  H17  1  0.38179000  0.64185000  0.34541000  1.0
  H  H18  1  0.64186000  0.38179000  0.84542000  1.0
  H  H19  1  0.61821000  0.35814000  0.65458000  1.0
  H  H20  1  0.32030000  0.32928000  0.98663000  1.0
  H  H21  1  0.67072000  0.67970000  0.51337000  1.0
  H  H22  1  0.67969000  0.67071000  0.01337000  1.0
  H  H23  1  0.32928000  0.32030000  0.48663000  1.0
  H  H24  1  0.08394000  0.59858000  0.23611000  1.0
  H  H25  1  0.40142000  0.91605000  0.26389000  1.0
  H  H26  1  0.91606000  0.40142000  0.76389000  1.0
  H  H27  1  0.59858000  0.08394000  0.73610000  1.0
  C  C28  1  0.08074000  0.43634000  0.45833000  1.0
  C  C29  1  0.56367000  0.91926000  0.04168000  1.0
  C  C30  1  0.91925000  0.56367000  0.54168000  1.0
  C  C31  1  0.43635000  0.08074000  0.95833000  1.0
  C  C32  1  0.97973000  0.56461000  0.43040000  1.0
  C  C33  1  0.43541000  0.02028000  0.06960000  1.0
  C  C34  1  0.02027000  0.43540000  0.56960000  1.0
  C  C35  1  0.56460000  0.97973000  0.93040000  1.0
  C  C36  1  0.02510000  0.08940000  0.03846000  1.0
  C  C37  1  0.91059000  0.97491000  0.46154000  1.0
  C  C38  1  0.97490000  0.91059000  0.96154000  1.0
  C  C39  1  0.08939000  0.02510000  0.53847000  1.0
  C  C40  1  0.98309000  0.93545000  0.07178000  1.0
  C  C41  1  0.06455000  0.01691000  0.42822000  1.0
  C  C42  1  0.01691000  0.06456000  0.92820000  1.0
  C  C43  1  0.93543000  0.98309000  0.57179000  1.0
  C  C44  1  0.80014000  0.30731000  0.26046000  1.0
  C  C45  1  0.69270000  0.19986000  0.23954000  1.0
  C  C46  1  0.19986000  0.69270000  0.73954000  1.0
  C  C47  1  0.30731000  0.80015000  0.76047000  1.0
  C  C48  1  0.68362000  0.42671000  0.25184000  1.0
  C  C49  1  0.57329000  0.31639000  0.24815000  1.0
  C  C50  1  0.31639000  0.57330000  0.74815000  1.0
  C  C51  1  0.42671000  0.68362000  0.75185000  1.0
  C  C52  1  0.28051000  0.54288000  0.01770000  1.0
  C  C53  1  0.45712000  0.71948000  0.48230000  1.0
  C  C54  1  0.71949000  0.45711000  0.98230000  1.0
  C  C55  1  0.54288000  0.28051000  0.51770000  1.0
  C  C56  1  0.25444000  0.61910000  0.11708000  1.0
  C  C57  1  0.38090000  0.74555000  0.38291000  1.0
  C  C58  1  0.74555000  0.38090000  0.88291000  1.0
  C  C59  1  0.61910000  0.25445000  0.61708000  1.0
  O  O60  1  0.17921000  0.35942000  0.40869000  1.0
  O  O61  1  0.64058000  0.82079000  0.09131000  1.0
  O  O62  1  0.82080000  0.64059000  0.59131000  1.0
  O  O63  1  0.35942000  0.17922000  0.90868000  1.0
  O  O64  1  0.95752000  0.64410000  0.34631000  1.0
  O  O65  1  0.35591000  0.04248000  0.15370000  1.0
  O  O66  1  0.04248000  0.35590000  0.65370000  1.0
  O  O67  1  0.64410000  0.95752000  0.84631000  1.0
  O  O68  1  0.05555000  0.19854000  0.08291000  1.0
  O  O69  1  0.80145000  0.94444000  0.41709000  1.0
  O  O70  1  0.94444000  0.80145000  0.91709000  1.0
  O  O71  1  0.19854000  0.05555000  0.58292000  1.0
  O  O72  1  0.96236000  0.85565000  0.15788000  1.0
  O  O73  1  0.14434000  0.03764000  0.34213000  1.0
  O  O74  1  0.03763000  0.14433000  0.84213000  1.0
  O  O75  1  0.85565000  0.96237000  0.65788000  1.0
  O  O76  1  0.93180000  0.30199000  0.28218000  1.0
  O  O77  1  0.69801000  0.06820000  0.21782000  1.0
  O  O78  1  0.06820000  0.69802000  0.71782000  1.0
  O  O79  1  0.30200000  0.93181000  0.78218000  1.0
  O  O80  1  0.67896000  0.56577000  0.24524000  1.0
  O  O81  1  0.43424000  0.32105000  0.25475000  1.0
  O  O82  1  0.32104000  0.43423000  0.75475000  1.0
  O  O83  1  0.56577000  0.67896000  0.74525000  1.0
  O  O84  1  0.32123000  0.38929000  0.04670000  1.0
  O  O85  1  0.61071000  0.67876000  0.45330000  1.0
  O  O86  1  0.67876000  0.61070000  0.95330000  1.0
  O  O87  1  0.38930000  0.32124000  0.54669000  1.0
  O  O88  1  0.14520000  0.53803000  0.18608000  1.0
  O  O89  1  0.46197000  0.85479000  0.31391000  1.0
  O  O90  1  0.85480000  0.46197000  0.81392000  1.0
  O  O91  1  0.53804000  0.14521000  0.68608000  1.0
