# generated using pymatgen
data_MnH12(CO2)4
_symmetry_space_group_name_H-M   'P 1'
_cell_length_a   5.23570000
_cell_length_b   5.34154000
_cell_length_c   7.80818000
_cell_angle_alpha   84.61210000
_cell_angle_beta   75.89860000
_cell_angle_gamma   79.70610000
_symmetry_Int_Tables_number   1
_chemical_formula_structural   MnH12(CO2)4
_chemical_formula_sum   'Mn1 H12 C4 O8'
_cell_volume   208.08939190
_cell_formula_units_Z   1
loop_
 _symmetry_equiv_pos_site_id
 _symmetry_equiv_pos_as_xyz
  1  'x, y, z'
loop_
 _atom_site_type_symbol
 _atom_site_label
 _atom_site_symmetry_multiplicity
 _atom_site_fract_x
 _atom_site_fract_y
 _atom_site_fract_z
 _atom_site_occupancy
  Mn  Mn0  1  0.00000000  0.00000000  0.00000000  1.0
  H  H1  1  0.20227000  0.45034000  0.05846000  1.0
  H  H2  1  0.79772000  0.54966000  0.94154000  1.0
  H  H3  1  0.43301000  0.25758000  0.94877000  1.0
  H  H4  1  0.56699000  0.74243000  0.05123000  1.0
  H  H5  1  0.26940000  0.84369000  0.63856000  1.0
  H  H6  1  0.73060000  0.15631000  0.36144000  1.0
  H  H7  1  0.44274000  0.00171000  0.70827000  1.0
  H  H8  1  0.55725000  0.99829000  0.29173000  1.0
  H  H9  1  0.84409000  0.56223000  0.35285000  1.0
  H  H10  1  0.15592000  0.43777000  0.64715000  1.0
  H  H11  1  0.12568000  0.32374000  0.34621000  1.0
  H  H12  1  0.87433000  0.67626000  0.65379000  1.0
  C  C13  1  0.21030000  0.69807000  0.31421000  1.0
  C  C14  1  0.78970000  0.30194000  0.68580000  1.0
  C  C15  1  0.02899000  0.50952000  0.40025000  1.0
  C  C16  1  0.97103000  0.49048000  0.59974000  1.0
  O  O17  1  0.25125000  0.72665000  0.14281000  1.0
  O  O18  1  0.74874000  0.27335000  0.85719000  1.0
  O  O19  1  0.31776000  0.81605000  0.40243000  1.0
  O  O20  1  0.68223000  0.18394000  0.59756000  1.0
  O  O21  1  0.23681000  0.28378000  0.00313000  1.0
  O  O22  1  0.76318000  0.71623000  0.99687000  1.0
  O  O23  1  0.29731000  0.89637000  0.75020000  1.0
  O  O24  1  0.70269000  0.10363000  0.24980000  1.0
