# generated using pymatgen
data_Zr3H11C24O16F3
_symmetry_space_group_name_H-M   'P 1'
_cell_length_a   14.78450000
_cell_length_b   14.78440000
_cell_length_c   20.95040000
_cell_angle_alpha   90.00230000
_cell_angle_beta   89.99700000
_cell_angle_gamma   89.95840000
_symmetry_Int_Tables_number   1
_chemical_formula_structural   Zr3H11C24O16F3
_chemical_formula_sum   'Zr12 H44 C96 O64 F12'
_cell_volume   4579.33641470
_cell_formula_units_Z   4
loop_
 _symmetry_equiv_pos_site_id
 _symmetry_equiv_pos_as_xyz
  1  'x, y, z'
loop_
 _atom_site_type_symbol
 _atom_site_label
 _atom_site_symmetry_multiplicity
 _atom_site_fract_x
 _atom_site_fract_y
 _atom_site_fract_z
 _atom_site_occupancy
  Zr  Zr0  1  0.61960000  0.38064000  0.50159000  1.0
  Zr  Zr1  1  0.38015000  0.61996000  0.49850000  1.0
  Zr  Zr2  1  0.49856000  0.50171000  0.61953000  1.0
  Zr  Zr3  1  0.50164000  0.49842000  0.38057000  1.0
  Zr  Zr4  1  0.38014000  0.38097000  0.50009000  1.0
  Zr  Zr5  1  0.61920000  0.62010000  0.49995000  1.0
  Zr  Zr6  1  0.11913000  0.12012000  0.00002000  1.0
  Zr  Zr7  1  0.88184000  0.87893000  0.99992000  1.0
  Zr  Zr8  1  0.87972000  0.11835000  0.99996000  1.0
  Zr  Zr9  1  0.12085000  0.88110000  0.00030000  1.0
  Zr  Zr10  1  0.00013000  0.00004000  0.11936000  1.0
  Zr  Zr11  1  0.00050000  0.99980000  0.88075000  1.0
  H  H12  1  0.49920000  0.31264000  0.59475000  1.0
  H  H13  1  0.31259000  0.49919000  0.40539000  1.0
  H  H14  1  0.49914000  0.68950000  0.59301000  1.0
  H  H15  1  0.68941000  0.49935000  0.40701000  1.0
  H  H16  1  0.99894000  0.18821000  0.09398000  1.0
  H  H17  1  0.00140000  0.81189000  0.09428000  1.0
  H  H18  1  0.81230000  0.99877000  0.90580000  1.0
  H  H19  1  0.18856000  0.00081000  0.90609000  1.0
  H  H20  1  0.64549000  0.08250000  0.49598000  1.0
  H  H21  1  0.35399000  0.08832000  0.49702000  1.0
  H  H22  1  0.64060000  0.91246000  0.49520000  1.0
  H  H23  1  0.91760000  0.35439000  0.50388000  1.0
  H  H24  1  0.91171000  0.64589000  0.50370000  1.0
  H  H25  1  0.08766000  0.35935000  0.50310000  1.0
  H  H26  1  0.72376000  0.71432000  0.86379000  1.0
  H  H27  1  0.87037000  0.86353000  0.72063000  1.0
  H  H28  1  0.64061000  0.63187000  0.77671000  1.0
  H  H29  1  0.28475000  0.27836000  0.13619000  1.0
  H  H30  1  0.13680000  0.12988000  0.27903000  1.0
  H  H31  1  0.36809000  0.36011000  0.22345000  1.0
  H  H32  1  0.27775000  0.28511000  0.86388000  1.0
  H  H33  1  0.13001000  0.13675000  0.72090000  1.0
  H  H34  1  0.35992000  0.36825000  0.77670000  1.0
  H  H35  1  0.71268000  0.72531000  0.13615000  1.0
  H  H36  1  0.86501000  0.86885000  0.27923000  1.0
  H  H37  1  0.63002000  0.64250000  0.22327000  1.0
  H  H38  1  0.14189000  0.86740000  0.28137000  1.0
  H  H39  1  0.28220000  0.72336000  0.13236000  1.0
  H  H40  1  0.22936000  0.77909000  0.36318000  1.0
  H  H41  1  0.86744000  0.14089000  0.71913000  1.0
  H  H42  1  0.72394000  0.28277000  0.86751000  1.0
  H  H43  1  0.77980000  0.22855000  0.63702000  1.0
  H  H44  1  0.27645000  0.71362000  0.86375000  1.0
  H  H45  1  0.13046000  0.86451000  0.72099000  1.0
  H  H46  1  0.35879000  0.63091000  0.77638000  1.0
  H  H47  1  0.71404000  0.27685000  0.13671000  1.0
  H  H48  1  0.86440000  0.12958000  0.27896000  1.0
  H  H49  1  0.63178000  0.35925000  0.22427000  1.0
  H  H50  1  0.85466000  0.41825000  0.99571000  1.0
  H  H51  1  0.14589000  0.41100000  0.99645000  1.0
  H  H52  1  0.86056000  0.58829000  0.99591000  1.0
  H  H53  1  0.41843000  0.14558000  0.00411000  1.0
  H  H54  1  0.41223000  0.85436000  0.00348000  1.0
  H  H55  1  0.58856000  0.14010000  0.00396000  1.0
  C  C56  1  0.50104000  0.19670000  0.49791000  1.0
  C  C57  1  0.19611000  0.50242000  0.50200000  1.0
  C  C58  1  0.49755000  0.80393000  0.49543000  1.0
  C  C59  1  0.80340000  0.49897000  0.50447000  1.0
  C  C60  1  0.65339000  0.35397000  0.65409000  1.0
  C  C61  1  0.65012000  0.34288000  0.34991000  1.0
  C  C62  1  0.35422000  0.65243000  0.34559000  1.0
  C  C63  1  0.34313000  0.64953000  0.65057000  1.0
  C  C64  1  0.34271000  0.35190000  0.65098000  1.0
  C  C65  1  0.65543000  0.65050000  0.65090000  1.0
  C  C66  1  0.65020000  0.65568000  0.34904000  1.0
  C  C67  1  0.35187000  0.34252000  0.34917000  1.0
  C  C68  1  0.15499000  0.14950000  0.15142000  1.0
  C  C69  1  0.84527000  0.85101000  0.15154000  1.0
  C  C70  1  0.85267000  0.84382000  0.84831000  1.0
  C  C71  1  0.14873000  0.15576000  0.84855000  1.0
  C  C72  1  0.99847000  0.30339000  0.99641000  1.0
  C  C73  1  0.30414000  0.00162000  0.00359000  1.0
  C  C74  1  0.00383000  0.69605000  0.99674000  1.0
  C  C75  1  0.69682000  0.99684000  0.00335000  1.0
  C  C76  1  0.84408000  0.14817000  0.15147000  1.0
  C  C77  1  0.85157000  0.15471000  0.84824000  1.0
  C  C78  1  0.14956000  0.84519000  0.84861000  1.0
  C  C79  1  0.15592000  0.85249000  0.15216000  1.0
  C  C80  1  0.49606000  0.90495000  0.49537000  1.0
  C  C81  1  0.50027000  0.09557000  0.49659000  1.0
  C  C82  1  0.41596000  0.95658000  0.49583000  1.0
  C  C83  1  0.58140000  0.04624000  0.49601000  1.0
  C  C84  1  0.41719000  0.05043000  0.49648000  1.0
  C  C85  1  0.57861000  0.95236000  0.49546000  1.0
  C  C86  1  0.09509000  0.50387000  0.50299000  1.0
  C  C87  1  0.90451000  0.49964000  0.50435000  1.0
  C  C88  1  0.04348000  0.58397000  0.50299000  1.0
  C  C89  1  0.95384000  0.41851000  0.50396000  1.0
  C  C90  1  0.94964000  0.58271000  0.50377000  1.0
  C  C91  1  0.04771000  0.42132000  0.50339000  1.0
  C  C92  1  0.70794000  0.70075000  0.70060000  1.0
  C  C93  1  0.80245000  0.79348000  0.79762000  1.0
  C  C94  1  0.77345000  0.76673000  0.68620000  1.0
  C  C95  1  0.73740000  0.72823000  0.81367000  1.0
  C  C96  1  0.82031000  0.81274000  0.73353000  1.0
  C  C97  1  0.69135000  0.68290000  0.76555000  1.0
  C  C98  1  0.30054000  0.29119000  0.29940000  1.0
  C  C99  1  0.20607000  0.19886000  0.20217000  1.0
  C  C100  1  0.23436000  0.22584000  0.31366000  1.0
  C  C101  1  0.27130000  0.26399000  0.18627000  1.0
  C  C102  1  0.18757000  0.18000000  0.26622000  1.0
  C  C103  1  0.31739000  0.30899000  0.23449000  1.0
  C  C104  1  0.29133000  0.30053000  0.70069000  1.0
  C  C105  1  0.19854000  0.20636000  0.79780000  1.0
  C  C106  1  0.22605000  0.23431000  0.68635000  1.0
  C  C107  1  0.26365000  0.27156000  0.81378000  1.0
  C  C108  1  0.18002000  0.18763000  0.73374000  1.0
  C  C109  1  0.30890000  0.31749000  0.76561000  1.0
  C  C110  1  0.70041000  0.70827000  0.29936000  1.0
  C  C111  1  0.79389000  0.80192000  0.20228000  1.0
  C  C112  1  0.76708000  0.77310000  0.31370000  1.0
  C  C113  1  0.72748000  0.73807000  0.18626000  1.0
  C  C114  1  0.81355000  0.81947000  0.26636000  1.0
  C  C115  1  0.68190000  0.69235000  0.23442000  1.0
  C  C116  1  0.30470000  0.70288000  0.29450000  1.0
  C  C117  1  0.20712000  0.80137000  0.20196000  1.0
  C  C118  1  0.31800000  0.68850000  0.22879000  1.0
  C  C119  1  0.19177000  0.81707000  0.26709000  1.0
  C  C120  1  0.27044000  0.73651000  0.18282000  1.0
  C  C121  1  0.24015000  0.76823000  0.31231000  1.0
  C  C122  1  0.70387000  0.30467000  0.70532000  1.0
  C  C123  1  0.80132000  0.20658000  0.79827000  1.0
  C  C124  1  0.68955000  0.31842000  0.77098000  1.0
  C  C125  1  0.81732000  0.19109000  0.73317000  1.0
  C  C126  1  0.73700000  0.27059000  0.81709000  1.0
  C  C127  1  0.76890000  0.23962000  0.68785000  1.0
  C  C128  1  0.29128000  0.70013000  0.70043000  1.0
  C  C129  1  0.19854000  0.79398000  0.79775000  1.0
  C  C130  1  0.22613000  0.76665000  0.68617000  1.0
  C  C131  1  0.26297000  0.72797000  0.81366000  1.0
  C  C132  1  0.18016000  0.81320000  0.73373000  1.0
  C  C133  1  0.30826000  0.68226000  0.76536000  1.0
  C  C134  1  0.70083000  0.29116000  0.30000000  1.0
  C  C135  1  0.79376000  0.19794000  0.20241000  1.0
  C  C136  1  0.76723000  0.22586000  0.31398000  1.0
  C  C137  1  0.72824000  0.26294000  0.18676000  1.0
  C  C138  1  0.81331000  0.17956000  0.26639000  1.0
  C  C139  1  0.68290000  0.30841000  0.23512000  1.0
  C  C140  1  0.00498000  0.59504000  0.99609000  1.0
  C  C141  1  0.99972000  0.40448000  0.99581000  1.0
  C  C142  1  0.08473000  0.54306000  0.99626000  1.0
  C  C143  1  0.91891000  0.45419000  0.99571000  1.0
  C  C144  1  0.08296000  0.44927000  0.99614000  1.0
  C  C145  1  0.92226000  0.54800000  0.99587000  1.0
  C  C146  1  0.59580000  0.99566000  0.00395000  1.0
  C  C147  1  0.40523000  0.00054000  0.00407000  1.0
  C  C148  1  0.54408000  0.91580000  0.00379000  1.0
  C  C149  1  0.45466000  0.08144000  0.00412000  1.0
  C  C150  1  0.45027000  0.91737000  0.00382000  1.0
  C  C151  1  0.54849000  0.07831000  0.00405000  1.0
  O  O152  1  0.57813000  0.23565000  0.49968000  1.0
  O  O153  1  0.23715000  0.57824000  0.50040000  1.0
  O  O154  1  0.42173000  0.76278000  0.49506000  1.0
  O  O155  1  0.76437000  0.42184000  0.50460000  1.0
  O  O156  1  0.59440000  0.41201000  0.67123000  1.0
  O  O157  1  0.59325000  0.40161000  0.32982000  1.0
  O  O158  1  0.41229000  0.59330000  0.32841000  1.0
  O  O159  1  0.40215000  0.59272000  0.67062000  1.0
  O  O160  1  0.32592000  0.33377000  0.59271000  1.0
  O  O161  1  0.67242000  0.66839000  0.59261000  1.0
  O  O162  1  0.66764000  0.67310000  0.40735000  1.0
  O  O163  1  0.33302000  0.32638000  0.40741000  1.0
  O  O164  1  0.59625000  0.59413000  0.67069000  1.0
  O  O165  1  0.59438000  0.59599000  0.32927000  1.0
  O  O166  1  0.41015000  0.39986000  0.32943000  1.0
  O  O167  1  0.40064000  0.40955000  0.67075000  1.0
  O  O168  1  0.67275000  0.33298000  0.59654000  1.0
  O  O169  1  0.32625000  0.66697000  0.59236000  1.0
  O  O170  1  0.33348000  0.67180000  0.40308000  1.0
  O  O171  1  0.66760000  0.32592000  0.40818000  1.0
  O  O172  1  0.76369000  0.57562000  0.50351000  1.0
  O  O173  1  0.42440000  0.23650000  0.49811000  1.0
  O  O174  1  0.23441000  0.42487000  0.50196000  1.0
  O  O175  1  0.57510000  0.76574000  0.49675000  1.0
  O  O176  1  0.63550000  0.49928000  0.43333000  1.0
  O  O177  1  0.49924000  0.63554000  0.56674000  1.0
  O  O178  1  0.36631000  0.49924000  0.43190000  1.0
  O  O179  1  0.49945000  0.36630000  0.56817000  1.0
  O  O180  1  0.40065000  0.50079000  0.54912000  1.0
  O  O181  1  0.50073000  0.40043000  0.45108000  1.0
  O  O182  1  0.50056000  0.59826000  0.44985000  1.0
  O  O183  1  0.59851000  0.50071000  0.55012000  1.0
  O  O184  1  0.17290000  0.16947000  0.09343000  1.0
  O  O185  1  0.82812000  0.83041000  0.09360000  1.0
  O  O186  1  0.83401000  0.82479000  0.90631000  1.0
  O  O187  1  0.16809000  0.17431000  0.90653000  1.0
  O  O188  1  0.92149000  0.26443000  0.99722000  1.0
  O  O189  1  0.26472000  0.92479000  0.00301000  1.0
  O  O190  1  0.07954000  0.73719000  0.99739000  1.0
  O  O191  1  0.73472000  0.07462000  0.00251000  1.0
  O  O192  1  0.90331000  0.09084000  0.16986000  1.0
  O  O193  1  0.90912000  0.09618000  0.82929000  1.0
  O  O194  1  0.09165000  0.90399000  0.83023000  1.0
  O  O195  1  0.09680000  0.90958000  0.17109000  1.0
  O  O196  1  0.83199000  0.17209000  0.90642000  1.0
  O  O197  1  0.16987000  0.82763000  0.90653000  1.0
  O  O198  1  0.17438000  0.83422000  0.09396000  1.0
  O  O199  1  0.82516000  0.16727000  0.09350000  1.0
  O  O200  1  0.07534000  0.26382000  0.99701000  1.0
  O  O201  1  0.73807000  0.92117000  0.00286000  1.0
  O  O202  1  0.92610000  0.73403000  0.99742000  1.0
  O  O203  1  0.26501000  0.07860000  0.00294000  1.0
  O  O204  1  0.09116000  0.09685000  0.83014000  1.0
  O  O205  1  0.09622000  0.09183000  0.16986000  1.0
  O  O206  1  0.90371000  0.90909000  0.17001000  1.0
  O  O207  1  0.90980000  0.90317000  0.82982000  1.0
  O  O208  1  0.13524000  0.00083000  0.93301000  1.0
  O  O209  1  0.86571000  0.99897000  0.93264000  1.0
  O  O210  1  0.00117000  0.86529000  0.06743000  1.0
  O  O211  1  0.99915000  0.13481000  0.06714000  1.0
  O  O212  1  0.90114000  0.99917000  0.04930000  1.0
  O  O213  1  0.09943000  0.00081000  0.04966000  1.0
  O  O214  1  0.00116000  0.90079000  0.95068000  1.0
  O  O215  1  0.99960000  0.09918000  0.95055000  1.0
  F  F216  1  0.33353000  0.91661000  0.49591000  1.0
  F  F217  1  0.08341000  0.66637000  0.50198000  1.0
  F  F218  1  0.79360000  0.78898000  0.62508000  1.0
  F  F219  1  0.21291000  0.20462000  0.37471000  1.0
  F  F220  1  0.20515000  0.21266000  0.62527000  1.0
  F  F221  1  0.78965000  0.79301000  0.37481000  1.0
  F  F222  1  0.37822000  0.62626000  0.20720000  1.0
  F  F223  1  0.62784000  0.37927000  0.79243000  1.0
  F  F224  1  0.20568000  0.78875000  0.62525000  1.0
  F  F225  1  0.78965000  0.20532000  0.37501000  1.0
  F  F226  1  0.16751000  0.58255000  0.99679000  1.0
  F  F227  1  0.58386000  0.83314000  0.00329000  1.0
