# generated using pymatgen
data_Ag2H8C13(O2F3)2
_symmetry_space_group_name_H-M   'P 1'
_cell_length_a   9.43151000
_cell_length_b   11.11950000
_cell_length_c   18.06217395
_cell_angle_alpha   83.67545957
_cell_angle_beta   74.94441502
_cell_angle_gamma   64.90660000
_symmetry_Int_Tables_number   1
_chemical_formula_structural   Ag2H8C13(O2F3)2
_chemical_formula_sum   'Ag8 H32 C52 O16 F24'
_cell_volume   1656.57863374
_cell_formula_units_Z   4
loop_
 _symmetry_equiv_pos_site_id
 _symmetry_equiv_pos_as_xyz
  1  'x, y, z'
loop_
 _atom_site_type_symbol
 _atom_site_label
 _atom_site_symmetry_multiplicity
 _atom_site_fract_x
 _atom_site_fract_y
 _atom_site_fract_z
 _atom_site_occupancy
  Ag  Ag0  1  0.35059000  0.47734000  0.21118000  1.0
  Ag  Ag1  1  0.17182000  0.47733000  0.78896000  1.0
  Ag  Ag2  1  0.31200000  0.97747000  0.28893000  1.0
  Ag  Ag3  1  0.71049000  0.97728000  0.71096000  1.0
  Ag  Ag4  1  0.15049000  0.25387000  0.26709000  1.0
  Ag  Ag5  1  0.59574000  0.25374000  0.73276000  1.0
  Ag  Ag6  1  0.16715000  0.75384000  0.23299000  1.0
  Ag  Ag7  1  0.07857000  0.75387000  0.76711000  1.0
  H  H8  1  0.25066000  0.72929000  0.07837000  1.0
  H  H9  1  0.02095000  0.72917000  0.92143000  1.0
  H  H10  1  0.07863000  0.22926000  0.42152000  1.0
  H  H11  1  0.69208000  0.22920000  0.57843000  1.0
  H  H12  1  0.98217000  0.73668000  0.08810000  1.0
  H  H13  1  0.28220000  0.73622000  0.91175000  1.0
  H  H14  1  0.81993000  0.23662000  0.41174000  1.0
  H  H15  1  0.94347000  0.23663000  0.58815000  1.0
  H  H16  1  0.17678000  0.31014000  0.09047000  1.0
  H  H17  1  0.51345000  0.30968000  0.90956000  1.0
  H  H18  1  0.01697000  0.81012000  0.40938000  1.0
  H  H19  1  0.17302000  0.81011000  0.59057000  1.0
  H  H20  1  0.44753000  0.30031000  0.08105000  1.0
  H  H21  1  0.25234000  0.30017000  0.91904000  1.0
  H  H22  1  0.27823000  0.80031000  0.41894000  1.0
  H  H23  1  0.92163000  0.80022000  0.58097000  1.0
  H  H24  1  0.56138000  0.58410000  0.05447000  1.0
  H  H25  1  0.85496000  0.58419000  0.94555000  1.0
  H  H26  1  0.36548000  0.08410000  0.44571000  1.0
  H  H27  1  0.55058000  0.08394000  0.55417000  1.0
  H  H28  1  0.63026000  0.41088000  0.04331000  1.0
  H  H29  1  0.95912000  0.41101000  0.95693000  1.0
  H  H30  1  0.42302000  0.91092000  0.45701000  1.0
  H  H31  1  0.66628000  0.91080000  0.54285000  1.0
  H  H32  1  0.88267000  0.45220000  0.08660000  1.0
  H  H33  1  0.66586000  0.45174000  0.91353000  1.0
  H  H34  1  0.71908000  0.95201000  0.41317000  1.0
  H  H35  1  0.32897000  0.95211000  0.58670000  1.0
  H  H36  1  0.81969000  0.62569000  0.07251000  1.0
  H  H37  1  0.55522000  0.62526000  0.92751000  1.0
  H  H38  1  0.64190000  0.12553000  0.42729000  1.0
  H  H39  1  0.23253000  0.12561000  0.57259000  1.0
  C  C40  1  0.37297000  0.51380000  0.07654000  1.0
  C  C41  1  0.11371000  0.51372000  0.92352000  1.0
  C  C42  1  0.19908000  0.01383000  0.42349000  1.0
  C  C43  1  0.78718000  0.01374000  0.57643000  1.0
  C  C44  1  0.23437000  0.63671000  0.08576000  1.0
  C  C45  1  0.12970000  0.63651000  0.91416000  1.0
  C  C46  1  0.06972000  0.13667000  0.41416000  1.0
  C  C47  1  0.79363000  0.13662000  0.58578000  1.0
  C  C48  1  0.08328000  0.64047000  0.08829000  1.0
  C  C49  1  0.27713000  0.64006000  0.91167000  1.0
  C  C50  1  0.92118000  0.14041000  0.41160000  1.0
  C  C51  1  0.93847000  0.14040000  0.58828000  1.0
  C  C52  1  0.06361000  0.52371000  0.08230000  1.0
  C  C53  1  0.41336000  0.52324000  0.91777000  1.0
  C  C54  1  0.89555000  0.02366000  0.41761000  1.0
  C  C55  1  0.08086000  0.02364000  0.58227000  1.0
  C  C56  1  0.19188000  0.40234000  0.08955000  1.0
  C  C57  1  0.40624000  0.40195000  0.91053000  1.0
  C  C58  1  0.03110000  0.90231000  0.41038000  1.0
  C  C59  1  0.06668000  0.90228000  0.58955000  1.0
  C  C60  1  0.34446000  0.39672000  0.08691000  1.0
  C  C61  1  0.25916000  0.39651000  0.91321000  1.0
  C  C62  1  0.18094000  0.89672000  0.41314000  1.0
  C  C63  1  0.92243000  0.89665000  0.58680000  1.0
  C  C64  1  0.53647000  0.50771000  0.03346000  1.0
  C  C65  1  0.95621000  0.50787000  0.96664000  1.0
  C  C66  1  0.31948000  0.00781000  0.46671000  1.0
  C  C67  1  0.67289000  0.00770000  0.53316000  1.0
  C  C68  1  0.92100000  0.52893000  0.05681000  1.0
  C  C69  1  0.55077000  0.52848000  0.94326000  1.0
  C  C70  1  0.72759000  0.02878000  0.44301000  1.0
  C  C71  1  0.24364000  0.02884000  0.55688000  1.0
  C  C72  1  0.98836000  0.58471000  0.31995000  1.0
  C  C73  1  0.42645000  0.58465000  0.68011000  1.0
  C  C74  1  0.05842000  0.08461000  0.18004000  1.0
  C  C75  1  0.85677000  0.08481000  0.81987000  1.0
  C  C76  1  0.84733000  0.56688000  0.38083000  1.0
  C  C77  1  0.58530000  0.56711000  0.61929000  1.0
  C  C78  1  0.97780000  0.06703000  0.11915000  1.0
  C  C79  1  0.95501000  0.06702000  0.88075000  1.0
  C  C80  1  0.72269000  0.54466000  0.34746000  1.0
  C  C81  1  0.73206000  0.54488000  0.65271000  1.0
  C  C82  1  0.82006000  0.04469000  0.15253000  1.0
  C  C83  1  0.13513000  0.04459000  0.84734000  1.0
  C  C84  1  0.64770000  0.65121000  0.28933000  1.0
  C  C85  1  0.70065000  0.65133000  0.71085000  1.0
  C  C86  1  0.68711000  0.15115000  0.21066000  1.0
  C  C87  1  0.16167000  0.15108000  0.78926000  1.0
  C  C88  1  0.50887000  0.63920000  0.26359000  1.0
  C  C89  1  0.85171000  0.63907000  0.73654000  1.0
  C  C90  1  0.52275000  0.13894000  0.23644000  1.0
  C  C91  1  0.33824000  0.13892000  0.76367000  1.0
  O  O92  1  0.10034000  0.47972000  0.28816000  1.0
  O  O93  1  0.41972000  0.47962000  0.71192000  1.0
  O  O94  1  0.13866000  0.97956000  0.21179000  1.0
  O  O95  1  0.88179000  0.97987000  0.78793000  1.0
  O  O96  1  0.97536000  0.70227000  0.31041000  1.0
  O  O97  1  0.32164000  0.70214000  0.68956000  1.0
  O  O98  1  0.03611000  0.20212000  0.18961000  1.0
  O  O99  1  0.76134000  0.20233000  0.81048000  1.0
  O  O100  1  0.51182000  0.52507000  0.26659000  1.0
  O  O101  1  0.96282000  0.52490000  0.73350000  1.0
  O  O102  1  0.52877000  0.02478000  0.23343000  1.0
  O  O103  1  0.44639000  0.02479000  0.76667000  1.0
  O  O104  1  0.41095000  0.74656000  0.24056000  1.0
  O  O105  1  0.84231000  0.74640000  0.75961000  1.0
  O  O106  1  0.40190000  0.24626000  0.25955000  1.0
  O  O107  1  0.35174000  0.24630000  0.74067000  1.0
  F  F108  1  0.76664000  0.67336000  0.42941000  1.0
  F  F109  1  0.55936000  0.67377000  0.57083000  1.0
  F  F110  1  0.94531000  0.17371000  0.07072000  1.0
  F  F111  1  0.88099000  0.17357000  0.92926000  1.0
  F  F112  1  0.91015000  0.45639000  0.42520000  1.0
  F  F113  1  0.63312000  0.45675000  0.57477000  1.0
  F  F114  1  0.08472000  0.95670000  0.07464000  1.0
  F  F115  1  0.95834000  0.95662000  0.92518000  1.0
  F  F116  1  0.59991000  0.54272000  0.40772000  1.0
  F  F117  1  0.85676000  0.54300000  0.59246000  1.0
  F  F118  1  0.75724000  0.04264000  0.09226000  1.0
  F  F119  1  0.19999000  0.04245000  0.90762000  1.0
  F  F120  1  0.79931000  0.42246000  0.31302000  1.0
  F  F121  1  0.77763000  0.42267000  0.68713000  1.0
  F  F122  1  0.86258000  0.92250000  0.18697000  1.0
  F  F123  1  0.21479000  0.92244000  0.81286000  1.0
  F  F124  1  0.76854000  0.64276000  0.22510000  1.0
  F  F125  1  0.58827000  0.64300000  0.77512000  1.0
  F  F126  1  0.74407000  0.14277000  0.27488000  1.0
  F  F127  1  0.11343000  0.14271000  0.72493000  1.0
  F  F128  1  0.59463000  0.77320000  0.32256000  1.0
  F  F129  1  0.63189000  0.77336000  0.67765000  1.0
  F  F130  1  0.66684000  0.27317000  0.17746000  1.0
  F  F131  1  0.05971000  0.27308000  0.82243000  1.0
