# generated using pymatgen
data_CaH22C20(NO2)4
_symmetry_space_group_name_H-M   'P 1'
_cell_length_a   8.95289000
_cell_length_b   10.43080000
_cell_length_c   12.98342021
_cell_angle_alpha   82.30005946
_cell_angle_beta   69.83616746
_cell_angle_gamma   89.99880000
_symmetry_Int_Tables_number   1
_chemical_formula_structural   CaH22C20(NO2)4
_chemical_formula_sum   'Ca2 H44 C40 N8 O16'
_cell_volume   1126.50392653
_cell_formula_units_Z   2
loop_
 _symmetry_equiv_pos_site_id
 _symmetry_equiv_pos_as_xyz
  1  'x, y, z'
loop_
 _atom_site_type_symbol
 _atom_site_label
 _atom_site_symmetry_multiplicity
 _atom_site_fract_x
 _atom_site_fract_y
 _atom_site_fract_z
 _atom_site_occupancy
  Ca  Ca0  1  0.45771000  0.40766000  0.09675000  1.0
  Ca  Ca1  1  0.44522000  0.90760000  0.09682000  1.0
  H  H2  1  0.49340000  0.42844000  0.34343000  1.0
  H  H3  1  0.16344000  0.92845000  0.34348000  1.0
  H  H4  1  0.37884000  0.37962000  0.86320000  1.0
  H  H5  1  0.75801000  0.87958000  0.86350000  1.0
  H  H6  1  0.49425000  0.97147000  0.82402000  1.0
  H  H7  1  0.68166000  0.47147000  0.82418000  1.0
  H  H8  1  0.39463000  0.83725000  0.38646000  1.0
  H  H9  1  0.21885000  0.33727000  0.38668000  1.0
  H  H10  1  0.31158000  0.10968000  0.56500000  1.0
  H  H11  1  0.12328000  0.60970000  0.56519000  1.0
  H  H12  1  0.27084000  0.32479000  0.63168000  1.0
  H  H13  1  0.09740000  0.82473000  0.63197000  1.0
  H  H14  1  0.51430000  0.67317000  0.66864000  1.0
  H  H15  1  0.81710000  0.17290000  0.66878000  1.0
  H  H16  1  0.55635000  0.46131000  0.59615000  1.0
  H  H17  1  0.84781000  0.96108000  0.59625000  1.0
  H  H18  1  0.74492000  0.25726000  0.92326000  1.0
  H  H19  1  0.33139000  0.75726000  0.92346000  1.0
  H  H20  1  0.20214000  0.62760000  0.20339000  1.0
  H  H21  1  0.59456000  0.12775000  0.20326000  1.0
  H  H22  1  0.93585000  0.57717000  0.45232000  1.0
  H  H23  1  0.61201000  0.07718000  0.45219000  1.0
  H  H24  1  0.82417000  0.65101000  0.37200000  1.0
  H  H25  1  0.80395000  0.15104000  0.37190000  1.0
  H  H26  1  0.02798000  0.70242000  0.33983000  1.0
  H  H27  1  0.63229000  0.20252000  0.33976000  1.0
  H  H28  1  0.80469000  0.42431000  0.27011000  1.0
  H  H29  1  0.92534000  0.92444000  0.27002000  1.0
  H  H30  1  0.82406000  0.38438000  0.40244000  1.0
  H  H31  1  0.77361000  0.88452000  0.40235000  1.0
  H  H32  1  0.96431000  0.32814000  0.28324000  1.0
  H  H33  1  0.75264000  0.82820000  0.28314000  1.0
  H  H34  1  0.95318000  0.29457000  0.11190000  1.0
  H  H35  1  0.93437000  0.79417000  0.11197000  1.0
  H  H36  1  0.13081000  0.24400000  0.01542000  1.0
  H  H37  1  0.85340000  0.74357000  0.01540000  1.0
  H  H38  1  0.99487000  0.12579000  0.11564000  1.0
  H  H39  1  0.88910000  0.62536000  0.11569000  1.0
  H  H40  1  0.95197000  0.01332000  0.95960000  1.0
  H  H41  1  0.08863000  0.51298000  0.95965000  1.0
  H  H42  1  0.09807000  0.12708000  0.86086000  1.0
  H  H43  1  0.04131000  0.62666000  0.86078000  1.0
  H  H44  1  0.90215000  0.11552000  0.85581000  1.0
  H  H45  1  0.24216000  0.61542000  0.85601000  1.0
  C  C46  1  0.43913000  0.62615000  0.28048000  1.0
  C  C47  1  0.28049000  0.12627000  0.28060000  1.0
  C  C48  1  0.46047000  0.18917000  0.92068000  1.0
  C  C49  1  0.61865000  0.68927000  0.92073000  1.0
  C  C50  1  0.45417000  0.63713000  0.38960000  1.0
  C  C51  1  0.15649000  0.13708000  0.38981000  1.0
  C  C52  1  0.42371000  0.16903000  0.82055000  1.0
  C  C53  1  0.75560000  0.66904000  0.82071000  1.0
  C  C54  1  0.44568000  0.04910000  0.78192000  1.0
  C  C55  1  0.77227000  0.54913000  0.78208000  1.0
  C  C56  1  0.42882000  0.75435000  0.43254000  1.0
  C  C57  1  0.13873000  0.25429000  0.43277000  1.0
  C  C58  1  0.49596000  0.52916000  0.45173000  1.0
  C  C59  1  0.05259000  0.02906000  0.45189000  1.0
  C  C60  1  0.36189000  0.27003000  0.76419000  1.0
  C  C61  1  0.87380000  0.76998000  0.76440000  1.0
  C  C62  1  0.40809000  0.02708000  0.68964000  1.0
  C  C63  1  0.90212000  0.52709000  0.68981000  1.0
  C  C64  1  0.34390000  0.12786000  0.63552000  1.0
  C  C65  1  0.02044000  0.62786000  0.63571000  1.0
  C  C66  1  0.44769000  0.76806000  0.53305000  1.0
  C  C67  1  0.01923000  0.26793000  0.53325000  1.0
  C  C68  1  0.32116000  0.24703000  0.67224000  1.0
  C  C69  1  0.00649000  0.74700000  0.67247000  1.0
  C  C70  1  0.49599000  0.66134000  0.59164000  1.0
  C  C71  1  0.91243000  0.16118000  0.59176000  1.0
  C  C72  1  0.52011000  0.54419000  0.55138000  1.0
  C  C73  1  0.92874000  0.04400000  0.55152000  1.0
  C  C74  1  0.79271000  0.27508000  0.98797000  1.0
  C  C75  1  0.21882000  0.77490000  0.98816000  1.0
  C  C76  1  0.13325000  0.53714000  0.21064000  1.0
  C  C77  1  0.65613000  0.03725000  0.21049000  1.0
  C  C78  1  0.94230000  0.61914000  0.36859000  1.0
  C  C79  1  0.68923000  0.11920000  0.36845000  1.0
  C  C80  1  0.89044000  0.40812000  0.31355000  1.0
  C  C81  1  0.79615000  0.90823000  0.31343000  1.0
  C  C82  1  0.00426000  0.21854000  0.06184000  1.0
  C  C83  1  0.93345000  0.71812000  0.06189000  1.0
  C  C84  1  0.97141000  0.11042000  0.91104000  1.0
  C  C85  1  0.11759000  0.61012000  0.91112000  1.0
  N  N86  1  0.43784000  0.90342000  0.65767000  1.0
  N  N87  1  0.90435000  0.40336000  0.65786000  1.0
  N  N88  1  0.41847000  0.89082000  0.56674000  1.0
  N  N89  1  0.01461000  0.39075000  0.56693000  1.0
  N  N90  1  0.92020000  0.20734000  0.98541000  1.0
  N  N91  1  0.09403000  0.70706000  0.98552000  1.0
  N  N92  1  0.99354000  0.52297000  0.29384000  1.0
  N  N93  1  0.71271000  0.02305000  0.29369000  1.0
  O  O94  1  0.44575000  0.30514000  0.94781000  1.0
  O  O95  1  0.60635000  0.80524000  0.94788000  1.0
  O  O96  1  0.46132000  0.51340000  0.24738000  1.0
  O  O97  1  0.29129000  0.01356000  0.24741000  1.0
  O  O98  1  0.50416000  0.09650000  0.97475000  1.0
  O  O99  1  0.52077000  0.59665000  0.97475000  1.0
  O  O100  1  0.51358000  0.41252000  0.41723000  1.0
  O  O101  1  0.06957000  0.91245000  0.41732000  1.0
  O  O102  1  0.40509000  0.72356000  0.22544000  1.0
  O  O103  1  0.36937000  0.22375000  0.22550000  1.0
  O  O104  1  0.33873000  0.38714000  0.79772000  1.0
  O  O105  1  0.86364000  0.88701000  0.79803000  1.0
  O  O106  1  0.72867000  0.35136000  0.05617000  1.0
  O  O107  1  0.21443000  0.85126000  0.05638000  1.0
  O  O108  1  0.18530000  0.45494000  0.14580000  1.0
  O  O109  1  0.66881000  0.95503000  0.14571000  1.0
