# generated using pymatgen
data_CuBH48C45N3Cl2
_symmetry_space_group_name_H-M   'P 1'
_cell_length_a   17.78560000
_cell_length_b   17.78560000
_cell_length_c   18.71610000
_cell_angle_alpha   61.62910000
_cell_angle_beta   61.62890000
_cell_angle_gamma   59.99790000
_symmetry_Int_Tables_number   1
_chemical_formula_structural   CuBH48C45N3Cl2
_chemical_formula_sum   'Cu4 B4 H192 C180 N12 Cl8'
_cell_volume   4286.43028783
_cell_formula_units_Z   4
loop_
 _symmetry_equiv_pos_site_id
 _symmetry_equiv_pos_as_xyz
  1  'x, y, z'
loop_
 _atom_site_type_symbol
 _atom_site_label
 _atom_site_symmetry_multiplicity
 _atom_site_fract_x
 _atom_site_fract_y
 _atom_site_fract_z
 _atom_site_occupancy
  Cu  Cu0  1  0.88796000  0.11204000  0.50000000  1.0
  Cu  Cu1  1  0.11199000  0.50001000  0.50001000  1.0
  Cu  Cu2  1  0.49999000  0.88802000  0.49998000  1.0
  Cu  Cu3  1  0.00001000  0.99999000  1.00000000  1.0
  B  B4  1  0.60299000  0.39701000  0.00000000  1.0
  B  B5  1  0.39703000  0.99999000  0.99999000  1.0
  B  B6  1  0.00001000  0.60297000  0.00000000  1.0
  B  B7  1  0.50001000  0.49999000  0.50000000  1.0
  H  H8  1  0.93441000  0.04649000  0.66266000  1.0
  H  H9  1  0.04648000  0.35644000  0.66270000  1.0
  H  H10  1  0.35642000  0.93443000  0.66267000  1.0
  H  H11  1  0.64356000  0.95353000  0.33729000  1.0
  H  H12  1  0.06557000  0.64358000  0.33733000  1.0
  H  H13  1  0.95351000  0.06559000  0.33734000  1.0
  H  H14  1  0.87199000  0.11041000  0.78137000  1.0
  H  H15  1  0.11040000  0.23625000  0.78141000  1.0
  H  H16  1  0.23627000  0.87194000  0.78142000  1.0
  H  H17  1  0.76374000  0.88961000  0.21858000  1.0
  H  H18  1  0.12806000  0.76374000  0.21858000  1.0
  H  H19  1  0.88961000  0.12801000  0.21862000  1.0
  H  H20  1  0.70372000  0.35520000  0.63736000  1.0
  H  H21  1  0.35524000  0.30364000  0.63732000  1.0
  H  H22  1  0.30369000  0.70376000  0.63736000  1.0
  H  H23  1  0.69636000  0.64476000  0.36268000  1.0
  H  H24  1  0.29624000  0.69631000  0.36264000  1.0
  H  H25  1  0.64481000  0.29627000  0.36264000  1.0
  H  H26  1  0.78328000  0.28689000  0.51971000  1.0
  H  H27  1  0.28688000  0.41010000  0.51972000  1.0
  H  H28  1  0.41012000  0.78329000  0.51974000  1.0
  H  H29  1  0.58989000  0.71312000  0.48028000  1.0
  H  H30  1  0.21672000  0.58988000  0.48026000  1.0
  H  H31  1  0.71311000  0.21671000  0.48029000  1.0
  H  H32  1  0.63217000  0.21777000  0.77894000  1.0
  H  H33  1  0.21779000  0.37109000  0.77893000  1.0
  H  H34  1  0.37114000  0.63218000  0.77906000  1.0
  H  H35  1  0.62892000  0.78220000  0.22107000  1.0
  H  H36  1  0.36782000  0.62886000  0.22094000  1.0
  H  H37  1  0.78224000  0.36783000  0.22105000  1.0
  H  H38  1  0.53312000  0.31378000  0.79883000  1.0
  H  H39  1  0.31376000  0.35434000  0.79882000  1.0
  H  H40  1  0.35434000  0.53310000  0.79894000  1.0
  H  H41  1  0.64567000  0.68624000  0.20118000  1.0
  H  H42  1  0.46690000  0.64567000  0.20105000  1.0
  H  H43  1  0.68623000  0.46688000  0.20117000  1.0
  H  H44  1  0.55677000  0.21281000  0.88422000  1.0
  H  H45  1  0.21283000  0.34611000  0.88422000  1.0
  H  H46  1  0.34612000  0.55684000  0.88434000  1.0
  H  H47  1  0.65390000  0.78717000  0.11577000  1.0
  H  H48  1  0.44316000  0.65388000  0.11565000  1.0
  H  H49  1  0.78719000  0.44322000  0.11577000  1.0
  H  H50  1  0.46010000  0.36644000  0.91157000  1.0
  H  H51  1  0.36638000  0.26199000  0.91162000  1.0
  H  H52  1  0.26197000  0.46011000  0.91153000  1.0
  H  H53  1  0.73802000  0.63362000  0.08837000  1.0
  H  H54  1  0.53989000  0.73804000  0.08847000  1.0
  H  H55  1  0.63356000  0.53990000  0.08843000  1.0
  H  H56  1  0.46814000  0.38935000  0.98947000  1.0
  H  H57  1  0.38943000  0.15308000  0.98942000  1.0
  H  H58  1  0.15310000  0.46809000  0.98942000  1.0
  H  H59  1  0.84693000  0.61058000  0.01057000  1.0
  H  H60  1  0.53191000  0.84690000  0.01058000  1.0
  H  H61  1  0.61064000  0.53186000  0.01054000  1.0
  H  H62  1  0.49382000  0.27541000  0.99918000  1.0
  H  H63  1  0.27544000  0.23148000  0.99920000  1.0
  H  H64  1  0.23161000  0.49378000  0.99918000  1.0
  H  H65  1  0.76853000  0.72456000  0.00080000  1.0
  H  H66  1  0.50622000  0.76839000  0.00081000  1.0
  H  H67  1  0.72459000  0.50618000  0.00082000  1.0
  H  H68  1  0.86731000  0.31401000  0.89285000  1.0
  H  H69  1  0.31410000  0.92574000  0.89288000  1.0
  H  H70  1  0.92577000  0.86731000  0.89287000  1.0
  H  H71  1  0.07426000  0.68589000  0.10713000  1.0
  H  H72  1  0.13269000  0.07424000  0.10713000  1.0
  H  H73  1  0.68599000  0.13269000  0.10715000  1.0
  H  H74  1  0.76768000  0.38347000  0.95150000  1.0
  H  H75  1  0.38360000  0.89731000  0.95146000  1.0
  H  H76  1  0.89734000  0.76766000  0.95153000  1.0
  H  H77  1  0.10269000  0.61639000  0.04855000  1.0
  H  H78  1  0.23234000  0.10266000  0.04847000  1.0
  H  H79  1  0.61653000  0.23232000  0.04851000  1.0
  H  H80  1  0.81357000  0.42906000  0.83943000  1.0
  H  H81  1  0.42910000  0.91800000  0.83938000  1.0
  H  H82  1  0.91795000  0.81350000  0.83947000  1.0
  H  H83  1  0.08199000  0.57089000  0.16063000  1.0
  H  H84  1  0.18650000  0.08205000  0.16053000  1.0
  H  H85  1  0.57094000  0.18642000  0.16057000  1.0
  H  H86  1  0.89996000  0.28748000  0.69311000  1.0
  H  H87  1  0.28748000  0.11945000  0.69316000  1.0
  H  H88  1  0.11946000  0.89992000  0.69310000  1.0
  H  H89  1  0.88055000  0.71252000  0.30684000  1.0
  H  H90  1  0.10009000  0.88054000  0.30690000  1.0
  H  H91  1  0.71252000  0.10003000  0.30689000  1.0
  H  H92  1  0.93184000  0.23908000  0.78626000  1.0
  H  H93  1  0.23909000  0.04279000  0.78628000  1.0
  H  H94  1  0.04285000  0.93188000  0.78622000  1.0
  H  H95  1  0.95722000  0.76091000  0.21372000  1.0
  H  H96  1  0.06813000  0.95715000  0.21378000  1.0
  H  H97  1  0.76092000  0.06816000  0.21374000  1.0
  H  H98  1  0.89365000  0.35939000  0.73794000  1.0
  H  H99  1  0.35941000  0.00902000  0.73798000  1.0
  H  H100  1  0.00900000  0.89365000  0.73797000  1.0
  H  H101  1  0.99098000  0.64058000  0.26202000  1.0
  H  H102  1  0.10636000  0.99100000  0.26203000  1.0
  H  H103  1  0.64061000  0.10634000  0.26207000  1.0
  H  H104  1  0.58023000  0.61320000  0.79117000  1.0
  H  H105  1  0.61328000  0.01532000  0.79119000  1.0
  H  H106  1  0.01535000  0.58027000  0.79120000  1.0
  H  H107  1  0.98467000  0.38672000  0.20881000  1.0
  H  H108  1  0.41973000  0.98466000  0.20879000  1.0
  H  H109  1  0.38680000  0.41977000  0.20883000  1.0
  H  H110  1  0.64538000  0.50406000  0.84519000  1.0
  H  H111  1  0.50412000  0.00535000  0.84516000  1.0
  H  H112  1  0.00532000  0.64538000  0.84524000  1.0
  H  H113  1  0.99466000  0.49587000  0.15484000  1.0
  H  H114  1  0.35462000  0.99469000  0.15476000  1.0
  H  H115  1  0.49593000  0.35462000  0.15482000  1.0
  H  H116  1  0.63277000  0.60384000  0.85581000  1.0
  H  H117  1  0.60387000  0.90750000  0.85582000  1.0
  H  H118  1  0.90751000  0.63285000  0.85580000  1.0
  H  H119  1  0.09250000  0.39612000  0.14417000  1.0
  H  H120  1  0.36716000  0.09249000  0.14419000  1.0
  H  H121  1  0.39615000  0.36723000  0.14419000  1.0
  H  H122  1  0.37177000  0.78799000  0.86163000  1.0
  H  H123  1  0.78797000  0.97868000  0.86159000  1.0
  H  H124  1  0.97860000  0.37176000  0.86165000  1.0
  H  H125  1  0.02133000  0.21203000  0.13840000  1.0
  H  H126  1  0.62824000  0.02141000  0.13834000  1.0
  H  H127  1  0.21201000  0.62823000  0.13837000  1.0
  H  H128  1  0.44844000  0.71994000  0.79305000  1.0
  H  H129  1  0.71987000  0.03856000  0.79308000  1.0
  H  H130  1  0.03852000  0.44845000  0.79309000  1.0
  H  H131  1  0.96145000  0.28012000  0.20691000  1.0
  H  H132  1  0.55155000  0.96148000  0.20690000  1.0
  H  H133  1  0.28006000  0.55156000  0.20695000  1.0
  H  H134  1  0.49153000  0.75098000  0.83776000  1.0
  H  H135  1  0.75102000  0.91971000  0.83777000  1.0
  H  H136  1  0.91967000  0.49151000  0.83776000  1.0
  H  H137  1  0.08029000  0.24898000  0.16221000  1.0
  H  H138  1  0.50849000  0.08033000  0.16223000  1.0
  H  H139  1  0.24902000  0.50847000  0.16224000  1.0
  H  H140  1  0.22586000  0.70690000  0.92485000  1.0
  H  H141  1  0.70697000  0.14237000  0.92476000  1.0
  H  H142  1  0.14238000  0.22589000  0.92477000  1.0
  H  H143  1  0.85763000  0.29304000  0.07522000  1.0
  H  H144  1  0.77411000  0.85762000  0.07523000  1.0
  H  H145  1  0.29310000  0.77414000  0.07515000  1.0
  H  H146  1  0.09000000  0.85041000  0.92417000  1.0
  H  H147  1  0.85046000  0.13540000  0.92413000  1.0
  H  H148  1  0.13539000  0.09002000  0.92412000  1.0
  H  H149  1  0.86460000  0.14955000  0.07587000  1.0
  H  H150  1  0.90997000  0.86461000  0.07589000  1.0
  H  H151  1  0.14958000  0.91000000  0.07583000  1.0
  H  H152  1  0.08489000  0.05803000  0.48568000  1.0
  H  H153  1  0.05799000  0.37143000  0.48566000  1.0
  H  H154  1  0.37139000  0.08497000  0.48564000  1.0
  H  H155  1  0.62856000  0.94201000  0.51434000  1.0
  H  H156  1  0.91504000  0.62859000  0.51436000  1.0
  H  H157  1  0.94197000  0.91511000  0.51433000  1.0
  H  H158  1  0.22730000  0.91967000  0.48977000  1.0
  H  H159  1  0.91963000  0.36327000  0.48976000  1.0
  H  H160  1  0.36330000  0.22740000  0.48968000  1.0
  H  H161  1  0.63673000  0.08037000  0.51024000  1.0
  H  H162  1  0.77261000  0.63669000  0.51032000  1.0
  H  H163  1  0.08034000  0.77270000  0.51022000  1.0
  H  H164  1  0.17896000  0.62583000  0.70329000  1.0
  H  H165  1  0.62575000  0.49189000  0.70330000  1.0
  H  H166  1  0.49186000  0.17899000  0.70330000  1.0
  H  H167  1  0.50811000  0.37425000  0.29670000  1.0
  H  H168  1  0.82101000  0.50814000  0.29670000  1.0
  H  H169  1  0.37417000  0.82104000  0.29671000  1.0
  H  H170  1  0.12719000  0.62787000  0.64124000  1.0
  H  H171  1  0.62779000  0.60368000  0.64133000  1.0
  H  H172  1  0.60365000  0.12721000  0.64126000  1.0
  H  H173  1  0.39632000  0.37221000  0.35867000  1.0
  H  H174  1  0.87279000  0.39635000  0.35873000  1.0
  H  H175  1  0.37213000  0.87282000  0.35875000  1.0
  H  H176  1  0.11257000  0.73132000  0.64661000  1.0
  H  H177  1  0.73123000  0.50948000  0.64670000  1.0
  H  H178  1  0.50947000  0.11255000  0.64666000  1.0
  H  H179  1  0.49052000  0.26877000  0.35329000  1.0
  H  H180  1  0.88745000  0.49053000  0.35335000  1.0
  H  H181  1  0.26868000  0.88743000  0.35339000  1.0
  H  H182  1  0.25932000  0.48856000  0.64878000  1.0
  H  H183  1  0.48847000  0.60331000  0.64890000  1.0
  H  H184  1  0.60331000  0.25931000  0.64881000  1.0
  H  H185  1  0.39669000  0.51153000  0.35109000  1.0
  H  H186  1  0.74069000  0.39670000  0.35118000  1.0
  H  H187  1  0.51144000  0.74068000  0.35122000  1.0
  H  H188  1  0.30631000  0.50925000  0.69894000  1.0
  H  H189  1  0.50933000  0.48542000  0.69890000  1.0
  H  H190  1  0.48547000  0.30633000  0.69891000  1.0
  H  H191  1  0.51458000  0.49067000  0.30110000  1.0
  H  H192  1  0.69367000  0.51454000  0.30109000  1.0
  H  H193  1  0.49076000  0.69369000  0.30106000  1.0
  H  H194  1  0.37913000  0.44248000  0.62864000  1.0
  H  H195  1  0.44245000  0.54972000  0.62870000  1.0
  H  H196  1  0.54975000  0.37911000  0.62863000  1.0
  H  H197  1  0.45028000  0.55755000  0.37130000  1.0
  H  H198  1  0.62089000  0.45026000  0.37136000  1.0
  H  H199  1  0.55752000  0.62087000  0.37136000  1.0
  C  C200  1  0.88481000  0.11560000  0.65913000  1.0
  C  C201  1  0.11558000  0.34047000  0.65918000  1.0
  C  C202  1  0.34047000  0.88480000  0.65916000  1.0
  C  C203  1  0.65952000  0.88442000  0.34081000  1.0
  C  C204  1  0.11520000  0.65953000  0.34084000  1.0
  C  C205  1  0.88441000  0.11519000  0.34086000  1.0
  C  C206  1  0.84806000  0.15095000  0.72570000  1.0
  C  C207  1  0.15094000  0.27531000  0.72574000  1.0
  C  C208  1  0.27532000  0.84803000  0.72574000  1.0
  C  C209  1  0.72469000  0.84907000  0.27425000  1.0
  C  C210  1  0.15198000  0.72468000  0.27426000  1.0
  C  C211  1  0.84906000  0.15195000  0.27430000  1.0
  C  C212  1  0.77968000  0.23785000  0.72050000  1.0
  C  C213  1  0.23785000  0.26196000  0.72052000  1.0
  C  C214  1  0.26198000  0.77967000  0.72053000  1.0
  C  C215  1  0.73804000  0.76216000  0.27948000  1.0
  C  C216  1  0.22034000  0.73802000  0.27947000  1.0
  C  C217  1  0.76216000  0.22031000  0.27949000  1.0
  C  C218  1  0.75519000  0.28694000  0.64555000  1.0
  C  C219  1  0.28694000  0.31229000  0.64554000  1.0
  C  C220  1  0.31232000  0.75520000  0.64557000  1.0
  C  C221  1  0.68770000  0.71306000  0.35446000  1.0
  C  C222  1  0.24480000  0.68768000  0.35443000  1.0
  C  C223  1  0.71307000  0.24480000  0.35445000  1.0
  C  C224  1  0.79831000  0.24893000  0.58014000  1.0
  C  C225  1  0.24891000  0.37262000  0.58015000  1.0
  C  C226  1  0.37263000  0.79831000  0.58017000  1.0
  C  C227  1  0.62738000  0.75109000  0.41984000  1.0
  C  C228  1  0.20169000  0.62737000  0.41983000  1.0
  C  C229  1  0.75108000  0.20168000  0.41985000  1.0
  C  C230  1  0.73446000  0.27864000  0.79038000  1.0
  C  C231  1  0.27867000  0.19651000  0.79039000  1.0
  C  C232  1  0.19652000  0.73447000  0.79041000  1.0
  C  C233  1  0.80350000  0.72133000  0.20961000  1.0
  C  C234  1  0.26554000  0.80348000  0.20958000  1.0
  C  C235  1  0.72137000  0.26554000  0.20962000  1.0
  C  C236  1  0.64174000  0.29108000  0.83797000  1.0
  C  C237  1  0.29119000  0.22919000  0.83792000  1.0
  C  C238  1  0.22921000  0.64174000  0.83801000  1.0
  C  C239  1  0.77081000  0.70881000  0.16207000  1.0
  C  C240  1  0.35826000  0.77079000  0.16199000  1.0
  C  C241  1  0.70892000  0.35826000  0.16203000  1.0
  C  C242  1  0.59900000  0.33152000  0.90310000  1.0
  C  C243  1  0.33163000  0.16637000  0.90306000  1.0
  C  C244  1  0.16639000  0.59898000  0.90312000  1.0
  C  C245  1  0.83363000  0.66837000  0.09694000  1.0
  C  C246  1  0.40102000  0.83361000  0.09688000  1.0
  C  C247  1  0.66848000  0.40100000  0.09690000  1.0
  C  C248  1  0.64980000  0.35470000  0.92444000  1.0
  C  C249  1  0.35476000  0.07105000  0.92443000  1.0
  C  C250  1  0.07107000  0.64978000  0.92446000  1.0
  C  C251  1  0.92895000  0.64524000  0.07557000  1.0
  C  C252  1  0.35022000  0.92894000  0.07554000  1.0
  C  C253  1  0.64529000  0.35020000  0.07556000  1.0
  C  C254  1  0.74334000  0.34013000  0.87632000  1.0
  C  C255  1  0.34014000  0.04020000  0.87635000  1.0
  C  C256  1  0.04021000  0.74333000  0.87636000  1.0
  C  C257  1  0.95980000  0.65986000  0.12365000  1.0
  C  C258  1  0.25667000  0.95979000  0.12364000  1.0
  C  C259  1  0.65987000  0.25666000  0.12368000  1.0
  C  C260  1  0.78513000  0.30478000  0.80781000  1.0
  C  C261  1  0.30477000  0.10225000  0.80785000  1.0
  C  C262  1  0.10227000  0.78513000  0.80785000  1.0
  C  C263  1  0.89775000  0.69523000  0.19215000  1.0
  C  C264  1  0.21487000  0.89773000  0.19215000  1.0
  C  C265  1  0.69522000  0.21486000  0.19219000  1.0
  C  C266  1  0.58880000  0.25710000  0.82395000  1.0
  C  C267  1  0.25713000  0.33015000  0.82392000  1.0
  C  C268  1  0.33017000  0.58882000  0.82404000  1.0
  C  C269  1  0.66986000  0.74287000  0.17607000  1.0
  C  C270  1  0.41118000  0.66984000  0.17596000  1.0
  C  C271  1  0.74291000  0.41119000  0.17605000  1.0
  C  C272  1  0.50028000  0.34167000  0.95341000  1.0
  C  C273  1  0.34173000  0.20464000  0.95338000  1.0
  C  C274  1  0.20467000  0.50027000  0.95338000  1.0
  C  C275  1  0.79537000  0.65827000  0.04661000  1.0
  C  C276  1  0.49973000  0.79533000  0.04661000  1.0
  C  C277  1  0.65832000  0.49972000  0.04660000  1.0
  C  C278  1  0.80030000  0.36805000  0.89140000  1.0
  C  C279  1  0.36811000  0.94023000  0.89140000  1.0
  C  C280  1  0.94022000  0.80028000  0.89144000  1.0
  C  C281  1  0.05978000  0.63188000  0.10860000  1.0
  C  C282  1  0.19972000  0.05978000  0.10856000  1.0
  C  C283  1  0.63194000  0.19970000  0.10860000  1.0
  C  C284  1  0.88252000  0.29717000  0.75342000  1.0
  C  C285  1  0.29717000  0.06689000  0.75346000  1.0
  C  C286  1  0.06690000  0.88250000  0.75343000  1.0
  C  C287  1  0.93312000  0.70283000  0.24654000  1.0
  C  C288  1  0.11750000  0.93310000  0.24657000  1.0
  C  C289  1  0.70283000  0.11748000  0.24658000  1.0
  C  C290  1  0.51409000  0.48591000  0.00000000  1.0
  C  C291  1  0.48593000  0.00000000  1.00000000  1.0
  C  C292  1  0.00000000  0.51408000  0.99999000  1.0
  C  C293  1  0.51288000  0.56570000  0.92759000  1.0
  C  C294  1  0.56574000  0.99377000  0.92761000  1.0
  C  C295  1  0.99374000  0.51291000  0.92761000  1.0
  C  C296  1  0.00623000  0.43426000  0.07239000  1.0
  C  C297  1  0.48709000  0.00626000  0.07239000  1.0
  C  C298  1  0.43429000  0.48712000  0.07241000  1.0
  C  C299  1  0.43410000  0.64534000  0.92788000  1.0
  C  C300  1  0.64536000  0.99266000  0.92788000  1.0
  C  C301  1  0.99262000  0.43411000  0.92790000  1.0
  C  C302  1  0.00734000  0.35464000  0.07211000  1.0
  C  C303  1  0.56589000  0.00738000  0.07210000  1.0
  C  C304  1  0.35466000  0.56590000  0.07212000  1.0
  C  C305  1  0.59690000  0.57137000  0.85114000  1.0
  C  C306  1  0.57142000  0.98054000  0.85115000  1.0
  C  C307  1  0.98052000  0.59694000  0.85116000  1.0
  C  C308  1  0.01946000  0.42858000  0.14885000  1.0
  C  C309  1  0.40307000  0.01948000  0.14884000  1.0
  C  C310  1  0.42863000  0.40310000  0.14887000  1.0
  C  C311  1  0.43584000  0.73029000  0.85182000  1.0
  C  C312  1  0.73029000  0.98204000  0.85183000  1.0
  C  C313  1  0.98199000  0.43584000  0.85184000  1.0
  C  C314  1  0.01796000  0.26971000  0.14816000  1.0
  C  C315  1  0.56416000  0.01801000  0.14815000  1.0
  C  C316  1  0.26971000  0.56417000  0.14817000  1.0
  C  C317  1  0.35560000  0.64439000  0.00000000  1.0
  C  C318  1  0.64441000  0.00001000  0.99998000  1.0
  C  C319  1  0.99998000  0.35560000  0.00001000  1.0
  C  C320  1  0.27201000  0.72798000  0.00000000  1.0
  C  C321  1  0.72801000  0.99999000  0.99999000  1.0
  C  C322  1  0.00000000  0.27200000  0.00000000  1.0
  C  C323  1  0.21273000  0.75060000  0.95795000  1.0
  C  C324  1  0.75065000  0.07870000  0.95789000  1.0
  C  C325  1  0.07871000  0.21274000  0.95792000  1.0
  C  C326  1  0.92130000  0.24936000  0.04210000  1.0
  C  C327  1  0.78726000  0.92129000  0.04207000  1.0
  C  C328  1  0.24940000  0.78726000  0.04205000  1.0
  C  C329  1  0.13599000  0.82992000  0.95830000  1.0
  C  C330  1  0.82996000  0.07577000  0.95826000  1.0
  C  C331  1  0.07578000  0.13599000  0.95827000  1.0
  C  C332  1  0.92422000  0.17004000  0.04174000  1.0
  C  C333  1  0.86401000  0.92421000  0.04173000  1.0
  C  C334  1  0.17008000  0.86400000  0.04170000  1.0
  C  C335  1  0.08675000  0.99240000  0.49325000  1.0
  C  C336  1  0.99236000  0.42761000  0.49325000  1.0
  C  C337  1  0.42760000  0.08682000  0.49321000  1.0
  C  C338  1  0.57238000  0.00764000  0.50675000  1.0
  C  C339  1  0.91319000  0.57239000  0.50680000  1.0
  C  C340  1  0.00760000  0.91325000  0.50676000  1.0
  C  C341  1  0.16604000  0.91538000  0.49429000  1.0
  C  C342  1  0.91534000  0.42430000  0.49429000  1.0
  C  C343  1  0.42431000  0.16611000  0.49423000  1.0
  C  C344  1  0.57569000  0.08466000  0.50571000  1.0
  C  C345  1  0.83390000  0.57568000  0.50578000  1.0
  C  C346  1  0.08463000  0.83396000  0.50571000  1.0
  C  C347  1  0.16653000  0.83347000  0.50000000  1.0
  C  C348  1  0.83344000  0.49999000  0.50004000  1.0
  C  C349  1  0.50001000  0.16657000  0.49996000  1.0
  C  C350  1  0.24999000  0.75001000  0.50000000  1.0
  C  C351  1  0.74998000  0.50002000  0.50002000  1.0
  C  C352  1  0.49998000  0.25002000  0.49998000  1.0
  C  C353  1  0.24673000  0.66763000  0.56714000  1.0
  C  C354  1  0.66758000  0.51855000  0.56714000  1.0
  C  C355  1  0.51848000  0.24675000  0.56714000  1.0
  C  C356  1  0.48145000  0.33242000  0.43286000  1.0
  C  C357  1  0.75326000  0.48151000  0.43286000  1.0
  C  C358  1  0.33238000  0.75327000  0.43286000  1.0
  C  C359  1  0.32568000  0.58785000  0.56520000  1.0
  C  C360  1  0.58781000  0.52134000  0.56518000  1.0
  C  C361  1  0.52127000  0.32569000  0.56519000  1.0
  C  C362  1  0.47865000  0.41220000  0.43482000  1.0
  C  C363  1  0.67432000  0.47873000  0.43481000  1.0
  C  C364  1  0.41215000  0.67432000  0.43480000  1.0
  C  C365  1  0.16205000  0.66331000  0.64318000  1.0
  C  C366  1  0.66325000  0.53145000  0.64323000  1.0
  C  C367  1  0.53140000  0.16207000  0.64319000  1.0
  C  C368  1  0.46855000  0.33675000  0.35677000  1.0
  C  C369  1  0.83793000  0.46859000  0.35681000  1.0
  C  C370  1  0.33669000  0.83795000  0.35682000  1.0
  C  C371  1  0.31791000  0.50241000  0.63861000  1.0
  C  C372  1  0.50239000  0.54106000  0.63863000  1.0
  C  C373  1  0.54105000  0.31790000  0.63861000  1.0
  C  C374  1  0.45894000  0.49761000  0.36137000  1.0
  C  C375  1  0.68210000  0.45895000  0.36138000  1.0
  C  C376  1  0.49759000  0.68209000  0.36138000  1.0
  C  C377  1  0.41013000  0.58988000  0.50000000  1.0
  C  C378  1  0.58986000  0.50002000  0.49999000  1.0
  C  C379  1  0.49998000  0.41014000  0.50001000  1.0
  N  N380  1  0.86040000  0.16374000  0.58770000  1.0
  N  N381  1  0.16371000  0.38819000  0.58773000  1.0
  N  N382  1  0.38818000  0.86040000  0.58773000  1.0
  N  N383  1  0.61180000  0.83630000  0.41226000  1.0
  N  N384  1  0.13961000  0.61182000  0.41227000  1.0
  N  N385  1  0.83627000  0.13960000  0.41230000  1.0
  N  N386  1  0.00827000  0.99173000  0.50000000  1.0
  N  N387  1  0.99167000  0.50000000  0.50001000  1.0
  N  N388  1  0.49998000  0.00833000  0.49999000  1.0
  N  N389  1  0.11439000  0.88561000  1.00000000  1.0
  N  N390  1  0.88563000  0.99999000  0.99999000  1.0
  N  N391  1  0.00000000  0.11437000  0.00001000  1.0
  Cl  Cl392  1  0.78584000  0.03549000  0.60363000  1.0
  Cl  Cl393  1  0.03543000  0.57508000  0.60362000  1.0
  Cl  Cl394  1  0.57503000  0.78592000  0.60361000  1.0
  Cl  Cl395  1  0.42492000  0.96458000  0.39637000  1.0
  Cl  Cl396  1  0.21408000  0.42498000  0.39638000  1.0
  Cl  Cl397  1  0.96452000  0.21416000  0.39637000  1.0
  Cl  Cl398  1  0.05020000  0.05019000  0.84942000  1.0
  Cl  Cl399  1  0.94981000  0.94980000  0.15058000  1.0
