# generated using pymatgen
data_ErH21(C9O2)3
_symmetry_space_group_name_H-M   'P 1'
_cell_length_a   7.84594000
_cell_length_b   11.31610000
_cell_length_c   13.04800000
_cell_angle_alpha   94.23520000
_cell_angle_beta   90.00000000
_cell_angle_gamma   90.00000000
_symmetry_Int_Tables_number   1
_chemical_formula_structural   ErH21(C9O2)3
_chemical_formula_sum   'Er2 H42 C54 O12'
_cell_volume   1155.30899560
_cell_formula_units_Z   2
loop_
 _symmetry_equiv_pos_site_id
 _symmetry_equiv_pos_as_xyz
  1  'x, y, z'
loop_
 _atom_site_type_symbol
 _atom_site_label
 _atom_site_symmetry_multiplicity
 _atom_site_fract_x
 _atom_site_fract_y
 _atom_site_fract_z
 _atom_site_occupancy
  Er  Er0  1  0.45711000  0.95894000  0.52566000  1.0
  Er  Er1  1  0.95711000  0.04106000  0.47434000  1.0
  H  H2  1  0.78234000  0.62581000  0.60879000  1.0
  H  H3  1  0.28235000  0.37419000  0.39122000  1.0
  H  H4  1  0.12029000  0.76474000  0.60286000  1.0
  H  H5  1  0.62029000  0.23526000  0.39713000  1.0
  H  H6  1  0.91637000  0.45784000  0.59698000  1.0
  H  H7  1  0.41638000  0.54216000  0.40303000  1.0
  H  H8  1  0.07898000  0.27764000  0.62749000  1.0
  H  H9  1  0.57899000  0.72236000  0.37252000  1.0
  H  H10  1  0.38833000  0.28919000  0.66578000  1.0
  H  H11  1  0.88834000  0.71081000  0.33423000  1.0
  H  H12  1  0.53836000  0.48406000  0.67002000  1.0
  H  H13  1  0.03837000  0.51594000  0.32999000  1.0
  H  H14  1  0.37489000  0.66685000  0.63800000  1.0
  H  H15  1  0.87489000  0.33315000  0.36200000  1.0
  H  H16  1  0.54893000  0.87291000  0.24140000  1.0
  H  H17  1  0.04892000  0.12709000  0.75861000  1.0
  H  H18  1  0.78157000  0.04790000  0.13651000  1.0
  H  H19  1  0.28156000  0.95209000  0.86348000  1.0
  H  H20  1  0.50923000  0.76761000  0.09532000  1.0
  H  H21  1  0.00923000  0.23239000  0.90468000  1.0
  H  H22  1  0.44716000  0.67236000  0.92331000  1.0
  H  H23  1  0.94715000  0.32763000  0.07669000  1.0
  H  H24  1  0.55052000  0.76378000  0.76619000  1.0
  H  H25  1  0.05051000  0.23622000  0.23381000  1.0
  H  H26  1  0.71801000  0.94992000  0.78298000  1.0
  H  H27  1  0.21801000  0.05008000  0.21702000  1.0
  H  H28  1  0.78053000  0.04674000  0.95658000  1.0
  H  H29  1  0.28053000  0.95326000  0.04342000  1.0
  H  H30  1  0.31652000  0.68259000  0.26271000  1.0
  H  H31  1  0.81652000  0.31741000  0.73729000  1.0
  H  H32  1  0.01945000  0.83057000  0.18523000  1.0
  H  H33  1  0.51945000  0.16943000  0.81477000  1.0
  H  H34  1  0.26735000  0.54203000  0.13833000  1.0
  H  H35  1  0.76735000  0.45797000  0.86167000  1.0
  H  H36  1  0.27731000  0.42726000  0.97049000  1.0
  H  H37  1  0.77732000  0.57273000  0.02952000  1.0
  H  H38  1  0.13513000  0.50324000  0.81798000  1.0
  H  H39  1  0.63515000  0.49675000  0.18203000  1.0
  H  H40  1  0.98185000  0.69712000  0.83490000  1.0
  H  H41  1  0.48187000  0.30287000  0.16510000  1.0
  H  H42  1  0.97193000  0.81307000  0.00367000  1.0
  H  H43  1  0.47193000  0.18694000  0.99633000  1.0
  C  C44  1  0.79287000  0.81489000  0.58965000  1.0
  C  C45  1  0.29288000  0.18511000  0.41035000  1.0
  C  C46  1  0.87100000  0.69935000  0.60389000  1.0
  C  C47  1  0.37101000  0.30066000  0.39611000  1.0
  C  C48  1  0.04184000  0.68557000  0.60730000  1.0
  C  C49  1  0.54184000  0.31443000  0.39269000  1.0
  C  C50  1  0.13349000  0.57592000  0.61895000  1.0
  C  C51  1  0.63350000  0.42408000  0.38105000  1.0
  C  C52  1  0.05182000  0.46473000  0.61520000  1.0
  C  C53  1  0.55183000  0.53527000  0.38481000  1.0
  C  C54  1  0.14338000  0.36302000  0.63241000  1.0
  C  C55  1  0.64339000  0.63698000  0.36759000  1.0
  C  C56  1  0.31821000  0.36978000  0.65316000  1.0
  C  C57  1  0.81822000  0.63021000  0.34684000  1.0
  C  C58  1  0.40169000  0.47895000  0.65494000  1.0
  C  C59  1  0.90170000  0.52105000  0.34506000  1.0
  C  C60  1  0.31056000  0.58123000  0.63727000  1.0
  C  C61  1  0.81056000  0.41876000  0.36273000  1.0
  C  C62  1  0.71408000  0.00146000  0.32458000  1.0
  C  C63  1  0.21408000  0.99855000  0.67542000  1.0
  C  C64  1  0.63909000  0.94442000  0.23113000  1.0
  C  C65  1  0.13907000  0.05559000  0.76887000  1.0
  C  C66  1  0.69187000  0.97387000  0.13760000  1.0
  C  C67  1  0.19186000  0.02613000  0.86240000  1.0
  C  C68  1  0.64762000  0.91543000  0.03821000  1.0
  C  C69  1  0.14762000  0.08456000  0.96179000  1.0
  C  C70  1  0.55390000  0.80886000  0.02731000  1.0
  C  C71  1  0.05390000  0.19113000  0.97269000  1.0
  C  C72  1  0.51975000  0.75465000  0.93035000  1.0
  C  C73  1  0.01975000  0.24534000  0.06965000  1.0
  C  C74  1  0.57877000  0.80512000  0.84224000  1.0
  C  C75  1  0.07877000  0.19488000  0.15776000  1.0
  C  C76  1  0.67248000  0.91040000  0.85155000  1.0
  C  C77  1  0.17248000  0.08960000  0.14844000  1.0
  C  C78  1  0.70669000  0.96487000  0.94862000  1.0
  C  C79  1  0.20669000  0.03512000  0.05137000  1.0
  C  C80  1  0.19902000  0.82752000  0.35691000  1.0
  C  C81  1  0.69903000  0.17249000  0.64309000  1.0
  C  C82  1  0.21450000  0.74809000  0.26280000  1.0
  C  C83  1  0.71450000  0.25191000  0.73720000  1.0
  C  C84  1  0.11371000  0.75905000  0.17996000  1.0
  C  C85  1  0.61370000  0.24095000  0.82004000  1.0
  C  C86  1  0.12030000  0.68694000  0.08293000  1.0
  C  C87  1  0.62030000  0.31306000  0.91707000  1.0
  C  C88  1  0.20570000  0.57710000  0.07207000  1.0
  C  C89  1  0.70569000  0.42290000  0.92793000  1.0
  C  C90  1  0.21054000  0.51190000  0.97750000  1.0
  C  C91  1  0.71055000  0.48809000  0.02250000  1.0
  C  C92  1  0.13011000  0.55462000  0.89190000  1.0
  C  C93  1  0.63012000  0.44538000  0.10810000  1.0
  C  C94  1  0.04433000  0.66314000  0.90135000  1.0
  C  C95  1  0.54432000  0.33686000  0.09865000  1.0
  C  C96  1  0.03879000  0.72836000  0.99618000  1.0
  C  C97  1  0.53879000  0.27164000  0.00382000  1.0
  O  O98  1  0.63011000  0.81964000  0.58446000  1.0
  O  O99  1  0.13011000  0.18037000  0.41553000  1.0
  O  O100  1  0.88832000  0.90601000  0.58333000  1.0
  O  O101  1  0.38831000  0.09399000  0.41667000  1.0
  O  O102  1  0.68478000  0.95635000  0.41252000  1.0
  O  O103  1  0.18478000  0.04366000  0.58748000  1.0
  O  O104  1  0.81890000  0.08699000  0.32326000  1.0
  O  O105  1  0.31890000  0.91302000  0.67674000  1.0
  O  O106  1  0.31897000  0.82425000  0.42358000  1.0
  O  O107  1  0.81898000  0.17576000  0.57642000  1.0
  O  O108  1  0.07048000  0.89614000  0.36872000  1.0
  O  O109  1  0.57049000  0.10387000  0.63128000  1.0
