# generated using pymatgen
data_Zn2H29C39N8
_symmetry_space_group_name_H-M   'P 1'
_cell_length_a   19.65640000
_cell_length_b   19.70690000
_cell_length_c   19.88290000
_cell_angle_alpha   103.58160000
_cell_angle_beta   111.39040000
_cell_angle_gamma   111.82900000
_symmetry_Int_Tables_number   1
_chemical_formula_structural   Zn2H29C39N8
_chemical_formula_sum   'Zn4 H58 C78 N16'
_cell_volume   6014.82462287
_cell_formula_units_Z   2
loop_
 _symmetry_equiv_pos_site_id
 _symmetry_equiv_pos_as_xyz
  1  'x, y, z'
loop_
 _atom_site_type_symbol
 _atom_site_label
 _atom_site_symmetry_multiplicity
 _atom_site_fract_x
 _atom_site_fract_y
 _atom_site_fract_z
 _atom_site_occupancy
  Zn  Zn0  1  0.60839000  0.10742000  0.99759000  1.0
  Zn  Zn1  1  0.39862000  0.90177000  0.00100000  1.0
  Zn  Zn2  1  0.60458000  0.99582000  0.09611000  1.0
  Zn  Zn3  1  0.40017000  0.00731000  0.89425000  1.0
  H  H4  1  0.80412000  0.15726000  0.01346000  1.0
  H  H5  1  0.41422000  0.01806000  0.14999000  1.0
  H  H6  1  0.42063000  0.73691000  0.39446000  1.0
  H  H7  1  0.58382000  0.01665000  0.59927000  1.0
  H  H8  1  0.64536000  0.94119000  0.51584000  1.0
  H  H9  1  0.35902000  0.81230000  0.47778000  1.0
  H  H10  1  0.63510000  0.50238000  0.92243000  1.0
  H  H11  1  0.36331000  0.48289000  0.75322000  1.0
  H  H12  1  0.06965000  0.18365000  0.04310000  1.0
  H  H13  1  0.20309000  0.05746000  0.19478000  1.0
  H  H14  1  0.20759000  0.20059000  0.06053000  1.0
  H  H15  1  0.06521000  0.04065000  0.17729000  1.0
  H  H16  1  0.35601000  0.73677000  0.86044000  1.0
  H  H17  1  0.63973000  0.26798000  0.95123000  1.0
  H  H18  1  0.78885000  0.99529000  0.12877000  1.0
  H  H19  1  0.39847000  0.15036000  0.00399000  1.0
  H  H20  1  0.57185000  0.80221000  0.54083000  1.0
  H  H21  1  0.43263000  0.95135000  0.45267000  1.0
  H  H22  1  0.96816000  0.50795000  0.65134000  1.0
  H  H23  1  0.88546000  0.52602000  0.39083000  1.0
  H  H24  1  0.87818000  0.38265000  0.52488000  1.0
  H  H25  1  0.97514000  0.65123000  0.51733000  1.0
  H  H26  1  0.63088000  0.62699000  0.92425000  1.0
  H  H27  1  0.36762000  0.35829000  0.75123000  1.0
  H  H28  1  0.09062000  0.63250000  0.93714000  1.0
  H  H29  1  0.19224000  0.69462000  0.02411000  1.0
  H  H30  1  0.10591000  0.70644000  0.02078000  1.0
  H  H31  1  0.19938000  0.81761000  0.99975000  1.0
  H  H32  1  0.09879000  0.75510000  0.91321000  1.0
  H  H33  1  0.15505000  0.67805000  0.85271000  1.0
  H  H34  1  0.25625000  0.74120000  0.93940000  1.0
  H  H35  1  0.79955000  0.47071000  0.18528000  1.0
  H  H36  1  0.70347000  0.42967000  0.09495000  1.0
  H  H37  1  0.72082000  0.49424000  0.18589000  1.0
  H  H38  1  0.62329000  0.34903000  0.15121000  1.0
  H  H39  1  0.72004000  0.39031000  0.23975000  1.0
  H  H40  1  0.77261000  0.33177000  0.15386000  1.0
  H  H41  1  0.66840000  0.27998000  0.07186000  1.0
  H  H42  1  0.63086000  0.86772000  0.98842000  1.0
  H  H43  1  0.36570000  0.13400000  0.81706000  1.0
  H  H44  1  0.36983000  0.87193000  0.73733000  1.0
  H  H45  1  0.63033000  0.95501000  0.25928000  1.0
  H  H46  1  0.64400000  0.00801000  0.87680000  1.0
  H  H47  1  0.35724000  0.83998000  0.13252000  1.0
  H  H48  1  0.10494000  0.85932000  0.56166000  1.0
  H  H49  1  0.21421000  0.92347000  0.59756000  1.0
  H  H50  1  0.16071000  0.82125000  0.52710000  1.0
  H  H51  1  0.24862000  0.83595000  0.66327000  1.0
  H  H52  1  0.14066000  0.77323000  0.62851000  1.0
  H  H53  1  0.13744000  0.89140000  0.70677000  1.0
  H  H54  1  0.24691000  0.95383000  0.74470000  1.0
  H  H55  1  0.85250000  0.13872000  0.42325000  1.0
  H  H56  1  0.80770000  0.04748000  0.33886000  1.0
  H  H57  1  0.91248000  0.12632000  0.37777000  1.0
  H  H58  1  0.81261000  0.12371000  0.25328000  1.0
  H  H59  1  0.85871000  0.21503000  0.33638000  1.0
  H  H60  1  0.72998000  0.16805000  0.34785000  1.0
  H  H61  1  0.68266000  0.07064000  0.27219000  1.0
  C  C62  1  0.78679000  0.11611000  0.04005000  1.0
  C  C63  1  0.41581000  0.04401000  0.10770000  1.0
  C  C64  1  0.16836000  0.79123000  0.78964000  1.0
  C  C65  1  0.72253000  0.24303000  0.24040000  1.0
  C  C66  1  0.49307000  0.77096000  0.90631000  1.0
  C  C67  1  0.50310000  0.22929000  0.87453000  1.0
  C  C68  1  0.50850000  0.92499000  0.77626000  1.0
  C  C69  1  0.49343000  0.89198000  0.22550000  1.0
  C  C70  1  0.45691000  0.79903000  0.44066000  1.0
  C  C71  1  0.54758000  0.95462000  0.55288000  1.0
  C  C72  1  0.54085000  0.83538000  0.52099000  1.0
  C  C73  1  0.46353000  0.91823000  0.47294000  1.0
  C  C74  1  0.51069000  0.89841000  0.70519000  1.0
  C  C75  1  0.49310000  0.88215000  0.29330000  1.0
  C  C76  1  0.42258000  0.84096000  0.48552000  1.0
  C  C77  1  0.58184000  0.91257000  0.50816000  1.0
  C  C78  1  0.50659000  0.87748000  0.56781000  1.0
  C  C79  1  0.49784000  0.87627000  0.42600000  1.0
  C  C80  1  0.50964000  0.88319000  0.64145000  1.0
  C  C81  1  0.49467000  0.87770000  0.35403000  1.0
  C  C82  1  0.89950000  0.44153000  0.52333000  1.0
  C  C83  1  0.95354000  0.59224000  0.51871000  1.0
  C  C84  1  0.21748000  0.79800000  0.86607000  1.0
  C  C85  1  0.68510000  0.23730000  0.16204000  1.0
  C  C86  1  0.87565000  0.44507000  0.44853000  1.0
  C  C87  1  0.97861000  0.58859000  0.59348000  1.0
  C  C88  1  0.90351000  0.52217000  0.44796000  1.0
  C  C89  1  0.94959000  0.51162000  0.59411000  1.0
  C  C90  1  0.82458000  0.37383000  0.37623000  1.0
  C  C91  1  0.03620000  0.66020000  0.66521000  1.0
  C  C92  1  0.09413000  0.72222000  0.72485000  1.0
  C  C93  1  0.77812000  0.31303000  0.31275000  1.0
  C  C94  1  0.57344000  0.56795000  0.88608000  1.0
  C  C95  1  0.42525000  0.41729000  0.78890000  1.0
  C  C96  1  0.49641000  0.56418000  0.84055000  1.0
  C  C97  1  0.50125000  0.42153000  0.83812000  1.0
  C  C98  1  0.42287000  0.48704000  0.79001000  1.0
  C  C99  1  0.57580000  0.49833000  0.88506000  1.0
  C  C100  1  0.49332000  0.63636000  0.85170000  1.0
  C  C101  1  0.50227000  0.35190000  0.84450000  1.0
  C  C102  1  0.50329000  0.29408000  0.85635000  1.0
  C  C103  1  0.49282000  0.69964000  0.87243000  1.0
  C  C104  1  0.17654000  0.16619000  0.08659000  1.0
  C  C105  1  0.09692000  0.07595000  0.15219000  1.0
  C  C106  1  0.56401000  0.84721000  0.96506000  1.0
  C  C107  1  0.43268000  0.15591000  0.85362000  1.0
  C  C108  1  0.21503000  0.12999000  0.12863000  1.0
  C  C109  1  0.05764000  0.11070000  0.10867000  1.0
  C  C110  1  0.17405000  0.08558000  0.16214000  1.0
  C  C111  1  0.09948000  0.15657000  0.07666000  1.0
  C  C112  1  0.28858000  0.13247000  0.13060000  1.0
  C  C113  1  0.97832000  0.09970000  0.09691000  1.0
  C  C114  1  0.90968000  0.09064000  0.08627000  1.0
  C  C115  1  0.34411000  0.12528000  0.12135000  1.0
  C  C116  1  0.43605000  0.91170000  0.78279000  1.0
  C  C117  1  0.56412000  0.93014000  0.21677000  1.0
  C  C118  1  0.42323000  0.78016000  0.89926000  1.0
  C  C119  1  0.57277000  0.22427000  0.92264000  1.0
  C  C120  1  0.57636000  0.98140000  0.85393000  1.0
  C  C121  1  0.42445000  0.87076000  0.15231000  1.0
  C  C122  1  0.21682000  0.86511000  0.78910000  1.0
  C  C123  1  0.69273000  0.16212000  0.23060000  1.0
  C  C124  1  0.77888000  0.03314000  0.09885000  1.0
  C  C125  1  0.40780000  0.11169000  0.03296000  1.0
  C  C126  1  0.83131000  0.08048000  0.07539000  1.0
  C  C127  1  0.39194000  0.10096000  0.09454000  1.0
  C  C128  1  0.19774000  0.73956000  0.90148000  1.0
  C  C129  1  0.15644000  0.75588000  0.95120000  1.0
  C  C130  1  0.13515000  0.69414000  0.98529000  1.0
  C  C131  1  0.70517000  0.30472000  0.13723000  1.0
  C  C132  1  0.69157000  0.37243000  0.17503000  1.0
  C  C133  1  0.73076000  0.44575000  0.15940000  1.0
  C  C134  1  0.19718000  0.89089000  0.72296000  1.0
  C  C135  1  0.18879000  0.83581000  0.64777000  1.0
  C  C136  1  0.16595000  0.86140000  0.57983000  1.0
  C  C137  1  0.72626000  0.13492000  0.29247000  1.0
  C  C138  1  0.81505000  0.14944000  0.31019000  1.0
  C  C139  1  0.84873000  0.11364000  0.36556000  1.0
  N  N140  1  0.71479000  0.09211000  0.04289000  1.0
  N  N141  1  0.44015000  0.02064000  0.05553000  1.0
  N  N142  1  0.28956000  0.87011000  0.90722000  1.0
  N  N143  1  0.63391000  0.15832000  0.11021000  1.0
  N  N144  1  0.53752000  0.89610000  0.99129000  1.0
  N  N145  1  0.45885000  0.11211000  0.88701000  1.0
  N  N146  1  0.45959000  0.95821000  0.85753000  1.0
  N  N147  1  0.53951000  0.93265000  0.14521000  1.0
  N  N148  1  0.45139000  0.85497000  0.95095000  1.0
  N  N149  1  0.54595000  0.15455000  0.93036000  1.0
  N  N150  1  0.54565000  0.00096000  0.90127000  1.0
  N  N151  1  0.45256000  0.89500000  0.10513000  1.0
  N  N152  1  0.28930000  0.91139000  0.85987000  1.0
  N  N153  1  0.63855000  0.11228000  0.15244000  1.0
  N  N154  1  0.70989000  0.04055000  0.07934000  1.0
  N  N155  1  0.43520000  0.06233000  0.00971000  1.0
