# generated using pymatgen
data_KH9C7(NO3)2
_symmetry_space_group_name_H-M   'P 1'
_cell_length_a   6.88058000
_cell_length_b   7.07310000
_cell_length_c   21.24160000
_cell_angle_alpha   90.00010000
_cell_angle_beta   90.00010000
_cell_angle_gamma   90.00000000
_symmetry_Int_Tables_number   1
_chemical_formula_structural   KH9C7(NO3)2
_chemical_formula_sum   'K4 H36 C28 N8 O24'
_cell_volume   1033.76559290
_cell_formula_units_Z   4
loop_
 _symmetry_equiv_pos_site_id
 _symmetry_equiv_pos_as_xyz
  1  'x, y, z'
loop_
 _atom_site_type_symbol
 _atom_site_label
 _atom_site_symmetry_multiplicity
 _atom_site_fract_x
 _atom_site_fract_y
 _atom_site_fract_z
 _atom_site_occupancy
  K  K0  1  0.75000000  0.62283000  0.71528000  1.0
  K  K1  1  0.25000000  0.87717000  0.21528000  1.0
  K  K2  1  0.75000000  0.12283000  0.78472000  1.0
  K  K3  1  0.25000000  0.37717000  0.28472000  1.0
  H  H4  1  0.75000000  0.52815000  0.51699000  1.0
  H  H5  1  0.25000000  0.97185000  0.01699000  1.0
  H  H6  1  0.75000000  0.02814000  0.98301000  1.0
  H  H7  1  0.25000000  0.47185000  0.48301000  1.0
  H  H8  1  0.75000000  0.30599000  0.60712000  1.0
  H  H9  1  0.25000000  0.19401000  0.10712000  1.0
  H  H10  1  0.75000000  0.80599000  0.89288000  1.0
  H  H11  1  0.25000000  0.69401000  0.39288000  1.0
  H  H12  1  0.75000000  0.83548000  0.47848000  1.0
  H  H13  1  0.25000000  0.66452000  0.97848000  1.0
  H  H14  1  0.75000000  0.33548000  0.02152000  1.0
  H  H15  1  0.25000000  0.16452000  0.52152000  1.0
  H  H16  1  0.75000000  0.57386000  0.40384000  1.0
  H  H17  1  0.25000000  0.92614000  0.90384000  1.0
  H  H18  1  0.75000000  0.07386000  0.09616000  1.0
  H  H19  1  0.25000000  0.42614000  0.59616000  1.0
  H  H20  1  0.75000000  0.37507000  0.35308000  1.0
  H  H21  1  0.25000000  0.12493000  0.85308000  1.0
  H  H22  1  0.75000000  0.87507000  0.14692000  1.0
  H  H23  1  0.25000000  0.62493000  0.64692000  1.0
  H  H24  1  0.09805000  0.36762000  0.75628000  1.0
  H  H25  1  0.90195000  0.13238000  0.25628000  1.0
  H  H26  1  0.40196000  0.86762000  0.74372000  1.0
  H  H27  1  0.59804000  0.63238000  0.24372000  1.0
  H  H28  1  0.90196000  0.63238000  0.24372000  1.0
  H  H29  1  0.09804000  0.86762000  0.74372000  1.0
  H  H30  1  0.59804000  0.13238000  0.25628000  1.0
  H  H31  1  0.40196000  0.36762000  0.75628000  1.0
  H  H32  1  0.08986000  0.26779000  0.69008000  1.0
  H  H33  1  0.91014000  0.23221000  0.19008000  1.0
  H  H34  1  0.41014000  0.76779000  0.80992000  1.0
  H  H35  1  0.58986000  0.73221000  0.30992000  1.0
  H  H36  1  0.91014000  0.73221000  0.30992000  1.0
  H  H37  1  0.08986000  0.76779000  0.80992000  1.0
  H  H38  1  0.58986000  0.23221000  0.19008000  1.0
  H  H39  1  0.41014000  0.26779000  0.69008000  1.0
  C  C40  1  0.75000000  0.10639000  0.43481000  1.0
  C  C41  1  0.25000000  0.39362000  0.93482000  1.0
  C  C42  1  0.75000000  0.60638000  0.06519000  1.0
  C  C43  1  0.25000000  0.89361000  0.56519000  1.0
  C  C44  1  0.75000000  0.30805000  0.44526000  1.0
  C  C45  1  0.25000000  0.19195000  0.94526000  1.0
  C  C46  1  0.75000000  0.80805000  0.05474000  1.0
  C  C47  1  0.25000000  0.69195000  0.55474000  1.0
  C  C48  1  0.75000000  0.37619000  0.50861000  1.0
  C  C49  1  0.25000000  0.12381000  0.00861000  1.0
  C  C50  1  0.75000000  0.87618000  0.99139000  1.0
  C  C51  1  0.25000000  0.62382000  0.49139000  1.0
  C  C52  1  0.75000000  0.25454000  0.55888000  1.0
  C  C53  1  0.25000000  0.24546000  0.05888000  1.0
  C  C54  1  0.75000000  0.75454000  0.94112000  1.0
  C  C55  1  0.25000000  0.74546000  0.44112000  1.0
  C  C56  1  0.75000000  0.05775000  0.54792000  1.0
  C  C57  1  0.25000000  0.44225000  0.04792000  1.0
  C  C58  1  0.75000000  0.55775000  0.95208000  1.0
  C  C59  1  0.25000000  0.94226000  0.45208000  1.0
  C  C60  1  0.75000000  0.98702000  0.48654000  1.0
  C  C61  1  0.25000000  0.51298000  0.98654000  1.0
  C  C62  1  0.75000000  0.48702000  0.01346000  1.0
  C  C63  1  0.25000000  0.01298000  0.51346000  1.0
  C  C64  1  0.75000000  0.01894000  0.37054000  1.0
  C  C65  1  0.25000000  0.48106000  0.87054000  1.0
  C  C66  1  0.75000000  0.51894000  0.12946000  1.0
  C  C67  1  0.25000000  0.98106000  0.62946000  1.0
  N  N68  1  0.75000000  0.43090000  0.39749000  1.0
  N  N69  1  0.25000000  0.06910000  0.89749000  1.0
  N  N70  1  0.75000000  0.93090000  0.10251000  1.0
  N  N71  1  0.25000000  0.56910000  0.60251000  1.0
  N  N72  1  0.75000000  0.93071000  0.59953000  1.0
  N  N73  1  0.25000000  0.56929000  0.09953000  1.0
  N  N74  1  0.75000000  0.43070000  0.90047000  1.0
  N  N75  1  0.25000000  0.06930000  0.40047000  1.0
  O  O76  1  0.75000000  0.83892000  0.36640000  1.0
  O  O77  1  0.25000000  0.66108000  0.86640000  1.0
  O  O78  1  0.75000000  0.33891000  0.13360000  1.0
  O  O79  1  0.25000000  0.16108000  0.63360000  1.0
  O  O80  1  0.75000000  0.13010000  0.32291000  1.0
  O  O81  1  0.25000000  0.36990000  0.82291000  1.0
  O  O82  1  0.75000000  0.63010000  0.17709000  1.0
  O  O83  1  0.25000000  0.86990000  0.67709000  1.0
  O  O84  1  0.75000000  0.75508000  0.58944000  1.0
  O  O85  1  0.25000000  0.74492000  0.08944000  1.0
  O  O86  1  0.75000000  0.25507000  0.91056000  1.0
  O  O87  1  0.25000000  0.24493000  0.41056000  1.0
  O  O88  1  0.75000000  0.99606000  0.65464000  1.0
  O  O89  1  0.25000000  0.50394000  0.15464000  1.0
  O  O90  1  0.75000000  0.49606000  0.84536000  1.0
  O  O91  1  0.25000000  0.00394000  0.34536000  1.0
  O  O92  1  0.01132000  0.34281000  0.72006000  1.0
  O  O93  1  0.98868000  0.15720000  0.22006000  1.0
  O  O94  1  0.48868000  0.84281000  0.77994000  1.0
  O  O95  1  0.51132000  0.65720000  0.27994000  1.0
  O  O96  1  0.98868000  0.65719000  0.27994000  1.0
  O  O97  1  0.01132000  0.84281000  0.77994000  1.0
  O  O98  1  0.51132000  0.15719000  0.22006000  1.0
  O  O99  1  0.48868000  0.34281000  0.72006000  1.0
