# generated using pymatgen
data_Cd3H34C48(N4O9)2
_symmetry_space_group_name_H-M   'P 1'
_cell_length_a   8.91720000
_cell_length_b   10.04730000
_cell_length_c   14.39350000
_cell_angle_alpha   104.23870000
_cell_angle_beta   92.00660000
_cell_angle_gamma   109.22570000
_symmetry_Int_Tables_number   1
_chemical_formula_structural   Cd3H34C48(N4O9)2
_chemical_formula_sum   'Cd3 H34 C48 N8 O18'
_cell_volume   1170.72097299
_cell_formula_units_Z   1
loop_
 _symmetry_equiv_pos_site_id
 _symmetry_equiv_pos_as_xyz
  1  'x, y, z'
loop_
 _atom_site_type_symbol
 _atom_site_label
 _atom_site_symmetry_multiplicity
 _atom_site_fract_x
 _atom_site_fract_y
 _atom_site_fract_z
 _atom_site_occupancy
  Cd  Cd0  1  0.00001000  0.00000000  1.00000000  1.0
  Cd  Cd1  1  0.61857000  0.43801000  0.90487000  1.0
  Cd  Cd2  1  0.38144000  0.56198000  0.09513000  1.0
  H  H3  1  0.00844000  0.16929000  0.24986000  1.0
  H  H4  1  0.99156000  0.83071000  0.75016000  1.0
  H  H5  1  0.30460000  0.35092000  0.86456000  1.0
  H  H6  1  0.69541000  0.64907000  0.13544000  1.0
  H  H7  1  0.30991000  0.19831000  0.87727000  1.0
  H  H8  1  0.69010000  0.80168000  0.12273000  1.0
  H  H9  1  0.91505000  0.03634000  0.78126000  1.0
  H  H10  1  0.08495000  0.96366000  0.21875000  1.0
  H  H11  1  0.97852000  0.49347000  0.89628000  1.0
  H  H12  1  0.02149000  0.50654000  0.10372000  1.0
  H  H13  1  0.16023000  0.55547000  0.77399000  1.0
  H  H14  1  0.83977000  0.44453000  0.22601000  1.0
  H  H15  1  0.36347000  0.47877000  0.68503000  1.0
  H  H16  1  0.63651000  0.52121000  0.31496000  1.0
  H  H17  1  0.21550000  0.39336000  0.58172000  1.0
  H  H18  1  0.78450000  0.60662000  0.41828000  1.0
  H  H19  1  0.32142000  0.29082000  0.62219000  1.0
  H  H20  1  0.67858000  0.70917000  0.37782000  1.0
  H  H21  1  0.09491000  0.09805000  0.65955000  1.0
  H  H22  1  0.90508000  0.90193000  0.34045000  1.0
  H  H23  1  0.51916000  0.82189000  0.25868000  1.0
  H  H24  1  0.48082000  0.17810000  0.74131000  1.0
  H  H25  1  0.20342000  0.81356000  0.48210000  1.0
  H  H26  1  0.79657000  0.18645000  0.51789000  1.0
  H  H27  1  0.27077000  0.08202000  0.51325000  1.0
  H  H28  1  0.72923000  0.91799000  0.48674000  1.0
  H  H29  1  0.58700000  0.08805000  0.29209000  1.0
  H  H30  1  0.41298000  0.91194000  0.70789000  1.0
  H  H31  1  0.48761000  0.29184000  0.35052000  1.0
  H  H32  1  0.51241000  0.70816000  0.64946000  1.0
  H  H33  1  0.58605000  0.32886000  0.46767000  1.0
  H  H34  1  0.41396000  0.67115000  0.53232000  1.0
  H  H35  1  0.37824000  0.30182000  0.45331000  1.0
  H  H36  1  0.62176000  0.69819000  0.54667000  1.0
  C  C37  1  0.72315000  0.12032000  0.02720000  1.0
  C  C38  1  0.27686000  0.87968000  0.97282000  1.0
  C  C39  1  0.67518000  0.24475000  0.02897000  1.0
  C  C40  1  0.32483000  0.75524000  0.97104000  1.0
  C  C41  1  0.96874000  0.14956000  0.77894000  1.0
  C  C42  1  0.03125000  0.85044000  0.22108000  1.0
  C  C43  1  0.93669000  0.26089000  0.84771000  1.0
  C  C44  1  0.06330000  0.73911000  0.15230000  1.0
  C  C45  1  0.00226000  0.40753000  0.84294000  1.0
  C  C46  1  0.99773000  0.59246000  0.15706000  1.0
  C  C47  1  0.10349000  0.44179000  0.77501000  1.0
  C  C48  1  0.89649000  0.55820000  0.22499000  1.0
  C  C49  1  0.14304000  0.33233000  0.70949000  1.0
  C  C50  1  0.85697000  0.66767000  0.29050000  1.0
  C  C51  1  0.26842000  0.37571000  0.64610000  1.0
  C  C52  1  0.73159000  0.62428000  0.35389000  1.0
  C  C53  1  0.57470000  0.31588000  0.09114000  1.0
  C  C54  1  0.42531000  0.68412000  0.90887000  1.0
  C  C55  1  0.67512000  0.00458000  0.07856000  1.0
  C  C56  1  0.32490000  0.99541000  0.92144000  1.0
  C  C57  1  0.29584000  0.64169000  0.34007000  1.0
  C  C58  1  0.70414000  0.35831000  0.65993000  1.0
  C  C59  1  0.15357000  0.42250000  0.34181000  1.0
  C  C60  1  0.84642000  0.57752000  0.65820000  1.0
  C  C61  1  0.20611000  0.42000000  0.24712000  1.0
  C  C62  1  0.79390000  0.58001000  0.75288000  1.0
  C  C63  1  0.15816000  0.30241000  0.15398000  1.0
  C  C64  1  0.84185000  0.69760000  0.84603000  1.0
  C  C65  1  0.04868000  0.30294000  0.38039000  1.0
  C  C66  1  0.95131000  0.69707000  0.61962000  1.0
  C  C67  1  0.35571000  0.79832000  0.36764000  1.0
  C  C68  1  0.64428000  0.20168000  0.63235000  1.0
  C  C69  1  0.06813000  0.18506000  0.71029000  1.0
  C  C70  1  0.93185000  0.81493000  0.28972000  1.0
  C  C71  1  0.46526000  0.87870000  0.31450000  1.0
  C  C72  1  0.53473000  0.12132000  0.68549000  1.0
  C  C73  1  0.29141000  0.87575000  0.44347000  1.0
  C  C74  1  0.70858000  0.12427000  0.55653000  1.0
  C  C75  1  0.43504000  0.10510000  0.40614000  1.0
  C  C76  1  0.56496000  0.89490000  0.59385000  1.0
  C  C77  1  0.32818000  0.02509000  0.45959000  1.0
  C  C78  1  0.67182000  0.97493000  0.54040000  1.0
  C  C79  1  0.50504000  0.02805000  0.33430000  1.0
  C  C80  1  0.49497000  0.97196000  0.66569000  1.0
  C  C81  1  0.47139000  0.26484000  0.41989000  1.0
  C  C82  1  0.52861000  0.73516000  0.58009000  1.0
  C  C83  1  0.84117000  0.22782000  0.92267000  1.0
  C  C84  1  0.15885000  0.77218000  0.07734000  1.0
  N  N85  1  0.82689000  0.11423000  0.96136000  1.0
  N  N86  1  0.17312000  0.88578000  0.03865000  1.0
  N  N87  1  0.75234000  0.30986000  0.96448000  1.0
  N  N88  1  0.24767000  0.69012000  0.03553000  1.0
  N  N89  1  0.29857000  0.55653000  0.24890000  1.0
  N  N90  1  0.70145000  0.44346000  0.75107000  1.0
  N  N91  1  0.20987000  0.56086000  0.39729000  1.0
  N  N92  1  0.79010000  0.43915000  0.60273000  1.0
  O  O93  1  0.53942000  0.28547000  0.16792000  1.0
  O  O94  1  0.46056000  0.71454000  0.83208000  1.0
  O  O95  1  0.54231000  0.41440000  0.05853000  1.0
  O  O96  1  0.45771000  0.58561000  0.94147000  1.0
  O  O97  1  0.03355000  0.32316000  0.46653000  1.0
  O  O98  1  0.96644000  0.67686000  0.53347000  1.0
  O  O99  1  0.97027000  0.17350000  0.31689000  1.0
  O  O100  1  0.02974000  0.82651000  0.68312000  1.0
  O  O101  1  0.08007000  0.17159000  0.15703000  1.0
  O  O102  1  0.91993000  0.82842000  0.84299000  1.0
  O  O103  1  0.18845000  0.33520000  0.07566000  1.0
  O  O104  1  0.81154000  0.66480000  0.92434000  1.0
  O  O105  1  0.77328000  0.93580000  0.08407000  1.0
  O  O106  1  0.22674000  0.06419000  0.91594000  1.0
  O  O107  1  0.54085000  0.97451000  0.10832000  1.0
  O  O108  1  0.45916000  0.02547000  0.89168000  1.0
  O  O109  1  0.36310000  0.28338000  0.84860000  1.0
  O  O110  1  0.63691000  0.71661000  0.15141000  1.0
