# generated using pymatgen
data_CoH11C18N7O6
_symmetry_space_group_name_H-M   'P 1'
_cell_length_a   10.18910000
_cell_length_b   18.97800000
_cell_length_c   20.86390000
_cell_angle_alpha   89.99980000
_cell_angle_beta   89.99990000
_cell_angle_gamma   90.00000000
_symmetry_Int_Tables_number   1
_chemical_formula_structural   CoH11C18N7O6
_chemical_formula_sum   'Co8 H88 C144 N56 O48'
_cell_volume   4034.42605028
_cell_formula_units_Z   8
loop_
 _symmetry_equiv_pos_site_id
 _symmetry_equiv_pos_as_xyz
  1  'x, y, z'
loop_
 _atom_site_type_symbol
 _atom_site_label
 _atom_site_symmetry_multiplicity
 _atom_site_fract_x
 _atom_site_fract_y
 _atom_site_fract_z
 _atom_site_occupancy
  Co  Co0  1  0.56955000  0.04805000  0.57222000  1.0
  Co  Co1  1  0.93045000  0.95195000  0.07222000  1.0
  Co  Co2  1  0.43046000  0.54805000  0.92778000  1.0
  Co  Co3  1  0.06956000  0.45195000  0.42778000  1.0
  Co  Co4  1  0.57482000  0.44296000  0.07488000  1.0
  Co  Co5  1  0.92517000  0.55703000  0.57488000  1.0
  Co  Co6  1  0.42517000  0.94297000  0.42512000  1.0
  Co  Co7  1  0.07483000  0.05703000  0.92512000  1.0
  H  H8  1  0.40649000  0.11668000  0.45329000  1.0
  H  H9  1  0.09349000  0.88332000  0.95329000  1.0
  H  H10  1  0.59349000  0.61668000  0.04672000  1.0
  H  H11  1  0.90650000  0.38333000  0.54671000  1.0
  H  H12  1  0.72984000  0.19078000  0.56057000  1.0
  H  H13  1  0.77016000  0.80921000  0.06057000  1.0
  H  H14  1  0.27016000  0.69079000  0.93943000  1.0
  H  H15  1  0.22984000  0.30921000  0.43943000  1.0
  H  H16  1  0.66891000  0.29117000  0.46865000  1.0
  H  H17  1  0.83109000  0.70883000  0.96865000  1.0
  H  H18  1  0.33108000  0.79117000  0.03135000  1.0
  H  H19  1  0.16891000  0.20883000  0.53135000  1.0
  H  H20  1  0.61999000  0.31659000  0.37043000  1.0
  H  H21  1  0.88001000  0.68341000  0.87043000  1.0
  H  H22  1  0.38000000  0.81659000  0.12957000  1.0
  H  H23  1  0.11999000  0.18341000  0.62957000  1.0
  H  H24  1  0.19902000  0.22076000  0.30328000  1.0
  H  H25  1  0.30098000  0.77925000  0.80329000  1.0
  H  H26  1  0.80097000  0.72075000  0.19672000  1.0
  H  H27  1  0.69902000  0.27924000  0.69671000  1.0
  H  H28  1  0.67929000  0.40862000  0.31831000  1.0
  H  H29  1  0.82074000  0.59138000  0.81831000  1.0
  H  H30  1  0.32071000  0.90862000  0.18169000  1.0
  H  H31  1  0.17928000  0.09138000  0.68169000  1.0
  H  H32  1  0.73843000  0.47767000  0.20488000  1.0
  H  H33  1  0.76159000  0.52232000  0.70489000  1.0
  H  H34  1  0.26156000  0.97767000  0.29511000  1.0
  H  H35  1  0.23842000  0.02233000  0.79511000  1.0
  H  H36  1  0.40244000  0.35169000  0.17429000  1.0
  H  H37  1  0.09757000  0.64830000  0.67429000  1.0
  H  H38  1  0.59756000  0.85170000  0.32571000  1.0
  H  H39  1  0.90243000  0.14830000  0.82571000  1.0
  H  H40  1  0.41922000  0.15330000  0.66787000  1.0
  H  H41  1  0.08079000  0.84670000  0.16787000  1.0
  H  H42  1  0.58079000  0.65330000  0.83213000  1.0
  H  H43  1  0.91922000  0.34670000  0.33213000  1.0
  H  H44  1  0.71897000  0.00498000  0.70467000  1.0
  H  H45  1  0.78103000  0.99502000  0.20467000  1.0
  H  H46  1  0.28103000  0.50498000  0.79534000  1.0
  H  H47  1  0.21898000  0.49502000  0.29533000  1.0
  H  H48  1  0.67274000  0.08132000  0.81594000  1.0
  H  H49  1  0.82726000  0.91868000  0.31594000  1.0
  H  H50  1  0.32726000  0.58132000  0.68406000  1.0
  H  H51  1  0.17274000  0.41868000  0.18406000  1.0
  H  H52  1  0.62421000  0.17571000  0.86953000  1.0
  H  H53  1  0.87579000  0.82429000  0.36952000  1.0
  H  H54  1  0.37579000  0.67571000  0.63048000  1.0
  H  H55  1  0.12422000  0.32429000  0.13047000  1.0
  H  H56  1  0.23001000  0.29312000  0.79185000  1.0
  H  H57  1  0.26999000  0.70688000  0.29185000  1.0
  H  H58  1  0.76999000  0.79312000  0.70815000  1.0
  H  H59  1  0.73002000  0.20688000  0.20815000  1.0
  H  H60  1  0.41925000  0.37864000  0.95345000  1.0
  H  H61  1  0.08074000  0.62136000  0.45345000  1.0
  H  H62  1  0.58075000  0.87864000  0.54655000  1.0
  H  H63  1  0.91925000  0.12136000  0.04655000  1.0
  H  H64  1  0.72781000  0.29501000  0.06548000  1.0
  H  H65  1  0.77218000  0.70499000  0.56547000  1.0
  H  H66  1  0.27219000  0.79501000  0.43453000  1.0
  H  H67  1  0.22782000  0.20499000  0.93453000  1.0
  H  H68  1  0.67414000  0.20083000  0.96730000  1.0
  H  H69  1  0.82585000  0.79917000  0.46730000  1.0
  H  H70  1  0.32585000  0.70084000  0.53271000  1.0
  H  H71  1  0.17415000  0.29916000  0.03270000  1.0
  H  H72  1  0.04457000  0.42348000  0.06467000  1.0
  H  H73  1  0.45543000  0.57653000  0.56467000  1.0
  H  H74  1  0.95543000  0.92348000  0.43533000  1.0
  H  H75  1  0.54457000  0.07652000  0.93533000  1.0
  H  H76  1  0.86899000  0.62486000  0.10590000  1.0
  H  H77  1  0.63099000  0.37513000  0.60590000  1.0
  H  H78  1  0.13100000  0.12487000  0.39410000  1.0
  H  H79  1  0.36899000  0.87513000  0.89410000  1.0
  H  H80  1  0.29151000  0.60278000  0.10192000  1.0
  H  H81  1  0.20848000  0.39723000  0.60191000  1.0
  H  H82  1  0.70848000  0.10278000  0.39808000  1.0
  H  H83  1  0.79151000  0.89722000  0.89809000  1.0
  H  H84  1  0.04537000  0.06859000  0.56651000  1.0
  H  H85  1  0.45464000  0.93140000  0.06652000  1.0
  H  H86  1  0.95465000  0.56859000  0.93349000  1.0
  H  H87  1  0.54537000  0.43141000  0.43348000  1.0
  H  H88  1  0.28428000  0.88690000  0.60715000  1.0
  H  H89  1  0.21572000  0.11309000  0.10716000  1.0
  H  H90  1  0.71573000  0.38691000  0.89284000  1.0
  H  H91  1  0.78428000  0.61310000  0.39284000  1.0
  H  H92  1  0.86091000  0.87063000  0.61161000  1.0
  H  H93  1  0.63910000  0.12936000  0.11161000  1.0
  H  H94  1  0.13911000  0.37063000  0.88839000  1.0
  H  H95  1  0.36090000  0.62937000  0.38838000  1.0
  C  C96  1  0.48570000  0.14954000  0.47116000  1.0
  C  C97  1  0.01429000  0.85047000  0.97116000  1.0
  C  C98  1  0.51430000  0.64954000  0.02884000  1.0
  C  C99  1  0.98571000  0.35047000  0.52884000  1.0
  C  C100  1  0.65384000  0.19104000  0.52456000  1.0
  C  C101  1  0.84616000  0.80896000  0.02456000  1.0
  C  C102  1  0.34616000  0.69104000  0.97544000  1.0
  C  C103  1  0.15384000  0.30896000  0.47544000  1.0
  C  C104  1  0.62466000  0.24061000  0.47943000  1.0
  C  C105  1  0.87534000  0.75938000  0.97942000  1.0
  C  C106  1  0.37533000  0.74061000  0.02058000  1.0
  C  C107  1  0.12466000  0.25939000  0.52057000  1.0
  C  C108  1  0.46040000  0.24306000  0.39008000  1.0
  C  C109  1  0.03960000  0.75694000  0.89008000  1.0
  C  C110  1  0.53959000  0.74306000  0.10992000  1.0
  C  C111  1  0.96040000  0.25694000  0.60992000  1.0
  C  C112  1  0.52434000  0.29638000  0.35636000  1.0
  C  C113  1  0.97566000  0.70361000  0.85635000  1.0
  C  C114  1  0.47565000  0.79639000  0.14364000  1.0
  C  C115  1  0.02434000  0.20361000  0.64364000  1.0
  C  C116  1  0.46053000  0.31845000  0.30077000  1.0
  C  C117  1  0.03948000  0.68155000  0.80077000  1.0
  C  C118  1  0.53946000  0.81845000  0.19923000  1.0
  C  C119  1  0.96053000  0.18155000  0.69923000  1.0
  C  C120  1  0.29383000  0.24202000  0.31810000  1.0
  C  C121  1  0.20617000  0.75798000  0.81810000  1.0
  C  C122  1  0.70616000  0.74202000  0.18190000  1.0
  C  C123  1  0.79383000  0.25798000  0.68190000  1.0
  C  C124  1  0.63130000  0.40810000  0.27188000  1.0
  C  C125  1  0.86872000  0.59189000  0.77188000  1.0
  C  C126  1  0.36870000  0.90811000  0.22812000  1.0
  C  C127  1  0.13129000  0.09190000  0.72812000  1.0
  C  C128  1  0.65934000  0.44145000  0.21560000  1.0
  C  C129  1  0.84068000  0.55854000  0.71560000  1.0
  C  C130  1  0.34065000  0.94145000  0.28440000  1.0
  C  C131  1  0.15933000  0.05855000  0.78440000  1.0
  C  C132  1  0.48406000  0.37818000  0.19708000  1.0
  C  C133  1  0.01596000  0.62182000  0.69708000  1.0
  C  C134  1  0.51594000  0.87818000  0.30292000  1.0
  C  C135  1  0.98405000  0.12182000  0.80292000  1.0
  C  C136  1  0.49284000  0.12198000  0.69198000  1.0
  C  C137  1  0.00716000  0.87802000  0.19198000  1.0
  C  C138  1  0.50717000  0.62198000  0.80803000  1.0
  C  C139  1  0.99284000  0.37802000  0.30802000  1.0
  C  C140  1  0.64946000  0.04700000  0.71378000  1.0
  C  C141  1  0.85053000  0.95300000  0.21378000  1.0
  C  C142  1  0.35053000  0.54700000  0.78622000  1.0
  C  C143  1  0.14948000  0.45300000  0.28622000  1.0
  C  C144  1  0.62741000  0.08364000  0.76906000  1.0
  C  C145  1  0.87259000  0.91636000  0.26905000  1.0
  C  C146  1  0.37258000  0.58364000  0.73095000  1.0
  C  C147  1  0.12742000  0.41636000  0.23094000  1.0
  C  C148  1  0.47439000  0.18343000  0.79504000  1.0
  C  C149  1  0.02561000  0.81657000  0.29503000  1.0
  C  C150  1  0.52560000  0.68343000  0.70497000  1.0
  C  C151  1  0.97440000  0.31657000  0.20496000  1.0
  C  C152  1  0.53442000  0.20090000  0.85291000  1.0
  C  C153  1  0.96558000  0.79910000  0.35291000  1.0
  C  C154  1  0.46557000  0.70090000  0.64710000  1.0
  C  C155  1  0.03443000  0.29910000  0.14709000  1.0
  C  C156  1  0.47398000  0.25566000  0.88634000  1.0
  C  C157  1  0.02602000  0.74433000  0.38634000  1.0
  C  C158  1  0.52602000  0.75567000  0.61367000  1.0
  C  C159  1  0.97399000  0.24433000  0.11366000  1.0
  C  C160  1  0.31845000  0.26688000  0.80925000  1.0
  C  C161  1  0.18155000  0.73312000  0.30925000  1.0
  C  C162  1  0.68155000  0.76688000  0.69075000  1.0
  C  C163  1  0.81846000  0.23312000  0.19075000  1.0
  C  C164  1  0.49538000  0.34416000  0.97185000  1.0
  C  C165  1  0.00461000  0.65584000  0.47185000  1.0
  C  C166  1  0.50462000  0.84416000  0.52815000  1.0
  C  C167  1  0.99539000  0.15584000  0.02815000  1.0
  C  C168  1  0.65576000  0.29787000  0.02758000  1.0
  C  C169  1  0.84423000  0.70213000  0.52758000  1.0
  C  C170  1  0.34424000  0.79787000  0.47242000  1.0
  C  C171  1  0.15577000  0.20213000  0.97242000  1.0
  C  C172  1  0.62951000  0.25092000  0.97971000  1.0
  C  C173  1  0.87048000  0.74908000  0.47971000  1.0
  C  C174  1  0.37048000  0.75092000  0.52030000  1.0
  C  C175  1  0.12953000  0.24908000  0.02029000  1.0
  C  C176  1  0.29954000  0.46140000  0.07428000  1.0
  C  C177  1  0.20046000  0.53861000  0.57427000  1.0
  C  C178  1  0.70046000  0.96140000  0.42572000  1.0
  C  C179  1  0.79954000  0.03860000  0.92572000  1.0
  C  C180  1  0.18135000  0.50828000  0.08065000  1.0
  C  C181  1  0.31864000  0.49173000  0.58065000  1.0
  C  C182  1  0.81864000  0.00827000  0.41935000  1.0
  C  C183  1  0.68135000  0.99173000  0.91935000  1.0
  C  C184  1  0.05601000  0.47921000  0.07547000  1.0
  C  C185  1  0.44399000  0.52079000  0.57547000  1.0
  C  C186  1  0.94399000  0.97921000  0.42453000  1.0
  C  C187  1  0.55601000  0.02079000  0.92453000  1.0
  C  C188  1  0.94342000  0.52030000  0.08407000  1.0
  C  C189  1  0.55658000  0.47970000  0.58407000  1.0
  C  C190  1  0.05658000  0.02031000  0.41593000  1.0
  C  C191  1  0.44341000  0.97969000  0.91593000  1.0
  C  C192  1  0.95539000  0.59180000  0.09918000  1.0
  C  C193  1  0.54460000  0.40820000  0.59918000  1.0
  C  C194  1  0.04460000  0.09180000  0.40082000  1.0
  C  C195  1  0.45539000  0.90820000  0.90083000  1.0
  C  C196  1  0.08181000  0.61928000  0.10641000  1.0
  C  C197  1  0.41817000  0.38072000  0.60640000  1.0
  C  C198  1  0.91818000  0.11929000  0.39360000  1.0
  C  C199  1  0.58182000  0.88072000  0.89360000  1.0
  C  C200  1  0.19482000  0.57939000  0.09641000  1.0
  C  C201  1  0.30517000  0.42062000  0.59640000  1.0
  C  C202  1  0.80517000  0.07939000  0.40359000  1.0
  C  C203  1  0.69483000  0.92061000  0.90359000  1.0
  C  C204  1  0.81329000  0.48432000  0.07961000  1.0
  C  C205  1  0.68671000  0.51568000  0.57961000  1.0
  C  C206  1  0.18671000  0.98432000  0.42039000  1.0
  C  C207  1  0.31328000  0.01568000  0.92039000  1.0
  C  C208  1  0.81084000  0.00961000  0.57998000  1.0
  C  C209  1  0.68917000  0.99039000  0.07998000  1.0
  C  C210  1  0.18918000  0.50960000  0.92002000  1.0
  C  C211  1  0.31083000  0.49039000  0.42002000  1.0
  C  C212  1  0.93998000  0.97323000  0.58698000  1.0
  C  C213  1  0.56003000  0.02676000  0.08699000  1.0
  C  C214  1  0.06003000  0.47324000  0.91301000  1.0
  C  C215  1  0.43998000  0.52676000  0.41301000  1.0
  C  C216  1  0.05417000  0.01296000  0.57833000  1.0
  C  C217  1  0.44583000  0.98703000  0.07834000  1.0
  C  C218  1  0.94584000  0.51296000  0.92167000  1.0
  C  C219  1  0.55417000  0.48704000  0.42166000  1.0
  C  C220  1  0.17825000  0.98250000  0.58421000  1.0
  C  C221  1  0.32175000  0.01750000  0.08422000  1.0
  C  C222  1  0.82176000  0.48250000  0.91578000  1.0
  C  C223  1  0.67825000  0.51750000  0.41578000  1.0
  C  C224  1  0.18869000  0.91151000  0.60124000  1.0
  C  C225  1  0.31132000  0.08848000  0.10125000  1.0
  C  C226  1  0.81132000  0.41152000  0.89875000  1.0
  C  C227  1  0.68868000  0.58848000  0.39875000  1.0
  C  C228  1  0.07380000  0.87354000  0.61260000  1.0
  C  C229  1  0.42620000  0.12646000  0.11260000  1.0
  C  C230  1  0.92620000  0.37354000  0.88740000  1.0
  C  C231  1  0.57380000  0.62646000  0.38739000  1.0
  C  C232  1  0.94882000  0.90232000  0.60432000  1.0
  C  C233  1  0.55119000  0.09768000  0.10432000  1.0
  C  C234  1  0.05119000  0.40232000  0.89569000  1.0
  C  C235  1  0.44881000  0.59768000  0.39568000  1.0
  C  C236  1  0.29771000  0.02818000  0.57634000  1.0
  C  C237  1  0.20229000  0.97181000  0.07634000  1.0
  C  C238  1  0.70230000  0.52819000  0.92366000  1.0
  C  C239  1  0.79771000  0.47182000  0.42365000  1.0
  N  N240  1  0.56764000  0.13469000  0.51863000  1.0
  N  N241  1  0.93236000  0.86531000  0.01863000  1.0
  N  N242  1  0.43236000  0.63469000  0.98137000  1.0
  N  N243  1  0.06764000  0.36531000  0.48137000  1.0
  N  N244  1  0.51767000  0.21394000  0.44547000  1.0
  N  N245  1  0.98232000  0.78606000  0.94546000  1.0
  N  N246  1  0.48232000  0.71394000  0.05454000  1.0
  N  N247  1  0.01768000  0.28606000  0.55454000  1.0
  N  N248  1  0.34551000  0.21513000  0.37176000  1.0
  N  N249  1  0.15449000  0.78487000  0.87175000  1.0
  N  N250  1  0.65448000  0.71513000  0.12825000  1.0
  N  N251  1  0.84551000  0.28487000  0.62825000  1.0
  N  N252  1  0.34502000  0.29251000  0.28128000  1.0
  N  N253  1  0.15499000  0.70750000  0.78128000  1.0
  N  N254  1  0.65497000  0.79251000  0.21873000  1.0
  N  N255  1  0.84502000  0.20749000  0.71872000  1.0
  N  N256  1  0.51941000  0.36800000  0.25983000  1.0
  N  N257  1  0.98061000  0.63199000  0.75983000  1.0
  N  N258  1  0.48059000  0.86801000  0.24017000  1.0
  N  N259  1  0.01940000  0.13199000  0.74017000  1.0
  N  N260  1  0.56791000  0.42180000  0.16928000  1.0
  N  N261  1  0.93210000  0.57820000  0.66929000  1.0
  N  N262  1  0.43208000  0.92180000  0.33072000  1.0
  N  N263  1  0.06791000  0.07820000  0.83071000  1.0
  N  N264  1  0.56599000  0.07193000  0.66608000  1.0
  N  N265  1  0.93401000  0.92807000  0.16608000  1.0
  N  N266  1  0.43401000  0.57193000  0.83392000  1.0
  N  N267  1  0.06600000  0.42807000  0.33392000  1.0
  N  N268  1  0.52743000  0.13113000  0.75493000  1.0
  N  N269  1  0.97257000  0.86887000  0.25493000  1.0
  N  N270  1  0.47257000  0.63113000  0.74507000  1.0
  N  N271  1  0.02744000  0.36888000  0.24507000  1.0
  N  N272  1  0.36690000  0.21559000  0.77252000  1.0
  N  N273  1  0.13310000  0.78441000  0.27252000  1.0
  N  N274  1  0.63310000  0.71559000  0.72748000  1.0
  N  N275  1  0.86691000  0.28441000  0.22748000  1.0
  N  N276  1  0.36598000  0.28897000  0.86554000  1.0
  N  N277  1  0.13401000  0.71103000  0.36554000  1.0
  N  N278  1  0.63401000  0.78897000  0.63446000  1.0
  N  N279  1  0.86600000  0.21103000  0.13446000  1.0
  N  N280  1  0.52735000  0.28074000  0.94425000  1.0
  N  N281  1  0.97265000  0.71925000  0.44425000  1.0
  N  N282  1  0.47265000  0.78075000  0.55575000  1.0
  N  N283  1  0.02736000  0.21925000  0.05575000  1.0
  N  N284  1  0.57269000  0.35567000  0.02182000  1.0
  N  N285  1  0.92730000  0.64433000  0.52182000  1.0
  N  N286  1  0.42731000  0.85567000  0.47819000  1.0
  N  N287  1  0.07270000  0.14433000  0.97818000  1.0
  N  N288  1  0.09736000  0.69294000  0.12641000  1.0
  N  N289  1  0.40262000  0.30707000  0.62640000  1.0
  N  N290  1  0.90263000  0.19294000  0.37360000  1.0
  N  N291  1  0.59736000  0.80706000  0.87360000  1.0
  N  N292  1  0.08466000  0.80088000  0.63597000  1.0
  N  N293  1  0.41535000  0.19912000  0.13596000  1.0
  N  N294  1  0.91535000  0.30088000  0.86403000  1.0
  N  N295  1  0.58465000  0.69913000  0.36403000  1.0
  O  O296  1  0.40873000  0.49340000  0.06185000  1.0
  O  O297  1  0.09128000  0.50660000  0.56184000  1.0
  O  O298  1  0.59127000  0.99340000  0.43816000  1.0
  O  O299  1  0.90872000  0.00660000  0.93816000  1.0
  O  O300  1  0.28603000  0.39644000  0.08342000  1.0
  O  O301  1  0.21397000  0.60357000  0.58342000  1.0
  O  O302  1  0.71397000  0.89644000  0.41657000  1.0
  O  O303  1  0.78603000  0.10356000  0.91658000  1.0
  O  O304  1  0.80798000  0.41807000  0.08296000  1.0
  O  O305  1  0.69203000  0.58193000  0.58297000  1.0
  O  O306  1  0.19203000  0.91808000  0.41704000  1.0
  O  O307  1  0.30796000  0.08193000  0.91704000  1.0
  O  O308  1  0.70810000  0.52184000  0.07365000  1.0
  O  O309  1  0.79189000  0.47816000  0.57365000  1.0
  O  O310  1  0.29189000  0.02185000  0.42635000  1.0
  O  O311  1  0.20810000  0.97815000  0.92635000  1.0
  O  O312  1  0.99647000  0.72911000  0.13264000  1.0
  O  O313  1  0.50350000  0.27089000  0.63264000  1.0
  O  O314  1  0.00351000  0.22912000  0.36736000  1.0
  O  O315  1  0.49648000  0.77089000  0.86736000  1.0
  O  O316  1  0.21016000  0.71534000  0.13612000  1.0
  O  O317  1  0.28982000  0.28467000  0.63612000  1.0
  O  O318  1  0.78982000  0.21534000  0.36388000  1.0
  O  O319  1  0.71017000  0.78466000  0.86388000  1.0
  O  O320  1  0.80621000  0.07583000  0.58169000  1.0
  O  O321  1  0.69380000  0.92417000  0.08169000  1.0
  O  O322  1  0.19380000  0.57583000  0.91831000  1.0
  O  O323  1  0.30621000  0.42417000  0.41831000  1.0
  O  O324  1  0.70611000  0.97173000  0.57330000  1.0
  O  O325  1  0.79389000  0.02826000  0.07330000  1.0
  O  O326  1  0.29390000  0.47173000  0.92670000  1.0
  O  O327  1  0.20611000  0.52827000  0.42670000  1.0
  O  O328  1  0.28703000  0.09334000  0.58507000  1.0
  O  O329  1  0.21297000  0.90666000  0.08506000  1.0
  O  O330  1  0.71298000  0.59334000  0.91493000  1.0
  O  O331  1  0.78703000  0.40666000  0.41493000  1.0
  O  O332  1  0.40523000  0.99518000  0.56242000  1.0
  O  O333  1  0.09478000  0.00482000  0.06242000  1.0
  O  O334  1  0.59478000  0.49518000  0.93758000  1.0
  O  O335  1  0.90523000  0.50482000  0.43757000  1.0
  O  O336  1  0.19530000  0.77364000  0.63854000  1.0
  O  O337  1  0.30470000  0.22635000  0.13855000  1.0
  O  O338  1  0.80471000  0.27365000  0.86145000  1.0
  O  O339  1  0.69529000  0.72636000  0.36145000  1.0
  O  O340  1  0.98199000  0.77057000  0.65269000  1.0
  O  O341  1  0.51802000  0.22944000  0.15266000  1.0
  O  O342  1  0.01801000  0.27057000  0.84732000  1.0
  O  O343  1  0.48198000  0.72944000  0.34732000  1.0
