# generated using pymatgen
data_CdH6C8N2(ClO)2
_symmetry_space_group_name_H-M   'P 1'
_cell_length_a   7.05946000
_cell_length_b   9.13049000
_cell_length_c   9.13046000
_cell_angle_alpha   90.10280000
_cell_angle_beta   110.88520000
_cell_angle_gamma   110.88500000
_symmetry_Int_Tables_number   1
_chemical_formula_structural   CdH6C8N2(ClO)2
_chemical_formula_sum   'Cd2 H12 C16 N4 Cl4 O4'
_cell_volume   508.09185031
_cell_formula_units_Z   2
loop_
 _symmetry_equiv_pos_site_id
 _symmetry_equiv_pos_as_xyz
  1  'x, y, z'
loop_
 _atom_site_type_symbol
 _atom_site_label
 _atom_site_symmetry_multiplicity
 _atom_site_fract_x
 _atom_site_fract_y
 _atom_site_fract_z
 _atom_site_occupancy
  Cd  Cd0  1  0.75000000  0.06186000  0.93814000  1.0
  Cd  Cd1  1  0.25000000  0.93813000  0.06186000  1.0
  H  H2  1  0.69773000  0.18965000  0.41337000  1.0
  H  H3  1  0.80226000  0.58663000  0.81035000  1.0
  H  H4  1  0.30227000  0.81035000  0.58663000  1.0
  H  H5  1  0.19773000  0.41337000  0.18965000  1.0
  H  H6  1  0.68867000  0.36603000  0.21726000  1.0
  H  H7  1  0.81133000  0.78274000  0.63396000  1.0
  H  H8  1  0.31133000  0.63397000  0.78274000  1.0
  H  H9  1  0.18867000  0.21726000  0.36604000  1.0
  H  H10  1  0.71901000  0.63811000  0.15500000  1.0
  H  H11  1  0.78100000  0.84500000  0.36189000  1.0
  H  H12  1  0.28099000  0.36189000  0.84500000  1.0
  H  H13  1  0.21899000  0.15501000  0.63810000  1.0
  C  C14  1  0.73477000  0.23165000  0.64382000  1.0
  C  C15  1  0.76521000  0.35616000  0.76835000  1.0
  C  C16  1  0.26522000  0.76835000  0.35617000  1.0
  C  C17  1  0.23479000  0.64383000  0.23165000  1.0
  C  C18  1  0.73272000  0.42299000  0.45957000  1.0
  C  C19  1  0.76729000  0.54042000  0.57699000  1.0
  C  C20  1  0.26729000  0.57701000  0.54043000  1.0
  C  C21  1  0.23273000  0.45957000  0.42301000  1.0
  C  C22  1  0.71534000  0.45815000  0.30691000  1.0
  C  C23  1  0.78467000  0.69309000  0.54185000  1.0
  C  C24  1  0.28465000  0.54185000  0.69308000  1.0
  C  C25  1  0.21534000  0.30692000  0.45815000  1.0
  C  C26  1  0.73254000  0.60956000  0.27321000  1.0
  C  C27  1  0.76747000  0.72679000  0.39043000  1.0
  C  C28  1  0.26747000  0.39044000  0.72679000  1.0
  C  C29  1  0.23253000  0.27321000  0.60957000  1.0
  N  N30  1  0.71727000  0.27355000  0.49933000  1.0
  N  N31  1  0.78272000  0.50067000  0.72645000  1.0
  N  N32  1  0.28271000  0.72645000  0.50067000  1.0
  N  N33  1  0.21727000  0.49933000  0.27355000  1.0
  Cl  Cl34  1  0.18523000  0.20005000  0.06283000  1.0
  Cl  Cl35  1  0.31477000  0.93717000  0.79995000  1.0
  Cl  Cl36  1  0.81477000  0.79995000  0.93717000  1.0
  Cl  Cl37  1  0.68523000  0.06283000  0.20005000  1.0
  O  O38  1  0.72641000  0.09658000  0.67569000  1.0
  O  O39  1  0.77358000  0.32432000  0.90342000  1.0
  O  O40  1  0.27360000  0.90342000  0.32432000  1.0
  O  O41  1  0.22642000  0.67568000  0.09658000  1.0
