# generated using pymatgen
data_PrH20C21(NO3)2
_symmetry_space_group_name_H-M   'P 1'
_cell_length_a   10.26080000
_cell_length_b   11.12370000
_cell_length_c   11.18530000
_cell_angle_alpha   98.47010000
_cell_angle_beta   114.67000000
_cell_angle_gamma   107.56000000
_symmetry_Int_Tables_number   1
_chemical_formula_structural   PrH20C21(NO3)2
_chemical_formula_sum   'Pr2 H40 C42 N4 O12'
_cell_volume   1049.64100168
_cell_formula_units_Z   2
loop_
 _symmetry_equiv_pos_site_id
 _symmetry_equiv_pos_as_xyz
  1  'x, y, z'
loop_
 _atom_site_type_symbol
 _atom_site_label
 _atom_site_symmetry_multiplicity
 _atom_site_fract_x
 _atom_site_fract_y
 _atom_site_fract_z
 _atom_site_occupancy
  Pr  Pr0  1  0.99329000  0.64755000  0.12405000  1.0
  Pr  Pr1  1  0.00671000  0.35245000  0.87596000  1.0
  H  H2  1  0.75724000  0.13099000  0.10817000  1.0
  H  H3  1  0.24276000  0.86901000  0.89183000  1.0
  H  H4  1  0.58494000  0.13119000  0.98227000  1.0
  H  H5  1  0.41506000  0.86881000  0.01773000  1.0
  H  H6  1  0.61332000  0.15126000  0.22655000  1.0
  H  H7  1  0.38667000  0.84873000  0.77344000  1.0
  H  H8  1  0.76326000  0.31061000  0.28563000  1.0
  H  H9  1  0.23674000  0.68938000  0.71436000  1.0
  H  H10  1  0.53132000  0.34600000  0.24396000  1.0
  H  H11  1  0.46867000  0.65399000  0.75603000  1.0
  H  H12  1  0.56168000  0.37456000  0.10481000  1.0
  H  H13  1  0.43832000  0.62544000  0.89520000  1.0
  H  H14  1  0.32307000  0.12009000  0.09455000  1.0
  H  H15  1  0.67692000  0.87990000  0.90543000  1.0
  H  H16  1  0.36757000  0.13567000  0.96014000  1.0
  H  H17  1  0.63243000  0.86434000  0.03985000  1.0
  H  H18  1  0.38949000  0.45258000  0.24482000  1.0
  H  H19  1  0.61051000  0.54742000  0.75517000  1.0
  H  H20  1  0.26610000  0.36505000  0.30094000  1.0
  H  H21  1  0.73390000  0.63496000  0.69906000  1.0
  H  H22  1  0.55669000  0.62766000  0.46681000  1.0
  H  H23  1  0.44331000  0.37234000  0.53318000  1.0
  H  H24  1  0.41300000  0.58689000  0.51691000  1.0
  H  H25  1  0.58702000  0.41312000  0.48308000  1.0
  H  H26  1  0.30208000  0.94079000  0.19855000  1.0
  H  H27  1  0.69792000  0.05922000  0.80145000  1.0
  H  H28  1  0.51091000  0.15877000  0.38197000  1.0
  H  H29  1  0.48908000  0.84125000  0.61803000  1.0
  H  H30  1  0.51136000  0.22145000  0.60500000  1.0
  H  H31  1  0.48862000  0.77856000  0.39500000  1.0
  H  H32  1  0.94600000  0.79858000  0.68866000  1.0
  H  H33  1  0.05401000  0.20140000  0.31134000  1.0
  H  H34  1  0.77525000  0.57394000  0.50578000  1.0
  H  H35  1  0.22476000  0.42604000  0.49422000  1.0
  H  H36  1  0.79759000  0.53110000  0.29014000  1.0
  H  H37  1  0.20242000  0.46889000  0.70986000  1.0
  H  H38  1  0.36655000  0.17877000  0.74024000  1.0
  H  H39  1  0.63344000  0.82123000  0.25977000  1.0
  H  H40  1  0.15544000  0.02423000  0.76726000  1.0
  H  H41  1  0.84455000  0.97576000  0.23274000  1.0
  C  C42  1  0.79012000  0.30549000  0.05014000  1.0
  C  C43  1  0.20988000  0.69451000  0.94986000  1.0
  C  C44  1  0.69198000  0.19424000  0.08121000  1.0
  C  C45  1  0.30802000  0.80576000  0.91879000  1.0
  C  C46  1  0.65402000  0.23776000  0.19418000  1.0
  C  C47  1  0.34598000  0.76223000  0.80582000  1.0
  C  C48  1  0.53096000  0.29698000  0.15074000  1.0
  C  C49  1  0.46904000  0.70302000  0.84926000  1.0
  C  C50  1  0.36552000  0.19269000  0.04831000  1.0
  C  C51  1  0.63448000  0.80731000  0.95168000  1.0
  C  C52  1  0.24300000  0.24851000  0.98676000  1.0
  C  C53  1  0.75700000  0.75150000  0.01324000  1.0
  C  C54  1  0.22555000  0.52973000  0.24842000  1.0
  C  C55  1  0.77446000  0.47027000  0.75158000  1.0
  C  C56  1  0.33825000  0.46663000  0.31190000  1.0
  C  C57  1  0.66175000  0.53337000  0.68810000  1.0
  C  C58  1  0.46370000  0.54280000  0.46251000  1.0
  C  C59  1  0.53631000  0.45720000  0.53749000  1.0
  C  C60  1  0.30538000  0.97412000  0.29705000  1.0
  C  C61  1  0.69462000  0.02589000  0.70296000  1.0
  C  C62  1  0.42056000  0.09541000  0.39915000  1.0
  C  C63  1  0.57943000  0.90460000  0.60085000  1.0
  C  C64  1  0.41946000  0.13087000  0.52218000  1.0
  C  C65  1  0.58053000  0.86914000  0.47782000  1.0
  C  C66  1  0.30039000  0.04724000  0.54119000  1.0
  C  C67  1  0.69960000  0.95276000  0.45882000  1.0
  C  C68  1  0.19180000  0.92457000  0.43394000  1.0
  C  C69  1  0.80820000  0.07543000  0.56607000  1.0
  C  C70  1  0.07428000  0.83261000  0.45334000  1.0
  C  C71  1  0.92572000  0.16739000  0.54666000  1.0
  C  C72  1  0.06548000  0.86902000  0.57628000  1.0
  C  C73  1  0.93452000  0.13097000  0.42372000  1.0
  C  C74  1  0.95393000  0.77405000  0.59441000  1.0
  C  C75  1  0.04608000  0.22594000  0.40559000  1.0
  C  C76  1  0.85896000  0.65141000  0.49379000  1.0
  C  C77  1  0.14105000  0.34858000  0.50621000  1.0
  C  C78  1  0.87204000  0.62579000  0.37333000  1.0
  C  C79  1  0.12797000  0.37421000  0.62667000  1.0
  C  C80  1  0.28547000  0.08190000  0.66196000  1.0
  C  C81  1  0.71452000  0.91810000  0.33804000  1.0
  C  C82  1  0.17016000  0.99692000  0.67740000  1.0
  C  C83  1  0.82983000  0.00307000  0.32260000  1.0
  N  N84  1  0.19609000  0.88979000  0.31443000  1.0
  N  N85  1  0.80390000  0.11021000  0.68558000  1.0
  N  N86  1  0.97615000  0.71328000  0.35343000  1.0
  N  N87  1  0.02386000  0.28672000  0.64657000  1.0
  O  O88  1  0.84154000  0.42510000  0.12312000  1.0
  O  O89  1  0.15845000  0.57490000  0.87688000  1.0
  O  O90  1  0.81512000  0.26739000  0.95140000  1.0
  O  O91  1  0.18488000  0.73261000  0.04860000  1.0
  O  O92  1  0.10415000  0.18475000  0.96515000  1.0
  O  O93  1  0.89584000  0.81525000  0.03484000  1.0
  O  O94  1  0.27954000  0.35522000  0.95567000  1.0
  O  O95  1  0.72047000  0.64479000  0.04434000  1.0
  O  O96  1  0.13272000  0.48264000  0.11701000  1.0
  O  O97  1  0.86728000  0.51736000  0.88299000  1.0
  O  O98  1  0.22156000  0.62468000  0.32284000  1.0
  O  O99  1  0.77845000  0.37533000  0.67716000  1.0
