# generated using pymatgen
data_HoH9C9NO11
_symmetry_space_group_name_H-M   'P 1'
_cell_length_a   7.37611000
_cell_length_b   9.25333000
_cell_length_c   11.27770557
_cell_angle_alpha   101.68704527
_cell_angle_beta   107.56437537
_cell_angle_gamma   99.51080000
_symmetry_Int_Tables_number   1
_chemical_formula_structural   HoH9C9NO11
_chemical_formula_sum   'Ho2 H18 C18 N2 O22'
_cell_volume   697.20012550
_cell_formula_units_Z   2
loop_
 _symmetry_equiv_pos_site_id
 _symmetry_equiv_pos_as_xyz
  1  'x, y, z'
loop_
 _atom_site_type_symbol
 _atom_site_label
 _atom_site_symmetry_multiplicity
 _atom_site_fract_x
 _atom_site_fract_y
 _atom_site_fract_z
 _atom_site_occupancy
  Ho  Ho0  1  0.67244000  0.55460000  0.78038000  1.0
  Ho  Ho1  1  0.32755000  0.44541000  0.21961000  1.0
  H  H2  1  0.20658000  0.15057000  0.38925000  1.0
  H  H3  1  0.79342000  0.84943000  0.61075000  1.0
  H  H4  1  0.03373000  0.68628000  0.40349000  1.0
  H  H5  1  0.96628000  0.31372000  0.59652000  1.0
  H  H6  1  0.50085000  0.01311000  0.72423000  1.0
  H  H7  1  0.49914000  0.98689000  0.27576000  1.0
  H  H8  1  0.72423000  0.61131000  0.54393000  1.0
  H  H9  1  0.27577000  0.38870000  0.45607000  1.0
  H  H10  1  0.94533000  0.60867000  0.62885000  1.0
  H  H11  1  0.05467000  0.39133000  0.37115000  1.0
  H  H12  1  0.29153000  0.55538000  0.77247000  1.0
  H  H13  1  0.70845000  0.44462000  0.22752000  1.0
  H  H14  1  0.35579000  0.50510000  0.90467000  1.0
  H  H15  1  0.64421000  0.49490000  0.09533000  1.0
  H  H16  1  0.88281000  0.84762000  0.00333000  1.0
  H  H17  1  0.11719000  0.15238000  0.99668000  1.0
  H  H18  1  0.86311000  0.88587000  0.86913000  1.0
  H  H19  1  0.13687000  0.11414000  0.13088000  1.0
  C  C20  1  0.47584000  0.25972000  0.63627000  1.0
  C  C21  1  0.52417000  0.74028000  0.36373000  1.0
  C  C22  1  0.35802000  0.10044000  0.56774000  1.0
  C  C23  1  0.64198000  0.89956000  0.43226000  1.0
  C  C24  1  0.22385000  0.06453000  0.44202000  1.0
  C  C25  1  0.77615000  0.93547000  0.55798000  1.0
  C  C26  1  0.11186000  0.91552000  0.38644000  1.0
  C  C27  1  0.88815000  0.08448000  0.61357000  1.0
  C  C28  1  0.12657000  0.80091000  0.45028000  1.0
  C  C29  1  0.87341000  0.19910000  0.54972000  1.0
  C  C30  1  0.27245000  0.83581000  0.57151000  1.0
  C  C31  1  0.72755000  0.16419000  0.42850000  1.0
  C  C32  1  0.38705000  0.98508000  0.62951000  1.0
  C  C33  1  0.61295000  0.01492000  0.37050000  1.0
  C  C34  1  0.31661000  0.71289000  0.63738000  1.0
  C  C35  1  0.68338000  0.28710000  0.36262000  1.0
  C  C36  1  0.06370000  0.49629000  0.95688000  1.0
  C  C37  1  0.93630000  0.50373000  0.04311000  1.0
  N  N38  1  0.97162000  0.87566000  0.25516000  1.0
  N  N39  1  0.02838000  0.12435000  0.74484000  1.0
  O  O40  1  0.43330000  0.37049000  0.58986000  1.0
  O  O41  1  0.56672000  0.62951000  0.41014000  1.0
  O  O42  1  0.61727000  0.28486000  0.74186000  1.0
  O  O43  1  0.38274000  0.71514000  0.25814000  1.0
  O  O44  1  0.49751000  0.71481000  0.68322000  1.0
  O  O45  1  0.50249000  0.28519000  0.31678000  1.0
  O  O46  1  0.17661000  0.61766000  0.64305000  1.0
  O  O47  1  0.82338000  0.38233000  0.35694000  1.0
  O  O48  1  0.82276000  0.77378000  0.22447000  1.0
  O  O49  1  0.17724000  0.22621000  0.77553000  1.0
  O  O50  1  0.01007000  0.94686000  0.17798000  1.0
  O  O51  1  0.98993000  0.05314000  0.82202000  1.0
  O  O52  1  0.99367000  0.51511000  0.84624000  1.0
  O  O53  1  0.00635000  0.48491000  0.15376000  1.0
  O  O54  1  0.23111000  0.47087000  0.00581000  1.0
  O  O55  1  0.76889000  0.52914000  0.99419000  1.0
  O  O56  1  0.80810000  0.60135000  0.62842000  1.0
  O  O57  1  0.19190000  0.39865000  0.37158000  1.0
  O  O58  1  0.40509000  0.54104000  0.84029000  1.0
  O  O59  1  0.59490000  0.45896000  0.15970000  1.0
  O  O60  1  0.84514000  0.80333000  0.90968000  1.0
  O  O61  1  0.15485000  0.19667000  0.09033000  1.0
