# generated using pymatgen
data_BaH4(CO3)2
_symmetry_space_group_name_H-M   'P 1'
_cell_length_a   7.04162000
_cell_length_b   7.49304000
_cell_length_c   11.11760000
_cell_angle_alpha   89.99950000
_cell_angle_beta   89.99900000
_cell_angle_gamma   74.93100000
_symmetry_Int_Tables_number   1
_chemical_formula_structural   BaH4(CO3)2
_chemical_formula_sum   'Ba4 H16 C8 O24'
_cell_volume   566.42834795
_cell_formula_units_Z   4
loop_
 _symmetry_equiv_pos_site_id
 _symmetry_equiv_pos_as_xyz
  1  'x, y, z'
loop_
 _atom_site_type_symbol
 _atom_site_label
 _atom_site_symmetry_multiplicity
 _atom_site_fract_x
 _atom_site_fract_y
 _atom_site_fract_z
 _atom_site_occupancy
  Ba  Ba0  1  0.70700000  0.20175000  0.98934000  1.0
  Ba  Ba1  1  0.79300000  0.79826000  0.48934000  1.0
  Ba  Ba2  1  0.29300000  0.79825000  0.01066000  1.0
  Ba  Ba3  1  0.20700000  0.20174000  0.51066000  1.0
  H  H4  1  0.25698000  0.40198000  0.88957000  1.0
  H  H5  1  0.24302000  0.59802000  0.38957000  1.0
  H  H6  1  0.74302000  0.59802000  0.11043000  1.0
  H  H7  1  0.75698000  0.40198000  0.61043000  1.0
  H  H8  1  0.22147000  0.36015000  0.02439000  1.0
  H  H9  1  0.27854000  0.63985000  0.52439000  1.0
  H  H10  1  0.77854000  0.63985000  0.97561000  1.0
  H  H11  1  0.72146000  0.36015000  0.47561000  1.0
  H  H12  1  0.53184000  0.46325000  0.75435000  1.0
  H  H13  1  0.96816000  0.53675000  0.25435000  1.0
  H  H14  1  0.46816000  0.53675000  0.24565000  1.0
  H  H15  1  0.03184000  0.46325000  0.74566000  1.0
  H  H16  1  0.59298000  0.24986000  0.71537000  1.0
  H  H17  1  0.90702000  0.75014000  0.21536000  1.0
  H  H18  1  0.40702000  0.75014000  0.28463000  1.0
  H  H19  1  0.09298000  0.24986000  0.78464000  1.0
  C  C20  1  0.07485000  0.21167000  0.20052000  1.0
  C  C21  1  0.42517000  0.78834000  0.70051000  1.0
  C  C22  1  0.92515000  0.78833000  0.79948000  1.0
  C  C23  1  0.57483000  0.21166000  0.29949000  1.0
  C  C24  1  0.00993000  0.03978000  0.24728000  1.0
  C  C25  1  0.49008000  0.96023000  0.74726000  1.0
  C  C26  1  0.99007000  0.96022000  0.75272000  1.0
  C  C27  1  0.50992000  0.03977000  0.25274000  1.0
  O  O28  1  0.07274000  0.23321000  0.08739000  1.0
  O  O29  1  0.42727000  0.76679000  0.58739000  1.0
  O  O30  1  0.92726000  0.76679000  0.91260000  1.0
  O  O31  1  0.57273000  0.23320000  0.41261000  1.0
  O  O32  1  0.12232000  0.31614000  0.27789000  1.0
  O  O33  1  0.37768000  0.68387000  0.77789000  1.0
  O  O34  1  0.87768000  0.68386000  0.72211000  1.0
  O  O35  1  0.62232000  0.31613000  0.22211000  1.0
  O  O36  1  0.00278000  0.01513000  0.35916000  1.0
  O  O37  1  0.49723000  0.98488000  0.85916000  1.0
  O  O38  1  0.99722000  0.98487000  0.64084000  1.0
  O  O39  1  0.50277000  0.01512000  0.14084000  1.0
  O  O40  1  0.96566000  0.93783000  0.16547000  1.0
  O  O41  1  0.53435000  0.06217000  0.66546000  1.0
  O  O42  1  0.03434000  0.06217000  0.83453000  1.0
  O  O43  1  0.46565000  0.93783000  0.33454000  1.0
  O  O44  1  0.30602000  0.41666000  0.97234000  1.0
  O  O45  1  0.19399000  0.58335000  0.47234000  1.0
  O  O46  1  0.69399000  0.58335000  0.02765000  1.0
  O  O47  1  0.80601000  0.41665000  0.52766000  1.0
  O  O48  1  0.64544000  0.35271000  0.74785000  1.0
  O  O49  1  0.85456000  0.64729000  0.24785000  1.0
  O  O50  1  0.35456000  0.64729000  0.25215000  1.0
  O  O51  1  0.14544000  0.35271000  0.75215000  1.0
