# generated using pymatgen
data_CuMoH4C5NO4
_symmetry_space_group_name_H-M   'P 1'
_cell_length_a   7.51979000
_cell_length_b   9.23191000
_cell_length_c   13.58060000
_cell_angle_alpha   71.34230000
_cell_angle_beta   86.30850000
_cell_angle_gamma   71.73220000
_symmetry_Int_Tables_number   1
_chemical_formula_structural   CuMoH4C5NO4
_chemical_formula_sum   'Cu4 Mo4 H16 C20 N4 O16'
_cell_volume   847.55252970
_cell_formula_units_Z   4
loop_
 _symmetry_equiv_pos_site_id
 _symmetry_equiv_pos_as_xyz
  1  'x, y, z'
loop_
 _atom_site_type_symbol
 _atom_site_label
 _atom_site_symmetry_multiplicity
 _atom_site_fract_x
 _atom_site_fract_y
 _atom_site_fract_z
 _atom_site_occupancy
  Cu  Cu0  1  0.87796000  0.93914000  0.10178000  1.0
  Cu  Cu1  1  0.12203000  0.06086000  0.89822000  1.0
  Cu  Cu2  1  0.69220000  0.66848000  0.06566000  1.0
  Cu  Cu3  1  0.30780000  0.33152000  0.93434000  1.0
  Mo  Mo4  1  0.20600000  0.68503000  0.00936000  1.0
  Mo  Mo5  1  0.79400000  0.31496000  0.99064000  1.0
  Mo  Mo6  1  0.36011000  0.99570000  0.11912000  1.0
  Mo  Mo7  1  0.63989000  0.00429000  0.88087000  1.0
  H  H8  1  0.47118000  0.32162000  0.73379000  1.0
  H  H9  1  0.52885000  0.67839000  0.26621000  1.0
  H  H10  1  0.38485000  0.46286000  0.54867000  1.0
  H  H11  1  0.61517000  0.53719000  0.45134000  1.0
  H  H12  1  0.88898000  0.77635000  0.64182000  1.0
  H  H13  1  0.11100000  0.22363000  0.35819000  1.0
  H  H14  1  0.99762000  0.61971000  0.82447000  1.0
  H  H15  1  0.00237000  0.38027000  0.17553000  1.0
  H  H16  1  0.76938000  0.04279000  0.29024000  1.0
  H  H17  1  0.23060000  0.95720000  0.70975000  1.0
  H  H18  1  0.86436000  0.93182000  0.47944000  1.0
  H  H19  1  0.13562000  0.06818000  0.52055000  1.0
  H  H20  1  0.13863000  0.64478000  0.23084000  1.0
  H  H21  1  0.86137000  0.35523000  0.76916000  1.0
  H  H22  1  0.24456000  0.51360000  0.41499000  1.0
  H  H23  1  0.75545000  0.48641000  0.58502000  1.0
  C  C24  1  0.34378000  0.42345000  0.71018000  1.0
  C  C25  1  0.65625000  0.57656000  0.28982000  1.0
  C  C26  1  0.29309000  0.50414000  0.60597000  1.0
  C  C27  1  0.70693000  0.49589000  0.39403000  1.0
  C  C28  1  0.12614000  0.63291000  0.57651000  1.0
  C  C29  1  0.87386000  0.36710000  0.42349000  1.0
  C  C30  1  0.02003000  0.67759000  0.65708000  1.0
  C  C31  1  0.97996000  0.32240000  0.34292000  1.0
  C  C32  1  0.07879000  0.59060000  0.76013000  1.0
  C  C33  1  0.92121000  0.40939000  0.23987000  1.0
  C  C34  1  0.87339000  0.92531000  0.32281000  1.0
  C  C35  1  0.12659000  0.07469000  0.67719000  1.0
  C  C36  1  0.92812000  0.86189000  0.42790000  1.0
  C  C37  1  0.07187000  0.13810000  0.57211000  1.0
  C  C38  1  0.08048000  0.70303000  0.28896000  1.0
  C  C39  1  0.91952000  0.29697000  0.71105000  1.0
  C  C40  1  0.14027000  0.63208000  0.39249000  1.0
  C  C41  1  0.85972000  0.36792000  0.60752000  1.0
  C  C42  1  0.06454000  0.71066000  0.46562000  1.0
  C  C43  1  0.93547000  0.28935000  0.53439000  1.0
  N  N44  1  0.94714000  0.84640000  0.25447000  1.0
  N  N45  1  0.05283000  0.15359000  0.74553000  1.0
  N  N46  1  0.23675000  0.46462000  0.78591000  1.0
  N  N47  1  0.76326000  0.53537000  0.21409000  1.0
  O  O48  1  0.59339000  0.87453000  0.09819000  1.0
  O  O49  1  0.40661000  0.12546000  0.90180000  1.0
  O  O50  1  0.40154000  0.62203000  0.09363000  1.0
  O  O51  1  0.59846000  0.37796000  0.90637000  1.0
  O  O52  1  0.32379000  0.93236000  0.25114000  1.0
  O  O53  1  0.67622000  0.06763000  0.74886000  1.0
  O  O54  1  0.65977000  0.79600000  0.91768000  1.0
  O  O55  1  0.34024000  0.20399000  0.08232000  1.0
  O  O56  1  0.18290000  0.96280000  0.05160000  1.0
  O  O57  1  0.81710000  0.03720000  0.94839000  1.0
  O  O58  1  0.99354000  0.73140000  0.07977000  1.0
  O  O59  1  0.00645000  0.26859000  0.92023000  1.0
  O  O60  1  0.21610000  0.84334000  0.89099000  1.0
  O  O61  1  0.78390000  0.15665000  0.10901000  1.0
  O  O62  1  0.19513000  0.52100000  0.97266000  1.0
  O  O63  1  0.80487000  0.47899000  0.02734000  1.0
