# generated using pymatgen
data_ZnH9C22SNO7F2
_symmetry_space_group_name_H-M   'P 1'
_cell_length_a   13.79440000
_cell_length_b   15.69160000
_cell_length_c   15.72760000
_cell_angle_alpha   79.12810000
_cell_angle_beta   89.89850000
_cell_angle_gamma   83.59350000
_symmetry_Int_Tables_number   1
_chemical_formula_structural   ZnH9C22SNO7F2
_chemical_formula_sum   'Zn2 H18 C44 S2 N2 O14 F4'
_cell_volume   3321.70771869
_cell_formula_units_Z   2
loop_
 _symmetry_equiv_pos_site_id
 _symmetry_equiv_pos_as_xyz
  1  'x, y, z'
loop_
 _atom_site_type_symbol
 _atom_site_label
 _atom_site_symmetry_multiplicity
 _atom_site_fract_x
 _atom_site_fract_y
 _atom_site_fract_z
 _atom_site_occupancy
  Zn  Zn0  1  0.50131000  0.59380000  0.51476000  1.0
  Zn  Zn1  1  0.52388000  0.40102000  0.50307000  1.0
  H  H2  1  0.99993000  0.58332000  0.40752000  1.0
  H  H3  1  0.76917000  0.30209000  0.90065000  1.0
  H  H4  1  0.45108000  0.61423000  0.85388000  1.0
  H  H5  1  0.65228000  0.41895000  0.14627000  1.0
  H  H6  1  0.42229000  0.09243000  0.27767000  1.0
  H  H7  1  0.54674000  0.92170000  0.72801000  1.0
  H  H8  1  0.47858000  0.64941000  0.66240000  1.0
  H  H9  1  0.55492000  0.34680000  0.34849000  1.0
  H  H10  1  0.55678000  0.67575000  0.36750000  1.0
  H  H11  1  0.34691000  0.34754000  0.56452000  1.0
  H  H12  1  0.02042000  0.40556000  0.53459000  1.0
  H  H13  1  0.50860000  0.23436000  0.26668000  1.0
  H  H14  1  0.50007000  0.77184000  0.73907000  1.0
  H  H15  1  0.35757000  0.69551000  0.95068000  1.0
  H  H16  1  0.74375000  0.33723000  0.04916000  1.0
  H  H17  1  0.50503000  0.53437000  0.78198000  1.0
  H  H18  1  0.56181000  0.47149000  0.22528000  1.0
  H  H19  1  0.30763000  0.71212000  0.09785000  1.0
  C  C20  1  0.46437000  0.54260000  0.34532000  1.0
  C  C21  1  0.63287000  0.43388000  0.07754000  1.0
  C  C22  1  0.41169000  0.64080000  0.97723000  1.0
  C  C23  1  0.68478000  0.38776000  0.02332000  1.0
  C  C24  1  0.50671000  0.22307000  0.33715000  1.0
  C  C25  1  0.49324000  0.78331000  0.66867000  1.0
  C  C26  1  0.52892000  0.28643000  0.38105000  1.0
  C  C27  1  0.48316000  0.71548000  0.62717000  1.0
  C  C28  1  0.48530000  0.20600000  0.51280000  1.0
  C  C29  1  0.48859000  0.80461000  0.49083000  1.0
  C  C30  1  0.48802000  0.12909000  0.47704000  1.0
  C  C31  1  0.57212000  0.45254000  0.66274000  1.0
  C  C32  1  0.48133000  0.88219000  0.52758000  1.0
  C  C33  1  0.48155000  0.14320000  0.38462000  1.0
  C  C34  1  0.49781000  0.86766000  0.61962000  1.0
  C  C35  1  0.68901000  0.49866000  0.46157000  1.0
  C  C36  1  0.32575000  0.50194000  0.53181000  1.0
  C  C37  1  0.49259000  0.04051000  0.52428000  1.0
  C  C38  1  0.46791000  0.97257000  0.48276000  1.0
  C  C39  1  0.42790000  0.00132000  0.39682000  1.0
  C  C40  1  0.52958000  0.01613000  0.61120000  1.0
  C  C41  1  0.44365000  0.07891000  0.34596000  1.0
  C  C42  1  0.49776000  0.54727000  0.10415000  1.0
  C  C43  1  0.52477000  0.93535000  0.65988000  1.0
  C  C44  1  0.22439000  0.49336000  0.52221000  1.0
  C  C45  1  0.79131000  0.50321000  0.44429000  1.0
  C  C46  1  0.04341000  0.46605000  0.49781000  1.0
  C  C47  1  0.97717000  0.52320000  0.44534000  1.0
  C  C48  1  0.87849000  0.51074000  0.44155000  1.0
  C  C49  1  0.14018000  0.48134000  0.50919000  1.0
  C  C50  1  0.44912000  0.56722000  0.24944000  1.0
  C  C51  1  0.60847000  0.43443000  0.75465000  1.0
  C  C52  1  0.36475000  0.66019000  0.12432000  1.0
  C  C53  1  0.58699000  0.47196000  0.89899000  1.0
  C  C54  1  0.71065000  0.35358000  0.87641000  1.0
  C  C55  1  0.37708000  0.63486000  0.21244000  1.0
  C  C56  1  0.68375000  0.36848000  0.79003000  1.0
  C  C57  1  0.50738000  0.52420000  0.19520000  1.0
  C  C58  1  0.56330000  0.48487000  0.81032000  1.0
  C  C59  1  0.42469000  0.61708000  0.06881000  1.0
  C  C60  1  0.66211000  0.40373000  0.93290000  1.0
  C  C61  1  0.55586000  0.50140000  0.04641000  1.0
  C  C62  1  0.53570000  0.52314000  0.95606000  1.0
  C  C63  1  0.46436000  0.59501000  0.92345000  1.0
  S  S64  1  0.51567000  0.80803000  0.37533000  1.0
  S  S65  1  0.41713000  0.21492000  0.61224000  1.0
  N  N66  1  0.50997000  0.28104000  0.46708000  1.0
  N  N67  1  0.48847000  0.72464000  0.53922000  1.0
  O  O68  1  0.49064000  0.60220000  0.38334000  1.0
  O  O69  1  0.56614000  0.88383000  0.34937000  1.0
  O  O70  1  0.59311000  0.72650000  0.37868000  1.0
  O  O71  1  0.37877000  0.13313000  0.64133000  1.0
  O  O72  1  0.47552000  0.25193000  0.66835000  1.0
  O  O73  1  0.33007000  0.28151000  0.57123000  1.0
  O  O74  1  0.59182000  0.39486000  0.61674000  1.0
  O  O75  1  0.45255000  0.46643000  0.38299000  1.0
  O  O76  1  0.52085000  0.52628000  0.63779000  1.0
  O  O77  1  0.64903000  0.55891000  0.49815000  1.0
  O  O78  1  0.38325000  0.42943000  0.55288000  1.0
  O  O79  1  0.64937000  0.43569000  0.44042000  1.0
  O  O80  1  0.35397000  0.57699000  0.51874000  1.0
  O  O81  1  0.42930000  0.79497000  0.33090000  1.0
  F  F82  1  0.37150000  0.94933000  0.36537000  1.0
  F  F83  1  0.57283000  0.07509000  0.64578000  1.0
  F  F84  1  0.73283000  0.31894000  0.73856000  1.0
  F  F85  1  0.31612000  0.67278000  0.26571000  1.0
