# generated using pymatgen
data_AlH6C15(ClO2)3
_symmetry_space_group_name_H-M   'P 1'
_cell_length_a   4.03356000
_cell_length_b   17.22740000
_cell_length_c   17.22740000
_cell_angle_alpha   60.00000000
_cell_angle_beta   90.00010000
_cell_angle_gamma   89.99980000
_symmetry_Int_Tables_number   1
_chemical_formula_structural   AlH6C15(ClO2)3
_chemical_formula_sum   'Al2 H12 C30 Cl6 O12'
_cell_volume   1036.71320065
_cell_formula_units_Z   2
loop_
 _symmetry_equiv_pos_site_id
 _symmetry_equiv_pos_as_xyz
  1  'x, y, z'
loop_
 _atom_site_type_symbol
 _atom_site_label
 _atom_site_symmetry_multiplicity
 _atom_site_fract_x
 _atom_site_fract_y
 _atom_site_fract_z
 _atom_site_occupancy
  Al  Al0  1  0.00642000  0.50000000  0.00000000  1.0
  Al  Al1  1  0.99367000  0.16667000  0.66666000  1.0
  H  H2  1  0.72403000  0.46982000  0.41720000  1.0
  H  H3  1  0.28260000  0.46818000  0.41852000  1.0
  H  H4  1  0.27589000  0.55359000  0.24962000  1.0
  H  H5  1  0.71738000  0.55335000  0.24825000  1.0
  H  H6  1  0.72403000  0.11299000  0.96982000  1.0
  H  H7  1  0.28260000  0.11330000  0.96819000  1.0
  H  H8  1  0.27588000  0.19679000  0.05359000  1.0
  H  H9  1  0.71739000  0.19840000  0.05335000  1.0
  H  H10  1  0.72403000  0.91720000  0.61298000  1.0
  H  H11  1  0.28260000  0.91852000  0.61329000  1.0
  H  H12  1  0.27589000  0.74962000  0.69679000  1.0
  H  H13  1  0.71739000  0.74825000  0.69840000  1.0
  C  C14  1  0.50323000  0.63689000  0.93331000  1.0
  C  C15  1  0.50324000  0.42980000  0.13689000  1.0
  C  C16  1  0.50324000  0.43331000  0.92980000  1.0
  C  C17  1  0.49676000  0.23329000  0.52982000  1.0
  C  C18  1  0.49676000  0.23689000  0.73329000  1.0
  C  C19  1  0.49676000  0.02982000  0.73689000  1.0
  C  C20  1  0.50345000  0.28113000  0.42993000  1.0
  C  C21  1  0.49654000  0.37769000  0.23681000  1.0
  C  C22  1  0.50507000  0.37420000  0.38004000  1.0
  C  C23  1  0.50029000  0.28305000  0.28597000  1.0
  C  C24  1  0.49499000  0.42087000  0.28673000  1.0
  C  C25  1  0.49967000  0.23570000  0.38069000  1.0
  C  C26  1  0.50314000  0.45901000  0.38651000  1.0
  C  C27  1  0.49691000  0.51212000  0.28028000  1.0
  C  C28  1  0.50345000  0.28894000  0.78113000  1.0
  C  C29  1  0.49653000  0.38551000  0.87768000  1.0
  C  C30  1  0.50506000  0.24576000  0.87420000  1.0
  C  C31  1  0.50029000  0.43098000  0.78304000  1.0
  C  C32  1  0.49499000  0.29240000  0.92087000  1.0
  C  C33  1  0.49967000  0.38361000  0.73570000  1.0
  C  C34  1  0.50314000  0.15449000  0.95901000  1.0
  C  C35  1  0.49690000  0.20760000  0.01213000  1.0
  C  C36  1  0.50345000  0.92993000  0.78894000  1.0
  C  C37  1  0.49654000  0.73681000  0.88550000  1.0
  C  C38  1  0.50508000  0.88004000  0.74576000  1.0
  C  C39  1  0.50029000  0.78598000  0.93097000  1.0
  C  C40  1  0.49500000  0.78673000  0.79240000  1.0
  C  C41  1  0.49967000  0.88069000  0.88361000  1.0
  C  C42  1  0.50314000  0.88650000  0.65449000  1.0
  C  C43  1  0.49691000  0.78028000  0.70760000  1.0
  Cl  Cl44  1  0.49224000  0.22405000  0.22960000  1.0
  Cl  Cl45  1  0.50775000  0.12033000  0.43712000  1.0
  Cl  Cl46  1  0.49224000  0.54635000  0.72405000  1.0
  Cl  Cl47  1  0.50775000  0.44255000  0.62033000  1.0
  Cl  Cl48  1  0.49224000  0.72960000  0.04635000  1.0
  Cl  Cl49  1  0.50776000  0.93712000  0.94254000  1.0
  O  O50  1  0.27148000  0.41497000  0.98667000  1.0
  O  O51  1  0.27146000  0.59836000  0.91497000  1.0
  O  O52  1  0.27148000  0.48667000  0.09836000  1.0
  O  O53  1  0.74304000  0.48666000  0.91534000  1.0
  O  O54  1  0.74305000  0.41535000  0.09799000  1.0
  O  O55  1  0.74303000  0.59799000  0.98666000  1.0
  O  O56  1  0.25700000  0.06874000  0.75133000  1.0
  O  O57  1  0.25700000  0.17993000  0.56874000  1.0
  O  O58  1  0.25700000  0.25133000  0.67993000  1.0
  O  O59  1  0.72858000  0.06832000  0.68001000  1.0
  O  O60  1  0.72859000  0.18001000  0.75167000  1.0
  O  O61  1  0.72859000  0.25167000  0.56832000  1.0
