# generated using pymatgen
data_MnH8C7N10
_symmetry_space_group_name_H-M   'P 1'
_cell_length_a   7.47102000
_cell_length_b   8.76698000
_cell_length_c   16.76750000
_cell_angle_alpha   89.99970000
_cell_angle_beta   94.21190000
_cell_angle_gamma   89.99990000
_symmetry_Int_Tables_number   1
_chemical_formula_structural   MnH8C7N10
_chemical_formula_sum   'Mn4 H32 C28 N40'
_cell_volume   1095.27637455
_cell_formula_units_Z   4
loop_
 _symmetry_equiv_pos_site_id
 _symmetry_equiv_pos_as_xyz
  1  'x, y, z'
loop_
 _atom_site_type_symbol
 _atom_site_label
 _atom_site_symmetry_multiplicity
 _atom_site_fract_x
 _atom_site_fract_y
 _atom_site_fract_z
 _atom_site_occupancy
  Mn  Mn0  1  0.17946000  0.38479000  0.52999000  1.0
  Mn  Mn1  1  0.32053000  0.88478000  0.97001000  1.0
  Mn  Mn2  1  0.82053000  0.61522000  0.47001000  1.0
  Mn  Mn3  1  0.67947000  0.11522000  0.02999000  1.0
  H  H4  1  0.39924000  0.17544000  0.66054000  1.0
  H  H5  1  0.10077000  0.67544000  0.83945000  1.0
  H  H6  1  0.60076000  0.82456000  0.33946000  1.0
  H  H7  1  0.89923000  0.32456000  0.16055000  1.0
  H  H8  1  0.32496000  0.99082000  0.69136000  1.0
  H  H9  1  0.17505000  0.49081000  0.80864000  1.0
  H  H10  1  0.67504000  0.00918000  0.30864000  1.0
  H  H11  1  0.82496000  0.50918000  0.19136000  1.0
  H  H12  1  0.36479000  0.80669000  0.58131000  1.0
  H  H13  1  0.13522000  0.30669000  0.91870000  1.0
  H  H14  1  0.63521000  0.19332000  0.41869000  1.0
  H  H15  1  0.86479000  0.69331000  0.08130000  1.0
  H  H16  1  0.30867000  0.81468000  0.41684000  1.0
  H  H17  1  0.19134000  0.31469000  0.08317000  1.0
  H  H18  1  0.69133000  0.18532000  0.58316000  1.0
  H  H19  1  0.80867000  0.68531000  0.91684000  1.0
  H  H20  1  0.19711000  0.11053000  0.38569000  1.0
  H  H21  1  0.30289000  0.61053000  0.11431000  1.0
  H  H22  1  0.80288000  0.88948000  0.61431000  1.0
  H  H23  1  0.69712000  0.38947000  0.88569000  1.0
  H  H24  1  0.04350000  0.99724000  0.76069000  1.0
  H  H25  1  0.45650000  0.49724000  0.73931000  1.0
  H  H26  1  0.95649000  0.00276000  0.23931000  1.0
  H  H27  1  0.54350000  0.50276000  0.26069000  1.0
  H  H28  1  0.77556000  0.21281000  0.77529000  1.0
  H  H29  1  0.72445000  0.71280000  0.72471000  1.0
  H  H30  1  0.22444000  0.78719000  0.22471000  1.0
  H  H31  1  0.27556000  0.28720000  0.27529000  1.0
  H  H32  1  0.85955000  0.43791000  0.66785000  1.0
  H  H33  1  0.64045000  0.93791000  0.83215000  1.0
  H  H34  1  0.14044000  0.56209000  0.33215000  1.0
  H  H35  1  0.35956000  0.06209000  0.16785000  1.0
  C  C36  1  0.29306000  0.08916000  0.65274000  1.0
  C  C37  1  0.20694000  0.58916000  0.84726000  1.0
  C  C38  1  0.70693000  0.91084000  0.34726000  1.0
  C  C39  1  0.79307000  0.41083000  0.15274000  1.0
  C  C40  1  0.31843000  0.89818000  0.54154000  1.0
  C  C41  1  0.18158000  0.39818000  0.95846000  1.0
  C  C42  1  0.68156000  0.10182000  0.45846000  1.0
  C  C43  1  0.81843000  0.60181000  0.04154000  1.0
  C  C44  1  0.29105000  0.90598000  0.45897000  1.0
  C  C45  1  0.20895000  0.40598000  0.04103000  1.0
  C  C46  1  0.70894000  0.09402000  0.54103000  1.0
  C  C47  1  0.79106000  0.59402000  0.95897000  1.0
  C  C48  1  0.23418000  0.05618000  0.44262000  1.0
  C  C49  1  0.26582000  0.55618000  0.05738000  1.0
  C  C50  1  0.76581000  0.94383000  0.55738000  1.0
  C  C51  1  0.73418000  0.44382000  0.94262000  1.0
  C  C52  1  0.01789000  0.10545000  0.73055000  1.0
  C  C53  1  0.48211000  0.60544000  0.76945000  1.0
  C  C54  1  0.98211000  0.89455000  0.26945000  1.0
  C  C55  1  0.51790000  0.39455000  0.23055000  1.0
  C  C56  1  0.88686000  0.21633000  0.73725000  1.0
  C  C57  1  0.61315000  0.71633000  0.76275000  1.0
  C  C58  1  0.11314000  0.78367000  0.26275000  1.0
  C  C59  1  0.38686000  0.28367000  0.23725000  1.0
  C  C60  1  0.92853000  0.33162000  0.68311000  1.0
  C  C61  1  0.57147000  0.83162000  0.81689000  1.0
  C  C62  1  0.07146000  0.66838000  0.31689000  1.0
  C  C63  1  0.42854000  0.16838000  0.18311000  1.0
  N  N64  1  0.06879000  0.60876000  0.55456000  1.0
  N  N65  1  0.43121000  0.10876000  0.94544000  1.0
  N  N66  1  0.93121000  0.39124000  0.44544000  1.0
  N  N67  1  0.56879000  0.89123000  0.05456000  1.0
  N  N68  1  0.07149000  0.67048000  0.61886000  1.0
  N  N69  1  0.42851000  0.17048000  0.88114000  1.0
  N  N70  1  0.92850000  0.32952000  0.38115000  1.0
  N  N71  1  0.57149000  0.82952000  0.11885000  1.0
  N  N72  1  0.07347000  0.73276000  0.68060000  1.0
  N  N73  1  0.42653000  0.23275000  0.81939000  1.0
  N  N74  1  0.92652000  0.26725000  0.31940000  1.0
  N  N75  1  0.57348000  0.76724000  0.18061000  1.0
  N  N76  1  0.42774000  0.42318000  0.60115000  1.0
  N  N77  1  0.07226000  0.92318000  0.89885000  1.0
  N  N78  1  0.57225000  0.57682000  0.39885000  1.0
  N  N79  1  0.92775000  0.07682000  0.10115000  1.0
  N  N80  1  0.55357000  0.49868000  0.58715000  1.0
  N  N81  1  0.94643000  0.99868000  0.91285000  1.0
  N  N82  1  0.44643000  0.50132000  0.41285000  1.0
  N  N83  1  0.05357000  0.00132000  0.08715000  1.0
  N  N84  1  0.68122000  0.57430000  0.57675000  1.0
  N  N85  1  0.81878000  0.07430000  0.92325000  1.0
  N  N86  1  0.31877000  0.42569000  0.42325000  1.0
  N  N87  1  0.18122000  0.92569000  0.07675000  1.0
  N  N88  1  0.27730000  0.03734000  0.57035000  1.0
  N  N89  1  0.22271000  0.53734000  0.92965000  1.0
  N  N90  1  0.72270000  0.96267000  0.42965000  1.0
  N  N91  1  0.77730000  0.46266000  0.07035000  1.0
  N  N92  1  0.22732000  0.13646000  0.51066000  1.0
  N  N93  1  0.27268000  0.63646000  0.98934000  1.0
  N  N94  1  0.77267000  0.86355000  0.48934000  1.0
  N  N95  1  0.72733000  0.36354000  0.01066000  1.0
  N  N96  1  0.12767000  0.15656000  0.67543000  1.0
  N  N97  1  0.37233000  0.65656000  0.82457000  1.0
  N  N98  1  0.87233000  0.84344000  0.32457000  1.0
  N  N99  1  0.62767000  0.34344000  0.17543000  1.0
  N  N100  1  0.07519000  0.29498000  0.64554000  1.0
  N  N101  1  0.42481000  0.79498000  0.85446000  1.0
  N  N102  1  0.92480000  0.70502000  0.35446000  1.0
  N  N103  1  0.57519000  0.20502000  0.14554000  1.0
