# generated using pymatgen
data_NaH10C4N5O4
_symmetry_space_group_name_H-M   'P 1'
_cell_length_a   8.32581000
_cell_length_b   9.49335000
_cell_length_c   10.80590000
_cell_angle_alpha   90.94690000
_cell_angle_beta   90.00000000
_cell_angle_gamma   89.99990000
_symmetry_Int_Tables_number   1
_chemical_formula_structural   NaH10C4N5O4
_chemical_formula_sum   'Na4 H40 C16 N20 O16'
_cell_volume   853.97984601
_cell_formula_units_Z   4
loop_
 _symmetry_equiv_pos_site_id
 _symmetry_equiv_pos_as_xyz
  1  'x, y, z'
loop_
 _atom_site_type_symbol
 _atom_site_label
 _atom_site_symmetry_multiplicity
 _atom_site_fract_x
 _atom_site_fract_y
 _atom_site_fract_z
 _atom_site_occupancy
  Na  Na0  1  0.54477000  0.08643000  0.35922000  1.0
  Na  Na1  1  0.04477000  0.91356000  0.14078000  1.0
  Na  Na2  1  0.45523000  0.91357000  0.64078000  1.0
  Na  Na3  1  0.95523000  0.08643000  0.85922000  1.0
  H  H4  1  0.24214000  0.16824000  0.24468000  1.0
  H  H5  1  0.74214000  0.83176000  0.25532000  1.0
  H  H6  1  0.75786000  0.83176000  0.75532000  1.0
  H  H7  1  0.25786000  0.16824000  0.74468000  1.0
  H  H8  1  0.35814000  0.21036000  0.13870000  1.0
  H  H9  1  0.85814000  0.78964000  0.36130000  1.0
  H  H10  1  0.64186000  0.78964000  0.86130000  1.0
  H  H11  1  0.14186000  0.21036000  0.63870000  1.0
  H  H12  1  0.23279000  0.07317000  0.46748000  1.0
  H  H13  1  0.73279000  0.92683000  0.03252000  1.0
  H  H14  1  0.76721000  0.92683000  0.53252000  1.0
  H  H15  1  0.26721000  0.07317000  0.96748000  1.0
  H  H16  1  0.27325000  0.93167000  0.39229000  1.0
  H  H17  1  0.77325000  0.06833000  0.10770000  1.0
  H  H18  1  0.72675000  0.06833000  0.60770000  1.0
  H  H19  1  0.22675000  0.93167000  0.89229000  1.0
  H  H20  1  0.97871000  0.54616000  0.24750000  1.0
  H  H21  1  0.47871000  0.45384000  0.25250000  1.0
  H  H22  1  0.02129000  0.45384000  0.75250000  1.0
  H  H23  1  0.52129000  0.54616000  0.74750000  1.0
  H  H24  1  0.14551000  0.65456000  0.27626000  1.0
  H  H25  1  0.64551000  0.34544000  0.22374000  1.0
  H  H26  1  0.85449000  0.34544000  0.72374000  1.0
  H  H27  1  0.35449000  0.65456000  0.77626000  1.0
  H  H28  1  0.54981000  0.38186000  0.53733000  1.0
  H  H29  1  0.04981000  0.61814000  0.96267000  1.0
  H  H30  1  0.45018000  0.61814000  0.46267000  1.0
  H  H31  1  0.95018000  0.38186000  0.03733000  1.0
  H  H32  1  0.45979000  0.23188000  0.58314000  1.0
  H  H33  1  0.95979000  0.76812000  0.91686000  1.0
  H  H34  1  0.54021000  0.76812000  0.41687000  1.0
  H  H35  1  0.04021000  0.23188000  0.08313000  1.0
  H  H36  1  0.83964000  0.39234000  0.37815000  1.0
  H  H37  1  0.33964000  0.60766000  0.12185000  1.0
  H  H38  1  0.16036000  0.60766000  0.62185000  1.0
  H  H39  1  0.66036000  0.39234000  0.87815000  1.0
  H  H40  1  0.87803000  0.24827000  0.47548000  1.0
  H  H41  1  0.37803000  0.75173000  0.02452000  1.0
  H  H42  1  0.12197000  0.75173000  0.52452000  1.0
  H  H43  1  0.62197000  0.24827000  0.97548000  1.0
  C  C44  1  0.15477000  0.46539000  0.36367000  1.0
  C  C45  1  0.65477000  0.53462000  0.13632000  1.0
  C  C46  1  0.84523000  0.53461000  0.63633000  1.0
  C  C47  1  0.34523000  0.46539000  0.86367000  1.0
  C  C48  1  0.32582000  0.34757000  0.46785000  1.0
  C  C49  1  0.82582000  0.65243000  0.03215000  1.0
  C  C50  1  0.67418000  0.65242000  0.53215000  1.0
  C  C51  1  0.17418000  0.34758000  0.96785000  1.0
  C  C52  1  0.91968000  0.30187000  0.39190000  1.0
  C  C53  1  0.41968000  0.69813000  0.10810000  1.0
  C  C54  1  0.08032000  0.69813000  0.60810000  1.0
  C  C55  1  0.58032000  0.30187000  0.89190000  1.0
  C  C56  1  0.90351000  0.19769000  0.28243000  1.0
  C  C57  1  0.40351000  0.80231000  0.21757000  1.0
  C  C58  1  0.09649000  0.80231000  0.71757000  1.0
  C  C59  1  0.59649000  0.19768000  0.78243000  1.0
  N  N60  1  0.08025000  0.35190000  0.41213000  1.0
  N  N61  1  0.58025000  0.64810000  0.08787000  1.0
  N  N62  1  0.91975000  0.64810000  0.58787000  1.0
  N  N63  1  0.41975000  0.35190000  0.91213000  1.0
  N  N64  1  0.19048000  0.27290000  0.47883000  1.0
  N  N65  1  0.69048000  0.72710000  0.02117000  1.0
  N  N66  1  0.80952000  0.72710000  0.52117000  1.0
  N  N67  1  0.30951000  0.27290000  0.97883000  1.0
  N  N68  1  0.31066000  0.46710000  0.39971000  1.0
  N  N69  1  0.81065000  0.53290000  0.10029000  1.0
  N  N70  1  0.68934000  0.53290000  0.60029000  1.0
  N  N71  1  0.18934000  0.46710000  0.89971000  1.0
  N  N72  1  0.08473000  0.56275000  0.29307000  1.0
  N  N73  1  0.58473000  0.43725000  0.20693000  1.0
  N  N74  1  0.91527000  0.43725000  0.70693000  1.0
  N  N75  1  0.41527000  0.56275000  0.79307000  1.0
  N  N76  1  0.47060000  0.30244000  0.51283000  1.0
  N  N77  1  0.97060000  0.69757000  0.98717000  1.0
  N  N78  1  0.52939000  0.69756000  0.48717000  1.0
  N  N79  1  0.02940000  0.30244000  0.01283000  1.0
  O  O80  1  0.76149000  0.17849000  0.24121000  1.0
  O  O81  1  0.26149000  0.82151000  0.25879000  1.0
  O  O82  1  0.23851000  0.82151000  0.75879000  1.0
  O  O83  1  0.73851000  0.17849000  0.74121000  1.0
  O  O84  1  0.02841000  0.13914000  0.23955000  1.0
  O  O85  1  0.52841000  0.86086000  0.26045000  1.0
  O  O86  1  0.97159000  0.86087000  0.76045000  1.0
  O  O87  1  0.47159000  0.13913000  0.73955000  1.0
  O  O88  1  0.35725000  0.17909000  0.22549000  1.0
  O  O89  1  0.85724000  0.82091000  0.27451000  1.0
  O  O90  1  0.64276000  0.82091000  0.77451000  1.0
  O  O91  1  0.14276000  0.17909000  0.72549000  1.0
  O  O92  1  0.29803000  0.98621000  0.46945000  1.0
  O  O93  1  0.79803000  0.01379000  0.03056000  1.0
  O  O94  1  0.70197000  0.01379000  0.53056000  1.0
  O  O95  1  0.20197000  0.98621000  0.96944000  1.0
