# generated using pymatgen
data_MnCuH21C27N5O6
_symmetry_space_group_name_H-M   'P 1'
_cell_length_a   10.16260000
_cell_length_b   10.86420000
_cell_length_c   11.87720000
_cell_angle_alpha   106.50100000
_cell_angle_beta   95.29400000
_cell_angle_gamma   101.32600000
_symmetry_Int_Tables_number   1
_chemical_formula_structural   MnCuH21C27N5O6
_chemical_formula_sum   'Mn2 Cu2 H42 C54 N10 O12'
_cell_volume   1217.46820504
_cell_formula_units_Z   2
loop_
 _symmetry_equiv_pos_site_id
 _symmetry_equiv_pos_as_xyz
  1  'x, y, z'
loop_
 _atom_site_type_symbol
 _atom_site_label
 _atom_site_symmetry_multiplicity
 _atom_site_fract_x
 _atom_site_fract_y
 _atom_site_fract_z
 _atom_site_occupancy
  Mn  Mn0  1  0.31562000  0.88022000  0.42710000  1.0
  Mn  Mn1  1  0.68437000  0.11976000  0.57291000  1.0
  Cu  Cu2  1  0.21569000  0.88397000  0.97568000  1.0
  Cu  Cu3  1  0.78430000  0.11604000  0.02432000  1.0
  H  H4  1  0.20498000  0.58391000  0.43128000  1.0
  H  H5  1  0.79501000  0.41610000  0.56874000  1.0
  H  H6  1  0.35753000  0.55562000  0.40941000  1.0
  H  H7  1  0.64247000  0.44439000  0.59060000  1.0
  H  H8  1  0.50167000  0.34820000  0.98459000  1.0
  H  H9  1  0.49834000  0.65181000  0.01541000  1.0
  H  H10  1  0.65056000  0.47726000  0.17680000  1.0
  H  H11  1  0.34944000  0.52276000  0.82320000  1.0
  H  H12  1  0.66499000  0.37352000  0.33966000  1.0
  H  H13  1  0.33500000  0.62649000  0.66034000  1.0
  H  H14  1  0.52216000  0.15567000  0.31542000  1.0
  H  H15  1  0.47784000  0.84434000  0.68458000  1.0
  H  H16  1  0.35488000  0.17747000  0.86243000  1.0
  H  H17  1  0.64513000  0.82252000  0.13756000  1.0
  H  H18  1  0.18179000  0.86912000  0.71409000  1.0
  H  H19  1  0.81822000  0.13088000  0.28592000  1.0
  H  H20  1  0.20978000  0.03732000  0.72020000  1.0
  H  H21  1  0.79022000  0.96267000  0.27980000  1.0
  H  H22  1  0.96868000  0.96665000  0.70167000  1.0
  H  H23  1  0.03132000  0.03336000  0.29833000  1.0
  H  H24  1  0.02418000  0.06000000  0.85185000  1.0
  H  H25  1  0.97584000  0.94000000  0.14816000  1.0
  H  H26  1  0.88632000  0.88477000  0.88743000  1.0
  H  H27  1  0.11368000  0.11523000  0.11257000  1.0
  H  H28  1  0.88188000  0.77583000  0.74377000  1.0
  H  H29  1  0.11813000  0.22417000  0.25622000  1.0
  H  H30  1  0.92401000  0.60280000  0.76680000  1.0
  H  H31  1  0.07599000  0.39721000  0.23321000  1.0
  H  H32  1  0.28823000  0.54676000  0.11637000  1.0
  H  H33  1  0.71176000  0.45323000  0.88363000  1.0
  H  H34  1  0.22791000  0.31311000  0.99424000  1.0
  H  H35  1  0.77209000  0.68690000  0.00576000  1.0
  H  H36  1  0.07160000  0.23997000  0.79725000  1.0
  H  H37  1  0.92840000  0.76003000  0.20275000  1.0
  H  H38  1  0.97190000  0.40415000  0.73512000  1.0
  H  H39  1  0.02810000  0.59585000  0.26488000  1.0
  H  H40  1  0.15014000  0.10779000  0.57513000  1.0
  H  H41  1  0.84986000  0.89221000  0.42487000  1.0
  H  H42  1  0.01877000  0.40797000  0.45561000  1.0
  H  H43  1  0.98123000  0.59203000  0.54439000  1.0
  H  H44  1  0.43684000  0.37785000  0.46172000  1.0
  H  H45  1  0.56315000  0.62215000  0.53828000  1.0
  C  C46  1  0.32666000  0.94555000  0.20749000  1.0
  C  C47  1  0.67334000  0.05446000  0.79251000  1.0
  C  C48  1  0.42566000  0.12407000  0.13618000  1.0
  C  C49  1  0.57435000  0.87593000  0.86382000  1.0
  C  C50  1  0.42390000  0.17931000  0.04017000  1.0
  C  C51  1  0.57610000  0.82069000  0.95983000  1.0
  C  C52  1  0.50523000  0.30685000  0.05827000  1.0
  C  C53  1  0.49477000  0.69316000  0.94174000  1.0
  C  C54  1  0.58916000  0.37897000  0.16503000  1.0
  C  C55  1  0.41084000  0.62105000  0.83498000  1.0
  C  C56  1  0.59643000  0.32120000  0.25609000  1.0
  C  C57  1  0.40356000  0.67880000  0.74391000  1.0
  C  C58  1  0.51627000  0.19694000  0.24243000  1.0
  C  C59  1  0.48373000  0.80307000  0.75757000  1.0
  C  C60  1  0.34287000  0.11755000  0.92331000  1.0
  C  C61  1  0.65714000  0.88245000  0.07669000  1.0
  C  C62  1  0.17294000  0.96710000  0.76769000  1.0
  C  C63  1  0.82707000  0.03290000  0.23231000  1.0
  C  C64  1  0.02518000  0.96639000  0.78502000  1.0
  C  C65  1  0.97482000  0.03361000  0.21498000  1.0
  C  C66  1  0.95042000  0.84891000  0.82116000  1.0
  C  C67  1  0.04958000  0.15109000  0.17884000  1.0
  C  C68  1  0.01115000  0.65491000  0.83830000  1.0
  C  C69  1  0.98885000  0.34509000  0.16170000  1.0
  C  C70  1  0.07944000  0.56973000  0.88377000  1.0
  C  C71  1  0.92055000  0.43027000  0.11623000  1.0
  C  C72  1  0.17162000  0.61175000  0.99263000  1.0
  C  C73  1  0.82837000  0.38824000  0.00737000  1.0
  C  C74  1  0.22189000  0.51600000  0.03115000  1.0
  C  C75  1  0.77811000  0.48400000  0.96885000  1.0
  C  C76  1  0.18706000  0.38423000  0.96154000  1.0
  C  C77  1  0.81294000  0.61577000  0.03846000  1.0
  C  C78  1  0.09985000  0.34277000  0.85269000  1.0
  C  C79  1  0.90014000  0.65722000  0.14731000  1.0
  C  C80  1  0.04529000  0.43527000  0.81637000  1.0
  C  C81  1  0.95470000  0.56473000  0.18363000  1.0
  C  C82  1  0.26301000  0.79831000  0.16845000  1.0
  C  C83  1  0.73699000  0.20169000  0.83155000  1.0
  C  C84  1  0.30560000  0.23847000  0.52385000  1.0
  C  C85  1  0.69440000  0.76153000  0.47615000  1.0
  C  C86  1  0.17461000  0.19355000  0.54482000  1.0
  C  C87  1  0.82539000  0.80645000  0.45518000  1.0
  C  C88  1  0.07253000  0.25623000  0.52126000  1.0
  C  C89  1  0.92747000  0.74376000  0.47874000  1.0
  C  C90  1  0.10100000  0.36333000  0.47711000  1.0
  C  C91  1  0.89900000  0.63666000  0.52290000  1.0
  C  C92  1  0.23325000  0.41091000  0.45644000  1.0
  C  C93  1  0.76675000  0.58908000  0.54357000  1.0
  C  C94  1  0.33480000  0.34632000  0.48044000  1.0
  C  C95  1  0.66520000  0.65368000  0.51955000  1.0
  C  C96  1  0.41322000  0.16856000  0.54576000  1.0
  C  C97  1  0.58678000  0.83143000  0.45425000  1.0
  C  C98  1  0.93272000  0.20356000  0.54127000  1.0
  C  C99  1  0.06726000  0.79642000  0.45873000  1.0
  N  N100  1  0.34425000  0.99978000  0.12042000  1.0
  N  N101  1  0.65576000  0.00023000  0.87958000  1.0
  N  N102  1  0.25776000  0.00365000  0.88387000  1.0
  N  N103  1  0.74224000  0.99636000  0.11614000  1.0
  N  N104  1  0.04026000  0.78294000  0.87432000  1.0
  N  N105  1  0.95975000  0.21706000  0.12568000  1.0
  N  N106  1  0.21488000  0.74539000  0.05318000  1.0
  N  N107  1  0.78510000  0.25461000  0.94681000  1.0
  N  N108  1  0.25847000  0.51243000  0.40687000  1.0
  N  N109  1  0.74153000  0.48757000  0.59314000  1.0
  O  O110  1  0.35932000  0.00098000  0.31835000  1.0
  O  O111  1  0.64068000  0.99902000  0.68164000  1.0
  O  O112  1  0.26513000  0.74235000  0.24865000  1.0
  O  O113  1  0.73488000  0.25765000  0.75133000  1.0
  O  O114  1  0.37898000  0.05666000  0.56470000  1.0
  O  O115  1  0.62102000  0.94334000  0.43531000  1.0
  O  O116  1  0.53595000  0.22334000  0.54450000  1.0
  O  O117  1  0.46406000  0.77666000  0.45549000  1.0
  O  O118  1  0.91305000  0.11787000  0.59539000  1.0
  O  O119  1  0.08696000  0.88212000  0.40462000  1.0
  O  O120  1  0.83194000  0.24520000  0.50284000  1.0
  O  O121  1  0.16804000  0.75479000  0.49716000  1.0
