# generated using pymatgen
data_AlH36C39N7O6
_symmetry_space_group_name_H-M   'P 1'
_cell_length_a   3.99439000
_cell_length_b   18.03360000
_cell_length_c   18.05650000
_cell_angle_alpha   60.23400000
_cell_angle_beta   84.21810000
_cell_angle_gamma   86.36090000
_symmetry_Int_Tables_number   1
_chemical_formula_structural   AlH36C39N7O6
_chemical_formula_sum   'Al1 H36 C39 N7 O6'
_cell_volume   1123.17780954
_cell_formula_units_Z   1
loop_
 _symmetry_equiv_pos_site_id
 _symmetry_equiv_pos_as_xyz
  1  'x, y, z'
loop_
 _atom_site_type_symbol
 _atom_site_label
 _atom_site_symmetry_multiplicity
 _atom_site_fract_x
 _atom_site_fract_y
 _atom_site_fract_z
 _atom_site_occupancy
  Al  Al0  1  0.99583000  0.00001000  0.50063000  1.0
  H  H1  1  0.26324000  0.94450000  0.79929000  1.0
  H  H2  1  0.21303000  0.95799000  0.69684000  1.0
  H  H3  1  0.87866000  0.98440000  0.75145000  1.0
  H  H4  1  0.88418000  0.03287000  0.83716000  1.0
  H  H5  1  0.95485000  0.11958000  0.85257000  1.0
  H  H6  1  0.25829000  0.03652000  0.88063000  1.0
  H  H7  1  0.58494000  0.30639000  0.44219000  1.0
  H  H8  1  0.66380000  0.20447000  0.45097000  1.0
  H  H9  1  0.96785000  0.25083000  0.47899000  1.0
  H  H10  1  0.89672000  0.33459000  0.53164000  1.0
  H  H11  1  0.79191000  0.34441000  0.62363000  1.0
  H  H12  1  0.50862000  0.38319000  0.54294000  1.0
  H  H13  1  0.53412000  0.57228000  0.54514000  1.0
  H  H14  1  0.86643000  0.53202000  0.61354000  1.0
  H  H15  1  0.91273000  0.63042000  0.51739000  1.0
  H  H16  1  0.90523000  0.78788000  0.45292000  1.0
  H  H17  1  0.50103000  0.83536000  0.44575000  1.0
  H  H18  1  0.55210000  0.73568000  0.44852000  1.0
  H  H19  1  0.44713000  0.57589000  0.88686000  1.0
  H  H20  1  0.11094000  0.53976000  0.85692000  1.0
  H  H21  1  0.07629000  0.63985000  0.85305000  1.0
  H  H22  1  0.11084000  0.79562000  0.76155000  1.0
  H  H23  1  0.51747000  0.83778000  0.72127000  1.0
  H  H24  1  0.46437000  0.73961000  0.81827000  1.0
  H  H25  1  0.09105000  0.02945000  0.13089000  1.0
  H  H26  1  0.01180000  0.11694000  0.03002000  1.0
  H  H27  1  0.71606000  0.03430000  0.08341000  1.0
  H  H28  1  0.72706000  0.94142000  0.25640000  1.0
  H  H29  1  0.77591000  0.95464000  0.34568000  1.0
  H  H30  1  0.10679000  0.98133000  0.26478000  1.0
  H  H31  1  0.05753000  0.33367000  0.13925000  1.0
  H  H32  1  0.14531000  0.34054000  0.03841000  1.0
  H  H33  1  0.43688000  0.38051000  0.07667000  1.0
  H  H34  1  0.36735000  0.30377000  0.25598000  1.0
  H  H35  1  0.30356000  0.20196000  0.34827000  1.0
  H  H36  1  0.99089000  0.24797000  0.27518000  1.0
  C  C37  1  0.44976000  0.06907000  0.56475000  1.0
  C  C38  1  0.53247000  0.06626000  0.36824000  1.0
  C  C39  1  0.50302000  0.86816000  0.56782000  1.0
  C  C40  1  0.52562000  0.24500000  0.61932000  1.0
  C  C41  1  0.37493000  0.20449000  0.70468000  1.0
  C  C42  1  0.71801000  0.11715000  0.13817000  1.0
  C  C43  1  0.58375000  0.20156000  0.09452000  1.0
  C  C44  1  0.49119000  0.59508000  0.70530000  1.0
  C  C45  1  0.39668000  0.64055000  0.74956000  1.0
  C  C46  1  0.43049000  0.24212000  0.13993000  1.0
  C  C47  1  0.42089000  0.19833000  0.22993000  1.0
  C  C48  1  0.55152000  0.11457000  0.27225000  1.0
  C  C49  1  0.69609000  0.07309000  0.22819000  1.0
  C  C50  1  0.42343000  0.73000000  0.70521000  1.0
  C  C51  1  0.50325000  0.77273000  0.61595000  1.0
  C  C52  1  0.57960000  0.72777000  0.57090000  1.0
  C  C53  1  0.59297000  0.63797000  0.61667000  1.0
  C  C54  1  0.24930000  0.12023000  0.74409000  1.0
  C  C55  1  0.27787000  0.07625000  0.69757000  1.0
  C  C56  1  0.42008000  0.11763000  0.61275000  1.0
  C  C57  1  0.54160000  0.20123000  0.57255000  1.0
  C  C58  1  0.36954000  0.37736000  0.75318000  1.0
  C  C59  1  0.47766000  0.24289000  0.88006000  1.0
  C  C60  1  0.36696000  0.24939000  0.75464000  1.0
  C  C61  1  0.48448000  0.50064000  0.75267000  1.0
  C  C62  1  0.58904000  0.37582000  0.87522000  1.0
  C  C63  1  0.58867000  0.24712000  0.00009000  1.0
  C  C64  1  0.15344000  0.98620000  0.73807000  1.0
  C  C65  1  0.07772000  0.07546000  0.83312000  1.0
  C  C66  1  0.69581000  0.24266000  0.48152000  1.0
  C  C67  1  0.68858000  0.33114000  0.57763000  1.0
  C  C68  1  0.73235000  0.59057000  0.57080000  1.0
  C  C69  1  0.63756000  0.77406000  0.47462000  1.0
  C  C70  1  0.25139000  0.59660000  0.84148000  1.0
  C  C71  1  0.37617000  0.77824000  0.75399000  1.0
  C  C72  1  0.89316000  0.07261000  0.09293000  1.0
  C  C73  1  0.83176000  0.98302000  0.27651000  1.0
  C  C74  1  0.25932000  0.32859000  0.09608000  1.0
  C  C75  1  0.26436000  0.23996000  0.28008000  1.0
  N  N76  1  0.47870000  0.33228000  0.83603000  1.0
  N  N77  1  0.44092000  0.20229000  0.83680000  1.0
  N  N78  1  0.29415000  0.33416000  0.71475000  1.0
  N  N79  1  0.35120000  0.46243000  0.71461000  1.0
  N  N80  1  0.61353000  0.46067000  0.82969000  1.0
  N  N81  1  0.51412000  0.20123000  0.96376000  1.0
  N  N82  1  0.66123000  0.33130000  0.95698000  1.0
  O  O83  1  0.75329000  0.90564000  0.51427000  1.0
  O  O84  1  0.69246000  0.01518000  0.58059000  1.0
  O  O85  1  0.75130000  0.08151000  0.40539000  1.0
  O  O86  1  0.25064000  0.90766000  0.58242000  1.0
  O  O87  1  0.29842000  0.01190000  0.40695000  1.0
  O  O88  1  0.23155000  0.08356000  0.51211000  1.0
