# generated using pymatgen
data_Zn4H24C28S2O13F2
_symmetry_space_group_name_H-M   'P 1'
_cell_length_a   17.89010000
_cell_length_b   18.58600000
_cell_length_c   19.38770029
_cell_angle_alpha   118.42902153
_cell_angle_beta   116.25776801
_cell_angle_gamma   90.09010000
_symmetry_Int_Tables_number   1
_chemical_formula_structural   Zn4H24C28S2O13F2
_chemical_formula_sum   'Zn8 H48 C56 S4 O26 F4'
_cell_volume   4896.66133345
_cell_formula_units_Z   2
loop_
 _symmetry_equiv_pos_site_id
 _symmetry_equiv_pos_as_xyz
  1  'x, y, z'
loop_
 _atom_site_type_symbol
 _atom_site_label
 _atom_site_symmetry_multiplicity
 _atom_site_fract_x
 _atom_site_fract_y
 _atom_site_fract_z
 _atom_site_occupancy
  Zn  Zn0  1  0.13051000  0.53727000  0.07959000  1.0
  Zn  Zn1  1  0.96373000  0.38037000  0.93229000  1.0
  Zn  Zn2  1  0.96765000  0.55339000  0.93374000  1.0
  Zn  Zn3  1  0.95360000  0.54689000  0.08996000  1.0
  Zn  Zn4  1  0.37691000  0.96486000  0.93305000  1.0
  Zn  Zn5  1  0.54189000  0.95707000  0.08562000  1.0
  Zn  Zn6  1  0.53706000  0.12853000  0.08629000  1.0
  Zn  Zn7  1  0.55896000  0.96873000  0.93318000  1.0
  H  H8  1  0.21476000  0.80439000  0.12033000  1.0
  H  H9  1  0.12885000  0.78608000  0.01660000  1.0
  H  H10  1  0.21869000  0.88078000  0.02003000  1.0
  H  H11  1  0.30437000  0.89772000  0.12313000  1.0
  H  H12  1  0.19726000  0.76380000  0.87058000  1.0
  H  H13  1  0.26798000  0.69788000  0.86609000  1.0
  H  H14  1  0.10835000  0.66828000  0.86758000  1.0
  H  H15  1  0.18055000  0.60380000  0.86484000  1.0
  H  H16  1  0.31832000  0.71019000  0.11726000  1.0
  H  H17  1  0.30405000  0.62818000  0.01289000  1.0
  H  H18  1  0.39323000  0.72208000  0.01494000  1.0
  H  H19  1  0.40739000  0.80400000  0.11922000  1.0
  H  H20  1  0.90890000  0.31276000  0.13012000  1.0
  H  H21  1  0.89081000  0.23123000  0.02275000  1.0
  H  H22  1  0.80171000  0.13786000  0.02167000  1.0
  H  H23  1  0.81998000  0.22018000  0.12882000  1.0
  H  H24  1  0.67887000  0.11680000  0.87851000  1.0
  H  H25  1  0.60763000  0.18232000  0.88188000  1.0
  H  H26  1  0.76663000  0.21113000  0.87927000  1.0
  H  H27  1  0.69586000  0.27702000  0.88467000  1.0
  H  H28  1  0.80917000  0.40966000  0.13897000  1.0
  H  H29  1  0.72242000  0.39581000  0.03922000  1.0
  H  H30  1  0.63288000  0.30202000  0.03692000  1.0
  H  H31  1  0.71949000  0.31622000  0.13690000  1.0
  H  H32  1  0.17534000  0.27875000  0.08525000  1.0
  H  H33  1  0.26649000  0.36394000  0.14128000  1.0
  H  H34  1  0.35525000  0.27200000  0.14499000  1.0
  H  H35  1  0.26351000  0.18714000  0.08810000  1.0
  H  H36  1  0.40225000  0.30436000  0.05583000  1.0
  H  H37  1  0.34509000  0.24210000  0.93599000  1.0
  H  H38  1  0.31255000  0.39567000  0.05092000  1.0
  H  H39  1  0.25517000  0.33199000  0.93112000  1.0
  H  H40  1  0.09141000  0.18777000  0.91251000  1.0
  H  H41  1  0.12383000  0.20977000  0.84969000  1.0
  H  H42  1  0.21333000  0.11857000  0.85325000  1.0
  H  H43  1  0.18070000  0.09640000  0.91576000  1.0
  H  H44  1  0.91347000  0.81771000  0.09833000  1.0
  H  H45  1  0.87801000  0.79338000  0.15864000  1.0
  H  H46  1  0.79072000  0.88666000  0.15595000  1.0
  H  H47  1  0.82470000  0.90863000  0.09337000  1.0
  H  H48  1  0.66162000  0.76502000  0.07519000  1.0
  H  H49  1  0.60183000  0.70199000  0.95546000  1.0
  H  H50  1  0.74924000  0.67149000  0.07581000  1.0
  H  H51  1  0.68997000  0.61004000  0.95607000  1.0
  H  H52  1  0.82983000  0.73012000  0.92569000  1.0
  H  H53  1  0.73967000  0.64428000  0.86676000  1.0
  H  H54  1  0.64900000  0.73438000  0.86423000  1.0
  H  H55  1  0.73905000  0.81977000  0.92096000  1.0
  C  C56  1  0.14170000  0.36077000  0.99686000  1.0
  C  C57  1  0.87935000  0.38389000  0.76455000  1.0
  C  C58  1  0.14451000  0.63611000  0.99996000  1.0
  C  C59  1  0.86461000  0.64687000  0.01569000  1.0
  C  C60  1  0.13005000  0.62625000  0.25303000  1.0
  C  C61  1  0.86386000  0.37047000  0.01575000  1.0
  C  C62  1  0.36119000  0.86214000  0.00464000  1.0
  C  C63  1  0.61934000  0.12588000  0.25444000  1.0
  C  C64  1  0.35844000  0.14032000  0.00435000  1.0
  C  C65  1  0.64653000  0.14552000  0.01255000  1.0
  C  C66  1  0.38862000  0.88194000  0.76450000  1.0
  C  C67  1  0.64898000  0.86923000  0.01183000  1.0
  C  C68  1  0.27061000  0.70476000  0.40948000  1.0
  C  C69  1  0.24996000  0.80322000  0.60761000  1.0
  C  C70  1  0.18139000  0.67621000  0.35275000  1.0
  C  C71  1  0.33911000  0.83214000  0.66465000  1.0
  C  C72  1  0.22437000  0.75707000  0.51463000  1.0
  C  C73  1  0.29648000  0.75145000  0.50260000  1.0
  C  C74  1  0.80071000  0.36149000  0.60493000  1.0
  C  C75  1  0.70140000  0.14790000  0.41373000  1.0
  C  C76  1  0.83011000  0.33390000  0.66500000  1.0
  C  C77  1  0.67096000  0.17569000  0.35385000  1.0
  C  C78  1  0.74904000  0.21506000  0.50554000  1.0
  C  C79  1  0.75392000  0.29423000  0.51321000  1.0
  C  C80  1  0.19683000  0.78590000  0.05089000  1.0
  C  C81  1  0.25635000  0.84834000  0.05276000  1.0
  C  C82  1  0.30397000  0.79939000  0.00243000  1.0
  C  C83  1  0.23521000  0.73174000  0.90356000  1.0
  C  C84  1  0.17650000  0.66902000  0.90216000  1.0
  C  C85  1  0.20440000  0.69448000  0.00006000  1.0
  C  C86  1  0.29901000  0.69335000  0.04811000  1.0
  C  C87  1  0.35793000  0.75541000  0.04938000  1.0
  C  C88  1  0.85815000  0.26544000  0.06010000  1.0
  C  C89  1  0.79892000  0.20349000  0.05921000  1.0
  C  C90  1  0.70417000  0.20752000  0.01404000  1.0
  C  C91  1  0.67573000  0.18223000  0.91606000  1.0
  C  C92  1  0.73433000  0.24469000  0.91720000  1.0
  C  C93  1  0.80401000  0.31213000  0.01594000  1.0
  C  C94  1  0.75962000  0.36116000  0.06910000  1.0
  C  C95  1  0.70034000  0.29918000  0.06771000  1.0
  C  C96  1  0.23141000  0.29885000  0.08262000  1.0
  C  C97  1  0.29031000  0.23802000  0.08484000  1.0
  C  C98  1  0.29835000  0.19778000  0.99861000  1.0
  C  C99  1  0.33726000  0.27006000  0.99598000  1.0
  C  C100  1  0.27778000  0.33029000  0.99302000  1.0
  C  C101  1  0.19859000  0.29975000  0.99453000  1.0
  C  C102  1  0.14850000  0.20901000  0.91224000  1.0
  C  C103  1  0.20772000  0.14857000  0.91454000  1.0
  C  C104  1  0.85561000  0.79584000  0.09730000  1.0
  C  C105  1  0.79689000  0.85704000  0.09504000  1.0
  C  C106  1  0.70558000  0.80788000  0.01006000  1.0
  C  C107  1  0.66767000  0.73628000  0.01428000  1.0
  C  C108  1  0.72617000  0.67493000  0.01502000  1.0
  C  C109  1  0.80490000  0.70518000  0.01272000  1.0
  C  C110  1  0.77343000  0.70888000  0.92694000  1.0
  C  C111  1  0.71375000  0.76873000  0.92476000  1.0
  S  S112  1  0.12732000  0.70650000  0.41384000  1.0
  S  S113  1  0.39344000  0.80244000  0.60374000  1.0
  S  S114  1  0.80070000  0.22349000  0.60897000  1.0
  S  S115  1  0.70118000  0.28606000  0.40994000  1.0
  O  O116  1  0.00336000  0.50472000  0.01003000  1.0
  O  O117  1  0.17984000  0.43977000  0.05487000  1.0
  O  O118  1  0.89476000  0.34067000  0.80234000  1.0
  O  O119  1  0.06336000  0.62232000  0.94979000  1.0
  O  O120  1  0.06038000  0.32863000  0.94273000  1.0
  O  O121  1  0.17921000  0.60688000  0.05087000  1.0
  O  O122  1  0.90167000  0.46432000  0.80350000  1.0
  O  O123  1  0.89325000  0.62573000  0.96108000  1.0
  O  O124  1  0.04777000  0.60897000  0.21873000  1.0
  O  O125  1  0.88247000  0.62433000  0.07286000  1.0
  O  O126  1  0.17188000  0.60515000  0.21076000  1.0
  O  O127  1  0.89464000  0.33352000  0.96352000  1.0
  O  O128  1  0.87930000  0.45050000  0.06716000  1.0
  O  O129  1  0.50372000  0.00432000  0.00801000  1.0
  O  O130  1  0.32318000  0.89314000  0.95602000  1.0
  O  O131  1  0.59682000  0.04545000  0.21554000  1.0
  O  O132  1  0.43817000  0.17705000  0.06517000  1.0
  O  O133  1  0.44266000  0.87974000  0.05547000  1.0
  O  O134  1  0.32514000  0.06046000  0.94927000  1.0
  O  O135  1  0.60197000  0.16909000  0.21659000  1.0
  O  O136  1  0.61432000  0.17752000  0.06390000  1.0
  O  O137  1  0.47110000  0.90417000  0.80165000  1.0
  O  O138  1  0.63517000  0.06622000  0.96020000  1.0
  O  O139  1  0.34447000  0.89785000  0.80408000  1.0
  O  O140  1  0.62708000  0.89442000  0.07230000  1.0
  O  O141  1  0.62835000  0.89143000  0.95427000  1.0
  F  F142  1  0.32819000  0.69053000  0.38090000  1.0
  F  F143  1  0.19196000  0.81677000  0.63560000  1.0
  F  F144  1  0.81392000  0.44326000  0.62935000  1.0
  F  F145  1  0.68795000  0.06610000  0.38912000  1.0
