# generated using pymatgen
data_CuH6C8N3
_symmetry_space_group_name_H-M   'P 1'
_cell_length_a   33.47970000
_cell_length_b   33.99460000
_cell_length_c   34.27410000
_cell_angle_alpha   89.61820000
_cell_angle_beta   90.15840000
_cell_angle_gamma   89.75280000
_symmetry_Int_Tables_number   1
_chemical_formula_structural   CuH6C8N3
_chemical_formula_sum   'Cu12 H72 C96 N36'
_cell_volume   39006.96617537
_cell_formula_units_Z   12
loop_
 _symmetry_equiv_pos_site_id
 _symmetry_equiv_pos_as_xyz
  1  'x, y, z'
loop_
 _atom_site_type_symbol
 _atom_site_label
 _atom_site_symmetry_multiplicity
 _atom_site_fract_x
 _atom_site_fract_y
 _atom_site_fract_z
 _atom_site_occupancy
  Cu  Cu0  1  0.37811000  0.58699000  0.67251000  1.0
  Cu  Cu1  1  0.34127000  0.62239000  0.59438000  1.0
  Cu  Cu2  1  0.41956000  0.65960000  0.63112000  1.0
  Cu  Cu3  1  0.62161000  0.91271000  0.17050000  1.0
  Cu  Cu4  1  0.65931000  0.87674000  0.09385000  1.0
  Cu  Cu5  1  0.57592000  0.84536000  0.12510000  1.0
  Cu  Cu6  1  0.87541000  0.41127000  0.84670000  1.0
  Cu  Cu7  1  0.83234000  0.36876000  0.91803000  1.0
  Cu  Cu8  1  0.90694000  0.32888000  0.87818000  1.0
  Cu  Cu9  1  0.12582000  0.09090000  0.34636000  1.0
  Cu  Cu10  1  0.16368000  0.12648000  0.42318000  1.0
  Cu  Cu11  1  0.09499000  0.17310000  0.37776000  1.0
  H  H12  1  0.30608000  0.53220000  0.69962000  1.0
  H  H13  1  0.26569000  0.56722000  0.58423000  1.0
  H  H14  1  0.49303000  0.67296000  0.68826000  1.0
  H  H15  1  0.44798000  0.56155000  0.73128000  1.0
  H  H16  1  0.33069000  0.67614000  0.51888000  1.0
  H  H17  1  0.44145000  0.72215000  0.56534000  1.0
  H  H18  1  0.69312000  0.96752000  0.19817000  1.0
  H  H19  1  0.73707000  0.92945000  0.08569000  1.0
  H  H20  1  0.50176000  0.83232000  0.18152000  1.0
  H  H21  1  0.55509000  0.93599000  0.23252000  1.0
  H  H22  1  0.67175000  0.82120000  0.02091000  1.0
  H  H23  1  0.55165000  0.78896000  0.05512000  1.0
  H  H24  1  0.82493000  0.49025000  0.84156000  1.0
  H  H25  1  0.77460000  0.43760000  0.94578000  1.0
  H  H26  1  0.96622000  0.30579000  0.80980000  1.0
  H  H27  1  0.93226000  0.42369000  0.77352000  1.0
  H  H28  1  0.80444000  0.29776000  0.97322000  1.0
  H  H29  1  0.92074000  0.25619000  0.93602000  1.0
  H  H30  1  0.17767000  0.01312000  0.33793000  1.0
  H  H31  1  0.21859000  0.05431000  0.45050000  1.0
  H  H32  1  0.03698000  0.19849000  0.30787000  1.0
  H  H33  1  0.06918000  0.08027000  0.27288000  1.0
  H  H34  1  0.18852000  0.19126000  0.48514000  1.0
  H  H35  1  0.08310000  0.24579000  0.43444000  1.0
  H  H36  1  0.77605000  0.99740000  0.08949000  1.0
  H  H37  1  0.83248000  0.02713000  0.15561000  1.0
  H  H38  1  0.77325000  0.99091000  0.17911000  1.0
  H  H39  1  0.82389000  0.05012000  0.06874000  1.0
  H  H40  1  0.22696000  0.49904000  0.58914000  1.0
  H  H41  1  0.16777000  0.47183000  0.65407000  1.0
  H  H42  1  0.22656000  0.50812000  0.67849000  1.0
  H  H43  1  0.17954000  0.44561000  0.56883000  1.0
  H  H44  1  0.24587000  0.97366000  0.34090000  1.0
  H  H45  1  0.27494000  0.91499000  0.40551000  1.0
  H  H46  1  0.24024000  0.97431000  0.43056000  1.0
  H  H47  1  0.29796000  0.92551000  0.31896000  1.0
  H  H48  1  0.75607000  0.52896000  0.84215000  1.0
  H  H49  1  0.72264000  0.58225000  0.90840000  1.0
  H  H50  1  0.75516000  0.51995000  0.93160000  1.0
  H  H51  1  0.70452000  0.57770000  0.82023000  1.0
  H  H52  1  0.00063000  0.08443000  0.23589000  1.0
  H  H53  1  0.97116000  0.14775000  0.17594000  1.0
  H  H54  1  0.00919000  0.17457000  0.23190000  1.0
  H  H55  1  0.94674000  0.06139000  0.18998000  1.0
  H  H56  1  0.52853000  0.67213000  0.75916000  1.0
  H  H57  1  0.58785000  0.60746000  0.78903000  1.0
  H  H58  1  0.52922000  0.58175000  0.75374000  1.0
  H  H59  1  0.57574000  0.69419000  0.81242000  1.0
  H  H60  1  0.99942000  0.41956000  0.73353000  1.0
  H  H61  1  0.02854000  0.35433000  0.67645000  1.0
  H  H62  1  0.99265000  0.32921000  0.73402000  1.0
  H  H63  1  0.05269000  0.44125000  0.68600000  1.0
  H  H64  1  0.46909000  0.82840000  0.25500000  1.0
  H  H65  1  0.41366000  0.89380000  0.28885000  1.0
  H  H66  1  0.47300000  0.91889000  0.25454000  1.0
  H  H67  1  0.42284000  0.80578000  0.30960000  1.0
  H  H68  1  0.91822000  0.22253000  0.00808000  1.0
  H  H69  1  0.85385000  0.16239000  0.03576000  1.0
  H  H70  1  0.82697000  0.21834000  0.99739000  1.0
  H  H71  1  0.94015000  0.17773000  0.06340000  1.0
  H  H72  1  0.32945000  0.74556000  0.48236000  1.0
  H  H73  1  0.39513000  0.77917000  0.42716000  1.0
  H  H74  1  0.42136000  0.74572000  0.48644000  1.0
  H  H75  1  0.30537000  0.79830000  0.43525000  1.0
  H  H76  1  0.66861000  0.75295000  0.98486000  1.0
  H  H77  1  0.60536000  0.72490000  0.92413000  1.0
  H  H78  1  0.57722000  0.76246000  0.97913000  1.0
  H  H79  1  0.69239000  0.69889000  0.93991000  1.0
  H  H80  1  0.08008000  0.27782000  0.50732000  1.0
  H  H81  1  0.14705000  0.33116000  0.54152000  1.0
  H  H82  1  0.17190000  0.27217000  0.50763000  1.0
  H  H83  1  0.05748000  0.32418000  0.56117000  1.0
  C  C84  1  0.30178000  0.54495000  0.67079000  1.0
  C  C85  1  0.27087000  0.53850000  0.64369000  1.0
  C  C86  1  0.28153000  0.56213000  0.61149000  1.0
  C  C87  1  0.47610000  0.64667000  0.69512000  1.0
  C  C88  1  0.48525000  0.61584000  0.72134000  1.0
  C  C89  1  0.45354000  0.58927000  0.71640000  1.0
  C  C90  1  0.35687000  0.68366000  0.53598000  1.0
  C  C91  1  0.38727000  0.71096000  0.52772000  1.0
  C  C92  1  0.41392000  0.70653000  0.55929000  1.0
  C  C93  1  0.69830000  0.95404000  0.17000000  1.0
  C  C94  1  0.73014000  0.95962000  0.14385000  1.0
  C  C95  1  0.72038000  0.93530000  0.11214000  1.0
  C  C96  1  0.52056000  0.85673000  0.19012000  1.0
  C  C97  1  0.51414000  0.88526000  0.21906000  1.0
  C  C98  1  0.54733000  0.91028000  0.21551000  1.0
  C  C99  1  0.64311000  0.81691000  0.03506000  1.0
  C  C100  1  0.61055000  0.79357000  0.02355000  1.0
  C  C101  1  0.58142000  0.80113000  0.05209000  1.0
  C  C102  1  0.81609000  0.47150000  0.86575000  1.0
  C  C103  1  0.78867000  0.47894000  0.89593000  1.0
  C  C104  1  0.79104000  0.44495000  0.91949000  1.0
  C  C105  1  0.95365000  0.33510000  0.80634000  1.0
  C  C106  1  0.96087000  0.36341000  0.77706000  1.0
  C  C107  1  0.93695000  0.39563000  0.78816000  1.0
  C  C108  1  0.83336000  0.29298000  0.95977000  1.0
  C  C109  1  0.86120000  0.26247000  0.96622000  1.0
  C  C110  1  0.89322000  0.27221000  0.94147000  1.0
  C  C111  1  0.18426000  0.02917000  0.36443000  1.0
  C  C112  1  0.20914000  0.01857000  0.39601000  1.0
  C  C113  1  0.20445000  0.04983000  0.42234000  1.0
  C  C114  1  0.04923000  0.16907000  0.30469000  1.0
  C  C115  1  0.04130000  0.14082000  0.27587000  1.0
  C  C116  1  0.06500000  0.10835000  0.28723000  1.0
  C  C117  1  0.16228000  0.19944000  0.46820000  1.0
  C  C118  1  0.13716000  0.23249000  0.47188000  1.0
  C  C119  1  0.10785000  0.22683000  0.44294000  1.0
  C  C120  1  0.86977000  0.07549000  0.10521000  1.0
  C  C121  1  0.92276000  0.09565000  0.14176000  1.0
  C  C122  1  0.90493000  0.12982000  0.08692000  1.0
  C  C123  1  0.13154000  0.42263000  0.60439000  1.0
  C  C124  1  0.07672000  0.40520000  0.63969000  1.0
  C  C125  1  0.09487000  0.36928000  0.58665000  1.0
  C  C126  1  0.32243000  0.87803000  0.35411000  1.0
  C  C127  1  0.34143000  0.82396000  0.38928000  1.0
  C  C128  1  0.37671000  0.84220000  0.33539000  1.0
  C  C129  1  0.67773000  0.62262000  0.85631000  1.0
  C  C130  1  0.65793000  0.67573000  0.89167000  1.0
  C  C131  1  0.62344000  0.65848000  0.83699000  1.0
  C  C132  1  0.76452000  0.98456000  0.14901000  1.0
  C  C133  1  0.78587000  0.00136000  0.11971000  1.0
  C  C134  1  0.81993000  0.02592000  0.12612000  1.0
  C  C135  1  0.83662000  0.04886000  0.09809000  1.0
  C  C136  1  0.23638000  0.51359000  0.64851000  1.0
  C  C137  1  0.21606000  0.49596000  0.61909000  1.0
  C  C138  1  0.18157000  0.47186000  0.62515000  1.0
  C  C139  1  0.16567000  0.44816000  0.59751000  1.0
  C  C140  1  0.23374000  0.98385000  0.40065000  1.0
  C  C141  1  0.24992000  0.96301000  0.37087000  1.0
  C  C142  1  0.27389000  0.92836000  0.37639000  1.0
  C  C143  1  0.29643000  0.91197000  0.34790000  1.0
  C  C144  1  0.76383000  0.51327000  0.90159000  1.0
  C  C145  1  0.74986000  0.53691000  0.87246000  1.0
  C  C146  1  0.72543000  0.57105000  0.87866000  1.0
  C  C147  1  0.70440000  0.58931000  0.84987000  1.0
  C  C148  1  0.01511000  0.14467000  0.24252000  1.0
  C  C149  1  0.99697000  0.11426000  0.22411000  1.0
  C  C150  1  0.97197000  0.11896000  0.19040000  1.0
  C  C151  1  0.94856000  0.09011000  0.17565000  1.0
  C  C152  1  0.51942000  0.61178000  0.74692000  1.0
  C  C153  1  0.53955000  0.64204000  0.76347000  1.0
  C  C154  1  0.57397000  0.63667000  0.78797000  1.0
  C  C155  1  0.58968000  0.66515000  0.81082000  1.0
  C  C156  1  0.98633000  0.35931000  0.74342000  1.0
  C  C157  1  0.00336000  0.38937000  0.72321000  1.0
  C  C158  1  0.02772000  0.38367000  0.68939000  1.0
  C  C159  1  0.05077000  0.41205000  0.67305000  1.0
  C  C160  1  0.48102000  0.88898000  0.24577000  1.0
  C  C161  1  0.45983000  0.85866000  0.26116000  1.0
  C  C162  1  0.42633000  0.86417000  0.28661000  1.0
  C  C163  1  0.41000000  0.83536000  0.30891000  1.0
  C  C164  1  0.85730000  0.22901000  0.99214000  1.0
  C  C165  1  0.88802000  0.21064000  0.01089000  1.0
  C  C166  1  0.88287000  0.17708000  0.03591000  1.0
  C  C167  1  0.91134000  0.16304000  0.06064000  1.0
  C  C168  1  0.39102000  0.73702000  0.49449000  1.0
  C  C169  1  0.36008000  0.75181000  0.47317000  1.0
  C  C170  1  0.36514000  0.77661000  0.43953000  1.0
  C  C171  1  0.33532000  0.79793000  0.42269000  1.0
  C  C172  1  0.60734000  0.76795000  0.99028000  1.0
  C  C173  1  0.63858000  0.74978000  0.97256000  1.0
  C  C174  1  0.63430000  0.72515000  0.93907000  1.0
  C  C175  1  0.66353000  0.70133000  0.92513000  1.0
  C  C176  1  0.14142000  0.26491000  0.49863000  1.0
  C  C177  1  0.11089000  0.28633000  0.51376000  1.0
  C  C178  1  0.11682000  0.31929000  0.53903000  1.0
  C  C179  1  0.08768000  0.33620000  0.56072000  1.0
  N  N180  1  0.31589000  0.58108000  0.61903000  1.0
  N  N181  1  0.32879000  0.56998000  0.65570000  1.0
  N  N182  1  0.42746000  0.60345000  0.68978000  1.0
  N  N183  1  0.44182000  0.63885000  0.67612000  1.0
  N  N184  1  0.40019000  0.67916000  0.58442000  1.0
  N  N185  1  0.36499000  0.66460000  0.56965000  1.0
  N  N186  1  0.68561000  0.91682000  0.11909000  1.0
  N  N187  1  0.67159000  0.92886000  0.15481000  1.0
  N  N188  1  0.57166000  0.89736000  0.18707000  1.0
  N  N189  1  0.55471000  0.86442000  0.17090000  1.0
  N  N190  1  0.59577000  0.82649000  0.07866000  1.0
  N  N191  1  0.63391000  0.83670000  0.06773000  1.0
  N  N192  1  0.81734000  0.41924000  0.90422000  1.0
  N  N193  1  0.83328000  0.43599000  0.87111000  1.0
  N  N194  1  0.91715000  0.38695000  0.82123000  1.0
  N  N195  1  0.92791000  0.34951000  0.83281000  1.0
  N  N196  1  0.88488000  0.30572000  0.92187000  1.0
  N  N197  1  0.84794000  0.31899000  0.93370000  1.0
  N  N198  1  0.17922000  0.07699000  0.40735000  1.0
  N  N199  1  0.16628000  0.06386000  0.37159000  1.0
  N  N200  1  0.08530000  0.11680000  0.32004000  1.0
  N  N201  1  0.07512000  0.15435000  0.33122000  1.0
  N  N202  1  0.11516000  0.19319000  0.42364000  1.0
  N  N203  1  0.14866000  0.17586000  0.43972000  1.0
  N  N204  1  0.89316000  0.06933000  0.13694000  1.0
  N  N205  1  0.93006000  0.12637000  0.11754000  1.0
  N  N206  1  0.87457000  0.10492000  0.07912000  1.0
  N  N207  1  0.10719000  0.43054000  0.63480000  1.0
  N  N208  1  0.06887000  0.37435000  0.61617000  1.0
  N  N209  1  0.12670000  0.39255000  0.57940000  1.0
  N  N210  1  0.31520000  0.85387000  0.38478000  1.0
  N  N211  1  0.37256000  0.81660000  0.36531000  1.0
  N  N212  1  0.35241000  0.87332000  0.32835000  1.0
  N  N213  1  0.68397000  0.64563000  0.88777000  1.0
  N  N214  1  0.62730000  0.68363000  0.86696000  1.0
  N  N215  1  0.64825000  0.62787000  0.82989000  1.0
