# generated using pymatgen
data_Cu2H13C9S2NCl2
_symmetry_space_group_name_H-M   'P 1'
_cell_length_a   7.93544000
_cell_length_b   11.88060000
_cell_length_c   14.48360000
_cell_angle_alpha   93.06460000
_cell_angle_beta   91.12270000
_cell_angle_gamma   105.85400000
_symmetry_Int_Tables_number   1
_chemical_formula_structural   Cu2H13C9S2NCl2
_chemical_formula_sum   'Cu8 H52 C36 S8 N4 Cl8'
_cell_volume   1310.83011556
_cell_formula_units_Z   4
loop_
 _symmetry_equiv_pos_site_id
 _symmetry_equiv_pos_as_xyz
  1  'x, y, z'
loop_
 _atom_site_type_symbol
 _atom_site_label
 _atom_site_symmetry_multiplicity
 _atom_site_fract_x
 _atom_site_fract_y
 _atom_site_fract_z
 _atom_site_occupancy
  Cu  Cu0  1  0.68496000  0.96308000  0.23448000  1.0
  Cu  Cu1  1  0.31505000  0.03692000  0.76552000  1.0
  Cu  Cu2  1  0.53630000  0.73019000  0.23671000  1.0
  Cu  Cu3  1  0.46370000  0.26982000  0.76328000  1.0
  Cu  Cu4  1  0.50694000  0.24401000  0.25758000  1.0
  Cu  Cu5  1  0.49306000  0.75598000  0.74242000  1.0
  Cu  Cu6  1  0.66090000  0.46411000  0.25385000  1.0
  Cu  Cu7  1  0.33909000  0.53589000  0.74615000  1.0
  H  H8  1  0.08721000  0.14860000  0.23911000  1.0
  H  H9  1  0.91280000  0.85140000  0.76089000  1.0
  H  H10  1  0.20548000  0.05820000  0.28754000  1.0
  H  H11  1  0.79452000  0.94180000  0.71247000  1.0
  H  H12  1  0.92791000  0.82903000  0.33982000  1.0
  H  H13  1  0.07209000  0.17097000  0.66019000  1.0
  H  H14  1  0.85908000  0.87568000  0.44781000  1.0
  H  H15  1  0.14092000  0.12431000  0.55219000  1.0
  H  H16  1  0.08670000  0.92113000  0.42217000  1.0
  H  H17  1  0.91330000  0.07887000  0.57783000  1.0
  H  H18  1  0.30528000  0.99429000  0.14365000  1.0
  H  H19  1  0.69473000  0.00572000  0.85636000  1.0
  H  H20  1  0.23092000  0.86863000  0.99470000  1.0
  H  H21  1  0.76909000  0.13138000  0.00530000  1.0
  H  H22  1  0.91341000  0.78421000  0.94656000  1.0
  H  H23  1  0.08661000  0.21580000  0.05343000  1.0
  H  H24  1  0.61479000  0.79800000  0.96264000  1.0
  H  H25  1  0.38522000  0.20201000  0.03736000  1.0
  H  H26  1  0.55771000  0.87546000  0.06274000  1.0
  H  H27  1  0.44230000  0.12454000  0.93726000  1.0
  H  H28  1  0.35310000  0.62266000  0.96127000  1.0
  H  H29  1  0.64692000  0.37733000  0.03873000  1.0
  H  H30  1  0.25378000  0.67919000  0.05813000  1.0
  H  H31  1  0.74623000  0.32081000  0.94186000  1.0
  H  H32  1  0.28318000  0.53414000  0.05667000  1.0
  H  H33  1  0.71683000  0.46586000  0.94333000  1.0
  H  H34  1  0.56256000  0.44056000  0.43768000  1.0
  H  H35  1  0.43743000  0.55944000  0.56232000  1.0
  H  H36  1  0.59647000  0.35928000  0.53364000  1.0
  H  H37  1  0.40353000  0.64071000  0.46636000  1.0
  H  H38  1  0.65292000  0.12807000  0.43522000  1.0
  H  H39  1  0.34707000  0.87193000  0.56479000  1.0
  H  H40  1  0.43297000  0.03924000  0.42304000  1.0
  H  H41  1  0.56702000  0.96076000  0.57696000  1.0
  H  H42  1  0.50627000  0.12805000  0.52916000  1.0
  H  H43  1  0.49372000  0.87195000  0.47084000  1.0
  H  H44  1  0.88438000  0.33231000  0.55613000  1.0
  H  H45  1  0.11561000  0.66768000  0.44387000  1.0
  H  H46  1  0.18210000  0.34226000  0.49533000  1.0
  H  H47  1  0.81790000  0.65774000  0.50467000  1.0
  H  H48  1  0.23546000  0.38533000  0.32761000  1.0
  H  H49  1  0.76453000  0.61468000  0.67239000  1.0
  H  H50  1  0.92161000  0.33484000  0.16228000  1.0
  H  H51  1  0.07838000  0.66516000  0.83773000  1.0
  H  H52  1  0.13362000  0.43554000  0.18345000  1.0
  H  H53  1  0.86637000  0.56446000  0.81655000  1.0
  H  H54  1  0.00626000  0.65421000  0.29572000  1.0
  H  H55  1  0.99373000  0.34580000  0.70428000  1.0
  H  H56  1  0.00181000  0.73140000  0.19366000  1.0
  H  H57  1  0.99818000  0.26860000  0.80634000  1.0
  H  H58  1  0.17342000  0.66369000  0.21199000  1.0
  H  H59  1  0.82658000  0.33631000  0.78801000  1.0
  C  C60  1  0.03406000  0.97643000  0.17222000  1.0
  C  C61  1  0.96594000  0.02357000  0.82778000  1.0
  C  C62  1  0.07695000  0.05830000  0.25788000  1.0
  C  C63  1  0.92305000  0.94170000  0.74212000  1.0
  C  C64  1  0.95255000  0.90141000  0.39282000  1.0
  C  C65  1  0.04745000  0.09859000  0.60718000  1.0
  C  C66  1  0.16945000  0.95538000  0.12000000  1.0
  C  C67  1  0.83055000  0.04463000  0.88000000  1.0
  C  C68  1  0.12815000  0.88525000  0.03792000  1.0
  C  C69  1  0.87186000  0.11476000  0.96208000  1.0
  C  C70  1  0.95261000  0.83907000  0.01034000  1.0
  C  C71  1  0.04740000  0.16094000  0.98965000  1.0
  C  C72  1  0.82302000  0.86407000  0.06529000  1.0
  C  C73  1  0.17699000  0.13594000  0.93471000  1.0
  C  C74  1  0.63343000  0.81587000  0.03781000  1.0
  C  C75  1  0.36658000  0.18413000  0.96219000  1.0
  C  C76  1  0.33787000  0.62403000  0.03635000  1.0
  C  C77  1  0.66214000  0.37597000  0.96365000  1.0
  C  C78  1  0.78559000  0.37235000  0.42624000  1.0
  C  C79  1  0.21441000  0.62765000  0.57376000  1.0
  C  C80  1  0.60572000  0.36493000  0.45852000  1.0
  C  C81  1  0.39428000  0.63507000  0.54148000  1.0
  C  C82  1  0.51749000  0.12228000  0.45373000  1.0
  C  C83  1  0.48251000  0.87772000  0.54628000  1.0
  C  C84  1  0.91424000  0.35118000  0.48449000  1.0
  C  C85  1  0.08575000  0.64881000  0.51551000  1.0
  C  C86  1  0.07910000  0.35675000  0.45043000  1.0
  C  C87  1  0.92089000  0.64325000  0.54957000  1.0
  C  C88  1  0.10953000  0.38110000  0.35813000  1.0
  C  C89  1  0.89046000  0.61890000  0.64187000  1.0
  C  C90  1  0.97440000  0.39907000  0.30273000  1.0
  C  C91  1  0.02559000  0.60093000  0.69727000  1.0
  C  C92  1  0.99531000  0.41660000  0.20111000  1.0
  C  C93  1  0.00468000  0.58340000  0.79890000  1.0
  C  C94  1  0.03407000  0.65586000  0.22192000  1.0
  C  C95  1  0.96593000  0.34414000  0.77807000  1.0
  S  S96  1  0.91487000  0.03099000  0.34616000  1.0
  S  S97  1  0.08514000  0.96900000  0.65384000  1.0
  S  S98  1  0.55443000  0.67481000  0.09043000  1.0
  S  S99  1  0.44558000  0.32520000  0.90957000  1.0
  S  S100  1  0.44324000  0.23699000  0.40436000  1.0
  S  S101  1  0.55676000  0.76301000  0.59564000  1.0
  S  S102  1  0.89838000  0.52675000  0.15904000  1.0
  S  S103  1  0.10161000  0.47325000  0.84096000  1.0
  N  N104  1  0.86337000  0.92984000  0.14618000  1.0
  N  N105  1  0.13664000  0.07016000  0.85381000  1.0
  N  N106  1  0.81629000  0.39701000  0.33689000  1.0
  N  N107  1  0.18371000  0.60298000  0.66311000  1.0
  Cl  Cl108  1  0.62322000  0.62501000  0.34338000  1.0
  Cl  Cl109  1  0.37677000  0.37498000  0.65662000  1.0
  Cl  Cl110  1  0.40688000  0.36982000  0.16979000  1.0
  Cl  Cl111  1  0.59312000  0.63018000  0.83021000  1.0
  Cl  Cl112  1  0.63633000  0.13445000  0.16878000  1.0
  Cl  Cl113  1  0.36368000  0.86555000  0.83121000  1.0
  Cl  Cl114  1  0.41883000  0.87173000  0.29145000  1.0
  Cl  Cl115  1  0.58118000  0.12827000  0.70855000  1.0
