# generated using pymatgen
data_AgH4C4N3O2
_symmetry_space_group_name_H-M   'P 1'
_cell_length_a   5.90199000
_cell_length_b   7.23432000
_cell_length_c   14.43660000
_cell_angle_alpha   90.00190000
_cell_angle_beta   90.00540000
_cell_angle_gamma   89.99650000
_symmetry_Int_Tables_number   1
_chemical_formula_structural   AgH4C4N3O2
_chemical_formula_sum   'Ag4 H16 C16 N12 O8'
_cell_volume   616.39783561
_cell_formula_units_Z   4
loop_
 _symmetry_equiv_pos_site_id
 _symmetry_equiv_pos_as_xyz
  1  'x, y, z'
loop_
 _atom_site_type_symbol
 _atom_site_label
 _atom_site_symmetry_multiplicity
 _atom_site_fract_x
 _atom_site_fract_y
 _atom_site_fract_z
 _atom_site_occupancy
  Ag  Ag0  1  0.53142000  0.25011000  0.85864000  1.0
  Ag  Ag1  1  0.96857000  0.74992000  0.35864000  1.0
  Ag  Ag2  1  0.03143000  0.25008000  0.64136000  1.0
  Ag  Ag3  1  0.46854000  0.74983000  0.14137000  1.0
  H  H4  1  0.87579000  0.57528000  0.81411000  1.0
  H  H5  1  0.62426000  0.42479000  0.31415000  1.0
  H  H6  1  0.37575000  0.92484000  0.68586000  1.0
  H  H7  1  0.12431000  0.07520000  0.18586000  1.0
  H  H8  1  0.12429000  0.42471000  0.18586000  1.0
  H  H9  1  0.37577000  0.57524000  0.68586000  1.0
  H  H10  1  0.62426000  0.07519000  0.31416000  1.0
  H  H11  1  0.87574000  0.92486000  0.81413000  1.0
  H  H12  1  0.24998000  0.57664000  0.94721000  1.0
  H  H13  1  0.25003000  0.42339000  0.44722000  1.0
  H  H14  1  0.74985000  0.92373000  0.55277000  1.0
  H  H15  1  0.75009000  0.07626000  0.05278000  1.0
  H  H16  1  0.74996000  0.42333000  0.05280000  1.0
  H  H17  1  0.74993000  0.57663000  0.55277000  1.0
  H  H18  1  0.25012000  0.07630000  0.44723000  1.0
  H  H19  1  0.24985000  0.92375000  0.94723000  1.0
  C  C20  1  0.73503000  0.65403000  0.84304000  1.0
  C  C21  1  0.76501000  0.34600000  0.34308000  1.0
  C  C22  1  0.23499000  0.84607000  0.65694000  1.0
  C  C23  1  0.26503000  0.15393000  0.15696000  1.0
  C  C24  1  0.26503000  0.34594000  0.15694000  1.0
  C  C25  1  0.23498000  0.65400000  0.65695000  1.0
  C  C26  1  0.76500000  0.15398000  0.34307000  1.0
  C  C27  1  0.73498000  0.84607000  0.84302000  1.0
  C  C28  1  0.38988000  0.65393000  0.91663000  1.0
  C  C29  1  0.11017000  0.34608000  0.41665000  1.0
  C  C30  1  0.88977000  0.84646000  0.58336000  1.0
  C  C31  1  0.61016000  0.15351000  0.08339000  1.0
  C  C32  1  0.61013000  0.34604000  0.08338000  1.0
  C  C33  1  0.88979000  0.65391000  0.58337000  1.0
  C  C34  1  0.11019000  0.15356000  0.41664000  1.0
  C  C35  1  0.38981000  0.84649000  0.91660000  1.0
  N  N36  1  0.56238000  0.55695000  0.87987000  1.0
  N  N37  1  0.93767000  0.44307000  0.37993000  1.0
  N  N38  1  0.06240000  0.94325000  0.62011000  1.0
  N  N39  1  0.43755000  0.05671000  0.12014000  1.0
  N  N40  1  0.43766000  0.44300000  0.12011000  1.0
  N  N41  1  0.06234000  0.55695000  0.62009000  1.0
  N  N42  1  0.93758000  0.05677000  0.37988000  1.0
  N  N43  1  0.56246000  0.94328000  0.87987000  1.0
  N  N44  1  0.49667000  0.25012000  0.62013000  1.0
  N  N45  1  0.00327000  0.74992000  0.12013000  1.0
  N  N46  1  0.99667000  0.25007000  0.87986000  1.0
  N  N47  1  0.50341000  0.74989000  0.37986000  1.0
  O  O48  1  0.58815000  0.25014000  0.54180000  1.0
  O  O49  1  0.91166000  0.74994000  0.04181000  1.0
  O  O50  1  0.08820000  0.25001000  0.95819000  1.0
  O  O51  1  0.41200000  0.74979000  0.45820000  1.0
  O  O52  1  0.63274000  0.24995000  0.68962000  1.0
  O  O53  1  0.86726000  0.74999000  0.18963000  1.0
  O  O54  1  0.13275000  0.25004000  0.81038000  1.0
  O  O55  1  0.36727000  0.75006000  0.31039000  1.0
