# generated using pymatgen
data_ZnH8(C5N2)2
_symmetry_space_group_name_H-M   'P 1'
_cell_length_a   16.34630000
_cell_length_b   16.79660000
_cell_length_c   18.72550000
_cell_angle_alpha   91.16000000
_cell_angle_beta   91.79370000
_cell_angle_gamma   90.42470000
_symmetry_Int_Tables_number   1
_chemical_formula_structural   ZnH8(C5N2)2
_chemical_formula_sum   'Zn8 H64 C80 N32'
_cell_volume   5137.57676360
_cell_formula_units_Z   8
loop_
 _symmetry_equiv_pos_site_id
 _symmetry_equiv_pos_as_xyz
  1  'x, y, z'
loop_
 _atom_site_type_symbol
 _atom_site_label
 _atom_site_symmetry_multiplicity
 _atom_site_fract_x
 _atom_site_fract_y
 _atom_site_fract_z
 _atom_site_occupancy
  Zn  Zn0  1  0.35815000  0.45377000  0.01991000  1.0
  Zn  Zn1  1  0.48077000  0.59745000  0.98221000  1.0
  Zn  Zn2  1  0.63506000  0.47884000  0.96520000  1.0
  Zn  Zn3  1  0.50966000  0.32572000  0.99275000  1.0
  Zn  Zn4  1  0.88302000  0.04165000  0.47576000  1.0
  Zn  Zn5  1  0.00174000  0.21414000  0.48690000  1.0
  Zn  Zn6  1  0.11765000  0.08282000  0.47436000  1.0
  Zn  Zn7  1  0.01254000  0.89539000  0.51449000  1.0
  H  H8  1  0.26954000  0.42768000  0.85825000  1.0
  H  H9  1  0.13358000  0.37222000  0.42942000  1.0
  H  H10  1  0.24391000  0.00765000  0.35819000  1.0
  H  H11  1  0.93717000  0.76016000  0.40547000  1.0
  H  H12  1  0.13175000  0.01051000  0.64062000  1.0
  H  H13  1  0.85812000  0.33779000  0.52761000  1.0
  H  H14  1  0.77415000  0.03462000  0.61853000  1.0
  H  H15  1  0.04590000  0.69236000  0.54995000  1.0
  H  H16  1  0.60165000  0.74073000  0.22216000  1.0
  H  H17  1  0.90365000  0.33018000  0.12852000  1.0
  H  H18  1  0.47467000  0.26459000  0.30024000  1.0
  H  H19  1  0.54145000  0.75433000  0.88994000  1.0
  H  H20  1  0.25753000  0.63780000  0.26060000  1.0
  H  H21  1  0.39612000  0.61982000  0.70637000  1.0
  H  H22  1  0.10400000  0.25845000  0.90496000  1.0
  H  H23  1  0.54272000  0.22613000  0.68914000  1.0
  H  H24  1  0.77829000  0.68794000  0.75776000  1.0
  H  H25  1  0.03353000  0.22665000  0.79346000  1.0
  H  H26  1  0.31940000  0.70675000  0.63631000  1.0
  H  H27  1  0.84347000  0.77629000  0.68388000  1.0
  H  H28  1  0.61856000  0.18392000  0.58923000  1.0
  H  H29  1  0.97289000  0.27655000  0.23116000  1.0
  H  H30  1  0.63788000  0.47636000  0.79772000  1.0
  H  H31  1  0.67047000  0.82596000  0.30619000  1.0
  H  H32  1  0.20031000  0.72190000  0.35042000  1.0
  H  H33  1  0.39343000  0.23711000  0.40024000  1.0
  H  H34  1  0.74468000  0.62316000  0.23289000  1.0
  H  H35  1  0.79024000  0.18379000  0.13394000  1.0
  H  H36  1  0.39551000  0.42976000  0.29901000  1.0
  H  H37  1  0.28965000  0.78945000  0.17612000  1.0
  H  H38  1  0.23992000  0.52479000  0.73655000  1.0
  H  H39  1  0.24447000  0.15957000  0.84463000  1.0
  H  H40  1  0.63588000  0.38537000  0.68400000  1.0
  H  H41  1  0.39239000  0.18553000  0.91390000  1.0
  H  H42  1  0.66541000  0.82108000  0.80963000  1.0
  H  H43  1  0.15318000  0.08779000  0.77541000  1.0
  H  H44  1  0.16582000  0.60167000  0.64769000  1.0
  H  H45  1  0.74030000  0.91667000  0.73664000  1.0
  H  H46  1  0.71354000  0.34284000  0.60050000  1.0
  H  H47  1  0.89124000  0.11526000  0.19246000  1.0
  H  H48  1  0.81542000  0.71028000  0.30741000  1.0
  H  H49  1  0.27474000  0.86548000  0.27533000  1.0
  H  H50  1  0.28962000  0.38254000  0.35976000  1.0
  H  H51  1  0.74722000  0.59894000  0.85588000  1.0
  H  H52  1  0.72620000  0.50656000  0.12140000  1.0
  H  H53  1  0.48404000  0.26750000  0.82042000  1.0
  H  H54  1  0.19995000  0.33858000  0.98841000  1.0
  H  H55  1  0.45966000  0.60060000  0.81606000  1.0
  H  H56  1  0.24666000  0.55456000  0.14067000  1.0
  H  H57  1  0.54116000  0.29204000  0.16776000  1.0
  H  H58  1  0.80917000  0.39843000  0.03380000  1.0
  H  H59  1  0.52123000  0.66727000  0.14053000  1.0
  H  H60  1  0.29074000  0.16674000  0.44843000  1.0
  H  H61  1  0.11142000  0.79675000  0.41979000  1.0
  H  H62  1  0.74592000  0.93333000  0.37010000  1.0
  H  H63  1  0.39615000  0.74723000  0.06521000  1.0
  H  H64  1  0.06385000  0.21336000  0.33305000  1.0
  H  H65  1  0.71599000  0.11954000  0.51114000  1.0
  H  H66  1  0.95520000  0.85272000  0.66007000  1.0
  H  H67  1  0.23925000  0.82352000  0.66526000  1.0
  H  H68  1  0.99782000  0.23150000  0.66558000  1.0
  H  H69  1  0.38920000  0.50182000  0.18009000  1.0
  H  H70  1  0.64487000  0.19929000  0.06342000  1.0
  H  H71  1  0.88199000  0.02460000  0.31195000  1.0
  C  C72  1  0.32170000  0.46825000  0.85897000  1.0
  C  C73  1  0.16145000  0.31473000  0.43888000  1.0
  C  C74  1  0.20434000  0.96330000  0.38114000  1.0
  C  C75  1  0.89729000  0.81164000  0.40438000  1.0
  C  C76  1  0.09789000  0.06577000  0.63495000  1.0
  C  C77  1  0.83397000  0.27793000  0.51790000  1.0
  C  C78  1  0.82635000  0.99493000  0.62007000  1.0
  C  C79  1  0.08776000  0.73617000  0.57475000  1.0
  C  C80  1  0.69066000  0.62725000  0.87112000  1.0
  C  C81  1  0.52081000  0.32146000  0.82677000  1.0
  C  C82  1  0.25655000  0.30786000  0.97725000  1.0
  C  C83  1  0.58631000  0.70689000  0.88913000  1.0
  C  C84  1  0.41916000  0.55578000  0.83693000  1.0
  C  C85  1  0.28929000  0.59290000  0.11382000  1.0
  C  C86  1  0.50413000  0.34451000  0.15865000  1.0
  C  C87  1  0.75878000  0.35592000  0.03471000  1.0
  C  C88  1  0.56592000  0.62299000  0.12553000  1.0
  C  C89  1  0.24224000  0.21053000  0.44924000  1.0
  C  C90  1  0.13634000  0.85600000  0.41241000  1.0
  C  C91  1  0.79930000  0.89946000  0.38675000  1.0
  C  C92  1  0.02108000  0.16437000  0.33935000  1.0
  C  C93  1  0.76143000  0.16699000  0.50968000  1.0
  C  C94  1  0.59899000  0.42836000  0.81546000  1.0
  C  C95  1  0.91818000  0.90161000  0.64074000  1.0
  C  C96  1  0.18669000  0.80452000  0.63195000  1.0
  C  C97  1  0.02772000  0.17755000  0.64750000  1.0
  C  C98  1  0.34836000  0.51942000  0.80548000  1.0
  C  C99  1  0.65926000  0.70217000  0.85149000  1.0
  C  C100  1  0.56748000  0.36193000  0.77619000  1.0
  C  C101  1  0.26957000  0.24096000  0.93248000  1.0
  C  C102  1  0.64222000  0.60446000  0.15820000  1.0
  C  C103  1  0.31043000  0.67319000  0.12905000  1.0
  C  C104  1  0.46111000  0.39250000  0.20772000  1.0
  C  C105  1  0.35500000  0.23072000  0.93903000  1.0
  C  C106  1  0.75492000  0.28129000  0.06797000  1.0
  C  C107  1  0.96308000  0.13061000  0.29071000  1.0
  C  C108  1  0.24225000  0.28975000  0.42615000  1.0
  C  C109  1  0.19808000  0.88099000  0.36668000  1.0
  C  C110  1  0.82213000  0.82140000  0.36691000  1.0
  C  C111  1  0.07422000  0.12215000  0.68710000  1.0
  C  C112  1  0.75755000  0.24604000  0.53592000  1.0
  C  C113  1  0.84044000  0.92713000  0.66164000  1.0
  C  C114  1  0.16172000  0.72523000  0.61357000  1.0
  C  C115  1  0.66074000  0.71877000  0.24205000  1.0
  C  C116  1  0.67017000  0.54057000  0.11592000  1.0
  C  C117  1  0.88387000  0.27073000  0.14402000  1.0
  C  C118  1  0.43496000  0.31306000  0.31745000  1.0
  C  C119  1  0.25988000  0.70183000  0.25087000  1.0
  C  C120  1  0.33166000  0.60251000  0.69898000  1.0
  C  C121  1  0.13381000  0.21565000  0.86961000  1.0
  C  C122  1  0.58465000  0.27078000  0.66883000  1.0
  C  C123  1  0.75528000  0.74890000  0.76127000  1.0
  C  C124  1  0.08603000  0.18911000  0.80704000  1.0
  C  C125  1  0.28501000  0.65463000  0.65333000  1.0
  C  C126  1  0.79690000  0.80413000  0.71660000  1.0
  C  C127  1  0.36452000  0.69144000  0.07470000  1.0
  C  C128  1  0.63259000  0.24444000  0.60904000  1.0
  C  C129  1  0.93300000  0.23477000  0.20049000  1.0
  C  C130  1  0.70382000  0.77203000  0.29178000  1.0
  C  C131  1  0.23195000  0.75264000  0.30820000  1.0
  C  C132  1  0.37925000  0.29262000  0.37303000  1.0
  C  C133  1  0.68590000  0.64770000  0.21500000  1.0
  C  C134  1  0.81185000  0.24154000  0.11560000  1.0
  C  C135  1  0.43308000  0.38082000  0.27919000  1.0
  C  C136  1  0.28589000  0.72566000  0.18654000  1.0
  C  C137  1  0.30369000  0.54473000  0.74208000  1.0
  C  C138  1  0.42735000  0.45218000  0.16455000  1.0
  C  C139  1  0.21459000  0.20035000  0.88171000  1.0
  C  C140  1  0.59472000  0.34083000  0.70575000  1.0
  C  C141  1  0.69289000  0.76196000  0.80606000  1.0
  C  C142  1  0.10485000  0.12950000  0.76031000  1.0
  C  C143  1  0.20315000  0.65431000  0.63713000  1.0
  C  C144  1  0.78783000  0.88402000  0.70879000  1.0
  C  C145  1  0.69796000  0.28244000  0.58151000  1.0
  C  C146  1  0.92961000  0.15842000  0.22290000  1.0
  C  C147  1  0.78063000  0.76383000  0.32024000  1.0
  C  C148  1  0.23903000  0.83320000  0.31402000  1.0
  C  C149  1  0.67486000  0.25460000  0.04939000  1.0
  C  C150  1  0.30627000  0.32758000  0.38670000  1.0
  C  C151  1  0.92926000  0.06729000  0.32920000  1.0
  N  N152  1  0.37164000  0.47592000  0.91756000  1.0
  N  N153  1  0.11736000  0.25452000  0.46633000  1.0
  N  N154  1  0.15028000  0.98423000  0.43133000  1.0
  N  N155  1  0.91678000  0.87757000  0.44331000  1.0
  N  N156  1  0.06904000  0.08739000  0.56997000  1.0
  N  N157  1  0.87981000  0.22201000  0.48535000  1.0
  N  N158  1  0.88978000  0.00628000  0.57637000  1.0
  N  N159  1  0.07260000  0.81518000  0.57072000  1.0
  N  N160  1  0.64061000  0.59121000  0.91648000  1.0
  N  N161  1  0.52671000  0.36035000  0.89052000  1.0
  N  N162  1  0.32786000  0.33536000  0.00662000  1.0
  N  N163  1  0.57545000  0.64086000  0.92727000  1.0
  N  N164  1  0.43131000  0.52988000  0.90382000  1.0
  N  N165  1  0.32863000  0.56593000  0.05605000  1.0
  N  N166  1  0.49344000  0.37309000  0.09224000  1.0
  N  N167  1  0.68742000  0.37181000  0.00029000  1.0
  N  N168  1  0.55171000  0.57540000  0.06812000  1.0
  N  N169  1  0.16841000  0.19028000  0.47219000  1.0
  N  N170  1  0.10808000  0.91786000  0.45006000  1.0
  N  N171  1  0.85593000  0.93203000  0.43235000  1.0
  N  N172  1  0.01811000  0.12651000  0.40341000  1.0
  N  N173  1  0.83418000  0.15261000  0.48063000  1.0
  N  N174  1  0.57520000  0.42588000  0.88334000  1.0
  N  N175  1  0.94625000  0.94841000  0.58954000  1.0
  N  N176  1  0.13363000  0.85780000  0.60673000  1.0
  N  N177  1  0.02571000  0.15648000  0.57801000  1.0
  N  N178  1  0.38960000  0.28690000  0.98279000  1.0
  N  N179  1  0.61553000  0.52453000  0.06179000  1.0
  N  N180  1  0.37621000  0.62722000  0.03206000  1.0
  N  N181  1  0.44531000  0.43887000  0.09577000  1.0
  N  N182  1  0.63490000  0.30840000  0.00950000  1.0
  N  N183  1  0.96067000  0.06654000  0.39623000  1.0
