# generated using pymatgen
data_AgH12C16S(NO)3
_symmetry_space_group_name_H-M   'P 1'
_cell_length_a   10.08540000
_cell_length_b   10.91900000
_cell_length_c   14.62940000
_cell_angle_alpha   90.00000000
_cell_angle_beta   90.00000000
_cell_angle_gamma   92.04500000
_symmetry_Int_Tables_number   1
_chemical_formula_structural   AgH12C16S(NO)3
_chemical_formula_sum   'Ag4 H48 C64 S4 N12 O12'
_cell_volume   1609.99979874
_cell_formula_units_Z   4
loop_
 _symmetry_equiv_pos_site_id
 _symmetry_equiv_pos_as_xyz
  1  'x, y, z'
loop_
 _atom_site_type_symbol
 _atom_site_label
 _atom_site_symmetry_multiplicity
 _atom_site_fract_x
 _atom_site_fract_y
 _atom_site_fract_z
 _atom_site_occupancy
  Ag  Ag0  1  0.93687000  0.62990000  0.75021000  1.0
  Ag  Ag1  1  0.56313000  0.87011000  0.25021000  1.0
  Ag  Ag2  1  0.06314000  0.37010000  0.24979000  1.0
  Ag  Ag3  1  0.43687000  0.12989000  0.74979000  1.0
  H  H4  1  0.84522000  0.44681000  0.07946000  1.0
  H  H5  1  0.65478000  0.05319000  0.57946000  1.0
  H  H6  1  0.15478000  0.55319000  0.92054000  1.0
  H  H7  1  0.34522000  0.94681000  0.42054000  1.0
  H  H8  1  0.73672000  0.31187000  0.19615000  1.0
  H  H9  1  0.76328000  0.18813000  0.69615000  1.0
  H  H10  1  0.26328000  0.68813000  0.80385000  1.0
  H  H11  1  0.23672000  0.81187000  0.30385000  1.0
  H  H12  1  0.52152000  0.20363000  0.16152000  1.0
  H  H13  1  0.97847000  0.29637000  0.66152000  1.0
  H  H14  1  0.47847000  0.79637000  0.83848000  1.0
  H  H15  1  0.02153000  0.70363000  0.33848000  1.0
  H  H16  1  0.40943000  0.23622000  0.01224000  1.0
  H  H17  1  0.09057000  0.26378000  0.51224000  1.0
  H  H18  1  0.59057000  0.76378000  0.98776000  1.0
  H  H19  1  0.90943000  0.73622000  0.48776000  1.0
  H  H20  1  0.49385000  0.48961000  0.86222000  1.0
  H  H21  1  0.00615000  0.01038000  0.36222000  1.0
  H  H22  1  0.50615000  0.51038000  0.13778000  1.0
  H  H23  1  0.99385000  0.98962000  0.63778000  1.0
  H  H24  1  0.38466000  0.35920000  0.87743000  1.0
  H  H25  1  0.11534000  0.14080000  0.37743000  1.0
  H  H26  1  0.61534000  0.64080000  0.12257000  1.0
  H  H27  1  0.88466000  0.85920000  0.62257000  1.0
  H  H28  1  0.40181000  0.44436000  0.70046000  1.0
  H  H29  1  0.09819000  0.05565000  0.20046000  1.0
  H  H30  1  0.59819000  0.55564000  0.29954000  1.0
  H  H31  1  0.90181000  0.94435000  0.79954000  1.0
  H  H32  1  0.56365000  0.51972000  0.70316000  1.0
  H  H33  1  0.93635000  0.98028000  0.20316000  1.0
  H  H34  1  0.43635000  0.48028000  0.29684000  1.0
  H  H35  1  0.06365000  0.01972000  0.79684000  1.0
  H  H36  1  0.34305000  0.29188000  0.58715000  1.0
  H  H37  1  0.15695000  0.20812000  0.08715000  1.0
  H  H38  1  0.65695000  0.70812000  0.41285000  1.0
  H  H39  1  0.84305000  0.79188000  0.91285000  1.0
  H  H40  1  0.38186000  0.20902000  0.42952000  1.0
  H  H41  1  0.11815000  0.29098000  0.92952000  1.0
  H  H42  1  0.61814000  0.79098000  0.57048000  1.0
  H  H43  1  0.88185000  0.70902000  0.07048000  1.0
  H  H44  1  0.59196000  0.25510000  0.35026000  1.0
  H  H45  1  0.90804000  0.24490000  0.85026000  1.0
  H  H46  1  0.40804000  0.74490000  0.64974000  1.0
  H  H47  1  0.09196000  0.75510000  0.14974000  1.0
  H  H48  1  0.76580000  0.39223000  0.42364000  1.0
  H  H49  1  0.73420000  0.10777000  0.92364000  1.0
  H  H50  1  0.23420000  0.60777000  0.57636000  1.0
  H  H51  1  0.26580000  0.89223000  0.07636000  1.0
  C  C52  1  0.74651000  0.49899000  0.91547000  1.0
  C  C53  1  0.75349000  0.00101000  0.41547000  1.0
  C  C54  1  0.25349000  0.50101000  0.08453000  1.0
  C  C55  1  0.24652000  0.99899000  0.58454000  1.0
  C  C56  1  0.68573000  0.41970000  0.98143000  1.0
  C  C57  1  0.81427000  0.08030000  0.48143000  1.0
  C  C58  1  0.31427000  0.58029000  0.01857000  1.0
  C  C59  1  0.18573000  0.91970000  0.51857000  1.0
  C  C60  1  0.74962000  0.40095000  0.06537000  1.0
  C  C61  1  0.75038000  0.09905000  0.56537000  1.0
  C  C62  1  0.25039000  0.59905000  0.93463000  1.0
  C  C63  1  0.24961000  0.90095000  0.43463000  1.0
  C  C64  1  0.68884000  0.32445000  0.13029000  1.0
  C  C65  1  0.81116000  0.17554000  0.63029000  1.0
  C  C66  1  0.31116000  0.67555000  0.86971000  1.0
  C  C67  1  0.18884000  0.82446000  0.36971000  1.0
  C  C68  1  0.56727000  0.26470000  0.11089000  1.0
  C  C69  1  0.93273000  0.23530000  0.61089000  1.0
  C  C70  1  0.43273000  0.73530000  0.88911000  1.0
  C  C71  1  0.06727000  0.76470000  0.38911000  1.0
  C  C72  1  0.50433000  0.28300000  0.02710000  1.0
  C  C73  1  0.99568000  0.21700000  0.52710000  1.0
  C  C74  1  0.49567000  0.71700000  0.97290000  1.0
  C  C75  1  0.00432000  0.78300000  0.47290000  1.0
  C  C76  1  0.56083000  0.36203000  0.96163000  1.0
  C  C77  1  0.93917000  0.13797000  0.46163000  1.0
  C  C78  1  0.43917000  0.63797000  0.03837000  1.0
  C  C79  1  0.06083000  0.86203000  0.53837000  1.0
  C  C80  1  0.48901000  0.39037000  0.87506000  1.0
  C  C81  1  0.01099000  0.10963000  0.37506000  1.0
  C  C82  1  0.51099000  0.60963000  0.12494000  1.0
  C  C83  1  0.98901000  0.89037000  0.62494000  1.0
  C  C84  1  0.50842000  0.43314000  0.68923000  1.0
  C  C85  1  0.99159000  0.06686000  0.18923000  1.0
  C  C86  1  0.49158000  0.56686000  0.31077000  1.0
  C  C87  1  0.00841000  0.93314000  0.81077000  1.0
  C  C88  1  0.53230000  0.38687000  0.59473000  1.0
  C  C89  1  0.96770000  0.11314000  0.09473000  1.0
  C  C90  1  0.46770000  0.61313000  0.40527000  1.0
  C  C91  1  0.03230000  0.88686000  0.90527000  1.0
  C  C92  1  0.43592000  0.31239000  0.55125000  1.0
  C  C93  1  0.06408000  0.18762000  0.05125000  1.0
  C  C94  1  0.56408000  0.68761000  0.44875000  1.0
  C  C95  1  0.93592000  0.81239000  0.94875000  1.0
  C  C96  1  0.45752000  0.26581000  0.46393000  1.0
  C  C97  1  0.04249000  0.23419000  0.96393000  1.0
  C  C98  1  0.54248000  0.73419000  0.53607000  1.0
  C  C99  1  0.95752000  0.76581000  0.03607000  1.0
  C  C100  1  0.57647000  0.29329000  0.41804000  1.0
  C  C101  1  0.92353000  0.20672000  0.91804000  1.0
  C  C102  1  0.42353000  0.70672000  0.58196000  1.0
  C  C103  1  0.07647000  0.79328000  0.08196000  1.0
  C  C104  1  0.67375000  0.36802000  0.45901000  1.0
  C  C105  1  0.82625000  0.13198000  0.95901000  1.0
  C  C106  1  0.32624000  0.63198000  0.54098000  1.0
  C  C107  1  0.17375000  0.86802000  0.04099000  1.0
  C  C108  1  0.65161000  0.41471000  0.54711000  1.0
  C  C109  1  0.84839000  0.08529000  0.04711000  1.0
  C  C110  1  0.34839000  0.58529000  0.45289000  1.0
  C  C111  1  0.15161000  0.91471000  0.95289000  1.0
  C  C112  1  0.75083000  0.49179000  0.58831000  1.0
  C  C113  1  0.74917000  0.00821000  0.08831000  1.0
  C  C114  1  0.24917000  0.50821000  0.41169000  1.0
  C  C115  1  0.25083000  0.99179000  0.91169000  1.0
  S  S116  1  0.56505000  0.32188000  0.77401000  1.0
  S  S117  1  0.93496000  0.17812000  0.27401000  1.0
  S  S118  1  0.43495000  0.67812000  0.22599000  1.0
  S  S119  1  0.06505000  0.82188000  0.72599000  1.0
  N  N120  1  0.79483000  0.56494000  0.86119000  1.0
  N  N121  1  0.70516000  0.93505000  0.36118000  1.0
  N  N122  1  0.20517000  0.43506000  0.13881000  1.0
  N  N123  1  0.29483000  0.06495000  0.63881000  1.0
  N  N124  1  0.83181000  0.55567000  0.62255000  1.0
  N  N125  1  0.66819000  0.94433000  0.12255000  1.0
  N  N126  1  0.16818000  0.44433000  0.37745000  1.0
  N  N127  1  0.33181000  0.05567000  0.87745000  1.0
  N  N128  1  0.14537000  0.41785000  0.75577000  1.0
  N  N129  1  0.35463000  0.08215000  0.25577000  1.0
  N  N130  1  0.85463000  0.58215000  0.24423000  1.0
  N  N131  1  0.64537000  0.91785000  0.74423000  1.0
  O  O132  1  0.03740000  0.43811000  0.79893000  1.0
  O  O133  1  0.46260000  0.06189000  0.29893000  1.0
  O  O134  1  0.96260000  0.56189000  0.20107000  1.0
  O  O135  1  0.53740000  0.93811000  0.70107000  1.0
  O  O136  1  0.18858000  0.49458000  0.69720000  1.0
  O  O137  1  0.31142000  0.00542000  0.19720000  1.0
  O  O138  1  0.81142000  0.50542000  0.30280000  1.0
  O  O139  1  0.68858000  0.99458000  0.80280000  1.0
  O  O140  1  0.20632000  0.32146000  0.77266000  1.0
  O  O141  1  0.29368000  0.17854000  0.27266000  1.0
  O  O142  1  0.79368000  0.67854000  0.22734000  1.0
  O  O143  1  0.70632000  0.82146000  0.72734000  1.0
