# generated using pymatgen
data_LaH6(C2N3)3
_symmetry_space_group_name_H-M   'P 1'
_cell_length_a   9.55729000
_cell_length_b   9.55729000
_cell_length_c   13.18130000
_cell_angle_alpha   92.38830000
_cell_angle_beta   92.38800000
_cell_angle_gamma   119.92700000
_symmetry_Int_Tables_number   1
_chemical_formula_structural   LaH6(C2N3)3
_chemical_formula_sum   'La4 H24 C24 N36'
_cell_volume   1039.84198120
_cell_formula_units_Z   4
loop_
 _symmetry_equiv_pos_site_id
 _symmetry_equiv_pos_as_xyz
  1  'x, y, z'
loop_
 _atom_site_type_symbol
 _atom_site_label
 _atom_site_symmetry_multiplicity
 _atom_site_fract_x
 _atom_site_fract_y
 _atom_site_fract_z
 _atom_site_occupancy
  La  La0  1  0.74466000  0.47826000  0.57262000  1.0
  La  La1  1  0.52174000  0.25533000  0.92738000  1.0
  La  La2  1  0.25533000  0.52174000  0.42738000  1.0
  La  La3  1  0.47826000  0.74467000  0.07262000  1.0
  H  H4  1  0.00833000  0.03682000  0.59858000  1.0
  H  H5  1  0.96319000  0.99167000  0.90142000  1.0
  H  H6  1  0.99166000  0.96319000  0.40142000  1.0
  H  H7  1  0.03681000  0.00834000  0.09858000  1.0
  H  H8  1  0.76328000  0.08998000  0.66490000  1.0
  H  H9  1  0.91002000  0.23672000  0.83510000  1.0
  H  H10  1  0.23672000  0.91002000  0.33510000  1.0
  H  H11  1  0.08998000  0.76328000  0.16490000  1.0
  H  H12  1  0.30102000  0.22785000  0.22830000  1.0
  H  H13  1  0.77215000  0.69898000  0.27170000  1.0
  H  H14  1  0.69898000  0.77215000  0.77170000  1.0
  H  H15  1  0.22785000  0.30102000  0.72830000  1.0
  H  H16  1  0.53250000  0.13573000  0.26947000  1.0
  H  H17  1  0.86427000  0.46749000  0.23053000  1.0
  H  H18  1  0.46750000  0.86427000  0.73053000  1.0
  H  H19  1  0.13573000  0.53251000  0.76947000  1.0
  H  H20  1  0.93506000  0.64608000  0.99047000  1.0
  H  H21  1  0.35392000  0.06494000  0.50953000  1.0
  H  H22  1  0.06494000  0.35392000  0.00953000  1.0
  H  H23  1  0.64608000  0.93506000  0.49047000  1.0
  H  H24  1  0.11825000  0.84136000  0.83972000  1.0
  H  H25  1  0.15864000  0.88174000  0.66028000  1.0
  H  H26  1  0.88174000  0.15864000  0.16028000  1.0
  H  H27  1  0.84136000  0.11826000  0.33972000  1.0
  C  C28  1  0.98489000  0.13486000  0.58584000  1.0
  C  C29  1  0.86514000  0.01511000  0.91416000  1.0
  C  C30  1  0.01511000  0.86514000  0.41416000  1.0
  C  C31  1  0.13486000  0.98489000  0.08584000  1.0
  C  C32  1  0.86314000  0.16144000  0.61910000  1.0
  C  C33  1  0.83856000  0.13686000  0.88090000  1.0
  C  C34  1  0.13686000  0.83856000  0.38090000  1.0
  C  C35  1  0.16144000  0.86314000  0.11910000  1.0
  C  C36  1  0.39152000  0.26449000  0.29138000  1.0
  C  C37  1  0.73551000  0.60848000  0.20862000  1.0
  C  C38  1  0.60848000  0.73551000  0.70862000  1.0
  C  C39  1  0.26449000  0.39152000  0.79138000  1.0
  C  C40  1  0.50644000  0.21853000  0.31210000  1.0
  C  C41  1  0.78148000  0.49356000  0.18790000  1.0
  C  C42  1  0.49356000  0.78147000  0.68790000  1.0
  C  C43  1  0.21853000  0.50644000  0.81210000  1.0
  C  C44  1  0.91654000  0.62799000  0.90834000  1.0
  C  C45  1  0.37201000  0.08346000  0.59166000  1.0
  C  C46  1  0.08346000  0.37201000  0.09166000  1.0
  C  C47  1  0.62799000  0.91654000  0.40834000  1.0
  C  C48  1  0.00666000  0.72545000  0.83326000  1.0
  C  C49  1  0.27455000  0.99334000  0.66674000  1.0
  C  C50  1  0.99334000  0.27455000  0.16674000  1.0
  C  C51  1  0.72545000  0.00666000  0.33326000  1.0
  N  N52  1  0.88604000  0.30123000  0.58236000  1.0
  N  N53  1  0.69877000  0.11396000  0.91764000  1.0
  N  N54  1  0.11396000  0.69877000  0.41764000  1.0
  N  N55  1  0.30123000  0.88604000  0.08235000  1.0
  N  N56  1  0.01669000  0.35720000  0.52882000  1.0
  N  N57  1  0.64281000  0.98331000  0.97119000  1.0
  N  N58  1  0.98331000  0.64281000  0.47118000  1.0
  N  N59  1  0.35719000  0.01669000  0.02881000  1.0
  N  N60  1  0.07889000  0.25915000  0.52952000  1.0
  N  N61  1  0.74085000  0.92111000  0.97048000  1.0
  N  N62  1  0.92111000  0.74085000  0.47048000  1.0
  N  N63  1  0.25915000  0.07889000  0.02952000  1.0
  N  N64  1  0.59253000  0.30221000  0.39959000  1.0
  N  N65  1  0.69779000  0.40748000  0.10041000  1.0
  N  N66  1  0.40748000  0.69779000  0.60041000  1.0
  N  N67  1  0.30221000  0.59253000  0.89959000  1.0
  N  N68  1  0.53201000  0.39477000  0.43073000  1.0
  N  N69  1  0.60524000  0.46799000  0.06927000  1.0
  N  N70  1  0.46799000  0.60523000  0.56927000  1.0
  N  N71  1  0.39477000  0.53201000  0.93073000  1.0
  N  N72  1  0.40995000  0.37419000  0.36703000  1.0
  N  N73  1  0.62581000  0.59005000  0.13297000  1.0
  N  N74  1  0.59005000  0.62581000  0.63297000  1.0
  N  N75  1  0.37419000  0.40995000  0.86703000  1.0
  N  N76  1  0.93114000  0.64716000  0.74213000  1.0
  N  N77  1  0.35284000  0.06886000  0.75787000  1.0
  N  N78  1  0.06886000  0.35284000  0.25787000  1.0
  N  N79  1  0.64716000  0.93114000  0.24213000  1.0
  N  N80  1  0.80082000  0.50771000  0.76140000  1.0
  N  N81  1  0.49229000  0.19918000  0.73860000  1.0
  N  N82  1  0.19918000  0.49229000  0.23860000  1.0
  N  N83  1  0.50771000  0.80082000  0.26140000  1.0
  N  N84  1  0.78865000  0.49317000  0.86135000  1.0
  N  N85  1  0.50683000  0.21135000  0.63865000  1.0
  N  N86  1  0.21135000  0.50683000  0.13865000  1.0
  N  N87  1  0.49317000  0.78865000  0.36135000  1.0
