# generated using pymatgen
data_CoH8C9NO5
_symmetry_space_group_name_H-M   'P 1'
_cell_length_a   6.68735000
_cell_length_b   7.57275000
_cell_length_c   22.45610000
_cell_angle_alpha   90.00320000
_cell_angle_beta   89.99960000
_cell_angle_gamma   89.99990000
_symmetry_Int_Tables_number   1
_chemical_formula_structural   CoH8C9NO5
_chemical_formula_sum   'Co4 H32 C36 N4 O20'
_cell_volume   1137.21349918
_cell_formula_units_Z   4
loop_
 _symmetry_equiv_pos_site_id
 _symmetry_equiv_pos_as_xyz
  1  'x, y, z'
loop_
 _atom_site_type_symbol
 _atom_site_label
 _atom_site_symmetry_multiplicity
 _atom_site_fract_x
 _atom_site_fract_y
 _atom_site_fract_z
 _atom_site_occupancy
  Co  Co0  1  0.45130000  0.74688000  0.29048000  1.0
  Co  Co1  1  0.54872000  0.74688000  0.70953000  1.0
  Co  Co2  1  0.04872000  0.25312000  0.79048000  1.0
  Co  Co3  1  0.95129000  0.25312000  0.20953000  1.0
  H  H4  1  0.37713000  0.62108000  0.11186000  1.0
  H  H5  1  0.62281000  0.62106000  0.88812000  1.0
  H  H6  1  0.12285000  0.37892000  0.61189000  1.0
  H  H7  1  0.87717000  0.37894000  0.38812000  1.0
  H  H8  1  0.16456000  0.75825000  0.11873000  1.0
  H  H9  1  0.83541000  0.75822000  0.88126000  1.0
  H  H10  1  0.33544000  0.24176000  0.61875000  1.0
  H  H11  1  0.66457000  0.24178000  0.38126000  1.0
  H  H12  1  0.48749000  0.92271000  0.12740000  1.0
  H  H13  1  0.51251000  0.92272000  0.87260000  1.0
  H  H14  1  0.01252000  0.07728000  0.62740000  1.0
  H  H15  1  0.98752000  0.07730000  0.37259000  1.0
  H  H16  1  0.68476000  0.86969000  0.21093000  1.0
  H  H17  1  0.31524000  0.86970000  0.78906000  1.0
  H  H18  1  0.81525000  0.13028000  0.71094000  1.0
  H  H19  1  0.18477000  0.13030000  0.28906000  1.0
  H  H20  1  0.03597000  0.65870000  0.32705000  1.0
  H  H21  1  0.96402000  0.65868000  0.67295000  1.0
  H  H22  1  0.46401000  0.34131000  0.82704000  1.0
  H  H23  1  0.53599000  0.34133000  0.17295000  1.0
  H  H24  1  0.82138000  0.67691000  0.41737000  1.0
  H  H25  1  0.17860000  0.67690000  0.58263000  1.0
  H  H26  1  0.67863000  0.32309000  0.91736000  1.0
  H  H27  1  0.32141000  0.32311000  0.08262000  1.0
  H  H28  1  0.32137000  0.91846000  0.50836000  1.0
  H  H29  1  0.67862000  0.91848000  0.49165000  1.0
  H  H30  1  0.17862000  0.08154000  0.00836000  1.0
  H  H31  1  0.82138000  0.08151000  0.99164000  1.0
  H  H32  1  0.51084000  0.89927000  0.41146000  1.0
  H  H33  1  0.48916000  0.89926000  0.58855000  1.0
  H  H34  1  0.98914000  0.10075000  0.91146000  1.0
  H  H35  1  0.01084000  0.10070000  0.08854000  1.0
  C  C36  1  0.20752000  0.57961000  0.19121000  1.0
  C  C37  1  0.79244000  0.57960000  0.80877000  1.0
  C  C38  1  0.29246000  0.42039000  0.69123000  1.0
  C  C39  1  0.70753000  0.42040000  0.30878000  1.0
  C  C40  1  0.29192000  0.70260000  0.14341000  1.0
  C  C41  1  0.70806000  0.70258000  0.85659000  1.0
  C  C42  1  0.20809000  0.29741000  0.64342000  1.0
  C  C43  1  0.79192000  0.29743000  0.35659000  1.0
  C  C44  1  0.42529000  0.85153000  0.16604000  1.0
  C  C45  1  0.57472000  0.85152000  0.83397000  1.0
  C  C46  1  0.07471000  0.14847000  0.66604000  1.0
  C  C47  1  0.92528000  0.14848000  0.33396000  1.0
  C  C48  1  0.30041000  0.98543000  0.20154000  1.0
  C  C49  1  0.69961000  0.98543000  0.79846000  1.0
  C  C50  1  0.19962000  0.01454000  0.70154000  1.0
  C  C51  1  0.80040000  0.01457000  0.29846000  1.0
  C  C52  1  0.09239000  0.71581000  0.36831000  1.0
  C  C53  1  0.90759000  0.71580000  0.63170000  1.0
  C  C54  1  0.40760000  0.28419000  0.86831000  1.0
  C  C55  1  0.59241000  0.28420000  0.13169000  1.0
  C  C56  1  0.97477000  0.72526000  0.41931000  1.0
  C  C57  1  0.02522000  0.72526000  0.58069000  1.0
  C  C58  1  0.52522000  0.27473000  0.91931000  1.0
  C  C59  1  0.47479000  0.27475000  0.08069000  1.0
  C  C60  1  0.05697000  0.79369000  0.47191000  1.0
  C  C61  1  0.94302000  0.79370000  0.52809000  1.0
  C  C62  1  0.44302000  0.20631000  0.97191000  1.0
  C  C63  1  0.55699000  0.20629000  0.02808000  1.0
  C  C64  1  0.25349000  0.85834000  0.46925000  1.0
  C  C65  1  0.74650000  0.85836000  0.53076000  1.0
  C  C66  1  0.24652000  0.14165000  0.96924000  1.0
  C  C67  1  0.75350000  0.14162000  0.03075000  1.0
  C  C68  1  0.35932000  0.84819000  0.41625000  1.0
  C  C69  1  0.64068000  0.84820000  0.58376000  1.0
  C  C70  1  0.14068000  0.15181000  0.91625000  1.0
  C  C71  1  0.85933000  0.15178000  0.08375000  1.0
  N  N72  1  0.28236000  0.77521000  0.36650000  1.0
  N  N73  1  0.71764000  0.77519000  0.63350000  1.0
  N  N74  1  0.21764000  0.22481000  0.86651000  1.0
  N  N75  1  0.78237000  0.22479000  0.13350000  1.0
  O  O76  1  0.23920000  0.60635000  0.24615000  1.0
  O  O77  1  0.76081000  0.60632000  0.75384000  1.0
  O  O78  1  0.26079000  0.39369000  0.74617000  1.0
  O  O79  1  0.73920000  0.39367000  0.25383000  1.0
  O  O80  1  0.10479000  0.45177000  0.17054000  1.0
  O  O81  1  0.89515000  0.45176000  0.82945000  1.0
  O  O82  1  0.39518000  0.54823000  0.67056000  1.0
  O  O83  1  0.60480000  0.54826000  0.32944000  1.0
  O  O84  1  0.58239000  0.77564000  0.20069000  1.0
  O  O85  1  0.41761000  0.77564000  0.79931000  1.0
  O  O86  1  0.91762000  0.22435000  0.70070000  1.0
  O  O87  1  0.08240000  0.22436000  0.29930000  1.0
  O  O88  1  0.32626000  0.98784000  0.25809000  1.0
  O  O89  1  0.67375000  0.98784000  0.74192000  1.0
  O  O90  1  0.17375000  0.01216000  0.75808000  1.0
  O  O91  1  0.82625000  0.01216000  0.24191000  1.0
  O  O92  1  0.17998000  0.08128000  0.17290000  1.0
  O  O93  1  0.82006000  0.08125000  0.82711000  1.0
  O  O94  1  0.32002000  0.91875000  0.67290000  1.0
  O  O95  1  0.67997000  0.91874000  0.32710000  1.0
