# generated using pymatgen
data_CuH12C11N2O5
_symmetry_space_group_name_H-M   'P 1'
_cell_length_a   7.68440000
_cell_length_b   10.70280000
_cell_length_c   15.07180000
_cell_angle_alpha   90.00000000
_cell_angle_beta   90.67160000
_cell_angle_gamma   89.99930000
_symmetry_Int_Tables_number   1
_chemical_formula_structural   CuH12C11N2O5
_chemical_formula_sum   'Cu4 H48 C44 N8 O20'
_cell_volume   1239.48895104
_cell_formula_units_Z   4
loop_
 _symmetry_equiv_pos_site_id
 _symmetry_equiv_pos_as_xyz
  1  'x, y, z'
loop_
 _atom_site_type_symbol
 _atom_site_label
 _atom_site_symmetry_multiplicity
 _atom_site_fract_x
 _atom_site_fract_y
 _atom_site_fract_z
 _atom_site_occupancy
  Cu  Cu0  1  0.38576000  0.58720000  0.99645000  1.0
  Cu  Cu1  1  0.61424000  0.08720000  0.50355000  1.0
  Cu  Cu2  1  0.61425000  0.41280000  0.00355000  1.0
  Cu  Cu3  1  0.38576000  0.91280000  0.49645000  1.0
  H  H4  1  0.29129000  0.81857000  0.72240000  1.0
  H  H5  1  0.70872000  0.31857000  0.77760000  1.0
  H  H6  1  0.70873000  0.18143000  0.27760000  1.0
  H  H7  1  0.29128000  0.68143000  0.22240000  1.0
  H  H8  1  0.29378000  0.72017000  0.81203000  1.0
  H  H9  1  0.70623000  0.22017000  0.68798000  1.0
  H  H10  1  0.70623000  0.27983000  0.18797000  1.0
  H  H11  1  0.29376000  0.77983000  0.31203000  1.0
  H  H12  1  0.54813000  0.72679000  0.73575000  1.0
  H  H13  1  0.45188000  0.22679000  0.76425000  1.0
  H  H14  1  0.45189000  0.27321000  0.26425000  1.0
  H  H15  1  0.54811000  0.77322000  0.23575000  1.0
  H  H16  1  0.03036000  0.61130000  0.85979000  1.0
  H  H17  1  0.96964000  0.11130000  0.64022000  1.0
  H  H18  1  0.96965000  0.38869000  0.14020000  1.0
  H  H19  1  0.03035000  0.88869000  0.35979000  1.0
  H  H20  1  0.03372000  0.87476000  0.64202000  1.0
  H  H21  1  0.96629000  0.37476000  0.85799000  1.0
  H  H22  1  0.96629000  0.12524000  0.35798000  1.0
  H  H23  1  0.03370000  0.62523000  0.14202000  1.0
  H  H24  1  0.26008000  0.83193000  0.10217000  1.0
  H  H25  1  0.73991000  0.33194000  0.39783000  1.0
  H  H26  1  0.73991000  0.16806000  0.89783000  1.0
  H  H27  1  0.26010000  0.66807000  0.60217000  1.0
  H  H28  1  0.20396000  0.92832000  0.87389000  1.0
  H  H29  1  0.79603000  0.42833000  0.62611000  1.0
  H  H30  1  0.79603000  0.07167000  0.12611000  1.0
  H  H31  1  0.20396000  0.57167000  0.37389000  1.0
  H  H32  1  0.34319000  0.05945000  0.89684000  1.0
  H  H33  1  0.65679000  0.55946000  0.60316000  1.0
  H  H34  1  0.65679000  0.94054000  0.10316000  1.0
  H  H35  1  0.34320000  0.44054000  0.39684000  1.0
  H  H36  1  0.11485000  0.07520000  0.90839000  1.0
  H  H37  1  0.88513000  0.57520000  0.59162000  1.0
  H  H38  1  0.88513000  0.92480000  0.09161000  1.0
  H  H39  1  0.11486000  0.42480000  0.40839000  1.0
  H  H40  1  0.14223000  0.12768000  0.07456000  1.0
  H  H41  1  0.85777000  0.62769000  0.42544000  1.0
  H  H42  1  0.85775000  0.87231000  0.92544000  1.0
  H  H43  1  0.14224000  0.37232000  0.57456000  1.0
  H  H44  1  0.37237000  0.12425000  0.06302000  1.0
  H  H45  1  0.62763000  0.62426000  0.43697000  1.0
  H  H46  1  0.62761000  0.87575000  0.93698000  1.0
  H  H47  1  0.37239000  0.37575000  0.56302000  1.0
  H  H48  1  0.26899000  0.02330000  0.14127000  1.0
  H  H49  1  0.73101000  0.52331000  0.35873000  1.0
  H  H50  1  0.73099000  0.97669000  0.85873000  1.0
  H  H51  1  0.26900000  0.47670000  0.64127000  1.0
  C  C52  1  0.68302000  0.87821000  0.61287000  1.0
  C  C53  1  0.31699000  0.37821000  0.88713000  1.0
  C  C54  1  0.31699000  0.12179000  0.38713000  1.0
  C  C55  1  0.68301000  0.62179000  0.11287000  1.0
  C  C56  1  0.78193000  0.80615000  0.68155000  1.0
  C  C57  1  0.21809000  0.30615000  0.81846000  1.0
  C  C58  1  0.21808000  0.19385000  0.31845000  1.0
  C  C59  1  0.78192000  0.69385000  0.18155000  1.0
  C  C60  1  0.68877000  0.73230000  0.74067000  1.0
  C  C61  1  0.31124000  0.23230000  0.75933000  1.0
  C  C62  1  0.31124000  0.26770000  0.25932000  1.0
  C  C63  1  0.68875000  0.76770000  0.24068000  1.0
  C  C64  1  0.77936000  0.66446000  0.80552000  1.0
  C  C65  1  0.22066000  0.16446000  0.69449000  1.0
  C  C66  1  0.22066000  0.33555000  0.19448000  1.0
  C  C67  1  0.77935000  0.83555000  0.30552000  1.0
  C  C68  1  0.67723000  0.59600000  0.87381000  1.0
  C  C69  1  0.32278000  0.09600000  0.62619000  1.0
  C  C70  1  0.32279000  0.40400000  0.12619000  1.0
  C  C71  1  0.67722000  0.90400000  0.37381000  1.0
  C  C72  1  0.96106000  0.66616000  0.80979000  1.0
  C  C73  1  0.03895000  0.16616000  0.69021000  1.0
  C  C74  1  0.03895000  0.33384000  0.19020000  1.0
  C  C75  1  0.96105000  0.83384000  0.30979000  1.0
  C  C76  1  0.05471000  0.74273000  0.75100000  1.0
  C  C77  1  0.94530000  0.24273000  0.74901000  1.0
  C  C78  1  0.94530000  0.25727000  0.24900000  1.0
  C  C79  1  0.05470000  0.75727000  0.25099000  1.0
  C  C80  1  0.96317000  0.81389000  0.68714000  1.0
  C  C81  1  0.03684000  0.31389000  0.81287000  1.0
  C  C82  1  0.03685000  0.18611000  0.31286000  1.0
  C  C83  1  0.96315000  0.68611000  0.18714000  1.0
  C  C84  1  0.24196000  0.84803000  0.03022000  1.0
  C  C85  1  0.75803000  0.34805000  0.46978000  1.0
  C  C86  1  0.75803000  0.15196000  0.96978000  1.0
  C  C87  1  0.24197000  0.65197000  0.53021000  1.0
  C  C88  1  0.22431000  0.00998000  0.91637000  1.0
  C  C89  1  0.77568000  0.50999000  0.58363000  1.0
  C  C90  1  0.77568000  0.99001000  0.08363000  1.0
  C  C91  1  0.22431000  0.49001000  0.41637000  1.0
  C  C92  1  0.25701000  0.06633000  0.07542000  1.0
  C  C93  1  0.74298000  0.56634000  0.42457000  1.0
  C  C94  1  0.74296000  0.93367000  0.92457000  1.0
  C  C95  1  0.25703000  0.43367000  0.57542000  1.0
  N  N96  1  0.23472000  0.74549000  0.75394000  1.0
  N  N97  1  0.76529000  0.24549000  0.74606000  1.0
  N  N98  1  0.76530000  0.25451000  0.24605000  1.0
  N  N99  1  0.23470000  0.75451000  0.25394000  1.0
  N  N100  1  0.23905000  0.96950000  0.00817000  1.0
  N  N101  1  0.76094000  0.46950000  0.49183000  1.0
  N  N102  1  0.76094000  0.03050000  0.99183000  1.0
  N  N103  1  0.23906000  0.53050000  0.50817000  1.0
  O  O104  1  0.74743000  0.98190000  0.58776000  1.0
  O  O105  1  0.25257000  0.48190000  0.91225000  1.0
  O  O106  1  0.25258000  0.01811000  0.41225000  1.0
  O  O107  1  0.74742000  0.51810000  0.08776000  1.0
  O  O108  1  0.53973000  0.82983000  0.58571000  1.0
  O  O109  1  0.46029000  0.32984000  0.91429000  1.0
  O  O110  1  0.46029000  0.17017000  0.41429000  1.0
  O  O111  1  0.53971000  0.67018000  0.08571000  1.0
  O  O112  1  0.53440000  0.64726000  0.89684000  1.0
  O  O113  1  0.46560000  0.14726000  0.60316000  1.0
  O  O114  1  0.46561000  0.35273000  0.10315000  1.0
  O  O115  1  0.53439000  0.85273000  0.39684000  1.0
  O  O116  1  0.74020000  0.49449000  0.90482000  1.0
  O  O117  1  0.25981000  0.99449000  0.59519000  1.0
  O  O118  1  0.25982000  0.50551000  0.09518000  1.0
  O  O119  1  0.74018000  0.00551000  0.40482000  1.0
  O  O120  1  0.22691000  0.75977000  0.97602000  1.0
  O  O121  1  0.77307000  0.25977000  0.52398000  1.0
  O  O122  1  0.77309000  0.24023000  0.02397000  1.0
  O  O123  1  0.22692000  0.74023000  0.47602000  1.0
