# generated using pymatgen
data_ZnH2C12(NO3)4
_symmetry_space_group_name_H-M   'P 1'
_cell_length_a   10.14690000
_cell_length_b   18.32320000
_cell_length_c   18.38870000
_cell_angle_alpha   89.53700000
_cell_angle_beta   84.25710000
_cell_angle_gamma   83.93880000
_symmetry_Int_Tables_number   1
_chemical_formula_structural   ZnH2C12(NO3)4
_chemical_formula_sum   'Zn4 H8 C48 N16 O48'
_cell_volume   3382.70758422
_cell_formula_units_Z   4
loop_
 _symmetry_equiv_pos_site_id
 _symmetry_equiv_pos_as_xyz
  1  'x, y, z'
loop_
 _atom_site_type_symbol
 _atom_site_label
 _atom_site_symmetry_multiplicity
 _atom_site_fract_x
 _atom_site_fract_y
 _atom_site_fract_z
 _atom_site_occupancy
  Zn  Zn0  1  0.61181000  0.00174000  0.48483000  1.0
  Zn  Zn1  1  0.33407000  0.02717000  0.50445000  1.0
  Zn  Zn2  1  0.38794000  0.51633000  0.99855000  1.0
  Zn  Zn3  1  0.66590000  0.49571000  0.97405000  1.0
  H  H4  1  0.78809000  0.33578000  0.14186000  1.0
  H  H5  1  0.22613000  0.17568000  0.32662000  1.0
  H  H6  1  0.77406000  0.67360000  0.82594000  1.0
  H  H7  1  0.21176000  0.85931000  0.66396000  1.0
  H  H8  1  0.72722000  0.62997000  0.13245000  1.0
  H  H9  1  0.27223000  0.86804000  0.37071000  1.0
  H  H10  1  0.24253000  0.35435000  0.86754000  1.0
  H  H11  1  0.75766000  0.13282000  0.64655000  1.0
  C  C12  1  0.53858000  0.09966000  0.59038000  1.0
  C  C13  1  0.42812000  0.10921000  0.39509000  1.0
  C  C14  1  0.50001000  0.90774000  0.40376000  1.0
  C  C15  1  0.41296000  0.92910000  0.60160000  1.0
  C  C16  1  0.49934000  0.59690000  0.09292000  1.0
  C  C17  1  0.58676000  0.39836000  0.07148000  1.0
  C  C18  1  0.46141000  0.41065000  0.90075000  1.0
  C  C19  1  0.57213000  0.60588000  0.89221000  1.0
  C  C20  1  0.46205000  0.30797000  0.14876000  1.0
  C  C21  1  0.69566000  0.31241000  0.15908000  1.0
  C  C22  1  0.68984000  0.26228000  0.21483000  1.0
  C  C23  1  0.57058000  0.23199000  0.24160000  1.0
  C  C24  1  0.56030000  0.18008000  0.29963000  1.0
  C  C25  1  0.32204000  0.18998000  0.30178000  1.0
  C  C26  1  0.32900000  0.23280000  0.24025000  1.0
  C  C27  1  0.45040000  0.25758000  0.20789000  1.0
  C  C28  1  0.58079000  0.33644000  0.12532000  1.0
  C  C29  1  0.43881000  0.16098000  0.33159000  1.0
  C  C30  1  0.43988000  0.70163000  0.82084000  1.0
  C  C31  1  0.67813000  0.69869000  0.81135000  1.0
  C  C32  1  0.67112000  0.76017000  0.76828000  1.0
  C  C33  1  0.54968000  0.79273000  0.74305000  1.0
  C  C34  1  0.53792000  0.85175000  0.69239000  1.0
  C  C35  1  0.30422000  0.84201000  0.68763000  1.0
  C  C36  1  0.31023000  0.78638000  0.73797000  1.0
  C  C37  1  0.42955000  0.75944000  0.76861000  1.0
  C  C38  1  0.56141000  0.66931000  0.84026000  1.0
  C  C39  1  0.41908000  0.87540000  0.66363000  1.0
  C  C40  1  0.41037000  0.68083000  0.20222000  1.0
  C  C41  1  0.64520000  0.65772000  0.16783000  1.0
  C  C42  1  0.67102000  0.70191000  0.22323000  1.0
  C  C43  1  0.56792000  0.74380000  0.26826000  1.0
  C  C44  1  0.58934000  0.79837000  0.31964000  1.0
  C  C45  1  0.35440000  0.83269000  0.34291000  1.0
  C  C46  1  0.32868000  0.77717000  0.29879000  1.0
  C  C47  1  0.43173000  0.73220000  0.25680000  1.0
  C  C48  1  0.51414000  0.64600000  0.15614000  1.0
  C  C49  1  0.48545000  0.84445000  0.35458000  1.0
  C  C50  1  0.57059000  0.29939000  0.82704000  1.0
  C  C51  1  0.33214000  0.32297000  0.84217000  1.0
  C  C52  1  0.32176000  0.26385000  0.79873000  1.0
  C  C53  1  0.43523000  0.22404000  0.75934000  1.0
  C  C54  1  0.42985000  0.17326000  0.70147000  1.0
  C  C55  1  0.66817000  0.15825000  0.67787000  1.0
  C  C56  1  0.67869000  0.20185000  0.73675000  1.0
  C  C57  1  0.56518000  0.24130000  0.77643000  1.0
  C  C58  1  0.45727000  0.34292000  0.85601000  1.0
  C  C59  1  0.54302000  0.14436000  0.65798000  1.0
  N  N60  1  0.19954000  0.24947000  0.20974000  1.0
  N  N61  1  0.34335000  0.33315000  0.11044000  1.0
  N  N62  1  0.81561000  0.24781000  0.24994000  1.0
  N  N63  1  0.68459000  0.14193000  0.32469000  1.0
  N  N64  1  0.18448000  0.75159000  0.75241000  1.0
  N  N65  1  0.31557000  0.67722000  0.85879000  1.0
  N  N66  1  0.80048000  0.79030000  0.75143000  1.0
  N  N67  1  0.65640000  0.88991000  0.66732000  1.0
  N  N68  1  0.18510000  0.76666000  0.30281000  1.0
  N  N69  1  0.27298000  0.66621000  0.19029000  1.0
  N  N70  1  0.81485000  0.69796000  0.23350000  1.0
  N  N71  1  0.72677000  0.81041000  0.33412000  1.0
  N  N72  1  0.81677000  0.19904000  0.75765000  1.0
  N  N73  1  0.70161000  0.31729000  0.84713000  1.0
  N  N74  1  0.18403000  0.24274000  0.80151000  1.0
  N  N75  1  0.29899000  0.15276000  0.68381000  1.0
  O  O76  1  0.65018000  0.06849000  0.56045000  1.0
  O  O77  1  0.42660000  0.09648000  0.56661000  1.0
  O  O78  1  0.31142000  0.09991000  0.42528000  1.0
  O  O79  1  0.53603000  0.07792000  0.41436000  1.0
  O  O80  1  0.39142000  0.94175000  0.43157000  1.0
  O  O81  1  0.61708000  0.92330000  0.41340000  1.0
  O  O82  1  0.52258000  0.93776000  0.56519000  1.0
  O  O83  1  0.29894000  0.96013000  0.58775000  1.0
  O  O84  1  0.38221000  0.58774000  0.07700000  1.0
  O  O85  1  0.60789000  0.56869000  0.05929000  1.0
  O  O86  1  0.70077000  0.41197000  0.04094000  1.0
  O  O87  1  0.47701000  0.43500000  0.06231000  1.0
  O  O88  1  0.57329000  0.43423000  0.90436000  1.0
  O  O89  1  0.34975000  0.44088000  0.93155000  1.0
  O  O90  1  0.46423000  0.58716000  0.92336000  1.0
  O  O91  1  0.68881000  0.57517000  0.90179000  1.0
  O  O92  1  0.19099000  0.22224000  0.14924000  1.0
  O  O93  1  0.11058000  0.28583000  0.24834000  1.0
  O  O94  1  0.34273000  0.30988000  0.04783000  1.0
  O  O95  1  0.25589000  0.37488000  0.14476000  1.0
  O  O96  1  0.89286000  0.19433000  0.22764000  1.0
  O  O97  1  0.83210000  0.29260000  0.29696000  1.0
  O  O98  1  0.72812000  0.08488000  0.29165000  1.0
  O  O99  1  0.73325000  0.17049000  0.37479000  1.0
  O  O100  1  0.10706000  0.77470000  0.80520000  1.0
  O  O101  1  0.16812000  0.70404000  0.70811000  1.0
  O  O102  1  0.27218000  0.71116000  0.91515000  1.0
  O  O103  1  0.26669000  0.62682000  0.83077000  1.0
  O  O104  1  0.80931000  0.85116000  0.77810000  1.0
  O  O105  1  0.88897000  0.75111000  0.71531000  1.0
  O  O106  1  0.65696000  0.95278000  0.69041000  1.0
  O  O107  1  0.74372000  0.85525000  0.62590000  1.0
  O  O108  1  0.15613000  0.70631000  0.32616000  1.0
  O  O109  1  0.10747000  0.81972000  0.28801000  1.0
  O  O110  1  0.23755000  0.60710000  0.21200000  1.0
  O  O111  1  0.20815000  0.71527000  0.15856000  1.0
  O  O112  1  0.84513000  0.67411000  0.29338000  1.0
  O  O113  1  0.89140000  0.71336000  0.18070000  1.0
  O  O114  1  0.76345000  0.78818000  0.39275000  1.0
  O  O115  1  0.79042000  0.84265000  0.28541000  1.0
  O  O116  1  0.82990000  0.18226000  0.82205000  1.0
  O  O117  1  0.90612000  0.20775000  0.70889000  1.0
  O  O118  1  0.72797000  0.30234000  0.90971000  1.0
  O  O119  1  0.77216000  0.34595000  0.79871000  1.0
  O  O120  1  0.17193000  0.17801000  0.81804000  1.0
  O  O121  1  0.09397000  0.29165000  0.79292000  1.0
  O  O122  1  0.27437000  0.08972000  0.69848000  1.0
  O  O123  1  0.22688000  0.20120000  0.65553000  1.0
