# generated using pymatgen
data_NdH4C6N2O7
_symmetry_space_group_name_H-M   'P 1'
_cell_length_a   6.82621000
_cell_length_b   11.33154731
_cell_length_c   13.33890000
_cell_angle_alpha   75.02673443
_cell_angle_beta   89.99800000
_cell_angle_gamma   72.50927734
_symmetry_Int_Tables_number   1
_chemical_formula_structural   NdH4C6N2O7
_chemical_formula_sum   'Nd4 H16 C24 N8 O28'
_cell_volume   947.28810803
_cell_formula_units_Z   4
loop_
 _symmetry_equiv_pos_site_id
 _symmetry_equiv_pos_as_xyz
  1  'x, y, z'
loop_
 _atom_site_type_symbol
 _atom_site_label
 _atom_site_symmetry_multiplicity
 _atom_site_fract_x
 _atom_site_fract_y
 _atom_site_fract_z
 _atom_site_occupancy
  Nd  Nd0  1  0.72061000  0.69996000  0.11910000  1.0
  Nd  Nd1  1  0.42065000  0.30011000  0.38092000  1.0
  Nd  Nd2  1  0.27939000  0.30004000  0.88091000  1.0
  Nd  Nd3  1  0.57935000  0.69989000  0.61908000  1.0
  H  H4  1  0.13000000  0.87223000  0.19567000  1.0
  H  H5  1  0.00176000  0.12792000  0.30422000  1.0
  H  H6  1  0.87001000  0.12777000  0.80434000  1.0
  H  H7  1  0.99825000  0.87207000  0.69578000  1.0
  H  H8  1  0.24844000  0.83389000  0.38731000  1.0
  H  H9  1  0.08193000  0.16616000  0.11259000  1.0
  H  H10  1  0.75155000  0.16611000  0.61269000  1.0
  H  H11  1  0.91807000  0.83384000  0.88742000  1.0
  H  H12  1  0.02450000  0.43093000  0.17764000  1.0
  H  H13  1  0.45527000  0.56916000  0.32232000  1.0
  H  H14  1  0.97552000  0.56907000  0.82236000  1.0
  H  H15  1  0.54474000  0.43084000  0.67767000  1.0
  H  H16  1  0.89596000  0.43264000  0.27211000  1.0
  H  H17  1  0.32878000  0.56729000  0.22780000  1.0
  H  H18  1  0.10405000  0.56736000  0.72789000  1.0
  H  H19  1  0.67122000  0.43271000  0.77220000  1.0
  C  C20  1  0.87414000  0.72627000  0.35952000  1.0
  C  C21  1  0.60031000  0.27382000  0.14042000  1.0
  C  C22  1  0.12585000  0.27373000  0.64048000  1.0
  C  C23  1  0.39969000  0.72618000  0.85958000  1.0
  C  C24  1  0.71453000  0.66083000  0.37974000  1.0
  C  C25  1  0.37543000  0.33925000  0.12020000  1.0
  C  C26  1  0.28547000  0.33917000  0.62025000  1.0
  C  C27  1  0.62458000  0.66075000  0.87981000  1.0
  C  C28  1  0.06127000  0.82550000  0.26151000  1.0
  C  C29  1  0.88645000  0.17461000  0.23837000  1.0
  C  C30  1  0.93873000  0.17450000  0.73849000  1.0
  C  C31  1  0.11356000  0.82538000  0.76163000  1.0
  C  C32  1  0.01728000  0.74125000  0.42618000  1.0
  C  C33  1  0.75838000  0.25882000  0.07371000  1.0
  C  C34  1  0.98270000  0.25876000  0.57383000  1.0
  C  C35  1  0.24161000  0.74118000  0.92629000  1.0
  C  C36  1  0.07680000  0.69207000  0.53983000  1.0
  C  C37  1  0.76900000  0.30799000  0.96006000  1.0
  C  C38  1  0.92319000  0.30793000  0.46017000  1.0
  C  C39  1  0.23101000  0.69200000  0.03994000  1.0
  C  C40  1  0.42801000  0.00505000  0.04532000  1.0
  C  C41  1  0.43333000  0.99487000  0.45462000  1.0
  C  C42  1  0.57202000  0.99493000  0.95469000  1.0
  C  C43  1  0.56665000  0.00516000  0.54538000  1.0
  N  N44  1  0.90550000  0.77830000  0.25736000  1.0
  N  N45  1  0.68360000  0.22183000  0.24256000  1.0
  N  N46  1  0.09450000  0.22170000  0.74264000  1.0
  N  N47  1  0.31640000  0.77817000  0.75744000  1.0
  N  N48  1  0.13189000  0.80489000  0.36127000  1.0
  N  N49  1  0.93647000  0.19519000  0.13861000  1.0
  N  N50  1  0.86810000  0.19512000  0.63873000  1.0
  N  N51  1  0.06353000  0.80481000  0.86139000  1.0
  O  O52  1  0.62804000  0.64958000  0.29863000  1.0
  O  O53  1  0.27770000  0.35053000  0.20127000  1.0
  O  O54  1  0.37196000  0.35042000  0.70137000  1.0
  O  O55  1  0.72231000  0.64947000  0.79873000  1.0
  O  O56  1  0.25721000  0.68434000  0.56986000  1.0
  O  O57  1  0.94181000  0.31548000  0.93007000  1.0
  O  O58  1  0.74278000  0.31567000  0.43015000  1.0
  O  O59  1  0.05820000  0.68451000  0.06992000  1.0
  O  O60  1  0.66772000  0.61899000  0.47043000  1.0
  O  O61  1  0.28692000  0.38099000  0.02950000  1.0
  O  O62  1  0.33226000  0.38101000  0.52957000  1.0
  O  O63  1  0.71308000  0.61901000  0.97049000  1.0
  O  O64  1  0.95015000  0.65862000  0.60242000  1.0
  O  O65  1  0.60890000  0.34172000  0.89748000  1.0
  O  O66  1  0.04985000  0.34138000  0.39758000  1.0
  O  O67  1  0.39109000  0.65828000  0.10251000  1.0
  O  O68  1  0.44786000  0.90469000  0.11796000  1.0
  O  O69  1  0.35288000  0.09520000  0.38198000  1.0
  O  O70  1  0.55214000  0.09532000  0.88203000  1.0
  O  O71  1  0.64711000  0.90479000  0.61802000  1.0
  O  O72  1  0.88226000  0.47176000  0.19595000  1.0
  O  O73  1  0.35390000  0.52824000  0.30399000  1.0
  O  O74  1  0.11775000  0.52824000  0.80405000  1.0
  O  O75  1  0.64610000  0.47176000  0.69601000  1.0
  O  O76  1  0.30016000  0.11561000  0.03750000  1.0
  O  O77  1  0.41631000  0.88420000  0.46239000  1.0
  O  O78  1  0.69984000  0.88440000  0.96251000  1.0
  O  O79  1  0.58368000  0.11580000  0.53760000  1.0
