# generated using pymatgen
data_FeCuH16C24S4(NCl)2
_symmetry_space_group_name_H-M   'P 1'
_cell_length_a   9.13501000
_cell_length_b   13.05235280
_cell_length_c   13.47709576
_cell_angle_alpha   76.49753442
_cell_angle_beta   70.20829559
_cell_angle_gamma   69.56304021
_symmetry_Int_Tables_number   1
_chemical_formula_structural   FeCuH16C24S4(NCl)2
_chemical_formula_sum   'Fe2 Cu2 H32 C48 S8 N4 Cl4'
_cell_volume   1404.67159533
_cell_formula_units_Z   2
loop_
 _symmetry_equiv_pos_site_id
 _symmetry_equiv_pos_as_xyz
  1  'x, y, z'
loop_
 _atom_site_type_symbol
 _atom_site_label
 _atom_site_symmetry_multiplicity
 _atom_site_fract_x
 _atom_site_fract_y
 _atom_site_fract_z
 _atom_site_occupancy
  Fe  Fe0  1  0.00000000  0.00000000  0.00000000  1.0
  Fe  Fe1  1  1.00000000  0.50000000  0.50000000  1.0
  Cu  Cu2  1  0.00000000  0.00000000  0.50000000  1.0
  Cu  Cu3  1  0.50000000  0.50000000  0.00000000  1.0
  H  H4  1  0.75806000  0.17118000  0.10790000  1.0
  H  H5  1  0.03714000  0.32862000  0.39230000  1.0
  H  H6  1  0.24194000  0.82882000  0.89210000  1.0
  H  H7  1  0.96286000  0.67138000  0.60770000  1.0
  H  H8  1  0.68588000  0.09032000  0.97032000  1.0
  H  H9  1  0.74659000  0.40945000  0.52981000  1.0
  H  H10  1  0.31412000  0.90968000  0.02968000  1.0
  H  H11  1  0.25341000  0.59055000  0.47019000  1.0
  H  H12  1  0.81943000  0.86719000  0.99240000  1.0
  H  H13  1  0.67926000  0.63261000  0.50741000  1.0
  H  H14  1  0.18057000  0.13281000  0.00760000  1.0
  H  H15  1  0.32074000  0.36739000  0.49259000  1.0
  H  H16  1  0.97627000  0.81081000  0.14480000  1.0
  H  H17  1  0.93195000  0.68908000  0.35506000  1.0
  H  H18  1  0.02375000  0.18919000  0.85519000  1.0
  H  H19  1  0.06805000  0.31092000  0.64494000  1.0
  H  H20  1  0.79046000  0.91268000  0.68305000  1.0
  H  H21  1  0.38698000  0.58712000  0.81718000  1.0
  H  H22  1  0.20953000  0.08732000  0.31696000  1.0
  H  H23  1  0.61302000  0.41288000  0.18282000  1.0
  H  H24  1  0.58422000  0.81889000  0.80488000  1.0
  H  H25  1  0.20908000  0.68081000  0.69513000  1.0
  H  H26  1  0.41580000  0.18110000  0.19511000  1.0
  H  H27  1  0.79092000  0.31919000  0.30487000  1.0
  H  H28  1  0.41081000  0.76536000  0.73272000  1.0
  H  H29  1  0.91016000  0.73443000  0.76713000  1.0
  H  H30  1  0.58919000  0.23464000  0.26728000  1.0
  H  H31  1  0.08984000  0.26557000  0.23287000  1.0
  H  H32  1  0.43384000  0.80253000  0.53937000  1.0
  H  H33  1  0.77684000  0.69725000  0.96039000  1.0
  H  H34  1  0.56617000  0.19747000  0.46063000  1.0
  H  H35  1  0.22316000  0.30275000  0.03961000  1.0
  C  C36  1  0.88534000  0.99322000  0.15719000  1.0
  C  C37  1  0.03577000  0.50658000  0.34282000  1.0
  C  C38  1  0.11467000  0.00678000  0.84281000  1.0
  C  C39  1  0.96423000  0.49342000  0.65718000  1.0
  C  C40  1  0.79083000  0.08469000  0.09958000  1.0
  C  C41  1  0.97509000  0.41510000  0.40057000  1.0
  C  C42  1  0.20917000  0.91531000  0.90042000  1.0
  C  C43  1  0.02491000  0.58490000  0.59943000  1.0
  C  C44  1  0.75272000  0.04104000  0.02693000  1.0
  C  C45  1  0.82074000  0.45872000  0.47312000  1.0
  C  C46  1  0.24728000  0.95896000  0.97307000  1.0
  C  C47  1  0.17926000  0.54128000  0.52688000  1.0
  C  C48  1  0.82309000  0.92346000  0.03888000  1.0
  C  C49  1  0.78560000  0.57633000  0.46099000  1.0
  C  C50  1  0.17691000  0.07654000  0.96112000  1.0
  C  C51  1  0.21439000  0.42367000  0.53901000  1.0
  C  C52  1  0.90691000  0.89306000  0.11861000  1.0
  C  C53  1  0.91873000  0.60677000  0.38128000  1.0
  C  C54  1  0.09309000  0.10694000  0.88139000  1.0
  C  C55  1  0.08127000  0.39323000  0.61872000  1.0
  C  C56  1  0.73311000  0.90386000  0.54280000  1.0
  C  C57  1  0.18051000  0.59617000  0.95731000  1.0
  C  C58  1  0.26689000  0.09614000  0.45720000  1.0
  C  C59  1  0.81948000  0.40383000  0.04269000  1.0
  C  C60  1  0.71490000  0.88647000  0.65234000  1.0
  C  C61  1  0.25458000  0.61339000  0.84779000  1.0
  C  C62  1  0.28509000  0.11353000  0.34766000  1.0
  C  C63  1  0.74542000  0.38661000  0.15221000  1.0
  C  C64  1  0.59978000  0.83523000  0.71939000  1.0
  C  C65  1  0.15547000  0.66456000  0.78063000  1.0
  C  C66  1  0.40022000  0.16477000  0.28061000  1.0
  C  C67  1  0.84453000  0.33544000  0.21937000  1.0
  C  C68  1  0.50148000  0.80397000  0.67844000  1.0
  C  C69  1  0.98504000  0.69586000  0.82147000  1.0
  C  C70  1  0.49852000  0.19603000  0.32156000  1.0
  C  C71  1  0.01496000  0.30414000  0.17853000  1.0
  C  C72  1  0.51538000  0.82286000  0.56997000  1.0
  C  C73  1  0.90925000  0.67702000  0.92992000  1.0
  C  C74  1  0.48462000  0.17714000  0.43003000  1.0
  C  C75  1  0.09075000  0.32298000  0.07008000  1.0
  C  C76  1  0.63376000  0.87189000  0.50239000  1.0
  C  C77  1  0.00887000  0.62815000  0.99759000  1.0
  C  C78  1  0.36624000  0.12811000  0.49761000  1.0
  C  C79  1  0.99113000  0.37185000  0.00241000  1.0
  C  C80  1  0.83398000  0.95442000  0.36819000  1.0
  C  C81  1  0.15692000  0.54544000  0.13193000  1.0
  C  C82  1  0.16602000  0.04558000  0.63181000  1.0
  C  C83  1  0.84308000  0.45456000  0.86807000  1.0
  S  S84  1  0.96543000  0.00287000  0.25497000  1.0
  S  S85  1  0.22338000  0.49657000  0.24518000  1.0
  S  S86  1  0.03457000  0.99713000  0.74503000  1.0
  S  S87  1  0.77662000  0.50343000  0.75482000  1.0
  S  S88  1  0.68443000  0.90251000  0.36452000  1.0
  S  S89  1  0.95200000  0.59751000  0.13544000  1.0
  S  S90  1  0.31557000  0.09749000  0.63548000  1.0
  S  S91  1  0.04800000  0.40249000  0.86456000  1.0
  N  N92  1  0.84372000  0.95091000  0.46442000  1.0
  N  N93  1  0.25950000  0.54908000  0.03579000  1.0
  N  N94  1  0.15628000  0.04909000  0.53558000  1.0
  N  N95  1  0.74050000  0.45092000  0.96421000  1.0
  Cl  Cl96  1  0.83448000  0.17608000  0.49629000  1.0
  Cl  Cl97  1  0.50651000  0.32361000  0.00376000  1.0
  Cl  Cl98  1  0.16552000  0.82392000  0.50371000  1.0
  Cl  Cl99  1  0.49349000  0.67639000  0.99624000  1.0
