# generated using pymatgen
data_CdH8(C2N)8
_symmetry_space_group_name_H-M   'P 1'
_cell_length_a   9.84093000
_cell_length_b   10.94140000
_cell_length_c   14.77230000
_cell_angle_alpha   89.99980000
_cell_angle_beta   96.84880000
_cell_angle_gamma   89.99970000
_symmetry_Int_Tables_number   1
_chemical_formula_structural   CdH8(C2N)8
_chemical_formula_sum   'Cd4 H32 C64 N32'
_cell_volume   1579.23606161
_cell_formula_units_Z   4
loop_
 _symmetry_equiv_pos_site_id
 _symmetry_equiv_pos_as_xyz
  1  'x, y, z'
loop_
 _atom_site_type_symbol
 _atom_site_label
 _atom_site_symmetry_multiplicity
 _atom_site_fract_x
 _atom_site_fract_y
 _atom_site_fract_z
 _atom_site_occupancy
  Cd  Cd0  1  0.35272000  0.07366000  0.76327000  1.0
  Cd  Cd1  1  0.64728000  0.57366000  0.73673000  1.0
  Cd  Cd2  1  0.64728000  0.92634000  0.23673000  1.0
  Cd  Cd3  1  0.35271000  0.42634000  0.26327000  1.0
  H  H4  1  0.36893000  0.77196000  0.73941000  1.0
  H  H5  1  0.63107000  0.27196000  0.76059000  1.0
  H  H6  1  0.63107000  0.22804000  0.26059000  1.0
  H  H7  1  0.36892000  0.72804000  0.23941000  1.0
  H  H8  1  0.22323000  0.59853000  0.67337000  1.0
  H  H9  1  0.77677000  0.09852000  0.82663000  1.0
  H  H10  1  0.77677000  0.40148000  0.32663000  1.0
  H  H11  1  0.22322000  0.90147000  0.17337000  1.0
  H  H12  1  0.98895000  0.64455000  0.59257000  1.0
  H  H13  1  0.01105000  0.14455000  0.90743000  1.0
  H  H14  1  0.01105000  0.35545000  0.40743000  1.0
  H  H15  1  0.98895000  0.85545000  0.09257000  1.0
  H  H16  1  0.81206000  0.80142000  0.53840000  1.0
  H  H17  1  0.18795000  0.30142000  0.96160000  1.0
  H  H18  1  0.18795000  0.19858000  0.46160000  1.0
  H  H19  1  0.81205000  0.69858000  0.03840000  1.0
  H  H20  1  0.73652000  0.01808000  0.53144000  1.0
  H  H21  1  0.26348000  0.51808000  0.96856000  1.0
  H  H22  1  0.26348000  0.98192000  0.46856000  1.0
  H  H23  1  0.73652000  0.48192000  0.03144000  1.0
  H  H24  1  0.78497000  0.23835000  0.56968000  1.0
  H  H25  1  0.21503000  0.73834000  0.93031000  1.0
  H  H26  1  0.21503000  0.76165000  0.43031000  1.0
  H  H27  1  0.78497000  0.26165000  0.06969000  1.0
  H  H28  1  0.94719000  0.39537000  0.63960000  1.0
  H  H29  1  0.05281000  0.89537000  0.86039000  1.0
  H  H30  1  0.05282000  0.60463000  0.36040000  1.0
  H  H31  1  0.94719000  0.10463000  0.13961000  1.0
  H  H32  1  0.17803000  0.32702000  0.71769000  1.0
  H  H33  1  0.82197000  0.82701000  0.78231000  1.0
  H  H34  1  0.82197000  0.67298000  0.28231000  1.0
  H  H35  1  0.17804000  0.17298000  0.21769000  1.0
  C  C36  1  0.46499000  0.21143000  0.41587000  1.0
  C  C37  1  0.53500000  0.71143000  0.08412000  1.0
  C  C38  1  0.53500000  0.78857000  0.58413000  1.0
  C  C39  1  0.46500000  0.28857000  0.91588000  1.0
  C  C40  1  0.49113000  0.14567000  0.56598000  1.0
  C  C41  1  0.50886000  0.64567000  0.93402000  1.0
  C  C42  1  0.50887000  0.85433000  0.43402000  1.0
  C  C43  1  0.49113000  0.35433000  0.06598000  1.0
  C  C44  1  0.61185000  0.93222000  0.88883000  1.0
  C  C45  1  0.38816000  0.43222000  0.61117000  1.0
  C  C46  1  0.38815000  0.06778000  0.11117000  1.0
  C  C47  1  0.61184000  0.56778000  0.38883000  1.0
  C  C48  1  0.73801000  0.94396000  0.02983000  1.0
  C  C49  1  0.26200000  0.44396000  0.47017000  1.0
  C  C50  1  0.26199000  0.05604000  0.97017000  1.0
  C  C51  1  0.73801000  0.55605000  0.52983000  1.0
  C  C52  1  0.26726000  0.78857000  0.70334000  1.0
  C  C53  1  0.73274000  0.28856000  0.79666000  1.0
  C  C54  1  0.73274000  0.21143000  0.29666000  1.0
  C  C55  1  0.26725000  0.71144000  0.20334000  1.0
  C  C56  1  0.18471000  0.69171000  0.66600000  1.0
  C  C57  1  0.81529000  0.19171000  0.83400000  1.0
  C  C58  1  0.81529000  0.30829000  0.33400000  1.0
  C  C59  1  0.18470000  0.80829000  0.16600000  1.0
  C  C60  1  0.05647000  0.71735000  0.62133000  1.0
  C  C61  1  0.94353000  0.21734000  0.87868000  1.0
  C  C62  1  0.94353000  0.28265000  0.37867000  1.0
  C  C63  1  0.05647000  0.78265000  0.12132000  1.0
  C  C64  1  0.00992000  0.83973000  0.61491000  1.0
  C  C65  1  0.99008000  0.33973000  0.88509000  1.0
  C  C66  1  0.99008000  0.16027000  0.38509000  1.0
  C  C67  1  0.00992000  0.66027000  0.11491000  1.0
  C  C68  1  0.87813000  0.87323000  0.57016000  1.0
  C  C69  1  0.12187000  0.37323000  0.92984000  1.0
  C  C70  1  0.12187000  0.12677000  0.42984000  1.0
  C  C71  1  0.87813000  0.62677000  0.07016000  1.0
  C  C72  1  0.83646000  0.99244000  0.56635000  1.0
  C  C73  1  0.16354000  0.49244000  0.93365000  1.0
  C  C74  1  0.16354000  0.00756000  0.43365000  1.0
  C  C75  1  0.83646000  0.50756000  0.06635000  1.0
  C  C76  1  0.92374000  0.08743000  0.60669000  1.0
  C  C77  1  0.07626000  0.58742000  0.89331000  1.0
  C  C78  1  0.07627000  0.91257000  0.39331000  1.0
  C  C79  1  0.92373000  0.41258000  0.10669000  1.0
  C  C80  1  0.88565000  0.21209000  0.60317000  1.0
  C  C81  1  0.11435000  0.71208000  0.89683000  1.0
  C  C82  1  0.11436000  0.78792000  0.39683000  1.0
  C  C83  1  0.88565000  0.28791000  0.10317000  1.0
  C  C84  1  0.97636000  0.29931000  0.64162000  1.0
  C  C85  1  0.02364000  0.79930000  0.85838000  1.0
  C  C86  1  0.02364000  0.70069000  0.35838000  1.0
  C  C87  1  0.97636000  0.20070000  0.14162000  1.0
  C  C88  1  0.10427000  0.26152000  0.68485000  1.0
  C  C89  1  0.89573000  0.76151000  0.81515000  1.0
  C  C90  1  0.89574000  0.73849000  0.31515000  1.0
  C  C91  1  0.10427000  0.23849000  0.18485000  1.0
  C  C92  1  0.05597000  0.05789000  0.65100000  1.0
  C  C93  1  0.94403000  0.55789000  0.84900000  1.0
  C  C94  1  0.94404000  0.94211000  0.34900000  1.0
  C  C95  1  0.05597000  0.44211000  0.15100000  1.0
  C  C96  1  0.10008000  0.93161000  0.65491000  1.0
  C  C97  1  0.89992000  0.43161000  0.84509000  1.0
  C  C98  1  0.89993000  0.06839000  0.34509000  1.0
  C  C99  1  0.10007000  0.56839000  0.15491000  1.0
  N  N100  1  0.41334000  0.25225000  0.34612000  1.0
  N  N101  1  0.58666000  0.75226000  0.15388000  1.0
  N  N102  1  0.58666000  0.74775000  0.65388000  1.0
  N  N103  1  0.41334000  0.24774000  0.84612000  1.0
  N  N104  1  0.53270000  0.16262000  0.48706000  1.0
  N  N105  1  0.46730000  0.66262000  0.01294000  1.0
  N  N106  1  0.46730000  0.83738000  0.51294000  1.0
  N  N107  1  0.53270000  0.33738000  0.98706000  1.0
  N  N108  1  0.46791000  0.12565000  0.64099000  1.0
  N  N109  1  0.53208000  0.62565000  0.85901000  1.0
  N  N110  1  0.53209000  0.87435000  0.35902000  1.0
  N  N111  1  0.46791000  0.37436000  0.14098000  1.0
  N  N112  1  0.52643000  0.95438000  0.82823000  1.0
  N  N113  1  0.47357000  0.45437000  0.67177000  1.0
  N  N114  1  0.47356000  0.04562000  0.17177000  1.0
  N  N115  1  0.52643000  0.54562000  0.32823000  1.0
  N  N116  1  0.71107000  0.89846000  0.94891000  1.0
  N  N117  1  0.28894000  0.39846000  0.55109000  1.0
  N  N118  1  0.28893000  0.10154000  0.05109000  1.0
  N  N119  1  0.71107000  0.60154000  0.44891000  1.0
  N  N120  1  0.77357000  0.97610000  0.10541000  1.0
  N  N121  1  0.22642000  0.47611000  0.39459000  1.0
  N  N122  1  0.22642000  0.02389000  0.89459000  1.0
  N  N123  1  0.77358000  0.52391000  0.60541000  1.0
  N  N124  1  0.22643000  0.90431000  0.69696000  1.0
  N  N125  1  0.77357000  0.40430000  0.80304000  1.0
  N  N126  1  0.77358000  0.09569000  0.30304000  1.0
  N  N127  1  0.22642000  0.59569000  0.19696000  1.0
  N  N128  1  0.14242000  0.14495000  0.68941000  1.0
  N  N129  1  0.85758000  0.64495000  0.81060000  1.0
  N  N130  1  0.85759000  0.85505000  0.31060000  1.0
  N  N131  1  0.14242000  0.35505000  0.18941000  1.0
