# generated using pymatgen
data_ErH6C6SNO8
_symmetry_space_group_name_H-M   'P 1'
_cell_length_a   7.51446000
_cell_length_b   9.28926000
_cell_length_c   14.70530000
_cell_angle_alpha   89.99990000
_cell_angle_beta   90.00000000
_cell_angle_gamma   101.13100000
_symmetry_Int_Tables_number   1
_chemical_formula_structural   ErH6C6SNO8
_chemical_formula_sum   'Er4 H24 C24 S4 N4 O32'
_cell_volume   1007.17554037
_cell_formula_units_Z   4
loop_
 _symmetry_equiv_pos_site_id
 _symmetry_equiv_pos_as_xyz
  1  'x, y, z'
loop_
 _atom_site_type_symbol
 _atom_site_label
 _atom_site_symmetry_multiplicity
 _atom_site_fract_x
 _atom_site_fract_y
 _atom_site_fract_z
 _atom_site_occupancy
  Er  Er0  1  0.13855000  0.27752000  0.04384000  1.0
  Er  Er1  1  0.36145000  0.72248000  0.54384000  1.0
  Er  Er2  1  0.86145000  0.72248000  0.95616000  1.0
  Er  Er3  1  0.63855000  0.27752000  0.45616000  1.0
  H  H4  1  0.15139000  0.04637000  0.44799000  1.0
  H  H5  1  0.34861000  0.95363000  0.94799000  1.0
  H  H6  1  0.84861000  0.95363000  0.55201000  1.0
  H  H7  1  0.65139000  0.04637000  0.05201000  1.0
  H  H8  1  0.10427000  0.12233000  0.28829000  1.0
  H  H9  1  0.39572000  0.87767000  0.78830000  1.0
  H  H10  1  0.89573000  0.87767000  0.71171000  1.0
  H  H11  1  0.60427000  0.12233000  0.21171000  1.0
  H  H12  1  0.91674000  0.66526000  0.22180000  1.0
  H  H13  1  0.58326000  0.33474000  0.72180000  1.0
  H  H14  1  0.08326000  0.33474000  0.77820000  1.0
  H  H15  1  0.41674000  0.66525000  0.27820000  1.0
  H  H16  1  0.96166000  0.60676000  0.38731000  1.0
  H  H17  1  0.53834000  0.39323000  0.88731000  1.0
  H  H18  1  0.03834000  0.39323000  0.61269000  1.0
  H  H19  1  0.46166000  0.60677000  0.11269000  1.0
  H  H20  1  0.29151000  0.36168000  0.22345000  1.0
  H  H21  1  0.20849000  0.63831000  0.72345000  1.0
  H  H22  1  0.70849000  0.63832000  0.77655000  1.0
  H  H23  1  0.79151000  0.36168000  0.27655000  1.0
  H  H24  1  0.46778000  0.34944000  0.16259000  1.0
  H  H25  1  0.03222000  0.65056000  0.66259000  1.0
  H  H26  1  0.53222000  0.65056000  0.83741000  1.0
  H  H27  1  0.96778000  0.34944000  0.33741000  1.0
  C  C28  1  0.09495000  0.96825000  0.39564000  1.0
  C  C29  1  0.40505000  0.03175000  0.89564000  1.0
  C  C30  1  0.90505000  0.03175000  0.60436000  1.0
  C  C31  1  0.59495000  0.96825000  0.10436000  1.0
  C  C32  1  0.06987000  0.00703000  0.30667000  1.0
  C  C33  1  0.43013000  0.99297000  0.80667000  1.0
  C  C34  1  0.93013000  0.99297000  0.69333000  1.0
  C  C35  1  0.56987000  0.00703000  0.19333000  1.0
  C  C36  1  0.00853000  0.89906000  0.24173000  1.0
  C  C37  1  0.49146000  0.10094000  0.74173000  1.0
  C  C38  1  0.99147000  0.10094000  0.75827000  1.0
  C  C39  1  0.50853000  0.89906000  0.25827000  1.0
  C  C40  1  0.96478000  0.75265000  0.27019000  1.0
  C  C41  1  0.53522000  0.24735000  0.77020000  1.0
  C  C42  1  0.03522000  0.24735000  0.72981000  1.0
  C  C43  1  0.46478000  0.75265000  0.22980000  1.0
  C  C44  1  0.98904000  0.71742000  0.36009000  1.0
  C  C45  1  0.51096000  0.28258000  0.86009000  1.0
  C  C46  1  0.01096000  0.28258000  0.63991000  1.0
  C  C47  1  0.48904000  0.71742000  0.13991000  1.0
  C  C48  1  0.99729000  0.94060000  0.14383000  1.0
  C  C49  1  0.50271000  0.05940000  0.64384000  1.0
  C  C50  1  0.00271000  0.05940000  0.85616000  1.0
  C  C51  1  0.49729000  0.94059000  0.35616000  1.0
  S  S52  1  0.81828000  0.40161000  0.09370000  1.0
  S  S53  1  0.68172000  0.59839000  0.59370000  1.0
  S  S54  1  0.18172000  0.59839000  0.90630000  1.0
  S  S55  1  0.31828000  0.40161000  0.40630000  1.0
  N  N56  1  0.05901000  0.82462000  0.42040000  1.0
  N  N57  1  0.44099000  0.17538000  0.92040000  1.0
  N  N58  1  0.94099000  0.17538000  0.57960000  1.0
  N  N59  1  0.55901000  0.82462000  0.07960000  1.0
  O  O60  1  0.04761000  0.07548000  0.12376000  1.0
  O  O61  1  0.45239000  0.92451000  0.62377000  1.0
  O  O62  1  0.95239000  0.92452000  0.87624000  1.0
  O  O63  1  0.54761000  0.07548000  0.37624000  1.0
  O  O64  1  0.93977000  0.83953000  0.08752000  1.0
  O  O65  1  0.56023000  0.16047000  0.58752000  1.0
  O  O66  1  0.06023000  0.16047000  0.91248000  1.0
  O  O67  1  0.43977000  0.83953000  0.41248000  1.0
  O  O68  1  0.09650000  0.78875000  0.50421000  1.0
  O  O69  1  0.40350000  0.21126000  0.00421000  1.0
  O  O70  1  0.90349000  0.21125000  0.49579000  1.0
  O  O71  1  0.59651000  0.78875000  0.99579000  1.0
  O  O72  1  0.00767000  0.44541000  0.12968000  1.0
  O  O73  1  0.49233000  0.55459000  0.62968000  1.0
  O  O74  1  0.99233000  0.55459000  0.87032000  1.0
  O  O75  1  0.50768000  0.44541000  0.37032000  1.0
  O  O76  1  0.82541000  0.27811000  0.02927000  1.0
  O  O77  1  0.67459000  0.72189000  0.52927000  1.0
  O  O78  1  0.17459000  0.72188000  0.97073000  1.0
  O  O79  1  0.32541000  0.27811000  0.47073000  1.0
  O  O80  1  0.76038000  0.52520000  0.04520000  1.0
  O  O81  1  0.73961000  0.47480000  0.54520000  1.0
  O  O82  1  0.23962000  0.47480000  0.95480000  1.0
  O  O83  1  0.26038000  0.52520000  0.45480000  1.0
  O  O84  1  0.69154000  0.35613000  0.17042000  1.0
  O  O85  1  0.80846000  0.64387000  0.67042000  1.0
  O  O86  1  0.30846000  0.64387000  0.82958000  1.0
  O  O87  1  0.19154000  0.35613000  0.32958000  1.0
  O  O88  1  0.33606000  0.35328000  0.16039000  1.0
  O  O89  1  0.16393000  0.64672000  0.66039000  1.0
  O  O90  1  0.66393000  0.64672000  0.83961000  1.0
  O  O91  1  0.83607000  0.35328000  0.33961000  1.0
