# generated using pymatgen
data_CuH11C16SN3O4
_symmetry_space_group_name_H-M   'P 1'
_cell_length_a   10.31610000
_cell_length_b   10.31610000
_cell_length_c   19.01790000
_cell_angle_alpha   79.62150000
_cell_angle_beta   79.62150000
_cell_angle_gamma   67.09290000
_symmetry_Int_Tables_number   1
_chemical_formula_structural   CuH11C16SN3O4
_chemical_formula_sum   'Cu4 H44 C64 S4 N12 O16'
_cell_volume   1820.23611402
_cell_formula_units_Z   4
loop_
 _symmetry_equiv_pos_site_id
 _symmetry_equiv_pos_as_xyz
  1  'x, y, z'
loop_
 _atom_site_type_symbol
 _atom_site_label
 _atom_site_symmetry_multiplicity
 _atom_site_fract_x
 _atom_site_fract_y
 _atom_site_fract_z
 _atom_site_occupancy
  Cu  Cu0  1  0.40291000  0.94235000  0.92476000  1.0
  Cu  Cu1  1  0.05765000  0.59709000  0.57524000  1.0
  Cu  Cu2  1  0.59709000  0.05765000  0.07524000  1.0
  Cu  Cu3  1  0.94235000  0.40291000  0.42476000  1.0
  H  H4  1  0.85934000  0.98730000  0.18440000  1.0
  H  H5  1  0.01270000  0.14066000  0.31560000  1.0
  H  H6  1  0.14066000  0.01270000  0.81560000  1.0
  H  H7  1  0.98730000  0.85934000  0.68440000  1.0
  H  H8  1  0.33873000  0.71100000  0.01776000  1.0
  H  H9  1  0.28900000  0.66127000  0.48224000  1.0
  H  H10  1  0.66127000  0.28900000  0.98224000  1.0
  H  H11  1  0.71100000  0.33873000  0.51775000  1.0
  H  H12  1  0.16610000  0.67575000  0.11905000  1.0
  H  H13  1  0.32426000  0.83390000  0.38095000  1.0
  H  H14  1  0.83390000  0.32425000  0.88095000  1.0
  H  H15  1  0.67575000  0.16610000  0.61905000  1.0
  H  H16  1  0.96590000  0.13271000  0.10891000  1.0
  H  H17  1  0.86729000  0.03410000  0.39109000  1.0
  H  H18  1  0.03410000  0.86729000  0.89109000  1.0
  H  H19  1  0.13271000  0.96590000  0.60891000  1.0
  H  H20  1  0.14398000  0.14734000  0.00357000  1.0
  H  H21  1  0.85266000  0.85601000  0.49644000  1.0
  H  H22  1  0.85602000  0.85266000  0.99644000  1.0
  H  H23  1  0.14734000  0.14399000  0.50357000  1.0
  H  H24  1  0.73407000  0.67540000  0.36873000  1.0
  H  H25  1  0.32460000  0.26593000  0.13127000  1.0
  H  H26  1  0.26593000  0.32460000  0.63127000  1.0
  H  H27  1  0.67540000  0.73407000  0.86873000  1.0
  H  H28  1  0.72802000  0.87610000  0.27170000  1.0
  H  H29  1  0.12390000  0.27199000  0.22830000  1.0
  H  H30  1  0.27198000  0.12390000  0.72830000  1.0
  H  H31  1  0.87610000  0.72802000  0.77170000  1.0
  H  H32  1  0.18250000  0.66478000  0.22492000  1.0
  H  H33  1  0.33522000  0.81750000  0.27508000  1.0
  H  H34  1  0.81750000  0.33522000  0.77508000  1.0
  H  H35  1  0.66478000  0.18250000  0.72492000  1.0
  H  H36  1  0.16640000  0.47274000  0.31866000  1.0
  H  H37  1  0.52726000  0.83360000  0.18134000  1.0
  H  H38  1  0.83359000  0.52726000  0.68134000  1.0
  H  H39  1  0.47275000  0.16640000  0.81866000  1.0
  H  H40  1  0.81049000  0.34455000  0.21535000  1.0
  H  H41  1  0.65545000  0.18951000  0.28465000  1.0
  H  H42  1  0.18951000  0.65545000  0.78465000  1.0
  H  H43  1  0.34455000  0.81049000  0.71535000  1.0
  H  H44  1  0.80794000  0.60663000  0.17537000  1.0
  H  H45  1  0.39337000  0.19206000  0.32463000  1.0
  H  H46  1  0.19206000  0.39337000  0.82463000  1.0
  H  H47  1  0.60663000  0.80794000  0.67536000  1.0
  C  C48  1  0.25503000  0.80182000  0.03983000  1.0
  C  C49  1  0.19818000  0.74497000  0.46017000  1.0
  C  C50  1  0.74497000  0.19818000  0.96017000  1.0
  C  C51  1  0.80182000  0.25503000  0.53983000  1.0
  C  C52  1  0.15898000  0.78305000  0.09788000  1.0
  C  C53  1  0.21696000  0.84102000  0.40212000  1.0
  C  C54  1  0.84102000  0.21695000  0.90212000  1.0
  C  C55  1  0.78305000  0.15898000  0.59788000  1.0
  C  C56  1  0.05248000  0.90242000  0.12601000  1.0
  C  C57  1  0.09759000  0.94752000  0.37399000  1.0
  C  C58  1  0.94752000  0.09758000  0.87399000  1.0
  C  C59  1  0.90242000  0.05248000  0.62601000  1.0
  C  C60  1  0.04724000  0.03642000  0.09035000  1.0
  C  C61  1  0.96358000  0.95276000  0.40964000  1.0
  C  C62  1  0.95276000  0.96358000  0.90964000  1.0
  C  C63  1  0.03642000  0.04724000  0.59036000  1.0
  C  C64  1  0.14624000  0.04527000  0.03196000  1.0
  C  C65  1  0.95473000  0.85375000  0.46804000  1.0
  C  C66  1  0.85375000  0.95473000  0.96804000  1.0
  C  C67  1  0.04528000  0.14625000  0.53196000  1.0
  C  C68  1  0.83005000  0.67731000  0.33432000  1.0
  C  C69  1  0.32269000  0.16995000  0.16568000  1.0
  C  C70  1  0.16995000  0.32269000  0.66568000  1.0
  C  C71  1  0.67731000  0.83005000  0.83432000  1.0
  C  C72  1  0.82763000  0.78816000  0.28054000  1.0
  C  C73  1  0.21184000  0.17237000  0.21946000  1.0
  C  C74  1  0.17237000  0.21184000  0.71946000  1.0
  C  C75  1  0.78816000  0.82763000  0.78054000  1.0
  C  C76  1  0.95427000  0.78631000  0.23658000  1.0
  C  C77  1  0.21369000  0.04573000  0.26342000  1.0
  C  C78  1  0.04573000  0.21369000  0.76343000  1.0
  C  C79  1  0.78631000  0.95427000  0.73658000  1.0
  C  C80  1  0.07906000  0.67098000  0.25283000  1.0
  C  C81  1  0.32902000  0.92094000  0.24717000  1.0
  C  C82  1  0.92094000  0.32902000  0.74718000  1.0
  C  C83  1  0.67098000  0.07906000  0.75283000  1.0
  C  C84  1  0.07127000  0.56383000  0.30683000  1.0
  C  C85  1  0.43617000  0.92874000  0.19317000  1.0
  C  C86  1  0.92873000  0.43617000  0.69317000  1.0
  C  C87  1  0.56383000  0.07127000  0.80683000  1.0
  C  C88  1  0.67950000  0.38363000  0.13013000  1.0
  C  C89  1  0.61637000  0.32050000  0.36987000  1.0
  C  C90  1  0.32050000  0.61637000  0.86987000  1.0
  C  C91  1  0.38363000  0.67950000  0.63013000  1.0
  C  C92  1  0.75787000  0.41731000  0.17105000  1.0
  C  C93  1  0.58269000  0.24212000  0.32895000  1.0
  C  C94  1  0.24212000  0.58269000  0.82895000  1.0
  C  C95  1  0.41731000  0.75788000  0.67105000  1.0
  C  C96  1  0.75582000  0.55643000  0.15014000  1.0
  C  C97  1  0.44356000  0.24418000  0.34986000  1.0
  C  C98  1  0.24418000  0.44356000  0.84986000  1.0
  C  C99  1  0.55644000  0.75582000  0.65014000  1.0
  C  C100  1  0.67796000  0.62575000  0.09291000  1.0
  C  C101  1  0.37425000  0.32204000  0.40709000  1.0
  C  C102  1  0.32204000  0.37424000  0.90709000  1.0
  C  C103  1  0.62576000  0.67797000  0.59291000  1.0
  C  C104  1  0.64498000  0.77336000  0.05750000  1.0
  C  C105  1  0.22664000  0.35502000  0.44249000  1.0
  C  C106  1  0.35502000  0.22664000  0.94250000  1.0
  C  C107  1  0.77336000  0.64498000  0.55751000  1.0
  C  C108  1  0.65628000  0.24956000  0.13557000  1.0
  C  C109  1  0.75044000  0.34372000  0.36443000  1.0
  C  C110  1  0.34372000  0.75044000  0.86443000  1.0
  C  C111  1  0.24956000  0.65628000  0.63557000  1.0
  S  S112  1  0.60639000  0.52099000  0.06541000  1.0
  S  S113  1  0.47901000  0.39361000  0.43459000  1.0
  S  S114  1  0.39361000  0.47901000  0.93459000  1.0
  S  S115  1  0.52099000  0.60639000  0.56541000  1.0
  N  N116  1  0.25101000  0.93020000  0.00672000  1.0
  N  N117  1  0.06981000  0.74898000  0.49328000  1.0
  N  N118  1  0.74899000  0.06980000  0.99328000  1.0
  N  N119  1  0.93019000  0.25102000  0.50672000  1.0
  N  N120  1  0.95090000  0.89664000  0.18336000  1.0
  N  N121  1  0.10336000  0.04910000  0.31664000  1.0
  N  N122  1  0.04910000  0.10336000  0.81664000  1.0
  N  N123  1  0.89664000  0.95090000  0.68336000  1.0
  N  N124  1  0.94964000  0.56406000  0.34721000  1.0
  N  N125  1  0.43594000  0.05036000  0.15279000  1.0
  N  N126  1  0.05036000  0.43594000  0.65279000  1.0
  N  N127  1  0.56406000  0.94963000  0.84721000  1.0
  O  O128  1  0.58067000  0.81379000  0.00305000  1.0
  O  O129  1  0.18620000  0.41933000  0.49695000  1.0
  O  O130  1  0.41933000  0.18621000  0.99695000  1.0
  O  O131  1  0.81380000  0.58067000  0.50305000  1.0
  O  O132  1  0.68596000  0.84985000  0.08911000  1.0
  O  O133  1  0.15015000  0.31404000  0.41089000  1.0
  O  O134  1  0.31404000  0.15015000  0.91089000  1.0
  O  O135  1  0.84985000  0.68596000  0.58911000  1.0
  O  O136  1  0.72243000  0.14343000  0.17717000  1.0
  O  O137  1  0.85656000  0.27757000  0.32283000  1.0
  O  O138  1  0.27757000  0.85656000  0.82283000  1.0
  O  O139  1  0.14344000  0.72243000  0.67718000  1.0
  O  O140  1  0.56809000  0.25173000  0.09462000  1.0
  O  O141  1  0.74827000  0.43191000  0.40538000  1.0
  O  O142  1  0.43191000  0.74826000  0.90538000  1.0
  O  O143  1  0.25173000  0.56809000  0.59462000  1.0
