# generated using pymatgen
data_ZnPH11C3N2Cl2O3
_symmetry_space_group_name_H-M   'P 1'
_cell_length_a   8.22570000
_cell_length_b   8.34128000
_cell_length_c   15.06730000
_cell_angle_alpha   77.15800000
_cell_angle_beta   89.99990000
_cell_angle_gamma   89.99990000
_symmetry_Int_Tables_number   1
_chemical_formula_structural   ZnPH11C3N2Cl2O3
_chemical_formula_sum   'Zn4 P4 H44 C12 N8 Cl8 O12'
_cell_volume   1007.95162188
_cell_formula_units_Z   4
loop_
 _symmetry_equiv_pos_site_id
 _symmetry_equiv_pos_as_xyz
  1  'x, y, z'
loop_
 _atom_site_type_symbol
 _atom_site_label
 _atom_site_symmetry_multiplicity
 _atom_site_fract_x
 _atom_site_fract_y
 _atom_site_fract_z
 _atom_site_occupancy
  Zn  Zn0  1  0.15681000  0.29773000  0.25230000  1.0
  Zn  Zn1  1  0.65681000  0.70227000  0.24770000  1.0
  Zn  Zn2  1  0.84319000  0.70227000  0.74770000  1.0
  Zn  Zn3  1  0.34319000  0.29773000  0.75230000  1.0
  P  P4  1  0.46212000  0.40033000  0.36178000  1.0
  P  P5  1  0.96212000  0.59967000  0.13822000  1.0
  P  P6  1  0.53788000  0.59967000  0.63822000  1.0
  P  P7  1  0.03788000  0.40033000  0.86178000  1.0
  H  H8  1  0.43754000  0.19397000  0.50544000  1.0
  H  H9  1  0.93754000  0.80603000  0.99456000  1.0
  H  H10  1  0.56246000  0.80603000  0.49456000  1.0
  H  H11  1  0.06246000  0.19397000  0.00544000  1.0
  H  H12  1  0.56159000  0.12615000  0.42271000  1.0
  H  H13  1  0.06159000  0.87385000  0.07729000  1.0
  H  H14  1  0.43841000  0.87385000  0.57729000  1.0
  H  H15  1  0.93841000  0.12615000  0.92271000  1.0
  H  H16  1  0.76470000  0.32134000  0.44644000  1.0
  H  H17  1  0.26470000  0.67867000  0.05356000  1.0
  H  H18  1  0.23530000  0.67866000  0.55356000  1.0
  H  H19  1  0.73530000  0.32134000  0.94644000  1.0
  H  H20  1  0.65702000  0.36954000  0.53358000  1.0
  H  H21  1  0.15702000  0.63046000  0.96642000  1.0
  H  H22  1  0.34298000  0.63046000  0.46642000  1.0
  H  H23  1  0.84298000  0.36954000  0.03358000  1.0
  H  H24  1  0.66381000  0.07478000  0.61066000  1.0
  H  H25  1  0.16381000  0.92522000  0.88934000  1.0
  H  H26  1  0.33619000  0.92522000  0.38934000  1.0
  H  H27  1  0.83619000  0.07478000  0.11066000  1.0
  H  H28  1  0.79409000  0.04258000  0.52136000  1.0
  H  H29  1  0.29409000  0.95743000  0.97863000  1.0
  H  H30  1  0.20591000  0.95742000  0.47864000  1.0
  H  H31  1  0.70590000  0.04258000  0.02137000  1.0
  H  H32  1  0.97948000  0.27218000  0.56317000  1.0
  H  H33  1  0.47948000  0.72782000  0.93683000  1.0
  H  H34  1  0.02052000  0.72782000  0.43683000  1.0
  H  H35  1  0.52052000  0.27218000  0.06317000  1.0
  H  H36  1  0.98164000  0.07200000  0.63372000  1.0
  H  H37  1  0.48164000  0.92800000  0.86628000  1.0
  H  H38  1  0.01836000  0.92800000  0.36628000  1.0
  H  H39  1  0.51836000  0.07200000  0.13372000  1.0
  H  H40  1  0.80289000  0.15826000  0.73766000  1.0
  H  H41  1  0.30289000  0.84174000  0.76234000  1.0
  H  H42  1  0.19711000  0.84174000  0.26234000  1.0
  H  H43  1  0.69711000  0.15826000  0.23766000  1.0
  H  H44  1  0.96417000  0.28155000  0.72221000  1.0
  H  H45  1  0.46417000  0.71844000  0.77779000  1.0
  H  H46  1  0.03583000  0.71845000  0.27779000  1.0
  H  H47  1  0.53583000  0.28156000  0.22221000  1.0
  H  H48  1  0.78320000  0.35123000  0.66958000  1.0
  H  H49  1  0.28320000  0.64877000  0.83042000  1.0
  H  H50  1  0.21680000  0.64877000  0.33042000  1.0
  H  H51  1  0.71680000  0.35123000  0.16958000  1.0
  C  C52  1  0.53170000  0.23032000  0.45330000  1.0
  C  C53  1  0.03170000  0.76968000  0.04670000  1.0
  C  C54  1  0.46830000  0.76968000  0.54670000  1.0
  C  C55  1  0.96830000  0.23032000  0.95330000  1.0
  C  C56  1  0.75764000  0.13111000  0.56160000  1.0
  C  C57  1  0.25764000  0.86889000  0.93840000  1.0
  C  C58  1  0.24236000  0.86889000  0.43840000  1.0
  C  C59  1  0.74237000  0.13111000  0.06160000  1.0
  C  C60  1  0.90543000  0.18073000  0.60953000  1.0
  C  C61  1  0.40543000  0.81927000  0.89047000  1.0
  C  C62  1  0.09457000  0.81928000  0.39047000  1.0
  C  C63  1  0.59457000  0.18073000  0.10953000  1.0
  N  N64  1  0.68150000  0.27480000  0.49771000  1.0
  N  N65  1  0.18150000  0.72520000  0.00229000  1.0
  N  N66  1  0.31850000  0.72520000  0.50229000  1.0
  N  N67  1  0.81850000  0.27480000  0.99771000  1.0
  N  N68  1  0.85990000  0.24865000  0.68936000  1.0
  N  N69  1  0.35990000  0.75135000  0.81064000  1.0
  N  N70  1  0.14010000  0.75135000  0.31064000  1.0
  N  N71  1  0.64010000  0.24865000  0.18936000  1.0
  Cl  Cl72  1  0.16420000  0.10089000  0.16936000  1.0
  Cl  Cl73  1  0.66421000  0.89911000  0.33064000  1.0
  Cl  Cl74  1  0.83580000  0.89911000  0.83064000  1.0
  Cl  Cl75  1  0.33580000  0.10089000  0.66936000  1.0
  Cl  Cl76  1  0.98665000  0.23966000  0.37211000  1.0
  Cl  Cl77  1  0.48665000  0.76034000  0.12789000  1.0
  Cl  Cl78  1  0.01335000  0.76034000  0.62789000  1.0
  Cl  Cl79  1  0.51335000  0.23966000  0.87211000  1.0
  O  O80  1  0.34206000  0.50851000  0.39861000  1.0
  O  O81  1  0.84206000  0.49149000  0.10139000  1.0
  O  O82  1  0.65794000  0.49149000  0.60139000  1.0
  O  O83  1  0.15794000  0.50851000  0.89861000  1.0
  O  O84  1  0.38474000  0.31296000  0.29160000  1.0
  O  O85  1  0.88474000  0.68704000  0.20840000  1.0
  O  O86  1  0.61526000  0.68704000  0.70840000  1.0
  O  O87  1  0.11526000  0.31296000  0.79160000  1.0
  O  O88  1  0.12288000  0.51617000  0.17433000  1.0
  O  O89  1  0.62288000  0.48383000  0.32567000  1.0
  O  O90  1  0.87712000  0.48383000  0.82567000  1.0
  O  O91  1  0.37712000  0.51617000  0.67433000  1.0
