# generated using pymatgen
data_NiH16C14(N2O3)2
_symmetry_space_group_name_H-M   'P 1'
_cell_length_a   8.11833000
_cell_length_b   9.63788000
_cell_length_c   10.74510000
_cell_angle_alpha   74.53000000
_cell_angle_beta   89.99990000
_cell_angle_gamma   89.99970000
_symmetry_Int_Tables_number   1
_chemical_formula_structural   NiH16C14(N2O3)2
_chemical_formula_sum   'Ni2 H32 C28 N8 O12'
_cell_volume   810.27453808
_cell_formula_units_Z   2
loop_
 _symmetry_equiv_pos_site_id
 _symmetry_equiv_pos_as_xyz
  1  'x, y, z'
loop_
 _atom_site_type_symbol
 _atom_site_label
 _atom_site_symmetry_multiplicity
 _atom_site_fract_x
 _atom_site_fract_y
 _atom_site_fract_z
 _atom_site_occupancy
  Ni  Ni0  1  0.00000000  0.00000000  0.00000000  1.0
  Ni  Ni1  1  0.50000000  0.50000000  0.50000000  1.0
  H  H2  1  0.98004000  0.77756000  0.22023000  1.0
  H  H3  1  0.48004000  0.72244000  0.27977000  1.0
  H  H4  1  0.01995000  0.22244000  0.77977000  1.0
  H  H5  1  0.51996000  0.27756000  0.72023000  1.0
  H  H6  1  0.80641000  0.86195000  0.19156000  1.0
  H  H7  1  0.30641000  0.63805000  0.30844000  1.0
  H  H8  1  0.19359000  0.13805000  0.80844000  1.0
  H  H9  1  0.69359000  0.36195000  0.69156000  1.0
  H  H10  1  0.19038000  0.70407000  0.10518000  1.0
  H  H11  1  0.69038000  0.79593000  0.39482000  1.0
  H  H12  1  0.80962000  0.29593000  0.89482000  1.0
  H  H13  1  0.30963000  0.20407000  0.60518000  1.0
  H  H14  1  0.95973000  0.88386000  0.74701000  1.0
  H  H15  1  0.45974000  0.61614000  0.75299000  1.0
  H  H16  1  0.04026000  0.11614000  0.25299000  1.0
  H  H17  1  0.54026000  0.38386000  0.24701000  1.0
  H  H18  1  0.09228000  0.61613000  0.74692000  1.0
  H  H19  1  0.59228000  0.88387000  0.75308000  1.0
  H  H20  1  0.90772000  0.38387000  0.25308000  1.0
  H  H21  1  0.40772000  0.11612000  0.24692000  1.0
  H  H22  1  0.28278000  0.47231000  0.09027000  1.0
  H  H23  1  0.78278000  0.02769000  0.40972000  1.0
  H  H24  1  0.71722000  0.52769000  0.90972000  1.0
  H  H25  1  0.21722000  0.97231000  0.59028000  1.0
  H  H26  1  0.25604000  0.41047000  0.82059000  1.0
  H  H27  1  0.75604000  0.08953000  0.67941000  1.0
  H  H28  1  0.74395000  0.58953000  0.17941000  1.0
  H  H29  1  0.24396000  0.91047000  0.32059000  1.0
  H  H30  1  0.34772000  0.29564000  0.97211000  1.0
  H  H31  1  0.84773000  0.20437000  0.52789000  1.0
  H  H32  1  0.65227000  0.70436000  0.02789000  1.0
  H  H33  1  0.15228000  0.79564000  0.47211000  1.0
  C  C34  1  0.14532000  0.71994000  0.00774000  1.0
  C  C35  1  0.64532000  0.78006000  0.49226000  1.0
  C  C36  1  0.85468000  0.28006000  0.99226000  1.0
  C  C37  1  0.35468000  0.21994000  0.50774000  1.0
  C  C38  1  0.02730000  0.80649000  0.82102000  1.0
  C  C39  1  0.52731000  0.69351000  0.67898000  1.0
  C  C40  1  0.97269000  0.19351000  0.17898000  1.0
  C  C41  1  0.47270000  0.30649000  0.32102000  1.0
  C  C42  1  0.61783000  0.00507000  0.95856000  1.0
  C  C43  1  0.11783000  0.49493000  0.54144000  1.0
  C  C44  1  0.38217000  0.99493000  0.04144000  1.0
  C  C45  1  0.88217000  0.50507000  0.45856000  1.0
  C  C46  1  0.09187000  0.67527000  0.81956000  1.0
  C  C47  1  0.59188000  0.82473000  0.68044000  1.0
  C  C48  1  0.90812000  0.32473000  0.18044000  1.0
  C  C49  1  0.40812000  0.17527000  0.31956000  1.0
  C  C50  1  0.45207000  0.05640000  0.91090000  1.0
  C  C51  1  0.95207000  0.44360000  0.58910000  1.0
  C  C52  1  0.54793000  0.94360000  0.08910000  1.0
  C  C53  1  0.04793000  0.55640000  0.41090000  1.0
  C  C54  1  0.24971000  0.48935000  0.98898000  1.0
  C  C55  1  0.74971000  0.01065000  0.51102000  1.0
  C  C56  1  0.75029000  0.51065000  0.01102000  1.0
  C  C57  1  0.25029000  0.98935000  0.48898000  1.0
  C  C58  1  0.28505000  0.39451000  0.92252000  1.0
  C  C59  1  0.78505000  0.10549000  0.57748000  1.0
  C  C60  1  0.71495000  0.60549000  0.07747000  1.0
  C  C61  1  0.21495000  0.89451000  0.42252000  1.0
  N  N62  1  0.06156000  0.83273000  0.93909000  1.0
  N  N63  1  0.56156000  0.66727000  0.56091000  1.0
  N  N64  1  0.93844000  0.16727000  0.06091000  1.0
  N  N65  1  0.43844000  0.33273000  0.43909000  1.0
  N  N66  1  0.16671000  0.62119000  0.93902000  1.0
  N  N67  1  0.66672000  0.87881000  0.56098000  1.0
  N  N68  1  0.83328000  0.37881000  0.06098000  1.0
  N  N69  1  0.33333333  0.12119000  0.43902000  1.0
  O  O70  1  0.75611000  0.01205000  0.90454000  1.0
  O  O71  1  0.25612000  0.48795000  0.59546000  1.0
  O  O72  1  0.24389000  0.98795000  0.09546000  1.0
  O  O73  1  0.74389000  0.51205000  0.40454000  1.0
  O  O74  1  0.92902000  0.87372000  0.18713000  1.0
  O  O75  1  0.42902000  0.62628000  0.31287000  1.0
  O  O76  1  0.07098000  0.12628000  0.81287000  1.0
  O  O77  1  0.57098000  0.37372000  0.68713000  1.0
  O  O78  1  0.39739000  0.12640000  0.80229000  1.0
  O  O79  1  0.89739000  0.37360000  0.69771000  1.0
  O  O80  1  0.60261000  0.87360000  0.19771000  1.0
  O  O81  1  0.10261000  0.62640000  0.30229000  1.0
