# generated using pymatgen
data_KBH4C4(N2O)4
_symmetry_space_group_name_H-M   'P 1'
_cell_length_a   9.77354000
_cell_length_b   10.51430000
_cell_length_c   10.89380000
_cell_angle_alpha   90.00010000
_cell_angle_beta   90.00050000
_cell_angle_gamma   106.28800000
_symmetry_Int_Tables_number   1
_chemical_formula_structural   KBH4C4(N2O)4
_chemical_formula_sum   'K4 B4 H16 C16 N32 O16'
_cell_volume   1074.53702581
_cell_formula_units_Z   4
loop_
 _symmetry_equiv_pos_site_id
 _symmetry_equiv_pos_as_xyz
  1  'x, y, z'
loop_
 _atom_site_type_symbol
 _atom_site_label
 _atom_site_symmetry_multiplicity
 _atom_site_fract_x
 _atom_site_fract_y
 _atom_site_fract_z
 _atom_site_occupancy
  K  K0  1  0.55371000  0.80587000  0.87186000  1.0
  K  K1  1  0.94629000  0.19413000  0.37186000  1.0
  K  K2  1  0.44629000  0.19413000  0.12814000  1.0
  K  K3  1  0.05371000  0.80587000  0.62815000  1.0
  B  B4  1  0.05850000  0.28566000  0.01266000  1.0
  B  B5  1  0.44149000  0.71434000  0.51267000  1.0
  B  B6  1  0.94150000  0.71434000  0.98733000  1.0
  B  B7  1  0.55851000  0.28566000  0.48733000  1.0
  H  H8  1  0.97346000  0.32159000  0.95107000  1.0
  H  H9  1  0.52653000  0.67842000  0.45107000  1.0
  H  H10  1  0.02653000  0.67841000  0.04893000  1.0
  H  H11  1  0.47347000  0.32159000  0.54893000  1.0
  H  H12  1  0.97448000  0.16191000  0.77495000  1.0
  H  H13  1  0.52552000  0.83808000  0.27496000  1.0
  H  H14  1  0.02553000  0.83809000  0.22505000  1.0
  H  H15  1  0.47448000  0.16192000  0.72505000  1.0
  H  H16  1  0.01466000  0.24347000  0.11249000  1.0
  H  H17  1  0.48534000  0.75652000  0.61249000  1.0
  H  H18  1  0.98534000  0.75653000  0.88751000  1.0
  H  H19  1  0.51467000  0.24348000  0.38751000  1.0
  H  H20  1  0.15822000  0.54999000  0.90154000  1.0
  H  H21  1  0.34178000  0.45001000  0.40154000  1.0
  H  H22  1  0.84178000  0.45002000  0.09846000  1.0
  H  H23  1  0.65822000  0.54999000  0.59846000  1.0
  C  C24  1  0.04923000  0.12426000  0.82738000  1.0
  C  C25  1  0.45077000  0.87575000  0.32738000  1.0
  C  C26  1  0.95078000  0.87575000  0.17262000  1.0
  C  C27  1  0.54923000  0.12425000  0.67262000  1.0
  C  C28  1  0.18852000  0.02272000  0.89070000  1.0
  C  C29  1  0.31147000  0.97728000  0.39070000  1.0
  C  C30  1  0.81148000  0.97728000  0.10930000  1.0
  C  C31  1  0.68852000  0.02272000  0.60931000  1.0
  C  C32  1  0.22485000  0.52560000  0.97250000  1.0
  C  C33  1  0.27515000  0.47440000  0.47251000  1.0
  C  C34  1  0.77514000  0.47440000  0.02749000  1.0
  C  C35  1  0.72486000  0.52560000  0.52749000  1.0
  C  C36  1  0.38297000  0.52840000  0.10023000  1.0
  C  C37  1  0.11703000  0.47160000  0.60023000  1.0
  C  C38  1  0.61702000  0.47160000  0.89977000  1.0
  C  C39  1  0.88298000  0.52840000  0.39977000  1.0
  N  N40  1  0.09891000  0.17412000  0.93917000  1.0
  N  N41  1  0.40109000  0.82589000  0.43918000  1.0
  N  N42  1  0.90110000  0.82589000  0.06083000  1.0
  N  N43  1  0.59891000  0.17411000  0.56083000  1.0
  N  N44  1  0.18935000  0.10830000  0.98131000  1.0
  N  N45  1  0.31065000  0.89170000  0.48131000  1.0
  N  N46  1  0.81066000  0.89170000  0.01869000  1.0
  N  N47  1  0.68935000  0.10830000  0.51869000  1.0
  N  N48  1  0.10421000  0.02721000  0.79362000  1.0
  N  N49  1  0.39578000  0.97280000  0.29362000  1.0
  N  N50  1  0.89580000  0.97279000  0.20638000  1.0
  N  N51  1  0.60421000  0.02720000  0.70638000  1.0
  N  N52  1  0.27573000  0.93325000  0.89787000  1.0
  N  N53  1  0.22426000  0.06675000  0.39787000  1.0
  N  N54  1  0.72427000  0.06676000  0.10213000  1.0
  N  N55  1  0.77573000  0.93324000  0.60213000  1.0
  N  N56  1  0.19209000  0.40615000  0.03045000  1.0
  N  N57  1  0.30791000  0.59385000  0.53045000  1.0
  N  N58  1  0.80791000  0.59385000  0.96955000  1.0
  N  N59  1  0.69210000  0.40615000  0.46955000  1.0
  N  N60  1  0.29433000  0.40704000  0.11379000  1.0
  N  N61  1  0.20566000  0.59296000  0.61380000  1.0
  N  N62  1  0.70566000  0.59296000  0.88620000  1.0
  N  N63  1  0.79435000  0.40704000  0.38621000  1.0
  N  N64  1  0.34678000  0.60597000  0.01435000  1.0
  N  N65  1  0.15323000  0.39404000  0.51435000  1.0
  N  N66  1  0.65322000  0.39404000  0.98565000  1.0
  N  N67  1  0.84678000  0.60597000  0.48565000  1.0
  N  N68  1  0.51047000  0.57177000  0.17365000  1.0
  N  N69  1  0.98953000  0.42822000  0.67365000  1.0
  N  N70  1  0.48953000  0.42822000  0.82634000  1.0
  N  N71  1  0.01047000  0.57178000  0.32635000  1.0
  O  O72  1  0.27143000  0.85510000  0.81108000  1.0
  O  O73  1  0.22857000  0.14491000  0.31108000  1.0
  O  O74  1  0.72857000  0.14491000  0.18892000  1.0
  O  O75  1  0.77142000  0.85509000  0.68892000  1.0
  O  O76  1  0.35246000  0.93995000  0.99009000  1.0
  O  O77  1  0.14754000  0.06006000  0.49008000  1.0
  O  O78  1  0.64755000  0.06005000  0.00991000  1.0
  O  O79  1  0.85245000  0.93994000  0.50992000  1.0
  O  O80  1  0.53516000  0.49291000  0.24976000  1.0
  O  O81  1  0.96483000  0.50708000  0.74976000  1.0
  O  O82  1  0.46482000  0.50708000  0.75023000  1.0
  O  O83  1  0.03518000  0.49292000  0.25024000  1.0
  O  O84  1  0.58874000  0.68599000  0.15591000  1.0
  O  O85  1  0.91127000  0.31399000  0.65592000  1.0
  O  O86  1  0.41127000  0.31399000  0.84408000  1.0
  O  O87  1  0.08874000  0.68601000  0.34408000  1.0
