# generated using pymatgen
data_Zn3H16C33N2O16F
_symmetry_space_group_name_H-M   'P 1'
_cell_length_a   18.50330000
_cell_length_b   18.76250000
_cell_length_c   18.84538088
_cell_angle_alpha   109.66673862
_cell_angle_beta   109.33732175
_cell_angle_gamma   108.77300000
_symmetry_Int_Tables_number   1
_chemical_formula_structural   Zn3H16C33N2O16F
_chemical_formula_sum   'Zn6 H32 C66 N4 O32 F2'
_cell_volume   5075.37728734
_cell_formula_units_Z   2
loop_
 _symmetry_equiv_pos_site_id
 _symmetry_equiv_pos_as_xyz
  1  'x, y, z'
loop_
 _atom_site_type_symbol
 _atom_site_label
 _atom_site_symmetry_multiplicity
 _atom_site_fract_x
 _atom_site_fract_y
 _atom_site_fract_z
 _atom_site_occupancy
  Zn  Zn0  1  0.07181000  0.07884000  0.50246000  1.0
  Zn  Zn1  1  0.94687000  0.94504000  0.49240000  1.0
  Zn  Zn2  1  0.48322000  0.92886000  0.93811000  1.0
  Zn  Zn3  1  0.48472000  0.05255000  0.06506000  1.0
  Zn  Zn4  1  0.06327000  0.49214000  0.07150000  1.0
  Zn  Zn5  1  0.93398000  0.48352000  0.94218000  1.0
  H  H6  1  0.40048000  0.05095000  0.57009000  1.0
  H  H7  1  0.09008000  0.05563000  0.72046000  1.0
  H  H8  1  0.05581000  0.03581000  0.83128000  1.0
  H  H9  1  0.26230000  0.97559000  0.91335000  1.0
  H  H10  1  0.45580000  0.99140000  0.77699000  1.0
  H  H11  1  0.49318000  0.01819000  0.67144000  1.0
  H  H12  1  0.27380000  0.06094000  0.57807000  1.0
  H  H13  1  0.87678000  0.73230000  0.24238000  1.0
  H  H14  1  0.89075000  0.62520000  0.13646000  1.0
  H  H15  1  0.23890000  0.79107000  0.35333000  1.0
  H  H16  1  0.23327000  0.83898000  0.28560000  1.0
  H  H17  1  0.22456000  0.90624000  0.45401000  1.0
  H  H18  1  0.21834000  0.95396000  0.38605000  1.0
  H  H19  1  0.77645000  0.88034000  0.24382000  1.0
  H  H20  1  0.65061000  0.85336000  0.11734000  1.0
  H  H21  1  0.75603000  0.19353000  0.27353000  1.0
  H  H22  1  0.94021000  0.21393000  0.32407000  1.0
  H  H23  1  0.89302000  0.22238000  0.39340000  1.0
  H  H24  1  0.95224000  0.07083000  0.74913000  1.0
  H  H25  1  0.01240000  0.40024000  0.75605000  1.0
  H  H26  1  0.00028000  0.28775000  0.62315000  1.0
  H  H27  1  0.67093000  0.30888000  0.11089000  1.0
  H  H28  1  0.74364000  0.16219000  0.82723000  1.0
  H  H29  1  0.82790000  0.16895000  0.91533000  1.0
  H  H30  1  0.62941000  0.05211000  0.83603000  1.0
  H  H31  1  0.71516000  0.05991000  0.92310000  1.0
  H  H32  1  0.20043000  0.87342000  0.00179000  1.0
  H  H33  1  0.07915000  0.74085000  0.96999000  1.0
  H  H34  1  0.30628000  0.62730000  0.06407000  1.0
  H  H35  1  0.26419000  0.57329000  0.94977000  1.0
  H  H36  1  0.42551000  0.75413000  0.08008000  1.0
  H  H37  1  0.38019000  0.70212000  0.96512000  1.0
  C  C38  1  0.00598000  0.88466000  0.38599000  1.0
  C  C39  1  0.15201000  0.04183000  0.61900000  1.0
  C  C40  1  0.98014000  0.08959000  0.61783000  1.0
  C  C41  1  0.91410000  0.03078000  0.37849000  1.0
  C  C42  1  0.12787000  0.03758000  0.76171000  1.0
  C  C43  1  0.10790000  0.02653000  0.82227000  1.0
  C  C44  1  0.15784000  0.00288000  0.87536000  1.0
  C  C45  1  0.22588000  0.99224000  0.86946000  1.0
  C  C46  1  0.24885000  0.00466000  0.80777000  1.0
  C  C47  1  0.19697000  0.02592000  0.75078000  1.0
  C  C48  1  0.31933000  0.99524000  0.79995000  1.0
  C  C49  1  0.34174000  0.00989000  0.73947000  1.0
  C  C50  1  0.28959000  0.03135000  0.68232000  1.0
  C  C51  1  0.21673000  0.03633000  0.68740000  1.0
  C  C52  1  0.41584000  0.00646000  0.73373000  1.0
  C  C53  1  0.43635000  0.02118000  0.67460000  1.0
  C  C54  1  0.38398000  0.04001000  0.61730000  1.0
  C  C55  1  0.31281000  0.04497000  0.62106000  1.0
  C  C56  1  0.09716000  0.83223000  0.33154000  1.0
  C  C57  1  0.01604000  0.82107000  0.32335000  1.0
  C  C58  1  0.94171000  0.74408000  0.25154000  1.0
  C  C59  1  0.94942000  0.68315000  0.19202000  1.0
  C  C60  1  0.03189000  0.69162000  0.20431000  1.0
  C  C61  1  0.10515000  0.76790000  0.27544000  1.0
  C  C62  1  0.20462000  0.81986000  0.32316000  1.0
  C  C63  1  0.19543000  0.89245000  0.38662000  1.0
  C  C64  1  0.83741000  0.08651000  0.28871000  1.0
  C  C65  1  0.84364000  0.01921000  0.30122000  1.0
  C  C66  1  0.77402000  0.93501000  0.23690000  1.0
  C  C67  1  0.70238000  0.91971000  0.16582000  1.0
  C  C68  1  0.69341000  0.98855000  0.15763000  1.0
  C  C69  1  0.76318000  0.07122000  0.22078000  1.0
  C  C70  1  0.79444000  0.16643000  0.25267000  1.0
  C  C71  1  0.88081000  0.18441000  0.32781000  1.0
  C  C72  1  0.02462000  0.24222000  0.71994000  1.0
  C  C73  1  0.99172000  0.15511000  0.69843000  1.0
  C  C74  1  0.97589000  0.13658000  0.75945000  1.0
  C  C75  1  0.98977000  0.20162000  0.83519000  1.0
  C  C76  1  0.01604000  0.28806000  0.85405000  1.0
  C  C77  1  0.03423000  0.30478000  0.79331000  1.0
  C  C78  1  0.05830000  0.37489000  0.76921000  1.0
  C  C79  1  0.04991000  0.30408000  0.68654000  1.0
  C  C80  1  0.59716000  0.13004000  0.02172000  1.0
  C  C81  1  0.37513000  0.97772000  0.86285000  1.0
  C  C82  1  0.36439000  0.89705000  0.02028000  1.0
  C  C83  1  0.61199000  0.97546000  0.09040000  1.0
  C  C84  1  0.86183000  0.38613000  0.00093000  1.0
  C  C85  1  0.03337000  0.61930000  0.14140000  1.0
  C  C86  1  0.08389000  0.59511000  0.97040000  1.0
  C  C87  1  0.01820000  0.35979000  0.92382000  1.0
  C  C88  1  0.69455000  0.17303000  0.96070000  1.0
  C  C89  1  0.66128000  0.19625000  0.01595000  1.0
  C  C90  1  0.69360000  0.28521000  0.06623000  1.0
  C  C91  1  0.75620000  0.34545000  0.06067000  1.0
  C  C92  1  0.79187000  0.32301000  0.00628000  1.0
  C  C93  1  0.75744000  0.23424000  0.95616000  1.0
  C  C94  1  0.76373000  0.16591000  0.89072000  1.0
  C  C95  1  0.69261000  0.09714000  0.89612000  1.0
  C  C96  1  0.30142000  0.75266000  0.00949000  1.0
  C  C97  1  0.29228000  0.82423000  0.01193000  1.0
  C  C98  1  0.21085000  0.81889000  0.99956000  1.0
  C  C99  1  0.14218000  0.74379000  0.98195000  1.0
  C  C100  1  0.15285000  0.67244000  0.98137000  1.0
  C  C101  1  0.23518000  0.68051000  0.99793000  1.0
  C  C102  1  0.28989000  0.63547000  0.00678000  1.0
  C  C103  1  0.36429000  0.71642000  0.01771000  1.0
  N  N104  1  0.81151000  0.20016000  0.19399000  1.0
  N  N105  1  0.97298000  0.17455000  0.89586000  1.0
  N  N106  1  0.78650000  0.43716000  0.11573000  1.0
  N  N107  1  0.13560000  0.98894000  0.93936000  1.0
  O  O108  1  0.05705000  0.96495000  0.41753000  1.0
  O  O109  1  0.94567000  0.85342000  0.40395000  1.0
  O  O110  1  0.17698000  0.10198000  0.60012000  1.0
  O  O111  1  0.07318000  0.98264000  0.58217000  1.0
  O  O112  1  0.02202000  0.12050000  0.58460000  1.0
  O  O113  1  0.93131000  0.00841000  0.58855000  1.0
  O  O114  1  0.99321000  0.09144000  0.41310000  1.0
  O  O115  1  0.88954000  0.97804000  0.40463000  1.0
  O  O116  1  0.57082000  0.05149000  0.96971000  1.0
  O  O117  1  0.57295000  0.15540000  0.07799000  1.0
  O  O118  1  0.39547000  0.91850000  0.83509000  1.0
  O  O119  1  0.40032000  0.02510000  0.94191000  1.0
  O  O120  1  0.39844000  0.87384000  0.97424000  1.0
  O  O121  1  0.38912000  0.97635000  0.07167000  1.0
  O  O122  1  0.57864000  0.91786000  0.01131000  1.0
  O  O123  1  0.58205000  0.02413000  0.11863000  1.0
  O  O124  1  0.94062000  0.40895000  0.04953000  1.0
  O  O125  1  0.83426000  0.40464000  0.94092000  1.0
  O  O126  1  0.09041000  0.59603000  0.16981000  1.0
  O  O127  1  0.97589000  0.58295000  0.06248000  1.0
  O  O128  1  0.11028000  0.56159000  0.01484000  1.0
  O  O129  1  0.00226000  0.56631000  0.91825000  1.0
  O  O130  1  0.07676000  0.39671000  0.00280000  1.0
  O  O131  1  0.96144000  0.38036000  0.89244000  1.0
  O  O132  1  0.79573000  0.14772000  0.12258000  1.0
  O  O133  1  0.84119000  0.27915000  0.22307000  1.0
  O  O134  1  0.96448000  0.22399000  0.95157000  1.0
  O  O135  1  0.96835000  0.10446000  0.88713000  1.0
  O  O136  1  0.84752000  0.49051000  0.11583000  1.0
  O  O137  1  0.75068000  0.45687000  0.15845000  1.0
  O  O138  1  0.06342000  0.98009000  0.93107000  1.0
  O  O139  1  0.19017000  0.98684000  0.99765000  1.0
  F  F140  1  0.14271000  0.44543000  0.82552000  1.0
  F  F141  1  0.12916000  0.32418000  0.68670000  1.0
