# generated using pymatgen
data_CuH24C28(N2O)5
_symmetry_space_group_name_H-M   'P 1'
_cell_length_a   10.15490000
_cell_length_b   12.12540000
_cell_length_c   13.43853775
_cell_angle_alpha   64.38582915
_cell_angle_beta   87.47023145
_cell_angle_gamma   72.43680000
_symmetry_Int_Tables_number   1
_chemical_formula_structural   CuH24C28(N2O)5
_chemical_formula_sum   'Cu2 H48 C56 N20 O10'
_cell_volume   1415.35794343
_cell_formula_units_Z   2
loop_
 _symmetry_equiv_pos_site_id
 _symmetry_equiv_pos_as_xyz
  1  'x, y, z'
loop_
 _atom_site_type_symbol
 _atom_site_label
 _atom_site_symmetry_multiplicity
 _atom_site_fract_x
 _atom_site_fract_y
 _atom_site_fract_z
 _atom_site_occupancy
  Cu  Cu0  1  0.38893000  0.72932000  0.75073000  1.0
  Cu  Cu1  1  0.61106000  0.27068000  0.24927000  1.0
  H  H2  1  0.43597000  0.85331000  0.49455000  1.0
  H  H3  1  0.56403000  0.14669000  0.50546000  1.0
  H  H4  1  0.55516000  0.77295000  0.59217000  1.0
  H  H5  1  0.44484000  0.22706000  0.40783000  1.0
  H  H6  1  0.93281000  0.75798000  0.72374000  1.0
  H  H7  1  0.06718000  0.24202000  0.27627000  1.0
  H  H8  1  0.68678000  0.62574000  0.99180000  1.0
  H  H9  1  0.31324000  0.37424000  0.00821000  1.0
  H  H10  1  0.88035000  0.57941000  0.12847000  1.0
  H  H11  1  0.11966000  0.42057000  0.87154000  1.0
  H  H12  1  0.10190000  0.61401000  0.06008000  1.0
  H  H13  1  0.89812000  0.38598000  0.93993000  1.0
  H  H14  1  0.17392000  0.99946000  0.57964000  1.0
  H  H15  1  0.82608000  0.00055000  0.42036000  1.0
  H  H16  1  0.52276000  0.91894000  0.78953000  1.0
  H  H17  1  0.47724000  0.08106000  0.21046000  1.0
  H  H18  1  0.40975000  0.18292000  0.67024000  1.0
  H  H19  1  0.59026000  0.81709000  0.32976000  1.0
  H  H20  1  0.11501000  0.24726000  0.46734000  1.0
  H  H21  1  0.88500000  0.75275000  0.53266000  1.0
  H  H22  1  0.24295000  0.31299000  0.48206000  1.0
  H  H23  1  0.75706000  0.68701000  0.51796000  1.0
  H  H24  1  0.75452000  0.51950000  0.72228000  1.0
  H  H25  1  0.24545000  0.48051000  0.27770000  1.0
  H  H26  1  0.56738000  0.48002000  0.64088000  1.0
  H  H27  1  0.43260000  0.51999000  0.35909000  1.0
  H  H28  1  0.62222000  0.35237000  0.53325000  1.0
  H  H29  1  0.37777000  0.64763000  0.46673000  1.0
  H  H30  1  0.86433000  0.26544000  0.49716000  1.0
  H  H31  1  0.13568000  0.73457000  0.50282000  1.0
  H  H32  1  0.59053000  0.44604000  0.92211000  1.0
  H  H33  1  0.40947000  0.55396000  0.07788000  1.0
  H  H34  1  0.26120000  0.56077000  0.68001000  1.0
  H  H35  1  0.73878000  0.43923000  0.31999000  1.0
  H  H36  1  0.35721000  0.29454000  0.78881000  1.0
  H  H37  1  0.64279000  0.70546000  0.21119000  1.0
  H  H38  1  0.63561000  0.20983000  0.01825000  1.0
  H  H39  1  0.36440000  0.79019000  0.98174000  1.0
  H  H40  1  0.50109000  0.15106000  0.99743000  1.0
  H  H41  1  0.49891000  0.84894000  0.00257000  1.0
  H  H42  1  0.87254000  0.21794000  0.96629000  1.0
  H  H43  1  0.12746000  0.78206000  0.03371000  1.0
  H  H44  1  0.11115000  0.16122000  0.90781000  1.0
  H  H45  1  0.88886000  0.83877000  0.09219000  1.0
  H  H46  1  0.17157000  0.03104000  0.80328000  1.0
  H  H47  1  0.82843000  0.96896000  0.19671000  1.0
  H  H48  1  0.99399000  0.96094000  0.74408000  1.0
  H  H49  1  0.00600000  0.03907000  0.25591000  1.0
  C  C50  1  0.16503000  0.71386000  0.85142000  1.0
  C  C51  1  0.83498000  0.28612000  0.14859000  1.0
  C  C52  1  0.68132000  0.71992000  0.77036000  1.0
  C  C53  1  0.31869000  0.28007000  0.22965000  1.0
  C  C54  1  0.03008000  0.69209000  0.88781000  1.0
  C  C55  1  0.96992000  0.30790000  0.11220000  1.0
  C  C56  1  0.92136000  0.71898000  0.81217000  1.0
  C  C57  1  0.07863000  0.28101000  0.18784000  1.0
  C  C58  1  0.79783000  0.69496000  0.84997000  1.0
  C  C59  1  0.20217000  0.30502000  0.15005000  1.0
  C  C60  1  0.78279000  0.64585000  0.96392000  1.0
  C  C61  1  0.21722000  0.35412000  0.03610000  1.0
  C  C62  1  0.89054000  0.61934000  0.03973000  1.0
  C  C63  1  0.10948000  0.38064000  0.96028000  1.0
  C  C64  1  0.01429000  0.64055000  0.00161000  1.0
  C  C65  1  0.98572000  0.35944000  0.99840000  1.0
  C  C66  1  0.25406000  0.01134000  0.62114000  1.0
  C  C67  1  0.74594000  0.98865000  0.37887000  1.0
  C  C68  1  0.43257000  0.97392000  0.72930000  1.0
  C  C69  1  0.56743000  0.02609000  0.27069000  1.0
  C  C70  1  0.37862000  0.10496000  0.67062000  1.0
  C  C71  1  0.62138000  0.89504000  0.32938000  1.0
  C  C72  1  0.17678000  0.25479000  0.52739000  1.0
  C  C73  1  0.82323000  0.74522000  0.47262000  1.0
  C  C74  1  0.94497000  0.34586000  0.58963000  1.0
  C  C75  1  0.05503000  0.65416000  0.41036000  1.0
  C  C76  1  0.91523000  0.41582000  0.65359000  1.0
  C  C77  1  0.08475000  0.58418000  0.34641000  1.0
  C  C78  1  0.77832000  0.46437000  0.67418000  1.0
  C  C79  1  0.22166000  0.53565000  0.32580000  1.0
  C  C80  1  0.67523000  0.44121000  0.62893000  1.0
  C  C81  1  0.32476000  0.55881000  0.37105000  1.0
  C  C82  1  0.70638000  0.36945000  0.56637000  1.0
  C  C83  1  0.29361000  0.63056000  0.43361000  1.0
  C  C84  1  0.84147000  0.32028000  0.54562000  1.0
  C  C85  1  0.15854000  0.67973000  0.45437000  1.0
  C  C86  1  0.51465000  0.44426000  0.86881000  1.0
  C  C87  1  0.48535000  0.55574000  0.13119000  1.0
  C  C88  1  0.34507000  0.49787000  0.74507000  1.0
  C  C89  1  0.65492000  0.50214000  0.25493000  1.0
  C  C90  1  0.39105000  0.36601000  0.79872000  1.0
  C  C91  1  0.60895000  0.63399000  0.20128000  1.0
  C  C92  1  0.57476000  0.20294000  0.95681000  1.0
  C  C93  1  0.42524000  0.79706000  0.04319000  1.0
  C  C94  1  0.80202000  0.12233000  0.88515000  1.0
  C  C95  1  0.19799000  0.87766000  0.11486000  1.0
  C  C96  1  0.89938000  0.16448000  0.91697000  1.0
  C  C97  1  0.10063000  0.83551000  0.08303000  1.0
  C  C98  1  0.03130000  0.13096000  0.88466000  1.0
  C  C99  1  0.96870000  0.86904000  0.11533000  1.0
  C  C100  1  0.06512000  0.05767000  0.82353000  1.0
  C  C101  1  0.93488000  0.94232000  0.17647000  1.0
  C  C102  1  0.96752000  0.01755000  0.79083000  1.0
  C  C103  1  0.03248000  0.98246000  0.20916000  1.0
  C  C104  1  0.83315000  0.05078000  0.82278000  1.0
  C  C105  1  0.16685000  0.94922000  0.17722000  1.0
  N  N106  1  0.35424000  0.91675000  0.69747000  1.0
  N  N107  1  0.64576000  0.08325000  0.30253000  1.0
  N  N108  1  0.26611000  0.12728000  0.60233000  1.0
  N  N109  1  0.73389000  0.87272000  0.39768000  1.0
  N  N110  1  0.08558000  0.31855000  0.58543000  1.0
  N  N111  1  0.91442000  0.68146000  0.41457000  1.0
  N  N112  1  0.13860000  0.36801000  0.64298000  1.0
  N  N113  1  0.86139000  0.63200000  0.35702000  1.0
  N  N114  1  0.03792000  0.42572000  0.68406000  1.0
  N  N115  1  0.96205000  0.57428000  0.31594000  1.0
  N  N116  1  0.42296000  0.54506000  0.78923000  1.0
  N  N117  1  0.57704000  0.45494000  0.21077000  1.0
  N  N118  1  0.49764000  0.33355000  0.87695000  1.0
  N  N119  1  0.50237000  0.66645000  0.12305000  1.0
  N  N120  1  0.66643000  0.13203000  0.90442000  1.0
  N  N121  1  0.33357000  0.86797000  0.09558000  1.0
  N  N122  1  0.61665000  0.07194000  0.85541000  1.0
  N  N123  1  0.38335000  0.92806000  0.14459000  1.0
  N  N124  1  0.71522000  0.02329000  0.80685000  1.0
  N  N125  1  0.28477000  0.97672000  0.19314000  1.0
  O  O126  1  0.18179000  0.75243000  0.74670000  1.0
  O  O127  1  0.81820000  0.24757000  0.25330000  1.0
  O  O128  1  0.25771000  0.69308000  0.92265000  1.0
  O  O129  1  0.74229000  0.30692000  0.07735000  1.0
  O  O130  1  0.68987000  0.76883000  0.66719000  1.0
  O  O131  1  0.31014000  0.23115000  0.33282000  1.0
  O  O132  1  0.57693000  0.68652000  0.81758000  1.0
  O  O133  1  0.42307000  0.31348000  0.18243000  1.0
  O  O134  1  0.47738000  0.76674000  0.55319000  1.0
  O  O135  1  0.52261000  0.23326000  0.44682000  1.0
