# generated using pymatgen
data_CuH10Au2C12(N2Cl)4
_symmetry_space_group_name_H-M   'P 1'
_cell_length_a   6.85094000
_cell_length_b   10.16255223
_cell_length_c   10.66700849
_cell_angle_alpha   82.49813421
_cell_angle_beta   71.30059235
_cell_angle_gamma   70.37138955
_symmetry_Int_Tables_number   1
_chemical_formula_structural   CuH10Au2C12(N2Cl)4
_chemical_formula_sum   'Cu1 H10 Au2 C12 N8 Cl4'
_cell_volume   662.37053135
_cell_formula_units_Z   1
loop_
 _symmetry_equiv_pos_site_id
 _symmetry_equiv_pos_as_xyz
  1  'x, y, z'
loop_
 _atom_site_type_symbol
 _atom_site_label
 _atom_site_symmetry_multiplicity
 _atom_site_fract_x
 _atom_site_fract_y
 _atom_site_fract_z
 _atom_site_occupancy
  Cu  Cu0  1  0.50000000  0.00000000  0.00000000  1.0
  H  H1  1  0.96376000  0.84265000  0.86178000  1.0
  H  H2  1  0.66890000  0.15731000  0.13824000  1.0
  H  H3  1  0.03624000  0.15735000  0.13823000  1.0
  H  H4  1  0.33109000  0.84270000  0.86177000  1.0
  H  H5  1  0.80597000  0.40725000  0.97962000  1.0
  H  H6  1  0.19404000  0.59275000  0.02038000  1.0
  H  H7  1  0.71423000  0.47377000  0.83880000  1.0
  H  H8  1  0.02801000  0.52623000  0.16115000  1.0
  H  H9  1  0.28577000  0.52622000  0.16120000  1.0
  H  H10  1  0.97198000  0.47376000  0.83886000  1.0
  Au  Au11  1  0.20236000  0.10758000  0.48763000  1.0
  Au  Au12  1  0.79764000  0.89242000  0.51236000  1.0
  C  C13  1  0.07779000  0.17248000  0.67199000  1.0
  C  C14  1  0.92220000  0.82751000  0.32801000  1.0
  C  C15  1  0.32764000  0.04333000  0.30144000  1.0
  C  C16  1  0.67237000  0.95667000  0.69856000  1.0
  C  C17  1  0.97989000  0.91240000  0.92429000  1.0
  C  C18  1  0.81704000  0.08763000  0.07574000  1.0
  C  C19  1  0.02011000  0.08760000  0.07571000  1.0
  C  C20  1  0.18296000  0.91237000  0.92427000  1.0
  C  C21  1  0.70811000  0.62666000  0.95653000  1.0
  C  C22  1  0.29189000  0.37334000  0.04347000  1.0
  C  C23  1  0.80446000  0.48865000  0.90133000  1.0
  C  C24  1  0.19553000  0.51135000  0.09867000  1.0
  N  N25  1  0.00542000  0.20747000  0.78190000  1.0
  N  N26  1  0.99457000  0.79253000  0.21810000  1.0
  N  N27  1  0.39868000  0.01193000  0.19090000  1.0
  N  N28  1  0.60133000  0.98807000  0.80910000  1.0
  N  N29  1  0.79875000  0.00003000  0.00002000  1.0
  N  N30  1  0.20126000  0.99997000  0.99999000  1.0
  N  N31  1  0.63052000  0.73783000  0.00081000  1.0
  N  N32  1  0.36950000  0.26216000  0.99918000  1.0
  Cl  Cl33  1  0.27846000  0.87704000  0.56619000  1.0
  Cl  Cl34  1  0.72154000  0.12297000  0.43381000  1.0
  Cl  Cl35  1  0.12683000  0.33690000  0.40963000  1.0
  Cl  Cl36  1  0.87315000  0.66311000  0.59038000  1.0
