# generated using pymatgen
data_CdH32C46S2N8(O7F3)2
_symmetry_space_group_name_H-M   'P 1'
_cell_length_a   9.59135000
_cell_length_b   11.83160000
_cell_length_c   13.12170000
_cell_angle_alpha   102.71400000
_cell_angle_beta   95.40930000
_cell_angle_gamma   107.10800000
_symmetry_Int_Tables_number   1
_chemical_formula_structural   CdH32C46S2N8(O7F3)2
_chemical_formula_sum   'Cd1 H32 C46 S2 N8 O14 F6'
_cell_volume   1367.93927594
_cell_formula_units_Z   1
loop_
 _symmetry_equiv_pos_site_id
 _symmetry_equiv_pos_as_xyz
  1  'x, y, z'
loop_
 _atom_site_type_symbol
 _atom_site_label
 _atom_site_symmetry_multiplicity
 _atom_site_fract_x
 _atom_site_fract_y
 _atom_site_fract_z
 _atom_site_occupancy
  Cd  Cd0  1  0.00000000  0.50000000  0.50000000  1.0
  H  H1  1  0.19036000  0.76469000  0.68928000  1.0
  H  H2  1  0.80964000  0.23531000  0.31072000  1.0
  H  H3  1  0.98900000  0.03904000  0.65394000  1.0
  H  H4  1  0.01100000  0.96096000  0.34606000  1.0
  H  H5  1  0.82653000  0.88739000  0.48783000  1.0
  H  H6  1  0.17347000  0.11261000  0.51217000  1.0
  H  H7  1  0.85789000  0.68305000  0.43151000  1.0
  H  H8  1  0.14212000  0.31695000  0.56849000  1.0
  H  H9  1  0.45567000  0.06278000  0.95898000  1.0
  H  H10  1  0.54433000  0.93722000  0.04102000  1.0
  H  H11  1  0.48780000  0.22561000  0.87371000  1.0
  H  H12  1  0.51220000  0.77439000  0.12629000  1.0
  H  H13  1  0.27992000  0.04685000  0.08881000  1.0
  H  H14  1  0.72009000  0.95315000  0.91119000  1.0
  H  H15  1  0.05203000  0.10322000  0.04699000  1.0
  H  H16  1  0.94797000  0.89678000  0.95301000  1.0
  H  H17  1  0.07772000  0.26651000  0.94478000  1.0
  H  H18  1  0.92229000  0.73349000  0.05522000  1.0
  H  H19  1  0.32905000  0.35908000  0.90341000  1.0
  H  H20  1  0.67095000  0.64092000  0.09659000  1.0
  H  H21  1  0.52190000  0.22142000  0.12730000  1.0
  H  H22  1  0.47810000  0.77859000  0.87269000  1.0
  H  H23  1  0.54268000  0.37643000  0.03691000  1.0
  H  H24  1  0.45732000  0.62357000  0.96309000  1.0
  H  H25  1  0.15371000  0.38545000  0.32655000  1.0
  H  H26  1  0.84629000  0.61455000  0.67345000  1.0
  H  H27  1  0.34697000  0.68590000  0.58607000  1.0
  H  H28  1  0.65302000  0.31410000  0.41393000  1.0
  H  H29  1  0.57793000  0.74822000  0.51111000  1.0
  H  H30  1  0.42207000  0.25178000  0.48889000  1.0
  H  H31  1  0.59528000  0.61929000  0.33347000  1.0
  H  H32  1  0.40472000  0.38071000  0.66653000  1.0
  C  C33  1  0.11304000  0.79602000  0.64572000  1.0
  C  C34  1  0.88696000  0.20398000  0.35428000  1.0
  C  C35  1  0.10509000  0.91417000  0.68099000  1.0
  C  C36  1  0.89490000  0.08582000  0.31901000  1.0
  C  C37  1  0.99902000  0.94848000  0.62625000  1.0
  C  C38  1  0.00098000  0.05152000  0.37375000  1.0
  C  C39  1  0.90835000  0.86466000  0.53542000  1.0
  C  C40  1  0.09165000  0.13534000  0.46459000  1.0
  C  C41  1  0.92479000  0.74982000  0.50352000  1.0
  C  C42  1  0.07521000  0.25018000  0.49648000  1.0
  C  C43  1  0.24019000  0.96939000  0.86666000  1.0
  C  C44  1  0.75981000  0.03061000  0.13334000  1.0
  C  C45  1  0.35203000  0.08270000  0.94183000  1.0
  C  C46  1  0.64797000  0.91730000  0.05817000  1.0
  C  C47  1  0.37271000  0.18428000  0.88327000  1.0
  C  C48  1  0.62729000  0.81571000  0.11673000  1.0
  C  C49  1  0.28165000  0.12140000  0.77361000  1.0
  C  C50  1  0.71835000  0.87860000  0.22639000  1.0
  C  C51  1  0.29462000  0.11907000  0.04699000  1.0
  C  C52  1  0.70538000  0.88093000  0.95301000  1.0
  C  C53  1  0.15422000  0.14776000  0.02156000  1.0
  C  C54  1  0.84578000  0.85224000  0.97844000  1.0
  C  C55  1  0.16779000  0.23414000  0.96834000  1.0
  C  C56  1  0.83221000  0.76586000  0.03166000  1.0
  C  C57  1  0.32099000  0.28862000  0.94621000  1.0
  C  C58  1  0.67901000  0.71138000  0.05379000  1.0
  C  C59  1  0.41616000  0.23833000  0.11193000  1.0
  C  C60  1  0.58384000  0.76167000  0.88807000  1.0
  C  C61  1  0.38111000  0.28883000  0.21930000  1.0
  C  C62  1  0.61889000  0.71117000  0.78070000  1.0
  C  C63  1  0.40259000  0.44332000  0.13029000  1.0
  C  C64  1  0.59741000  0.55668000  0.86971000  1.0
  C  C65  1  0.43028000  0.33936000  0.05333000  1.0
  C  C66  1  0.56972000  0.66064000  0.94667000  1.0
  C  C67  1  0.37708000  0.49106000  0.32093000  1.0
  C  C68  1  0.62292000  0.50894000  0.67906000  1.0
  C  C69  1  0.24995000  0.46445000  0.36636000  1.0
  C  C70  1  0.75005000  0.53555000  0.63364000  1.0
  C  C71  1  0.35726000  0.63381000  0.50925000  1.0
  C  C72  1  0.64274000  0.36619000  0.49075000  1.0
  C  C73  1  0.48634000  0.66775000  0.46688000  1.0
  C  C74  1  0.51366000  0.33225000  0.53312000  1.0
  C  C75  1  0.49702000  0.59611000  0.37024000  1.0
  C  C76  1  0.50298000  0.40390000  0.62976000  1.0
  C  C77  1  0.91102000  0.44764000  0.12539000  1.0
  C  C78  1  0.08898000  0.55236000  0.87461000  1.0
  S  S79  1  0.82183000  0.47478000  0.24471000  1.0
  S  S80  1  0.17817000  0.52522000  0.75529000  1.0
  N  N81  1  0.02354000  0.71526000  0.55863000  1.0
  N  N82  1  0.97646000  0.28474000  0.44137000  1.0
  N  N83  1  0.20482000  0.99841000  0.77103000  1.0
  N  N84  1  0.79517000  0.00159000  0.22897000  1.0
  N  N85  1  0.38484000  0.40975000  0.22603000  1.0
  N  N86  1  0.61516000  0.59025000  0.77397000  1.0
  N  N87  1  0.24005000  0.53498000  0.45897000  1.0
  N  N88  1  0.75995000  0.46502000  0.54103000  1.0
  O  O89  1  0.18653000  0.86993000  0.88423000  1.0
  O  O90  1  0.81347000  0.13007000  0.11577000  1.0
  O  O91  1  0.27435000  0.16444000  0.69758000  1.0
  O  O92  1  0.72565000  0.83556000  0.30242000  1.0
  O  O93  1  0.35471000  0.23661000  0.28950000  1.0
  O  O94  1  0.64529000  0.76339000  0.71050000  1.0
  O  O95  1  0.39657000  0.54048000  0.11635000  1.0
  O  O96  1  0.60343000  0.45952000  0.88365000  1.0
  O  O97  1  0.95218000  0.52897000  0.33021000  1.0
  O  O98  1  0.04782000  0.47104000  0.66979000  1.0
  O  O99  1  0.72688000  0.35465000  0.24785000  1.0
  O  O100  1  0.27312000  0.64535000  0.75215000  1.0
  O  O101  1  0.74579000  0.55991000  0.22651000  1.0
  O  O102  1  0.25421000  0.44009000  0.77349000  1.0
  F  F103  1  0.98887000  0.55684000  0.10999000  1.0
  F  F104  1  0.01113000  0.44316000  0.89001000  1.0
  F  F105  1  0.80695000  0.38411000  0.03818000  1.0
  F  F106  1  0.19305000  0.61590000  0.96182000  1.0
  F  F107  1  0.00556000  0.38426000  0.13693000  1.0
  F  F108  1  0.99444000  0.61574000  0.86307000  1.0
