# generated using pymatgen
data_CdH10(C5N4)3
_symmetry_space_group_name_H-M   'P 1'
_cell_length_a   7.42481000
_cell_length_b   8.09153000
_cell_length_c   15.56024930
_cell_angle_alpha   104.80520144
_cell_angle_beta   96.23259532
_cell_angle_gamma   103.52140000
_symmetry_Int_Tables_number   1
_chemical_formula_structural   CdH10(C5N4)3
_chemical_formula_sum   'Cd2 H20 C30 N24'
_cell_volume   864.54180596
_cell_formula_units_Z   2
loop_
 _symmetry_equiv_pos_site_id
 _symmetry_equiv_pos_as_xyz
  1  'x, y, z'
loop_
 _atom_site_type_symbol
 _atom_site_label
 _atom_site_symmetry_multiplicity
 _atom_site_fract_x
 _atom_site_fract_y
 _atom_site_fract_z
 _atom_site_occupancy
  Cd  Cd0  1  0.75960000  0.59692000  0.79464000  1.0
  Cd  Cd1  1  0.24038000  0.40306000  0.20535000  1.0
  H  H2  1  0.39472000  0.60052000  0.89864000  1.0
  H  H3  1  0.60526000  0.39946000  0.10135000  1.0
  H  H4  1  0.12421000  0.38594000  0.92909000  1.0
  H  H5  1  0.87579000  0.61406000  0.07092000  1.0
  H  H6  1  0.11322000  0.05963000  0.88446000  1.0
  H  H7  1  0.88679000  0.94037000  0.11555000  1.0
  H  H8  1  0.37504000  0.96748000  0.81466000  1.0
  H  H9  1  0.62497000  0.03253000  0.18535000  1.0
  H  H10  1  0.66616000  0.04282000  0.75403000  1.0
  H  H11  1  0.33384000  0.95718000  0.24598000  1.0
  H  H12  1  0.18600000  0.12004000  0.67522000  1.0
  H  H13  1  0.81400000  0.87997000  0.32478000  1.0
  H  H14  1  0.46074000  0.09352000  0.45491000  1.0
  H  H15  1  0.53928000  0.90649000  0.54509000  1.0
  H  H16  1  0.23359000  0.23273000  0.38529000  1.0
  H  H17  1  0.76644000  0.76730000  0.61472000  1.0
  H  H18  1  0.69727000  0.37930000  0.59794000  1.0
  H  H19  1  0.30274000  0.62070000  0.40206000  1.0
  H  H20  1  0.83387000  0.35897000  0.51170000  1.0
  H  H21  1  0.16616000  0.64104000  0.48831000  1.0
  C  C22  1  0.11938000  0.75882000  0.96149000  1.0
  C  C23  1  0.88060000  0.24116000  0.03851000  1.0
  C  C24  1  0.28701000  0.02049000  0.06763000  1.0
  C  C25  1  0.71297000  0.97948000  0.93235000  1.0
  C  C26  1  0.12500000  0.69517000  0.69179000  1.0
  C  C27  1  0.87501000  0.30484000  0.30821000  1.0
  C  C28  1  0.39534000  0.61483000  0.65993000  1.0
  C  C29  1  0.60467000  0.38518000  0.34007000  1.0
  C  C30  1  0.38308000  0.45837000  0.88032000  1.0
  C  C31  1  0.61690000  0.54162000  0.11968000  1.0
  C  C32  1  0.23334000  0.33807000  0.89765000  1.0
  C  C33  1  0.76665000  0.66192000  0.10235000  1.0
  C  C34  1  0.22885000  0.15879000  0.87365000  1.0
  C  C35  1  0.77115000  0.84121000  0.12636000  1.0
  C  C36  1  0.37293000  0.10605000  0.83360000  1.0
  C  C37  1  0.62707000  0.89395000  0.16640000  1.0
  C  C38  1  0.51575000  0.23397000  0.81608000  1.0
  C  C39  1  0.48424000  0.76603000  0.18392000  1.0
  C  C40  1  0.65864000  0.18038000  0.76681000  1.0
  C  C41  1  0.34136000  0.81962000  0.23319000  1.0
  C  C42  1  0.91904000  0.27070000  0.61592000  1.0
  C  C43  1  0.08097000  0.72930000  0.38408000  1.0
  C  C44  1  0.07399000  0.22255000  0.57160000  1.0
  C  C45  1  0.92602000  0.77746000  0.42840000  1.0
  C  C46  1  0.19992000  0.14584000  0.61049000  1.0
  C  C47  1  0.80008000  0.85417000  0.38951000  1.0
  C  C48  1  0.34989000  0.13245000  0.48946000  1.0
  C  C49  1  0.65013000  0.86756000  0.51054000  1.0
  C  C50  1  0.22430000  0.20869000  0.45066000  1.0
  C  C51  1  0.77572000  0.79133000  0.54935000  1.0
  N  N52  1  0.98915000  0.63930000  0.91982000  1.0
  N  N53  1  0.01081000  0.36067000  0.08018000  1.0
  N  N54  1  0.27303000  0.87929000  0.00295000  1.0
  N  N55  1  0.72694000  0.12068000  0.99704000  1.0
  N  N56  1  0.31806000  0.15165000  0.12818000  1.0
  N  N57  1  0.68192000  0.84835000  0.87181000  1.0
  N  N58  1  0.00229000  0.72134000  0.73110000  1.0
  N  N59  1  0.99771000  0.27867000  0.26891000  1.0
  N  N60  1  0.25543000  0.67853000  0.64433000  1.0
  N  N61  1  0.74457000  0.32148000  0.35567000  1.0
  N  N62  1  0.52864000  0.55905000  0.66543000  1.0
  N  N63  1  0.47135000  0.44094000  0.33456000  1.0
  N  N64  1  0.51982000  0.40798000  0.84023000  1.0
  N  N65  1  0.48016000  0.59201000  0.15976000  1.0
  N  N66  1  0.76907000  0.29056000  0.73536000  1.0
  N  N67  1  0.23093000  0.70943000  0.26464000  1.0
  N  N68  1  0.90217000  0.23225000  0.69246000  1.0
  N  N69  1  0.09784000  0.76775000  0.30754000  1.0
  N  N70  1  0.08692000  0.25493000  0.49169000  1.0
  N  N71  1  0.91309000  0.74508000  0.50831000  1.0
  N  N72  1  0.33855000  0.10141000  0.56978000  1.0
  N  N73  1  0.66146000  0.89860000  0.43022000  1.0
  N  N74  1  0.80597000  0.34106000  0.57191000  1.0
  N  N75  1  0.19405000  0.65895000  0.42810000  1.0
