# generated using pymatgen
data_AgPH7C5S(NO2)2
_symmetry_space_group_name_H-M   'P 1'
_cell_length_a   9.52102000
_cell_length_b   10.69100000
_cell_length_c   11.14341220
_cell_angle_alpha   110.90779908
_cell_angle_beta   115.28433882
_cell_angle_gamma   90.02290000
_symmetry_Int_Tables_number   1
_chemical_formula_structural   AgPH7C5S(NO2)2
_chemical_formula_sum   'Ag4 P4 H28 C20 S4 N8 O16'
_cell_volume   942.27256607
_cell_formula_units_Z   4
loop_
 _symmetry_equiv_pos_site_id
 _symmetry_equiv_pos_as_xyz
  1  'x, y, z'
loop_
 _atom_site_type_symbol
 _atom_site_label
 _atom_site_symmetry_multiplicity
 _atom_site_fract_x
 _atom_site_fract_y
 _atom_site_fract_z
 _atom_site_occupancy
  Ag  Ag0  1  0.69282000  0.54305000  0.10379000  1.0
  Ag  Ag1  1  0.58864000  0.95685000  0.89559000  1.0
  Ag  Ag2  1  0.30717000  0.45696000  0.89620000  1.0
  Ag  Ag3  1  0.41137000  0.04315000  0.10442000  1.0
  P  P4  1  0.56015000  0.58717000  0.78732000  1.0
  P  P5  1  0.77254000  0.91295000  0.21251000  1.0
  P  P6  1  0.43987000  0.41284000  0.21269000  1.0
  P  P7  1  0.22745000  0.08705000  0.78749000  1.0
  H  H8  1  0.22468000  0.73186000  0.61684000  1.0
  H  H9  1  0.60774000  0.76800000  0.38273000  1.0
  H  H10  1  0.77531000  0.26815000  0.38315000  1.0
  H  H11  1  0.39226000  0.23200000  0.61727000  1.0
  H  H12  1  0.95519000  0.77112000  0.42124000  1.0
  H  H13  1  0.53422000  0.72886000  0.57866000  1.0
  H  H14  1  0.04482000  0.22888000  0.57876000  1.0
  H  H15  1  0.46578000  0.27114000  0.42134000  1.0
  H  H16  1  0.91571000  0.12599000  0.17798000  1.0
  H  H17  1  0.73820000  0.37425000  0.82184000  1.0
  H  H18  1  0.08429000  0.87401000  0.82202000  1.0
  H  H19  1  0.26180000  0.62574000  0.17815000  1.0
  H  H20  1  0.10712000  0.22878000  0.29777000  1.0
  H  H21  1  0.80970000  0.27155000  0.70196000  1.0
  H  H22  1  0.89289000  0.77122000  0.70223000  1.0
  H  H23  1  0.19031000  0.72844000  0.29804000  1.0
  H  H24  1  0.04193000  0.15233000  0.10750000  1.0
  H  H25  1  0.93472000  0.34771000  0.89234000  1.0
  H  H26  1  0.95807000  0.84767000  0.89250000  1.0
  H  H27  1  0.06527000  0.65229000  0.10765000  1.0
  H  H28  1  0.61014000  0.50223000  0.60293000  1.0
  H  H29  1  0.00739000  0.99752000  0.39671000  1.0
  H  H30  1  0.38986000  0.49777000  0.39707000  1.0
  H  H31  1  0.99262000  0.00248000  0.60329000  1.0
  H  H32  1  0.76156000  0.75093000  0.89855000  1.0
  H  H33  1  0.86421000  0.74861000  0.10436000  1.0
  H  H34  1  0.23845000  0.24906000  0.10146000  1.0
  H  H35  1  0.13579000  0.25139000  0.89565000  1.0
  C  C36  1  0.13821000  0.65998000  0.51119000  1.0
  C  C37  1  0.62702000  0.83992000  0.48839000  1.0
  C  C38  1  0.86180000  0.34002000  0.48881000  1.0
  C  C39  1  0.37299000  0.16008000  0.51161000  1.0
  C  C40  1  0.00203000  0.67749000  0.41030000  1.0
  C  C41  1  0.59194000  0.82248000  0.58943000  1.0
  C  C42  1  0.99797000  0.32251000  0.58970000  1.0
  C  C43  1  0.40806000  0.17752000  0.41058000  1.0
  C  C44  1  0.98880000  0.45564000  0.29096000  1.0
  C  C45  1  0.69779000  0.04441000  0.70841000  1.0
  C  C46  1  0.01120000  0.54437000  0.70904000  1.0
  C  C47  1  0.30221000  0.95558000  0.29159000  1.0
  C  C48  1  0.93026000  0.32119000  0.17405000  1.0
  C  C49  1  0.75611000  0.17885000  0.82531000  1.0
  C  C50  1  0.06974000  0.67882000  0.82595000  1.0
  C  C51  1  0.24389000  0.82114000  0.17469000  1.0
  C  C52  1  0.00537000  0.20186000  0.19160000  1.0
  C  C53  1  0.81405000  0.29829000  0.80808000  1.0
  C  C54  1  0.99463000  0.79814000  0.80840000  1.0
  C  C55  1  0.18595000  0.70171000  0.19192000  1.0
  S  S56  1  0.16150000  0.49389000  0.45024000  1.0
  S  S57  1  0.71105000  0.00608000  0.54905000  1.0
  S  S58  1  0.83851000  0.50612000  0.54976000  1.0
  S  S59  1  0.28895000  0.99392000  0.45095000  1.0
  N  N60  1  0.92034000  0.56341000  0.28698000  1.0
  N  N61  1  0.63350000  0.93665000  0.71262000  1.0
  N  N62  1  0.07966000  0.43659000  0.71302000  1.0
  N  N63  1  0.36650000  0.06335000  0.28738000  1.0
  N  N64  1  0.80950000  0.31147000  0.05438000  1.0
  N  N65  1  0.75476000  0.18852000  0.94488000  1.0
  N  N66  1  0.19050000  0.68853000  0.94562000  1.0
  N  N67  1  0.24524000  0.81148000  0.05512000  1.0
  O  O68  1  0.53888000  0.50633000  0.86789000  1.0
  O  O69  1  0.67103000  0.99391000  0.13206000  1.0
  O  O70  1  0.46112000  0.49367000  0.13211000  1.0
  O  O71  1  0.32896000  0.00609000  0.86794000  1.0
  O  O72  1  0.46211000  0.69379000  0.76450000  1.0
  O  O73  1  0.69759000  0.80653000  0.23579000  1.0
  O  O74  1  0.53788000  0.30621000  0.23550000  1.0
  O  O75  1  0.30241000  0.19347000  0.76422000  1.0
  O  O76  1  0.54049000  0.47266000  0.63560000  1.0
  O  O77  1  0.90523000  0.02729000  0.36401000  1.0
  O  O78  1  0.45951000  0.52734000  0.36440000  1.0
  O  O79  1  0.09477000  0.97270000  0.63599000  1.0
  O  O80  1  0.74743000  0.65134000  0.86150000  1.0
  O  O81  1  0.88442000  0.84793000  0.13705000  1.0
  O  O82  1  0.25257000  0.34866000  0.13849000  1.0
  O  O83  1  0.11557000  0.15206000  0.86295000  1.0
