# generated using pymatgen
data_AgH9C6N3ClO4
_symmetry_space_group_name_H-M   'P 1'
_cell_length_a   8.33798000
_cell_length_b   9.97171000
_cell_length_c   12.42530000
_cell_angle_alpha   90.00000000
_cell_angle_beta   90.00010000
_cell_angle_gamma   98.41550000
_symmetry_Int_Tables_number   1
_chemical_formula_structural   AgH9C6N3ClO4
_chemical_formula_sum   'Ag4 H36 C24 N12 Cl4 O16'
_cell_volume   1021.96464134
_cell_formula_units_Z   4
loop_
 _symmetry_equiv_pos_site_id
 _symmetry_equiv_pos_as_xyz
  1  'x, y, z'
loop_
 _atom_site_type_symbol
 _atom_site_label
 _atom_site_symmetry_multiplicity
 _atom_site_fract_x
 _atom_site_fract_y
 _atom_site_fract_z
 _atom_site_occupancy
  Ag  Ag0  1  0.77369000  0.78297000  0.89983000  1.0
  Ag  Ag1  1  0.27369000  0.28297000  0.60017000  1.0
  Ag  Ag2  1  0.22632000  0.21703000  0.10017000  1.0
  Ag  Ag3  1  0.72631000  0.71703000  0.39983000  1.0
  H  H4  1  0.75470000  0.17061000  0.77650000  1.0
  H  H5  1  0.25470000  0.67061000  0.72350000  1.0
  H  H6  1  0.24530000  0.82939000  0.22350000  1.0
  H  H7  1  0.74530000  0.32939000  0.27650000  1.0
  H  H8  1  0.58161000  0.04641000  0.79384000  1.0
  H  H9  1  0.08161000  0.54642000  0.70616000  1.0
  H  H10  1  0.41839000  0.95358000  0.20616000  1.0
  H  H11  1  0.91839000  0.45358000  0.29384000  1.0
  H  H12  1  0.67682000  0.99746000  0.98057000  1.0
  H  H13  1  0.17682000  0.49746000  0.51943000  1.0
  H  H14  1  0.32319000  0.00253000  0.01943000  1.0
  H  H15  1  0.82319000  0.50254000  0.48057000  1.0
  H  H16  1  0.62843000  0.16307000  0.96063000  1.0
  H  H17  1  0.12843000  0.66307000  0.53937000  1.0
  H  H18  1  0.37158000  0.83693000  0.03937000  1.0
  H  H19  1  0.87158000  0.33694000  0.46063000  1.0
  H  H20  1  0.82356000  0.84267000  0.64540000  1.0
  H  H21  1  0.32356000  0.34267000  0.85460000  1.0
  H  H22  1  0.17644000  0.15733000  0.35460000  1.0
  H  H23  1  0.67644000  0.65733000  0.14540000  1.0
  H  H24  1  0.62053000  0.86506000  0.67464000  1.0
  H  H25  1  0.12053000  0.36506000  0.82536000  1.0
  H  H26  1  0.37947000  0.13494000  0.32536000  1.0
  H  H27  1  0.87947000  0.63494000  0.17464000  1.0
  H  H28  1  0.66234000  0.09830000  0.60451000  1.0
  H  H29  1  0.16234000  0.59830000  0.89549000  1.0
  H  H30  1  0.33766000  0.90170000  0.39549000  1.0
  H  H31  1  0.83766000  0.40170000  0.10451000  1.0
  H  H32  1  0.71404000  0.98398000  0.50611000  1.0
  H  H33  1  0.21404000  0.48398000  0.99389000  1.0
  H  H34  1  0.28596000  0.01602000  0.49389000  1.0
  H  H35  1  0.78596000  0.51602000  0.00611000  1.0
  H  H36  1  0.91938000  0.99707000  0.77951000  1.0
  H  H37  1  0.41938000  0.49707000  0.72049000  1.0
  H  H38  1  0.08062000  0.00293000  0.22049000  1.0
  H  H39  1  0.58062000  0.50293000  0.27951000  1.0
  C  C40  1  0.70918000  0.07398000  0.81609000  1.0
  C  C41  1  0.20919000  0.57398000  0.68391000  1.0
  C  C42  1  0.29082000  0.92602000  0.18391000  1.0
  C  C43  1  0.79082000  0.42602000  0.31609000  1.0
  C  C44  1  0.71444000  0.09417000  0.93809000  1.0
  C  C45  1  0.21444000  0.59417000  0.56191000  1.0
  C  C46  1  0.28556000  0.90583000  0.06191000  1.0
  C  C47  1  0.78557000  0.40583000  0.43809000  1.0
  C  C48  1  0.87240000  0.15118000  0.97864000  1.0
  C  C49  1  0.37241000  0.65118000  0.52136000  1.0
  C  C50  1  0.12759000  0.84881000  0.02136000  1.0
  C  C51  1  0.62760000  0.34882000  0.47864000  1.0
  C  C52  1  0.74602000  0.91648000  0.67077000  1.0
  C  C53  1  0.24602000  0.41648000  0.82923000  1.0
  C  C54  1  0.25398000  0.08352000  0.32923000  1.0
  C  C55  1  0.75398000  0.58352000  0.17076000  1.0
  C  C56  1  0.74997000  0.02952000  0.58484000  1.0
  C  C57  1  0.24997000  0.52952000  0.91517000  1.0
  C  C58  1  0.25003000  0.97048000  0.41517000  1.0
  C  C59  1  0.75003000  0.47048000  0.08483000  1.0
  C  C60  1  0.90803000  0.10949000  0.57390000  1.0
  C  C61  1  0.40803000  0.60949000  0.92610000  1.0
  C  C62  1  0.09197000  0.89052000  0.42610000  1.0
  C  C63  1  0.59197000  0.39051000  0.07390000  1.0
  N  N64  1  0.79669000  0.96383000  0.77954000  1.0
  N  N65  1  0.29669000  0.46383000  0.72046000  1.0
  N  N66  1  0.20331000  0.03617000  0.22046000  1.0
  N  N67  1  0.70331000  0.53617000  0.27954000  1.0
  N  N68  1  0.00004000  0.19788000  0.00955000  1.0
  N  N69  1  0.50004000  0.69789000  0.49044000  1.0
  N  N70  1  0.99997000  0.80211000  0.99045000  1.0
  N  N71  1  0.49996000  0.30212000  0.50955000  1.0
  N  N72  1  0.03562000  0.17426000  0.56850000  1.0
  N  N73  1  0.53562000  0.67426000  0.93150000  1.0
  N  N74  1  0.96438000  0.82575000  0.43150000  1.0
  N  N75  1  0.46438000  0.32574000  0.06850000  1.0
  Cl  Cl76  1  0.74752000  0.46844000  0.75603000  1.0
  Cl  Cl77  1  0.24752000  0.96844000  0.74397000  1.0
  Cl  Cl78  1  0.25249000  0.53156000  0.24397000  1.0
  Cl  Cl79  1  0.75248000  0.03157000  0.25603000  1.0
  O  O80  1  0.83604000  0.38408000  0.68854000  1.0
  O  O81  1  0.33604000  0.88408000  0.81146000  1.0
  O  O82  1  0.16395000  0.61592000  0.31146000  1.0
  O  O83  1  0.66395000  0.11592000  0.18854000  1.0
  O  O84  1  0.86323000  0.54828000  0.82951000  1.0
  O  O85  1  0.36322000  0.04828000  0.67050000  1.0
  O  O86  1  0.13678000  0.45171000  0.17050000  1.0
  O  O87  1  0.63678000  0.95172000  0.32951000  1.0
  O  O88  1  0.67005000  0.56097000  0.68857000  1.0
  O  O89  1  0.17004000  0.06096000  0.81143000  1.0
  O  O90  1  0.32996000  0.43904000  0.31144000  1.0
  O  O91  1  0.82994000  0.93904000  0.18857000  1.0
  O  O92  1  0.62448000  0.38315000  0.81894000  1.0
  O  O93  1  0.12447000  0.88315000  0.68105000  1.0
  O  O94  1  0.37552000  0.61684000  0.18106000  1.0
  O  O95  1  0.87552000  0.11685000  0.31894000  1.0
