# generated using pymatgen
data_HgH3C7NO4
_symmetry_space_group_name_H-M   'P 1'
_cell_length_a   8.98145000
_cell_length_b   11.73710000
_cell_length_c   14.74900000
_cell_angle_alpha   109.63900000
_cell_angle_beta   90.00000000
_cell_angle_gamma   90.00000000
_symmetry_Int_Tables_number   1
_chemical_formula_structural   HgH3C7NO4
_chemical_formula_sum   'Hg8 H24 C56 N8 O32'
_cell_volume   1464.33974292
_cell_formula_units_Z   8
loop_
 _symmetry_equiv_pos_site_id
 _symmetry_equiv_pos_as_xyz
  1  'x, y, z'
loop_
 _atom_site_type_symbol
 _atom_site_label
 _atom_site_symmetry_multiplicity
 _atom_site_fract_x
 _atom_site_fract_y
 _atom_site_fract_z
 _atom_site_occupancy
  Hg  Hg0  1  0.67616000  0.67395000  0.71493000  1.0
  Hg  Hg1  1  0.17616000  0.82605000  0.78507000  1.0
  Hg  Hg2  1  0.32383000  0.32605000  0.28507000  1.0
  Hg  Hg3  1  0.82384000  0.17395000  0.21493000  1.0
  Hg  Hg4  1  0.49609000  0.09188000  0.83337000  1.0
  Hg  Hg5  1  0.99608000  0.40813000  0.66666667  1.0
  Hg  Hg6  1  0.50392000  0.90812000  0.16663000  1.0
  Hg  Hg7  1  0.00392000  0.59188000  0.33337000  1.0
  H  H8  1  0.53213000  0.58099000  0.29227000  1.0
  H  H9  1  0.03214000  0.91900000  0.20773000  1.0
  H  H10  1  0.46786000  0.41901000  0.70773000  1.0
  H  H11  1  0.96786000  0.08099000  0.79226000  1.0
  H  H12  1  0.44726000  0.77149000  0.41820000  1.0
  H  H13  1  0.94726000  0.72851000  0.08180000  1.0
  H  H14  1  0.55274000  0.22851000  0.58180000  1.0
  H  H15  1  0.05274000  0.27149000  0.91820000  1.0
  H  H16  1  0.51353000  0.80557000  0.59128000  1.0
  H  H17  1  0.01353000  0.69443000  0.90872000  1.0
  H  H18  1  0.48647000  0.19443000  0.40872000  1.0
  H  H19  1  0.98647000  0.30557000  0.09128000  1.0
  H  H20  1  0.74690000  0.60308000  0.03826000  1.0
  H  H21  1  0.24690000  0.89693000  0.46174000  1.0
  H  H22  1  0.25310000  0.39693000  0.96174000  1.0
  H  H23  1  0.75310000  0.10308000  0.53826000  1.0
  H  H24  1  0.66693000  0.48319000  0.14014000  1.0
  H  H25  1  0.16693000  0.01682000  0.35986000  1.0
  H  H26  1  0.33307000  0.51682000  0.85986000  1.0
  H  H27  1  0.83307000  0.98318000  0.64014000  1.0
  H  H28  1  0.55495000  0.27577000  0.05856000  1.0
  H  H29  1  0.05495000  0.22424000  0.44144000  1.0
  H  H30  1  0.44505000  0.72424000  0.94144000  1.0
  H  H31  1  0.94505000  0.77576000  0.55856000  1.0
  C  C32  1  0.79901000  0.46672000  0.52255000  1.0
  C  C33  1  0.29901000  0.03329000  0.97745000  1.0
  C  C34  1  0.20099000  0.53329000  0.47745000  1.0
  C  C35  1  0.70100000  0.96671000  0.02255000  1.0
  C  C36  1  0.70985000  0.40679000  0.31730000  1.0
  C  C37  1  0.20985000  0.09321000  0.18270000  1.0
  C  C38  1  0.29015000  0.59321000  0.68270000  1.0
  C  C39  1  0.79015000  0.90679000  0.81730000  1.0
  C  C40  1  0.69512000  0.54792000  0.49023000  1.0
  C  C41  1  0.19512000  0.95208000  0.00977000  1.0
  C  C42  1  0.30488000  0.45208000  0.50977000  1.0
  C  C43  1  0.80488000  0.04792000  0.99023000  1.0
  C  C44  1  0.65621000  0.52060000  0.39300000  1.0
  C  C45  1  0.15621000  0.97940000  0.10700000  1.0
  C  C46  1  0.34379000  0.47940000  0.60700000  1.0
  C  C47  1  0.84379000  0.02060000  0.89300000  1.0
  C  C48  1  0.56556000  0.60185000  0.36709000  1.0
  C  C49  1  0.06556000  0.89815000  0.13291000  1.0
  C  C50  1  0.43444000  0.39815000  0.63291000  1.0
  C  C51  1  0.93444000  0.10185000  0.86709000  1.0
  C  C52  1  0.51662000  0.70703000  0.43734000  1.0
  C  C53  1  0.01663000  0.79297000  0.06266000  1.0
  C  C54  1  0.48337000  0.29297000  0.56266000  1.0
  C  C55  1  0.98337000  0.20703000  0.93734000  1.0
  C  C56  1  0.55459000  0.72714000  0.53302000  1.0
  C  C57  1  0.05459000  0.77286000  0.96698000  1.0
  C  C58  1  0.44541000  0.27286000  0.46698000  1.0
  C  C59  1  0.94541000  0.22714000  0.03302000  1.0
  C  C60  1  0.67578000  0.26435000  0.75829000  1.0
  C  C61  1  0.17579000  0.23565000  0.74171000  1.0
  C  C62  1  0.32421000  0.73565000  0.24171000  1.0
  C  C63  1  0.82421000  0.76435000  0.25829000  1.0
  C  C64  1  0.74322000  0.53185000  0.84225000  1.0
  C  C65  1  0.24322000  0.96815000  0.65774000  1.0
  C  C66  1  0.25678000  0.46815000  0.15775000  1.0
  C  C67  1  0.75678000  0.03185000  0.34226000  1.0
  C  C68  1  0.66080000  0.33566000  0.86506000  1.0
  C  C69  1  0.16080000  0.16434000  0.63494000  1.0
  C  C70  1  0.33920000  0.66434000  0.13494000  1.0
  C  C71  1  0.83920000  0.83566000  0.36506000  1.0
  C  C72  1  0.70614000  0.45670000  0.90433000  1.0
  C  C73  1  0.20615000  0.04330000  0.59567000  1.0
  C  C74  1  0.29385000  0.54330000  0.09567000  1.0
  C  C75  1  0.79386000  0.95670000  0.40433000  1.0
  C  C76  1  0.70983000  0.50988000  0.00479000  1.0
  C  C77  1  0.20983000  0.99012000  0.49521000  1.0
  C  C78  1  0.29017000  0.49012000  0.99521000  1.0
  C  C79  1  0.79017000  0.00988000  0.50479000  1.0
  C  C80  1  0.66246000  0.44414000  0.06213000  1.0
  C  C81  1  0.16246000  0.05587000  0.43787000  1.0
  C  C82  1  0.33753000  0.55587000  0.93787000  1.0
  C  C83  1  0.83754000  0.94414000  0.56213000  1.0
  C  C84  1  0.60502000  0.32815000  0.01793000  1.0
  C  C85  1  0.10502000  0.17185000  0.48207000  1.0
  C  C86  1  0.39498000  0.67185000  0.98207000  1.0
  C  C87  1  0.89498000  0.82815000  0.51793000  1.0
  N  N88  1  0.64133000  0.64887000  0.55731000  1.0
  N  N89  1  0.14133000  0.85113000  0.94269000  1.0
  N  N90  1  0.35867000  0.35113000  0.44269000  1.0
  N  N91  1  0.85867000  0.14887000  0.05731000  1.0
  N  N92  1  0.60734000  0.27665000  0.92207000  1.0
  N  N93  1  0.10734000  0.22335000  0.57792000  1.0
  N  N94  1  0.39266000  0.72335000  0.07792000  1.0
  N  N95  1  0.89266000  0.77665000  0.42207000  1.0
  O  O96  1  0.85141000  0.51778000  0.60932000  1.0
  O  O97  1  0.35141000  0.98222000  0.89068000  1.0
  O  O98  1  0.14859000  0.48222000  0.39068000  1.0
  O  O99  1  0.64859000  0.01777000  0.10932000  1.0
  O  O100  1  0.82904000  0.36379000  0.46770000  1.0
  O  O101  1  0.32904000  0.13621000  0.03230000  1.0
  O  O102  1  0.17096000  0.63621000  0.53230000  1.0
  O  O103  1  0.67097000  0.86379000  0.96770000  1.0
  O  O104  1  0.62177000  0.31690000  0.28998000  1.0
  O  O105  1  0.12178000  0.18310000  0.21002000  1.0
  O  O106  1  0.37822000  0.68310000  0.71002000  1.0
  O  O107  1  0.87823000  0.81690000  0.78998000  1.0
  O  O108  1  0.83938000  0.40527000  0.28207000  1.0
  O  O109  1  0.33938000  0.09473000  0.21794000  1.0
  O  O110  1  0.16061000  0.59473000  0.71793000  1.0
  O  O111  1  0.66062000  0.90527000  0.78207000  1.0
  O  O112  1  0.74317000  0.31312000  0.70643000  1.0
  O  O113  1  0.24318000  0.18688000  0.79357000  1.0
  O  O114  1  0.25682000  0.68689000  0.29357000  1.0
  O  O115  1  0.75682000  0.81311000  0.20643000  1.0
  O  O116  1  0.62071000  0.15721000  0.72598000  1.0
  O  O117  1  0.12071000  0.34279000  0.77402000  1.0
  O  O118  1  0.37929000  0.84279000  0.27402000  1.0
  O  O119  1  0.87929000  0.65720000  0.22598000  1.0
  O  O120  1  0.62495000  0.57108000  0.81185000  1.0
  O  O121  1  0.12495000  0.92892000  0.68815000  1.0
  O  O122  1  0.37505000  0.42892000  0.18815000  1.0
  O  O123  1  0.87505000  0.07108000  0.31185000  1.0
  O  O124  1  0.87479000  0.55588000  0.82892000  1.0
  O  O125  1  0.37479000  0.94412000  0.67109000  1.0
  O  O126  1  0.12521000  0.44412000  0.17109000  1.0
  O  O127  1  0.62521000  0.05588000  0.32892000  1.0
