# generated using pymatgen
data_ZnH8C13SNO4
_symmetry_space_group_name_H-M   'P 1'
_cell_length_a   8.19401000
_cell_length_b   10.71560000
_cell_length_c   15.31600000
_cell_angle_alpha   90.00000000
_cell_angle_beta   90.00000000
_cell_angle_gamma   96.33490000
_symmetry_Int_Tables_number   1
_chemical_formula_structural   ZnH8C13SNO4
_chemical_formula_sum   'Zn4 H32 C52 S4 N4 O16'
_cell_volume   1336.59052771
_cell_formula_units_Z   4
loop_
 _symmetry_equiv_pos_site_id
 _symmetry_equiv_pos_as_xyz
  1  'x, y, z'
loop_
 _atom_site_type_symbol
 _atom_site_label
 _atom_site_symmetry_multiplicity
 _atom_site_fract_x
 _atom_site_fract_y
 _atom_site_fract_z
 _atom_site_occupancy
  Zn  Zn0  1  0.85571000  0.40701000  0.52738000  1.0
  Zn  Zn1  1  0.64430000  0.09298000  0.02737000  1.0
  Zn  Zn2  1  0.14430000  0.59298000  0.47262000  1.0
  Zn  Zn3  1  0.35570000  0.90701000  0.97262000  1.0
  H  H4  1  0.55235000  0.36542000  0.43158000  1.0
  H  H5  1  0.94766000  0.13458000  0.93159000  1.0
  H  H6  1  0.44765000  0.63458000  0.56841000  1.0
  H  H7  1  0.05234000  0.86542000  0.06841000  1.0
  H  H8  1  0.29668000  0.21860000  0.42744000  1.0
  H  H9  1  0.20332000  0.28141000  0.92744000  1.0
  H  H10  1  0.70332000  0.78141000  0.57256000  1.0
  H  H11  1  0.79668000  0.71860000  0.07256000  1.0
  H  H12  1  0.48339000  0.02452000  0.64731000  1.0
  H  H13  1  0.01660000  0.47548000  0.14731000  1.0
  H  H14  1  0.51661000  0.97548000  0.35269000  1.0
  H  H15  1  0.98339000  0.52452000  0.85269000  1.0
  H  H16  1  0.73488000  0.17817000  0.64037000  1.0
  H  H17  1  0.76511000  0.32183000  0.14037000  1.0
  H  H18  1  0.26511000  0.82183000  0.35963000  1.0
  H  H19  1  0.23488000  0.67817000  0.85963000  1.0
  H  H20  1  0.21716000  0.93658000  0.57820000  1.0
  H  H21  1  0.28284000  0.56341000  0.07820000  1.0
  H  H22  1  0.78284000  0.06342000  0.42180000  1.0
  H  H23  1  0.71715000  0.43658000  0.92181000  1.0
  H  H24  1  0.06424000  0.13171000  0.46421000  1.0
  H  H25  1  0.43575000  0.36829000  0.96421000  1.0
  H  H26  1  0.93575000  0.86829000  0.53579000  1.0
  H  H27  1  0.56424000  0.63170000  0.03580000  1.0
  H  H28  1  0.11963000  0.84884000  0.70213000  1.0
  H  H29  1  0.38036000  0.65115000  0.20215000  1.0
  H  H30  1  0.88036000  0.15115000  0.29786000  1.0
  H  H31  1  0.61964000  0.34884000  0.79786000  1.0
  H  H32  1  0.99800000  0.97201000  0.83246000  1.0
  H  H33  1  0.50200000  0.52800000  0.33247000  1.0
  H  H34  1  0.00200000  0.02799000  0.16754000  1.0
  H  H35  1  0.49801000  0.47201000  0.66754000  1.0
  C  C36  1  0.53121000  0.28839000  0.47804000  1.0
  C  C37  1  0.96879000  0.21161000  0.97804000  1.0
  C  C38  1  0.46879000  0.71161000  0.52196000  1.0
  C  C39  1  0.03120000  0.78839000  0.02195000  1.0
  C  C40  1  0.38832000  0.20697000  0.47718000  1.0
  C  C41  1  0.11168000  0.29303000  0.97718000  1.0
  C  C42  1  0.61168000  0.79303000  0.52281000  1.0
  C  C43  1  0.88832000  0.70697000  0.02282000  1.0
  C  C44  1  0.36386000  0.10939000  0.53889000  1.0
  C  C45  1  0.13613000  0.39061000  0.03889000  1.0
  C  C46  1  0.63614000  0.89062000  0.46111000  1.0
  C  C47  1  0.86386000  0.60939000  0.96111000  1.0
  C  C48  1  0.49303000  0.09870000  0.59824000  1.0
  C  C49  1  0.00697000  0.40130000  0.09824000  1.0
  C  C50  1  0.50698000  0.90130000  0.40176000  1.0
  C  C51  1  0.99302000  0.59870000  0.90176000  1.0
  C  C52  1  0.63332000  0.18412000  0.59514000  1.0
  C  C53  1  0.86667000  0.31589000  0.09513000  1.0
  C  C54  1  0.36668000  0.81588000  0.40486000  1.0
  C  C55  1  0.13332000  0.68412000  0.90486000  1.0
  C  C56  1  0.21418000  0.02304000  0.54058000  1.0
  C  C57  1  0.28582000  0.47696000  0.04058000  1.0
  C  C58  1  0.78582000  0.97696000  0.45942000  1.0
  C  C59  1  0.71418000  0.52304000  0.95942000  1.0
  C  C60  1  0.07259000  0.04377000  0.49923000  1.0
  C  C61  1  0.42740000  0.45623000  0.99923000  1.0
  C  C62  1  0.92740000  0.95623000  0.50077000  1.0
  C  C63  1  0.57260000  0.54377000  0.00078000  1.0
  C  C64  1  0.91931000  0.63788000  0.62999000  1.0
  C  C65  1  0.58069000  0.86211000  0.12999000  1.0
  C  C66  1  0.08069000  0.36211000  0.37001000  1.0
  C  C67  1  0.41930000  0.13788000  0.87001000  1.0
  C  C68  1  0.89009000  0.72602000  0.70109000  1.0
  C  C69  1  0.60990000  0.77397000  0.20109000  1.0
  C  C70  1  0.10990000  0.27397000  0.29891000  1.0
  C  C71  1  0.39009000  0.22602000  0.79891000  1.0
  C  C72  1  0.99777000  0.82663000  0.72978000  1.0
  C  C73  1  0.50222000  0.67337000  0.22979000  1.0
  C  C74  1  0.00222000  0.17336000  0.27021000  1.0
  C  C75  1  0.49778000  0.32663000  0.77022000  1.0
  C  C76  1  0.93265000  0.89226000  0.79878000  1.0
  C  C77  1  0.56735000  0.60774000  0.29879000  1.0
  C  C78  1  0.06735000  0.10774000  0.20121000  1.0
  C  C79  1  0.43266000  0.39226000  0.70121000  1.0
  C  C80  1  0.77512000  0.84177000  0.82093000  1.0
  C  C81  1  0.72488000  0.65823000  0.32093000  1.0
  C  C82  1  0.22489000  0.15823000  0.17907000  1.0
  C  C83  1  0.27513000  0.34177000  0.67907000  1.0
  C  C84  1  0.66933000  0.88698000  0.88922000  1.0
  C  C85  1  0.83068000  0.61303000  0.38922000  1.0
  C  C86  1  0.33069000  0.11303000  0.11078000  1.0
  C  C87  1  0.16934000  0.38698000  0.61078000  1.0
  S  S88  1  0.70844000  0.71283000  0.75837000  1.0
  S  S89  1  0.79156000  0.78716000  0.25837000  1.0
  S  S90  1  0.29156000  0.28717000  0.24162000  1.0
  S  S91  1  0.20844000  0.21284000  0.74162000  1.0
  N  N92  1  0.65280000  0.27853000  0.53638000  1.0
  N  N93  1  0.84720000  0.22147000  0.03637000  1.0
  N  N94  1  0.34720000  0.72147000  0.46362000  1.0
  N  N95  1  0.15280000  0.77853000  0.96362000  1.0
  O  O96  1  0.82060000  0.53749000  0.62368000  1.0
  O  O97  1  0.67939000  0.96250000  0.12367000  1.0
  O  O98  1  0.17940000  0.46250000  0.37633000  1.0
  O  O99  1  0.32060000  0.03749000  0.87632000  1.0
  O  O100  1  0.04090000  0.67271000  0.58072000  1.0
  O  O101  1  0.45910000  0.82728000  0.08071000  1.0
  O  O102  1  0.95909000  0.32728000  0.41928000  1.0
  O  O103  1  0.54090000  0.17270000  0.91928000  1.0
  O  O104  1  0.52153000  0.83497000  0.89312000  1.0
  O  O105  1  0.97848000  0.66504000  0.39312000  1.0
  O  O106  1  0.47848000  0.16504000  0.10688000  1.0
  O  O107  1  0.02154000  0.33497000  0.60688000  1.0
  O  O108  1  0.73567000  0.97421000  0.93797000  1.0
  O  O109  1  0.76435000  0.52579000  0.43797000  1.0
  O  O110  1  0.26434000  0.02578000  0.06203000  1.0
  O  O111  1  0.23567000  0.47422000  0.56203000  1.0
