# generated using pymatgen
data_SnH14C12(NCl)2
_symmetry_space_group_name_H-M   'P 1'
_cell_length_a   6.37870000
_cell_length_b   10.11630000
_cell_length_c   10.53220000
_cell_angle_alpha   89.99960000
_cell_angle_beta   81.14240000
_cell_angle_gamma   89.99940000
_symmetry_Int_Tables_number   1
_chemical_formula_structural   SnH14C12(NCl)2
_chemical_formula_sum   'Sn2 H28 C24 N4 Cl4'
_cell_volume   671.52545979
_cell_formula_units_Z   2
loop_
 _symmetry_equiv_pos_site_id
 _symmetry_equiv_pos_as_xyz
  1  'x, y, z'
loop_
 _atom_site_type_symbol
 _atom_site_label
 _atom_site_symmetry_multiplicity
 _atom_site_fract_x
 _atom_site_fract_y
 _atom_site_fract_z
 _atom_site_occupancy
  Sn  Sn0  1  0.00005000  0.00000000  0.00002000  1.0
  Sn  Sn1  1  0.99995000  0.50000000  0.49997000  1.0
  H  H2  1  0.22144000  0.84069000  0.82237000  1.0
  H  H3  1  0.77857000  0.34069000  0.67763000  1.0
  H  H4  1  0.77860000  0.15930000  0.17762000  1.0
  H  H5  1  0.22140000  0.65930000  0.32237000  1.0
  H  H6  1  0.36207000  0.99434000  0.83130000  1.0
  H  H7  1  0.63794000  0.49433000  0.66870000  1.0
  H  H8  1  0.63800000  0.00565000  0.16867000  1.0
  H  H9  1  0.36200000  0.50565000  0.33133000  1.0
  H  H10  1  0.13887000  0.98631000  0.74566000  1.0
  H  H11  1  0.86116000  0.48631000  0.75433000  1.0
  H  H12  1  0.86115000  0.01370000  0.25435000  1.0
  H  H13  1  0.13887000  0.51369000  0.24563000  1.0
  H  H14  1  0.96292000  0.70657000  0.13237000  1.0
  H  H15  1  0.03708000  0.20657000  0.36763000  1.0
  H  H16  1  0.03712000  0.29342000  0.86764000  1.0
  H  H17  1  0.96288000  0.79341000  0.63236000  1.0
  H  H18  1  0.75244000  0.50036000  0.14614000  1.0
  H  H19  1  0.24756000  0.00035000  0.35386000  1.0
  H  H20  1  0.24758000  0.49965000  0.85387000  1.0
  H  H21  1  0.75243000  0.99964000  0.64614000  1.0
  H  H22  1  0.43140000  0.65941000  0.84480000  1.0
  H  H23  1  0.56859000  0.15941000  0.65519000  1.0
  H  H24  1  0.56863000  0.34061000  0.15521000  1.0
  H  H25  1  0.43137000  0.84061000  0.34480000  1.0
  H  H26  1  0.64800000  0.86045000  0.85081000  1.0
  H  H27  1  0.35198000  0.36045000  0.64920000  1.0
  H  H28  1  0.35204000  0.13955000  0.14921000  1.0
  H  H29  1  0.64795000  0.63956000  0.35080000  1.0
  C  C30  1  0.20768000  0.94846000  0.82737000  1.0
  C  C31  1  0.79234000  0.44846000  0.67262000  1.0
  C  C32  1  0.79238000  0.05154000  0.17262000  1.0
  C  C33  1  0.20762000  0.55153000  0.32737000  1.0
  C  C34  1  0.84104000  0.69151000  0.07158000  1.0
  C  C35  1  0.15895000  0.19150000  0.42842000  1.0
  C  C36  1  0.15900000  0.30849000  0.92843000  1.0
  C  C37  1  0.84101000  0.80849000  0.57158000  1.0
  C  C38  1  0.72265000  0.57589000  0.07729000  1.0
  C  C39  1  0.27736000  0.07589000  0.42272000  1.0
  C  C40  1  0.27738000  0.42412000  0.92272000  1.0
  C  C41  1  0.72262000  0.92411000  0.57729000  1.0
  C  C42  1  0.56695000  0.56011000  0.99736000  1.0
  C  C43  1  0.43305000  0.06011000  0.50265000  1.0
  C  C44  1  0.43308000  0.43990000  0.00266000  1.0
  C  C45  1  0.56692000  0.93990000  0.49735000  1.0
  C  C46  1  0.54445000  0.66397000  0.91227000  1.0
  C  C47  1  0.45553000  0.16397000  0.58774000  1.0
  C  C48  1  0.45557000  0.33604000  0.08774000  1.0
  C  C49  1  0.54442000  0.83604000  0.41226000  1.0
  C  C50  1  0.66784000  0.77689000  0.91306000  1.0
  C  C51  1  0.33215000  0.27689000  0.58694000  1.0
  C  C52  1  0.33221000  0.22311000  0.08694000  1.0
  C  C53  1  0.66779000  0.72311000  0.41306000  1.0
  N  N54  1  0.81354000  0.79166000  0.99159000  1.0
  N  N55  1  0.18646000  0.29167000  0.50841000  1.0
  N  N56  1  0.18651000  0.20834000  0.00842000  1.0
  N  N57  1  0.81348000  0.70834000  0.49158000  1.0
  Cl  Cl58  1  0.25465000  0.88383000  0.13630000  1.0
  Cl  Cl59  1  0.74534000  0.38382000  0.36370000  1.0
  Cl  Cl60  1  0.74542000  0.11617000  0.86371000  1.0
  Cl  Cl61  1  0.25458000  0.61616000  0.63628000  1.0
