# generated using pymatgen
data_Ag2H4C7SO6
_symmetry_space_group_name_H-M   'P 1'
_cell_length_a   8.22469000
_cell_length_b   10.46937555
_cell_length_c   11.52760000
_cell_angle_alpha   104.74893330
_cell_angle_beta   90.00650000
_cell_angle_gamma   113.10652863
_symmetry_Int_Tables_number   1
_chemical_formula_structural   Ag2H4C7SO6
_chemical_formula_sum   'Ag8 H16 C28 S4 O24'
_cell_volume   877.29863472
_cell_formula_units_Z   4
loop_
 _symmetry_equiv_pos_site_id
 _symmetry_equiv_pos_as_xyz
  1  'x, y, z'
loop_
 _atom_site_type_symbol
 _atom_site_label
 _atom_site_symmetry_multiplicity
 _atom_site_fract_x
 _atom_site_fract_y
 _atom_site_fract_z
 _atom_site_occupancy
  Ag  Ag0  1  0.34159000  0.96552000  0.09090000  1.0
  Ag  Ag1  1  0.37636000  0.03460000  0.40910000  1.0
  Ag  Ag2  1  0.65841000  0.03448000  0.90910000  1.0
  Ag  Ag3  1  0.62364000  0.96540000  0.59091000  1.0
  Ag  Ag4  1  0.92777000  0.91916000  0.87972000  1.0
  Ag  Ag5  1  0.00847000  0.08092000  0.62021000  1.0
  Ag  Ag6  1  0.07223000  0.08084000  0.12028000  1.0
  Ag  Ag7  1  0.99153000  0.91908000  0.37978000  1.0
  H  H8  1  0.52079000  0.75963000  0.05663000  1.0
  H  H9  1  0.76110000  0.24037000  0.44342000  1.0
  H  H10  1  0.47921000  0.24037000  0.94337000  1.0
  H  H11  1  0.23890000  0.75963000  0.55658000  1.0
  H  H12  1  0.34632000  0.51489000  0.04253000  1.0
  H  H13  1  0.83131000  0.48504000  0.45751000  1.0
  H  H14  1  0.65368000  0.48511000  0.95747000  1.0
  H  H15  1  0.16869000  0.51496000  0.54249000  1.0
  H  H16  1  0.90117000  0.29759000  0.76518000  1.0
  H  H17  1  0.60384000  0.70265000  0.73498000  1.0
  H  H18  1  0.09883000  0.70241000  0.23481000  1.0
  H  H19  1  0.39616000  0.29735000  0.26502000  1.0
  H  H20  1  0.98010000  0.52475000  0.70419000  1.0
  H  H21  1  0.45547000  0.47548000  0.79594000  1.0
  H  H22  1  0.01990000  0.47525000  0.29581000  1.0
  H  H23  1  0.54453000  0.52452000  0.20406000  1.0
  C  C24  1  0.20941000  0.64434000  0.83546000  1.0
  C  C25  1  0.56495000  0.35570000  0.66456000  1.0
  C  C26  1  0.79059000  0.35566000  0.16454000  1.0
  C  C27  1  0.43505000  0.64430000  0.33544000  1.0
  C  C28  1  0.31373000  0.64475000  0.93277000  1.0
  C  C29  1  0.66885000  0.35526000  0.56725000  1.0
  C  C30  1  0.68628000  0.35525000  0.06723000  1.0
  C  C31  1  0.33115000  0.64474000  0.43275000  1.0
  C  C32  1  0.26771000  0.51756000  0.96784000  1.0
  C  C33  1  0.75006000  0.48243000  0.53221000  1.0
  C  C34  1  0.73229000  0.48244000  0.03216000  1.0
  C  C35  1  0.24994000  0.51757000  0.46779000  1.0
  C  C36  1  0.12208000  0.39206000  0.90534000  1.0
  C  C37  1  0.73004000  0.60801000  0.59475000  1.0
  C  C38  1  0.87792000  0.60794000  0.09466000  1.0
  C  C39  1  0.26996000  0.39199000  0.40525000  1.0
  C  C40  1  0.01736000  0.39404000  0.81066000  1.0
  C  C41  1  0.62349000  0.60613000  0.68948000  1.0
  C  C42  1  0.98264000  0.60596000  0.18934000  1.0
  C  C43  1  0.37651000  0.39387000  0.31051000  1.0
  C  C44  1  0.06081000  0.52055000  0.77674000  1.0
  C  C45  1  0.54032000  0.47963000  0.72338000  1.0
  C  C46  1  0.93919000  0.47945000  0.22326000  1.0
  C  C47  1  0.45967000  0.52037000  0.27662000  1.0
  C  C48  1  0.07868000  0.25414000  0.93917000  1.0
  C  C49  1  0.82468000  0.74589000  0.56089000  1.0
  C  C50  1  0.92132000  0.74586000  0.06083000  1.0
  C  C51  1  0.17532000  0.25411000  0.43911000  1.0
  S  S52  1  0.26605000  0.80094000  0.78514000  1.0
  S  S53  1  0.46506000  0.19909000  0.71486000  1.0
  S  S54  1  0.73395000  0.19906000  0.21486000  1.0
  S  S55  1  0.53493000  0.80090000  0.28514000  1.0
  O  O56  1  0.14316000  0.75911000  0.67647000  1.0
  O  O57  1  0.38391000  0.24087000  0.82349000  1.0
  O  O58  1  0.85684000  0.24089000  0.32353000  1.0
  O  O59  1  0.61609000  0.75913000  0.17651000  1.0
  O  O60  1  0.24412000  0.91379000  0.88323000  1.0
  O  O61  1  0.33045000  0.08626000  0.61671000  1.0
  O  O62  1  0.75588000  0.08621000  0.11677000  1.0
  O  O63  1  0.66955000  0.91374000  0.38329000  1.0
  O  O64  1  0.45358000  0.84417000  0.75822000  1.0
  O  O65  1  0.60942000  0.15589000  0.74184000  1.0
  O  O66  1  0.54642000  0.15583000  0.24178000  1.0
  O  O67  1  0.39058000  0.84411000  0.25816000  1.0
  O  O68  1  0.45514000  0.76959000  0.98764000  1.0
  O  O69  1  0.68547000  0.23038000  0.51239000  1.0
  O  O70  1  0.54486000  0.23041000  0.01236000  1.0
  O  O71  1  0.31452000  0.76961000  0.48761000  1.0
  O  O72  1  0.97365000  0.13687000  0.86010000  1.0
  O  O73  1  0.83703000  0.86324000  0.63992000  1.0
  O  O74  1  0.02635000  0.86313000  0.13990000  1.0
  O  O75  1  0.16297000  0.13676000  0.36008000  1.0
  O  O76  1  0.14600000  0.26221000  0.04062000  1.0
  O  O77  1  0.88389000  0.73768000  0.45942000  1.0
  O  O78  1  0.85400000  0.73779000  0.95938000  1.0
  O  O79  1  0.11612000  0.26232000  0.54058000  1.0
