# generated using pymatgen
data_CdH4C6INO2
_symmetry_space_group_name_H-M   'P 1'
_cell_length_a   4.14782000
_cell_length_b   13.30590000
_cell_length_c   14.88080000
_cell_angle_alpha   89.99940000
_cell_angle_beta   96.67560000
_cell_angle_gamma   89.99980000
_symmetry_Int_Tables_number   1
_chemical_formula_structural   CdH4C6INO2
_chemical_formula_sum   'Cd4 H16 C24 I4 N4 O8'
_cell_volume   815.71040016
_cell_formula_units_Z   4
loop_
 _symmetry_equiv_pos_site_id
 _symmetry_equiv_pos_as_xyz
  1  'x, y, z'
loop_
 _atom_site_type_symbol
 _atom_site_label
 _atom_site_symmetry_multiplicity
 _atom_site_fract_x
 _atom_site_fract_y
 _atom_site_fract_z
 _atom_site_occupancy
  Cd  Cd0  1  0.86703000  0.92057000  0.74580000  1.0
  Cd  Cd1  1  0.63298000  0.42057000  0.75420000  1.0
  Cd  Cd2  1  0.13298000  0.07943000  0.25420000  1.0
  Cd  Cd3  1  0.36702000  0.57943000  0.24580000  1.0
  H  H4  1  0.08322000  0.79317000  0.29312000  1.0
  H  H5  1  0.41679000  0.29317000  0.20688000  1.0
  H  H6  1  0.91677000  0.20683000  0.70688000  1.0
  H  H7  1  0.58321000  0.70683000  0.79312000  1.0
  H  H8  1  0.99852000  0.89671000  0.42958000  1.0
  H  H9  1  0.50146000  0.39670000  0.07043000  1.0
  H  H10  1  0.00147000  0.10329000  0.57043000  1.0
  H  H11  1  0.49854000  0.60330000  0.92958000  1.0
  H  H12  1  0.60522000  0.68527000  0.59075000  1.0
  H  H13  1  0.89477000  0.18526000  0.90925000  1.0
  H  H14  1  0.39479000  0.31473000  0.40925000  1.0
  H  H15  1  0.10524000  0.81473000  0.09075000  1.0
  H  H16  1  0.66968000  0.59029000  0.44827000  1.0
  H  H17  1  0.83030000  0.09029000  0.05173000  1.0
  H  H18  1  0.33031000  0.40971000  0.55173000  1.0
  H  H19  1  0.16970000  0.90971000  0.94827000  1.0
  C  C20  1  0.19878000  0.77292000  0.36013000  1.0
  C  C21  1  0.30121000  0.27292000  0.13987000  1.0
  C  C22  1  0.80120000  0.22708000  0.63987000  1.0
  C  C23  1  0.69879000  0.72708000  0.86013000  1.0
  C  C24  1  0.15059000  0.82969000  0.43599000  1.0
  C  C25  1  0.34939000  0.32968000  0.06401000  1.0
  C  C26  1  0.84941000  0.17031000  0.56401000  1.0
  C  C27  1  0.65061000  0.67032000  0.93599000  1.0
  C  C28  1  0.29282000  0.79751000  0.52086000  1.0
  C  C29  1  0.20718000  0.29750000  0.97914000  1.0
  C  C30  1  0.70718000  0.20249000  0.47914000  1.0
  C  C31  1  0.79285000  0.70250000  0.02086000  1.0
  C  C32  1  0.48798000  0.71152000  0.52578000  1.0
  C  C33  1  0.01200000  0.21151000  0.97422000  1.0
  C  C34  1  0.51201000  0.28848000  0.47422000  1.0
  C  C35  1  0.98802000  0.78849000  0.02577000  1.0
  C  C36  1  0.52345000  0.65869000  0.44714000  1.0
  C  C37  1  0.97653000  0.15868000  0.05286000  1.0
  C  C38  1  0.47653000  0.34131000  0.55286000  1.0
  C  C39  1  0.02348000  0.84132000  0.94714000  1.0
  C  C40  1  0.21649000  0.84692000  0.60669000  1.0
  C  C41  1  0.28352000  0.34691000  0.89331000  1.0
  C  C42  1  0.78352000  0.15308000  0.39331000  1.0
  C  C43  1  0.71649000  0.65309000  0.10669000  1.0
  I  I44  1  0.40487000  0.05804000  0.80357000  1.0
  I  I45  1  0.09514000  0.55804000  0.69643000  1.0
  I  I46  1  0.59513000  0.94196000  0.19643000  1.0
  I  I47  1  0.90483000  0.44197000  0.30358000  1.0
  N  N48  1  0.37784000  0.68812000  0.36570000  1.0
  N  N49  1  0.12212000  0.18812000  0.13431000  1.0
  N  N50  1  0.62212000  0.31188000  0.63430000  1.0
  N  N51  1  0.87788000  0.81188000  0.86569000  1.0
  O  O52  1  0.97178000  0.90609000  0.60065000  1.0
  O  O53  1  0.52824000  0.40608000  0.89935000  1.0
  O  O54  1  0.02823000  0.09391000  0.39935000  1.0
  O  O55  1  0.47176000  0.59392000  0.10065000  1.0
  O  O56  1  0.37996000  0.82285000  0.68122000  1.0
  O  O57  1  0.12005000  0.32284000  0.81879000  1.0
  O  O58  1  0.62006000  0.17715000  0.31878000  1.0
  O  O59  1  0.87994000  0.67716000  0.18122000  1.0
