# generated using pymatgen
data_MnH18C14N2(O2F)4
_symmetry_space_group_name_H-M   'P 1'
_cell_length_a   5.16578000
_cell_length_b   10.36730000
_cell_length_c   16.96670000
_cell_angle_alpha   89.99980000
_cell_angle_beta   88.47440000
_cell_angle_gamma   89.99940000
_symmetry_Int_Tables_number   1
_chemical_formula_structural   MnH18C14N2(O2F)4
_chemical_formula_sum   'Mn2 H36 C28 N4 O16 F8'
_cell_volume   908.33276739
_cell_formula_units_Z   2
loop_
 _symmetry_equiv_pos_site_id
 _symmetry_equiv_pos_as_xyz
  1  'x, y, z'
loop_
 _atom_site_type_symbol
 _atom_site_label
 _atom_site_symmetry_multiplicity
 _atom_site_fract_x
 _atom_site_fract_y
 _atom_site_fract_z
 _atom_site_occupancy
  Mn  Mn0  1  0.00001000  0.00000000  1.00000000  1.0
  Mn  Mn1  1  0.50001000  0.50000000  0.50000000  1.0
  H  H2  1  0.91562000  0.22178000  0.12028000  1.0
  H  H3  1  0.58437000  0.72179000  0.37972000  1.0
  H  H4  1  0.08439000  0.77820000  0.87972000  1.0
  H  H5  1  0.41563000  0.27821000  0.62028000  1.0
  H  H6  1  0.76109000  0.29031000  0.30209000  1.0
  H  H7  1  0.73889000  0.79031000  0.19791000  1.0
  H  H8  1  0.23894000  0.70968000  0.69791000  1.0
  H  H9  1  0.26110000  0.20969000  0.80209000  1.0
  H  H10  1  0.51990000  0.37520000  0.25034000  1.0
  H  H11  1  0.98008000  0.87520000  0.24966000  1.0
  H  H12  1  0.48012000  0.62480000  0.74966000  1.0
  H  H13  1  0.01991000  0.12481000  0.75034000  1.0
  H  H14  1  0.84100000  0.36527000  0.20928000  1.0
  H  H15  1  0.65898000  0.86527000  0.29072000  1.0
  H  H16  1  0.15903000  0.63472000  0.79072000  1.0
  H  H17  1  0.34100000  0.13473000  0.70928000  1.0
  H  H18  1  0.40000000  0.02607000  0.21006000  1.0
  H  H19  1  0.09999000  0.52607000  0.28994000  1.0
  H  H20  1  0.59998000  0.97393000  0.78994000  1.0
  H  H21  1  0.90000000  0.47393000  0.71006000  1.0
  H  H22  1  0.22357000  0.17208000  0.22321000  1.0
  H  H23  1  0.27642000  0.67207000  0.27680000  1.0
  H  H24  1  0.77643000  0.82793000  0.77679000  1.0
  H  H25  1  0.72358000  0.32793000  0.72320000  1.0
  H  H26  1  0.42519000  0.11745000  0.30000000  1.0
  H  H27  1  0.07480000  0.61745000  0.20001000  1.0
  H  H28  1  0.57481000  0.88255000  0.70001000  1.0
  H  H29  1  0.92520000  0.38255000  0.79999000  1.0
  H  H30  1  0.22784000  0.82969000  0.08607000  1.0
  H  H31  1  0.27216000  0.32970000  0.41393000  1.0
  H  H32  1  0.77216000  0.17031000  0.91393000  1.0
  H  H33  1  0.72784000  0.67030000  0.58607000  1.0
  H  H34  1  0.43177000  0.95267000  0.08930000  1.0
  H  H35  1  0.06822000  0.45268000  0.41071000  1.0
  H  H36  1  0.56822000  0.04733000  0.91070000  1.0
  H  H37  1  0.93178000  0.54733000  0.58930000  1.0
  C  C38  1  0.13228000  0.28868000  0.97162000  1.0
  C  C39  1  0.36771000  0.78867000  0.52838000  1.0
  C  C40  1  0.86772000  0.71133000  0.02838000  1.0
  C  C41  1  0.63228000  0.21133000  0.47162000  1.0
  C  C42  1  0.31773000  0.39912000  0.98623000  1.0
  C  C43  1  0.18226000  0.89912000  0.51377000  1.0
  C  C44  1  0.68226000  0.60088000  0.01377000  1.0
  C  C45  1  0.81773000  0.10088000  0.48623000  1.0
  C  C46  1  0.37159000  0.44121000  0.06201000  1.0
  C  C47  1  0.12841000  0.94121000  0.43799000  1.0
  C  C48  1  0.62842000  0.55879000  0.93799000  1.0
  C  C49  1  0.87158000  0.05879000  0.56201000  1.0
  C  C50  1  0.54932000  0.53889000  0.07547000  1.0
  C  C51  1  0.95069000  0.03889000  0.42453000  1.0
  C  C52  1  0.45068000  0.46112000  0.92453000  1.0
  C  C53  1  0.04931000  0.96111000  0.57547000  1.0
  C  C54  1  0.75619000  0.15671000  0.13816000  1.0
  C  C55  1  0.74380000  0.65671000  0.36184000  1.0
  C  C56  1  0.24381000  0.84327000  0.86183000  1.0
  C  C57  1  0.25620000  0.34330000  0.63816000  1.0
  C  C58  1  0.69109000  0.31326000  0.24324000  1.0
  C  C59  1  0.80889000  0.81326000  0.25676000  1.0
  C  C60  1  0.30893000  0.68673000  0.75676000  1.0
  C  C61  1  0.19110000  0.18674000  0.74324000  1.0
  C  C62  1  0.40570000  0.12244000  0.23594000  1.0
  C  C63  1  0.09430000  0.62243000  0.26407000  1.0
  C  C64  1  0.59430000  0.87756000  0.76406000  1.0
  C  C65  1  0.90570000  0.37757000  0.73594000  1.0
  N  N66  1  0.62294000  0.19481000  0.20224000  1.0
  N  N67  1  0.87705000  0.69482000  0.29776000  1.0
  N  N68  1  0.37707000  0.80518000  0.79776000  1.0
  N  N69  1  0.12294000  0.30519000  0.70224000  1.0
  O  O70  1  0.18908000  0.18325000  0.00598000  1.0
  O  O71  1  0.31092000  0.68325000  0.49402000  1.0
  O  O72  1  0.81092000  0.81675000  0.99402000  1.0
  O  O73  1  0.68908000  0.31675000  0.50598000  1.0
  O  O74  1  0.94413000  0.30964000  0.92787000  1.0
  O  O75  1  0.55587000  0.80963000  0.57213000  1.0
  O  O76  1  0.05588000  0.69037000  0.07213000  1.0
  O  O77  1  0.44411000  0.19037000  0.42787000  1.0
  O  O78  1  0.71595000  0.05522000  0.09917000  1.0
  O  O79  1  0.78404000  0.55523000  0.40083000  1.0
  O  O80  1  0.28404000  0.94477000  0.90083000  1.0
  O  O81  1  0.21597000  0.44477000  0.59917000  1.0
  O  O82  1  0.24869000  0.92531000  0.09067000  1.0
  O  O83  1  0.25131000  0.42532000  0.40933000  1.0
  O  O84  1  0.75130000  0.07469000  0.90933000  1.0
  O  O85  1  0.74869000  0.57469000  0.59067000  1.0
  F  F86  1  0.23950000  0.39005000  0.12518000  1.0
  F  F87  1  0.26052000  0.89005000  0.37483000  1.0
  F  F88  1  0.76052000  0.60994000  0.87483000  1.0
  F  F89  1  0.73947000  0.10995000  0.62517000  1.0
  F  F90  1  0.58269000  0.57849000  0.15093000  1.0
  F  F91  1  0.91732000  0.07849000  0.34907000  1.0
  F  F92  1  0.41730000  0.42152000  0.84908000  1.0
  F  F93  1  0.08269000  0.92152000  0.65093000  1.0
