# generated using pymatgen
data_Zn4H16C21O13
_symmetry_space_group_name_H-M   'P 1'
_cell_length_a   10.82550000
_cell_length_b   10.88610000
_cell_length_c   10.90890000
_cell_angle_alpha   80.40480000
_cell_angle_beta   76.45560000
_cell_angle_gamma   88.48810000
_symmetry_Int_Tables_number   1
_chemical_formula_structural   Zn4H16C21O13
_chemical_formula_sum   'Zn4 H16 C21 O13'
_cell_volume   1232.24001792
_cell_formula_units_Z   1
loop_
 _symmetry_equiv_pos_site_id
 _symmetry_equiv_pos_as_xyz
  1  'x, y, z'
loop_
 _atom_site_type_symbol
 _atom_site_label
 _atom_site_symmetry_multiplicity
 _atom_site_fract_x
 _atom_site_fract_y
 _atom_site_fract_z
 _atom_site_occupancy
  Zn  Zn0  1  0.40432000  0.60969000  0.39236000  1.0
  Zn  Zn1  1  0.63463000  0.41679000  0.37228000  1.0
  Zn  Zn2  1  0.39874000  0.37939000  0.62232000  1.0
  Zn  Zn3  1  0.59202000  0.60204000  0.57824000  1.0
  H  H4  1  0.47085000  0.02293000  0.35541000  1.0
  H  H5  1  0.86766000  0.45611000  0.70967000  1.0
  H  H6  1  0.90126000  0.31174000  0.65900000  1.0
  H  H7  1  0.19534000  0.52151000  0.96703000  1.0
  H  H8  1  0.00114000  0.43154000  0.12372000  1.0
  H  H9  1  0.01892000  0.27072000  0.30834000  1.0
  H  H10  1  0.23310000  0.19857000  0.33650000  1.0
  H  H11  1  0.42740000  0.28953000  0.18083000  1.0
  H  H12  1  0.55786000  0.98263000  0.60972000  1.0
  H  H13  1  0.04686000  0.55444000  0.36826000  1.0
  H  H14  1  0.62312000  0.55204000  0.94690000  1.0
  H  H15  1  0.83577000  0.37295000  0.94547000  1.0
  H  H16  1  0.84594000  0.22407000  0.89823000  1.0
  H  H17  1  0.94497000  0.26221000  0.99544000  1.0
  H  H18  1  0.07382000  0.27542000  0.77363000  1.0
  H  H19  1  0.05822000  0.42533000  0.81422000  1.0
  C  C20  1  0.84539000  0.51112000  0.45834000  1.0
  C  C21  1  0.49996000  0.97402000  0.43960000  1.0
  C  C22  1  0.53496000  0.03473000  0.52351000  1.0
  C  C23  1  0.03025000  0.45998000  0.55755000  1.0
  C  C24  1  0.94630000  0.39270000  0.68086000  1.0
  C  C25  1  0.00447000  0.34859000  0.79565000  1.0
  C  C26  1  0.90227000  0.29957000  0.91521000  1.0
  C  C27  1  0.32468000  0.41313000  0.06441000  1.0
  C  C28  1  0.20368000  0.45070000  0.04797000  1.0
  C  C29  1  0.09467000  0.40008000  0.13579000  1.0
  C  C30  1  0.10471000  0.30950000  0.24000000  1.0
  C  C31  1  0.98313000  0.51143000  0.45729000  1.0
  C  C32  1  0.22456000  0.26987000  0.25596000  1.0
  C  C33  1  0.33378000  0.32139000  0.16888000  1.0
  C  C34  1  0.44117000  0.47175000  0.97664000  1.0
  C  C35  1  0.53645000  0.51785000  0.01693000  1.0
  C  C36  1  0.17151000  0.46946000  0.53736000  1.0
  C  C37  1  0.53484000  0.52349000  0.15234000  1.0
  C  C38  1  0.45972000  0.47792000  0.83485000  1.0
  C  C39  1  0.53416000  0.17264000  0.51223000  1.0
  C  C40  1  0.49450000  0.83587000  0.45973000  1.0
  O  O41  1  0.50802000  0.50026000  0.48957000  1.0
  O  O42  1  0.59065000  0.23660000  0.40595000  1.0
  O  O43  1  0.54666000  0.77730000  0.54563000  1.0
  O  O44  1  0.47583000  0.21368000  0.61300000  1.0
  O  O45  1  0.43806000  0.78749000  0.38836000  1.0
  O  O46  1  0.44431000  0.58182000  0.21385000  1.0
  O  O47  1  0.55105000  0.54673000  0.76336000  1.0
  O  O48  1  0.80896000  0.44103000  0.39022000  1.0
  O  O49  1  0.22793000  0.37829000  0.59034000  1.0
  O  O50  1  0.77686000  0.58328000  0.52602000  1.0
  O  O51  1  0.22478000  0.56888000  0.46771000  1.0
  O  O52  1  0.62837000  0.47152000  0.19284000  1.0
  O  O53  1  0.38333000  0.41382000  0.79680000  1.0
