# generated using pymatgen
data_NiH7C7NO6
_symmetry_space_group_name_H-M   'P 1'
_cell_length_a   6.83439000
_cell_length_b   7.57283000
_cell_length_c   9.38918200
_cell_angle_alpha   99.20267883
_cell_angle_beta   105.62672243
_cell_angle_gamma   104.35120000
_symmetry_Int_Tables_number   1
_chemical_formula_structural   NiH7C7NO6
_chemical_formula_sum   'Ni2 H14 C14 N2 O12'
_cell_volume   439.79111854
_cell_formula_units_Z   2
loop_
 _symmetry_equiv_pos_site_id
 _symmetry_equiv_pos_as_xyz
  1  'x, y, z'
loop_
 _atom_site_type_symbol
 _atom_site_label
 _atom_site_symmetry_multiplicity
 _atom_site_fract_x
 _atom_site_fract_y
 _atom_site_fract_z
 _atom_site_occupancy
  Ni  Ni0  1  0.04139000  0.38388000  0.71641000  1.0
  Ni  Ni1  1  0.95861000  0.61612000  0.28359000  1.0
  H  H2  1  0.09479000  0.87466000  0.93615000  1.0
  H  H3  1  0.90521000  0.12534000  0.06384000  1.0
  H  H4  1  0.90452000  0.80845000  0.00242000  1.0
  H  H5  1  0.09548000  0.19155000  0.99758000  1.0
  H  H6  1  0.89739000  0.62348000  0.79766000  1.0
  H  H7  1  0.10260000  0.37652000  0.20234000  1.0
  H  H8  1  0.91542000  0.61685000  0.63048000  1.0
  H  H9  1  0.08457000  0.38314000  0.36952000  1.0
  H  H10  1  0.67441000  0.36370000  0.81247000  1.0
  H  H11  1  0.32560000  0.63630000  0.18754000  1.0
  H  H12  1  0.60499000  0.71164000  0.58882000  1.0
  H  H13  1  0.39501000  0.28837000  0.41117000  1.0
  H  H14  1  0.91207000  0.97776000  0.60161000  1.0
  H  H15  1  0.08793000  0.02224000  0.39840000  1.0
  C  C16  1  0.65637000  0.21807000  0.76510000  1.0
  C  C17  1  0.34363000  0.78194000  0.23491000  1.0
  C  C18  1  0.47453000  0.07792000  0.75539000  1.0
  C  C19  1  0.52546000  0.92207000  0.24460000  1.0
  C  C20  1  0.30151000  0.13987000  0.80090000  1.0
  C  C21  1  0.69850000  0.86013000  0.19910000  1.0
  C  C22  1  0.45631000  0.89035000  0.69548000  1.0
  C  C23  1  0.54369000  0.10965000  0.30450000  1.0
  C  C24  1  0.25565000  0.73613000  0.67034000  1.0
  C  C25  1  0.74435000  0.26386000  0.32966000  1.0
  C  C26  1  0.61744000  0.85443000  0.64170000  1.0
  C  C27  1  0.38254000  0.14556000  0.35829000  1.0
  C  C28  1  0.78980000  0.00245000  0.64864000  1.0
  C  C29  1  0.21022000  0.99756000  0.35137000  1.0
  N  N30  1  0.81142000  0.18225000  0.71232000  1.0
  N  N31  1  0.18857000  0.81776000  0.28768000  1.0
  O  O32  1  0.23850000  0.25055000  0.72117000  1.0
  O  O33  1  0.76151000  0.74946000  0.27884000  1.0
  O  O34  1  0.23857000  0.08706000  0.90554000  1.0
  O  O35  1  0.76143000  0.91294000  0.09446000  1.0
  O  O36  1  0.08482000  0.75924000  0.59358000  1.0
  O  O37  1  0.91518000  0.24076000  0.40641000  1.0
  O  O38  1  0.27440000  0.59455000  0.72588000  1.0
  O  O39  1  0.72561000  0.40547000  0.27413000  1.0
  O  O40  1  0.99469000  0.76252000  0.94695000  1.0
  O  O41  1  0.00531000  0.23747000  0.05305000  1.0
  O  O42  1  0.85233000  0.53009000  0.69099000  1.0
  O  O43  1  0.14766000  0.46991000  0.30902000  1.0
