# generated using pymatgen
data_CoH98C86(N2O)6
_symmetry_space_group_name_H-M   'P 1'
_cell_length_a   9.14780000
_cell_length_b   13.03880000
_cell_length_c   18.88360000
_cell_angle_alpha   97.38990000
_cell_angle_beta   93.27540000
_cell_angle_gamma   97.94990000
_symmetry_Int_Tables_number   1
_chemical_formula_structural   CoH98C86(N2O)6
_chemical_formula_sum   'Co1 H98 C86 N12 O6'
_cell_volume   2205.74502191
_cell_formula_units_Z   1
loop_
 _symmetry_equiv_pos_site_id
 _symmetry_equiv_pos_as_xyz
  1  'x, y, z'
loop_
 _atom_site_type_symbol
 _atom_site_label
 _atom_site_symmetry_multiplicity
 _atom_site_fract_x
 _atom_site_fract_y
 _atom_site_fract_z
 _atom_site_occupancy
  Co  Co0  1  0.50000000  0.00000000  0.50000000  1.0
  H  H1  1  0.76210000  0.90046000  0.45710000  1.0
  H  H2  1  0.23792000  0.09955000  0.54290000  1.0
  H  H3  1  0.99867000  0.87755000  0.51957000  1.0
  H  H4  1  0.00135000  0.12247000  0.48043000  1.0
  H  H5  1  0.05097000  0.94615000  0.65148000  1.0
  H  H6  1  0.94902000  0.05386000  0.34852000  1.0
  H  H7  1  0.62964000  0.05754000  0.64247000  1.0
  H  H8  1  0.37035000  0.94246000  0.35753000  1.0
  H  H9  1  0.63947000  0.95458000  0.74833000  1.0
  H  H10  1  0.36053000  0.04541000  0.25167000  1.0
  H  H11  1  0.07264000  0.12653000  0.73964000  1.0
  H  H12  1  0.92735000  0.87347000  0.26036000  1.0
  H  H13  1  0.60163000  0.04510000  0.93434000  1.0
  H  H14  1  0.39837000  0.95489000  0.06566000  1.0
  H  H15  1  0.78272000  0.92973000  0.97063000  1.0
  H  H16  1  0.21727000  0.07027000  0.02937000  1.0
  H  H17  1  0.70477000  0.83169000  0.89890000  1.0
  H  H18  1  0.29522000  0.16830000  0.10110000  1.0
  H  H19  1  0.59631000  0.86882000  0.97052000  1.0
  H  H20  1  0.40368000  0.13118000  0.02948000  1.0
  H  H21  1  0.39577000  0.91268000  0.88635000  1.0
  H  H22  1  0.60422000  0.08731000  0.11365000  1.0
  H  H23  1  0.49395000  0.86340000  0.81476000  1.0
  H  H24  1  0.50604000  0.13659000  0.18524000  1.0
  H  H25  1  0.43995000  0.98914000  0.81727000  1.0
  H  H26  1  0.56004000  0.01085000  0.18272000  1.0
  H  H27  1  0.11335000  0.21447000  0.93900000  1.0
  H  H28  1  0.88665000  0.78553000  0.06100000  1.0
  H  H29  1  0.25550000  0.07301000  0.89651000  1.0
  H  H30  1  0.74450000  0.92699000  0.10349000  1.0
  H  H31  1  0.36601000  0.19720000  0.89961000  1.0
  H  H32  1  0.63399000  0.80279000  0.10039000  1.0
  H  H33  1  0.28586000  0.12659000  0.81611000  1.0
  H  H34  1  0.71413000  0.87340000  0.18389000  1.0
  H  H35  1  0.05253000  0.34515000  0.85879000  1.0
  H  H36  1  0.94747000  0.65484000  0.14121000  1.0
  H  H37  1  0.17319000  0.29626000  0.79638000  1.0
  H  H38  1  0.82681000  0.70374000  0.20363000  1.0
  H  H39  1  0.24605000  0.35707000  0.88309000  1.0
  H  H40  1  0.75395000  0.64293000  0.11691000  1.0
  H  H41  1  0.73654000  0.24602000  0.90469000  1.0
  H  H42  1  0.26347000  0.75398000  0.09531000  1.0
  H  H43  1  0.79862000  0.34348000  0.98070000  1.0
  H  H44  1  0.20139000  0.65651000  0.01930000  1.0
  H  H45  1  0.63533000  0.25675000  0.98340000  1.0
  H  H46  1  0.36468000  0.74326000  0.01659000  1.0
  H  H47  1  0.97756000  0.06924000  0.07653000  1.0
  H  H48  1  0.02243000  0.93076000  0.92347000  1.0
  H  H49  1  0.00022000  0.08874000  0.21101000  1.0
  H  H50  1  0.99976000  0.91124000  0.78899000  1.0
  H  H51  1  0.88197000  0.23065000  0.27965000  1.0
  H  H52  1  0.11803000  0.76935000  0.72035000  1.0
  H  H53  1  0.62224000  0.50347000  0.20779000  1.0
  H  H54  1  0.37776000  0.49653000  0.79221000  1.0
  H  H55  1  0.58731000  0.39863000  0.13426000  1.0
  H  H56  1  0.41270000  0.60137000  0.86574000  1.0
  H  H57  1  0.75846000  0.47976000  0.14530000  1.0
  H  H58  1  0.24155000  0.52024000  0.85470000  1.0
  H  H59  1  0.72830000  0.69347000  0.42400000  1.0
  H  H60  1  0.27170000  0.30654000  0.57600000  1.0
  H  H61  1  0.32514000  0.47572000  0.39784000  1.0
  H  H62  1  0.67486000  0.52427000  0.60216000  1.0
  H  H63  1  0.90885000  0.55142000  0.28724000  1.0
  H  H64  1  0.09115000  0.44858000  0.71276000  1.0
  H  H65  1  0.95759000  0.42110000  0.36738000  1.0
  H  H66  1  0.04243000  0.57891000  0.63262000  1.0
  H  H67  1  0.99048000  0.52220000  0.44230000  1.0
  H  H68  1  0.00953000  0.47780000  0.55770000  1.0
  H  H69  1  0.11161000  0.52204000  0.37193000  1.0
  H  H70  1  0.88839000  0.47796000  0.62807000  1.0
  H  H71  1  0.07842000  0.70153000  0.34748000  1.0
  H  H72  1  0.92158000  0.29847000  0.65252000  1.0
  H  H73  1  0.97257000  0.71232000  0.42290000  1.0
  H  H74  1  0.02743000  0.28768000  0.57710000  1.0
  H  H75  1  0.89939000  0.73933000  0.33918000  1.0
  H  H76  1  0.10061000  0.26067000  0.66082000  1.0
  H  H77  1  0.49700000  0.26608000  0.29388000  1.0
  H  H78  1  0.50300000  0.73393000  0.70612000  1.0
  H  H79  1  0.26913000  0.18929000  0.34219000  1.0
  H  H80  1  0.73088000  0.81071000  0.65781000  1.0
  H  H81  1  0.24334000  0.31188000  0.38764000  1.0
  H  H82  1  0.75666000  0.68812000  0.61235000  1.0
  H  H83  1  0.39859000  0.25318000  0.41314000  1.0
  H  H84  1  0.60142000  0.74681000  0.58685000  1.0
  H  H85  1  0.37706000  0.36593000  0.20650000  1.0
  H  H86  1  0.62294000  0.63408000  0.79350000  1.0
  H  H87  1  0.23161000  0.37940000  0.26383000  1.0
  H  H88  1  0.76839000  0.62061000  0.73617000  1.0
  H  H89  1  0.25635000  0.25328000  0.22255000  1.0
  H  H90  1  0.74365000  0.74673000  0.77744000  1.0
  H  H91  1  0.29968000  0.55823000  0.50875000  1.0
  H  H92  1  0.70031000  0.44178000  0.49124000  1.0
  H  H93  1  0.18455000  0.69686000  0.58038000  1.0
  H  H94  1  0.81544000  0.30315000  0.41962000  1.0
  H  H95  1  0.27721000  0.88411000  0.57424000  1.0
  H  H96  1  0.72280000  0.11590000  0.42576000  1.0
  H  H97  1  0.56244000  0.80527000  0.42008000  1.0
  H  H98  1  0.43757000  0.19473000  0.57992000  1.0
  C  C99  1  0.78752000  0.93026000  0.51367000  1.0
  C  C100  1  0.21248000  0.06976000  0.48633000  1.0
  C  C101  1  0.92006000  0.91805000  0.54936000  1.0
  C  C102  1  0.07995000  0.08197000  0.45064000  1.0
  C  C103  1  0.94926000  0.95632000  0.62180000  1.0
  C  C104  1  0.05075000  0.04369000  0.37821000  1.0
  C  C105  1  0.84245000  0.00593000  0.65754000  1.0
  C  C106  1  0.15755000  0.99407000  0.34246000  1.0
  C  C107  1  0.71465000  0.01825000  0.61743000  1.0
  C  C108  1  0.28535000  0.98175000  0.38257000  1.0
  C  C109  1  0.85437000  0.03884000  0.73564000  1.0
  C  C110  1  0.14562000  0.96116000  0.26436000  1.0
  C  C111  1  0.73771000  0.00360000  0.77594000  1.0
  C  C112  1  0.26229000  0.99639000  0.22406000  1.0
  C  C113  1  0.74625000  0.02714000  0.85039000  1.0
  C  C114  1  0.25374000  0.97285000  0.14961000  1.0
  C  C115  1  0.87414000  0.09312000  0.88462000  1.0
  C  C116  1  0.12585000  0.90687000  0.11539000  1.0
  C  C117  1  0.99199000  0.13004000  0.84495000  1.0
  C  C118  1  0.00800000  0.86996000  0.15506000  1.0
  C  C119  1  0.98105000  0.10082000  0.77081000  1.0
  C  C120  1  0.01894000  0.89918000  0.22919000  1.0
  C  C121  1  0.62600000  0.98116000  0.89452000  1.0
  C  C122  1  0.37400000  0.01884000  0.10548000  1.0
  C  C123  1  0.68143000  0.89831000  0.93632000  1.0
  C  C124  1  0.31856000  0.10169000  0.06368000  1.0
  C  C125  1  0.48138000  0.93473000  0.85045000  1.0
  C  C126  1  0.51861000  0.06526000  0.14955000  1.0
  C  C127  1  0.12922000  0.19992000  0.88149000  1.0
  C  C128  1  0.87077000  0.80007000  0.11851000  1.0
  C  C129  1  0.26721000  0.14602000  0.87289000  1.0
  C  C130  1  0.73279000  0.85397000  0.12711000  1.0
  C  C131  1  0.15094000  0.30577000  0.85329000  1.0
  C  C132  1  0.84906000  0.69423000  0.14672000  1.0
  C  C133  1  0.83366000  0.18800000  0.99530000  1.0
  C  C134  1  0.16634000  0.81199000  0.00470000  1.0
  C  C135  1  0.74616000  0.26244000  0.96327000  1.0
  C  C136  1  0.25384000  0.73756000  0.03673000  1.0
  C  C137  1  0.85585000  0.19946000  0.07486000  1.0
  C  C138  1  0.14415000  0.80054000  0.92514000  1.0
  C  C139  1  0.93163000  0.13057000  0.10883000  1.0
  C  C140  1  0.06836000  0.86942000  0.89117000  1.0
  C  C141  1  0.94367000  0.14201000  0.18333000  1.0
  C  C142  1  0.05633000  0.85799000  0.81667000  1.0
  C  C143  1  0.87931000  0.22046000  0.22146000  1.0
  C  C144  1  0.12069000  0.77954000  0.77854000  1.0
  C  C145  1  0.80665000  0.28652000  0.18332000  1.0
  C  C146  1  0.19336000  0.71349000  0.81669000  1.0
  C  C147  1  0.73244000  0.37060000  0.22055000  1.0
  C  C148  1  0.26757000  0.62941000  0.77945000  1.0
  C  C149  1  0.67064000  0.44310000  0.17507000  1.0
  C  C150  1  0.32937000  0.55690000  0.82493000  1.0
  C  C151  1  0.65554000  0.44941000  0.32910000  1.0
  C  C152  1  0.34446000  0.55059000  0.67090000  1.0
  C  C153  1  0.73825000  0.54725000  0.35918000  1.0
  C  C154  1  0.26175000  0.45275000  0.64082000  1.0
  C  C155  1  0.66674000  0.61764000  0.40153000  1.0
  C  C156  1  0.33326000  0.38236000  0.59847000  1.0
  C  C157  1  0.51758000  0.59382000  0.41569000  1.0
  C  C158  1  0.48242000  0.40618000  0.58430000  1.0
  C  C159  1  0.44097000  0.49532000  0.38741000  1.0
  C  C160  1  0.55902000  0.50468000  0.61258000  1.0
  C  C161  1  0.50659000  0.42237000  0.34425000  1.0
  C  C162  1  0.49341000  0.57763000  0.65575000  1.0
  C  C163  1  0.90072000  0.57250000  0.34526000  1.0
  C  C164  1  0.09928000  0.42750000  0.65474000  1.0
  C  C165  1  0.99537000  0.50483000  0.38397000  1.0
  C  C166  1  0.00464000  0.49517000  0.61603000  1.0
  C  C167  1  0.96535000  0.68809000  0.36461000  1.0
  C  C168  1  0.03465000  0.31191000  0.63539000  1.0
  C  C169  1  0.41751000  0.31798000  0.31239000  1.0
  C  C170  1  0.58250000  0.68202000  0.68761000  1.0
  C  C171  1  0.32753000  0.26554000  0.36723000  1.0
  C  C172  1  0.67248000  0.73446000  0.63277000  1.0
  C  C173  1  0.31527000  0.32988000  0.24734000  1.0
  C  C174  1  0.68473000  0.67013000  0.75266000  1.0
  C  C175  1  0.44274000  0.67037000  0.45873000  1.0
  C  C176  1  0.55725000  0.32964000  0.54126000  1.0
  C  C177  1  0.33194000  0.64045000  0.50360000  1.0
  C  C178  1  0.66805000  0.35956000  0.49640000  1.0
  C  C179  1  0.26809000  0.71719000  0.54374000  1.0
  C  C180  1  0.73190000  0.28282000  0.45626000  1.0
  C  C181  1  0.31764000  0.82192000  0.54050000  1.0
  C  C182  1  0.68236000  0.17809000  0.45949000  1.0
  C  C183  1  0.48253000  0.77780000  0.45658000  1.0
  C  C184  1  0.51747000  0.22221000  0.54341000  1.0
  N  N185  1  0.68605000  0.98069000  0.54737000  1.0
  N  N186  1  0.31395000  0.01932000  0.45263000  1.0
  N  N187  1  0.89014000  0.11451000  0.95951000  1.0
  N  N188  1  0.10985000  0.88548000  0.04049000  1.0
  N  N189  1  0.79619000  0.27675000  0.11139000  1.0
  N  N190  1  0.20382000  0.72325000  0.88861000  1.0
  N  N191  1  0.72493000  0.37495000  0.28865000  1.0
  N  N192  1  0.27508000  0.62505000  0.71135000  1.0
  N  N193  1  0.42468000  0.85212000  0.49779000  1.0
  N  N194  1  0.57532000  0.14788000  0.50221000  1.0
  N  N195  1  0.31795000  0.05355000  0.66183000  1.0
  N  N196  1  0.68205000  0.94645000  0.33817000  1.0
  O  O197  1  0.41322000  0.02861000  0.61748000  1.0
  O  O198  1  0.58678000  0.97140000  0.38252000  1.0
  O  O199  1  0.27524000  0.99110000  0.70442000  1.0
  O  O200  1  0.72476000  0.00890000  0.29557000  1.0
  O  O201  1  0.26899000  0.13954000  0.66078000  1.0
  O  O202  1  0.73101000  0.86046000  0.33922000  1.0
