# generated using pymatgen
data_Zn2H16C25N8O3F
_symmetry_space_group_name_H-M   'P 1'
_cell_length_a   15.16700000
_cell_length_b   15.18120000
_cell_length_c   22.80680000
_cell_angle_alpha   90.00400000
_cell_angle_beta   90.00020000
_cell_angle_gamma   82.27930000
_symmetry_Int_Tables_number   1
_chemical_formula_structural   Zn2H16C25N8O3F
_chemical_formula_sum   'Zn8 H64 C100 N32 O12 F4'
_cell_volume   5203.73522099
_cell_formula_units_Z   4
loop_
 _symmetry_equiv_pos_site_id
 _symmetry_equiv_pos_as_xyz
  1  'x, y, z'
loop_
 _atom_site_type_symbol
 _atom_site_label
 _atom_site_symmetry_multiplicity
 _atom_site_fract_x
 _atom_site_fract_y
 _atom_site_fract_z
 _atom_site_occupancy
  Zn  Zn0  1  0.56652000  0.53244000  0.41932000  1.0
  Zn  Zn1  1  0.41288000  0.40063000  0.42286000  1.0
  Zn  Zn2  1  0.08714000  0.09932000  0.92297000  1.0
  Zn  Zn3  1  0.93348000  0.96760000  0.91932000  1.0
  Zn  Zn4  1  0.41262000  0.40050000  0.57187000  1.0
  Zn  Zn5  1  0.55231000  0.54767000  0.56312000  1.0
  Zn  Zn6  1  0.94768000  0.95230000  0.06308000  1.0
  Zn  Zn7  1  0.08743000  0.09942000  0.07194000  1.0
  H  H8  1  0.52932000  0.02400000  0.59394000  1.0
  H  H9  1  0.43747000  0.86252000  0.62415000  1.0
  H  H10  1  0.06261000  0.63757000  0.12420000  1.0
  H  H11  1  0.97103000  0.47585000  0.09413000  1.0
  H  H12  1  0.42368000  0.02622000  0.62953000  1.0
  H  H13  1  0.54235000  0.85792000  0.58788000  1.0
  H  H14  1  0.95772000  0.64191000  0.08797000  1.0
  H  H15  1  0.07672000  0.47384000  0.12964000  1.0
  H  H16  1  0.33648000  0.80379000  0.65996000  1.0
  H  H17  1  0.66394000  0.16253000  0.70198000  1.0
  H  H18  1  0.83591000  0.33762000  0.20173000  1.0
  H  H19  1  0.16347000  0.69628000  0.16002000  1.0
  H  H20  1  0.69844000  0.13192000  0.33168000  1.0
  H  H21  1  0.39803000  0.76536000  0.29679000  1.0
  H  H22  1  0.10202000  0.73473000  0.79681000  1.0
  H  H23  1  0.80164000  0.36825000  0.83179000  1.0
  H  H24  1  0.20398000  0.61216000  0.75370000  1.0
  H  H25  1  0.73096000  0.42454000  0.73923000  1.0
  H  H26  1  0.76911000  0.07558000  0.23912000  1.0
  H  H27  1  0.29603000  0.88792000  0.25373000  1.0
  H  H28  1  0.07750000  0.51813000  0.40263000  1.0
  H  H29  1  0.91419000  0.53740000  0.40567000  1.0
  H  H30  1  0.58568000  0.96305000  0.90573000  1.0
  H  H31  1  0.42238000  0.98211000  0.90265000  1.0
  H  H32  1  0.27670000  0.50656000  0.67298000  1.0
  H  H33  1  0.71794000  0.44612000  0.62997000  1.0
  H  H34  1  0.78202000  0.05391000  0.12984000  1.0
  H  H35  1  0.22319000  0.99353000  0.17311000  1.0
  H  H36  1  0.25006000  0.56685000  0.40094000  1.0
  H  H37  1  0.76836000  0.59124000  0.39735000  1.0
  H  H38  1  0.73157000  0.90903000  0.89722000  1.0
  H  H39  1  0.24981000  0.93310000  0.90093000  1.0
  H  H40  1  0.41792000  0.72270000  0.57408000  1.0
  H  H41  1  0.40264000  0.18127000  0.58609000  1.0
  H  H42  1  0.09760000  0.31857000  0.08623000  1.0
  H  H43  1  0.08210000  0.77730000  0.07406000  1.0
  H  H44  1  0.45139000  0.72041000  0.38591000  1.0
  H  H45  1  0.36514000  0.20321000  0.39854000  1.0
  H  H46  1  0.13502000  0.29671000  0.89867000  1.0
  H  H47  1  0.04842000  0.77949000  0.88591000  1.0
  H  H48  1  0.47049000  0.69008000  0.66511000  1.0
  H  H49  1  0.53335000  0.25340000  0.64567000  1.0
  H  H50  1  0.96656000  0.24669000  0.14549000  1.0
  H  H51  1  0.02954000  0.80990000  0.16508000  1.0
  H  H52  1  0.29599000  0.49311000  0.31117000  1.0
  H  H53  1  0.74542000  0.40250000  0.41812000  1.0
  H  H54  1  0.75461000  0.09763000  0.91819000  1.0
  H  H55  1  0.20399000  0.00702000  0.81117000  1.0
  H  H56  1  0.34528000  0.88523000  0.39518000  1.0
  H  H57  1  0.33193000  0.04681000  0.40056000  1.0
  H  H58  1  0.16816000  0.45307000  0.90064000  1.0
  H  H59  1  0.15471000  0.61463000  0.89521000  1.0
  H  H60  1  0.52332000  0.67515000  0.26300000  1.0
  H  H61  1  0.56735000  0.21020000  0.32041000  1.0
  H  H62  1  0.93270000  0.29000000  0.82060000  1.0
  H  H63  1  0.97669000  0.82491000  0.76300000  1.0
  H  H64  1  0.72395000  0.42638000  0.32647000  1.0
  H  H65  1  0.31316000  0.51854000  0.21250000  1.0
  H  H66  1  0.18679000  0.98154000  0.71255000  1.0
  H  H67  1  0.77596000  0.07379000  0.82667000  1.0
  H  H68  1  0.85821000  0.66122000  0.59400000  1.0
  H  H69  1  0.04737000  0.67641000  0.60862000  1.0
  H  H70  1  0.45255000  0.82298000  0.10835000  1.0
  H  H71  1  0.64178000  0.83843000  0.09383000  1.0
  C  C72  1  0.48064000  0.58131000  0.30549000  1.0
  C  C73  1  0.58099000  0.29599000  0.37874000  1.0
  C  C74  1  0.91906000  0.20415000  0.87888000  1.0
  C  C75  1  0.01940000  0.91872000  0.80553000  1.0
  C  C76  1  0.34593000  0.62781000  0.68131000  1.0
  C  C77  1  0.64700000  0.33273000  0.65984000  1.0
  C  C78  1  0.85290000  0.16738000  0.15966000  1.0
  C  C79  1  0.15402000  0.87224000  0.18136000  1.0
  C  C80  1  0.18932000  0.54893000  0.48947000  1.0
  C  C81  1  0.80654000  0.59995000  0.49241000  1.0
  C  C82  1  0.69339000  0.90018000  0.99229000  1.0
  C  C83  1  0.31059000  0.95084000  0.98947000  1.0
  C  C84  1  0.42125000  0.76321000  0.47940000  1.0
  C  C85  1  0.38339000  0.15018000  0.49069000  1.0
  C  C86  1  0.11683000  0.34972000  0.99083000  1.0
  C  C87  1  0.07869000  0.73671000  0.97940000  1.0
  C  C88  1  0.42742000  0.90603000  0.53054000  1.0
  C  C89  1  0.42043000  0.99817000  0.53356000  1.0
  C  C90  1  0.07978000  0.50177000  0.03367000  1.0
  C  C91  1  0.07269000  0.59392000  0.03061000  1.0
  C  C92  1  0.40270000  0.85992000  0.48146000  1.0
  C  C93  1  0.38709000  0.05401000  0.48772000  1.0
  C  C94  1  0.11312000  0.44589000  0.98784000  1.0
  C  C95  1  0.09732000  0.64001000  0.98150000  1.0
  C  C96  1  0.36766000  0.91550000  0.43498000  1.0
  C  C97  1  0.36006000  0.00826000  0.43813000  1.0
  C  C98  1  0.14007000  0.49162000  0.93822000  1.0
  C  C99  1  0.13238000  0.58439000  0.93504000  1.0
  C  C100  1  0.46546000  0.99721000  0.59315000  1.0
  C  C101  1  0.47387000  0.89262000  0.58949000  1.0
  C  C102  1  0.02625000  0.60734000  0.08957000  1.0
  C  C103  1  0.03483000  0.50275000  0.09329000  1.0
  C  C104  1  0.28654000  0.78728000  0.69090000  1.0
  C  C105  1  0.69295000  0.20908000  0.73009000  1.0
  C  C106  1  0.80694000  0.29108000  0.22989000  1.0
  C  C107  1  0.21341000  0.71280000  0.19095000  1.0
  C  C108  1  0.76621000  0.32331000  0.28180000  1.0
  C  C109  1  0.27247000  0.64344000  0.21409000  1.0
  C  C110  1  0.22748000  0.85665000  0.71405000  1.0
  C  C111  1  0.73374000  0.17686000  0.78199000  1.0
  C  C112  1  0.72443000  0.26716000  0.31947000  1.0
  C  C113  1  0.33977000  0.66035000  0.25369000  1.0
  C  C114  1  0.16023000  0.83972000  0.75368000  1.0
  C  C115  1  0.77560000  0.23300000  0.81962000  1.0
  C  C116  1  0.33446000  0.54031000  0.66635000  1.0
  C  C117  1  0.66399000  0.40610000  0.62623000  1.0
  C  C118  1  0.83595000  0.09395000  0.12610000  1.0
  C  C119  1  0.16545000  0.95977000  0.16646000  1.0
  C  C120  1  0.72627000  0.17790000  0.30225000  1.0
  C  C121  1  0.34772000  0.74999000  0.26553000  1.0
  C  C122  1  0.15229000  0.75009000  0.76553000  1.0
  C  C123  1  0.77377000  0.32226000  0.80239000  1.0
  C  C124  1  0.21069000  0.68053000  0.74198000  1.0
  C  C125  1  0.73347000  0.35443000  0.75035000  1.0
  C  C126  1  0.76654000  0.14570000  0.25022000  1.0
  C  C127  1  0.28930000  0.81955000  0.24201000  1.0
  C  C128  1  0.28102000  0.69832000  0.70551000  1.0
  C  C129  1  0.69245000  0.29793000  0.71322000  1.0
  C  C130  1  0.80747000  0.20222000  0.21305000  1.0
  C  C131  1  0.21895000  0.80176000  0.20556000  1.0
  C  C132  1  0.95289000  0.63183000  0.53627000  1.0
  C  C133  1  0.04667000  0.62113000  0.53425000  1.0
  C  C134  1  0.45332000  0.87867000  0.03411000  1.0
  C  C135  1  0.54710000  0.86802000  0.03612000  1.0
  C  C136  1  0.09328000  0.57772000  0.48696000  1.0
  C  C137  1  0.90301000  0.60036000  0.49086000  1.0
  C  C138  1  0.59691000  0.89974000  0.99077000  1.0
  C  C139  1  0.40666000  0.92221000  0.98689000  1.0
  C  C140  1  0.04273000  0.55222000  0.43971000  1.0
  C  C141  1  0.95066000  0.56293000  0.44163000  1.0
  C  C142  1  0.54922000  0.93736000  0.94162000  1.0
  C  C143  1  0.45716000  0.94797000  0.93969000  1.0
  C  C144  1  0.25490000  0.54144000  0.44545000  1.0
  C  C145  1  0.75127000  0.59119000  0.44357000  1.0
  C  C146  1  0.74864000  0.90901000  0.94346000  1.0
  C  C147  1  0.24498000  0.95842000  0.94546000  1.0
  C  C148  1  0.43271000  0.70723000  0.52854000  1.0
  C  C149  1  0.39312000  0.20222000  0.54077000  1.0
  C  C150  1  0.10714000  0.29766000  0.04091000  1.0
  C  C151  1  0.06727000  0.79273000  0.02853000  1.0
  C  C152  1  0.23547000  0.50466000  0.53636000  1.0
  C  C153  1  0.74557000  0.59616000  0.53827000  1.0
  C  C154  1  0.75436000  0.90386000  0.03816000  1.0
  C  C155  1  0.26445000  0.99496000  0.03643000  1.0
  C  C156  1  0.44755000  0.70597000  0.43231000  1.0
  C  C157  1  0.37190000  0.21320000  0.44535000  1.0
  C  C158  1  0.12827000  0.28671000  0.94547000  1.0
  C  C159  1  0.05234000  0.79393000  0.93231000  1.0
  C  C160  1  0.43229000  0.63470000  0.66124000  1.0
  C  C161  1  0.57050000  0.30708000  0.63364000  1.0
  C  C162  1  0.92943000  0.19298000  0.13348000  1.0
  C  C163  1  0.06770000  0.86532000  0.16125000  1.0
  C  C164  1  0.36166000  0.51419000  0.31313000  1.0
  C  C165  1  0.68472000  0.37452000  0.40821000  1.0
  C  C166  1  0.81532000  0.12559000  0.90830000  1.0
  C  C167  1  0.13835000  0.98589000  0.81315000  1.0
  C  C168  1  0.39221000  0.58751000  0.28540000  1.0
  C  C169  1  0.67121000  0.30619000  0.36890000  1.0
  C  C170  1  0.82884000  0.19397000  0.86904000  1.0
  C  C171  1  0.10781000  0.91256000  0.78541000  1.0
  N  N172  1  0.50051000  0.51281000  0.34262000  1.0
  N  N173  1  0.54466000  0.35299000  0.41958000  1.0
  N  N174  1  0.95540000  0.14708000  0.91968000  1.0
  N  N175  1  0.99952000  0.98721000  0.84267000  1.0
  N  N176  1  0.40640000  0.49969000  0.63777000  1.0
  N  N177  1  0.60129000  0.42343000  0.58427000  1.0
  N  N178  1  0.89871000  0.07655000  0.08418000  1.0
  N  N179  1  0.09352000  0.00037000  0.13786000  1.0
  N  N180  1  0.33241000  0.49697000  0.46575000  1.0
  N  N181  1  0.66795000  0.58269000  0.46023000  1.0
  N  N182  1  0.83198000  0.91744000  0.96013000  1.0
  N  N183  1  0.16748000  0.00285000  0.96583000  1.0
  N  N184  1  0.46533000  0.62379000  0.51206000  1.0
  N  N185  1  0.38711000  0.28874000  0.52643000  1.0
  N  N186  1  0.11312000  0.21114000  0.02654000  1.0
  N  N187  1  0.03462000  0.87615000  0.01204000  1.0
  N  N188  1  0.31980000  0.47511000  0.52302000  1.0
  N  N189  1  0.66384000  0.58595000  0.52048000  1.0
  N  N190  1  0.83609000  0.91409000  0.02038000  1.0
  N  N191  1  0.18013000  0.02456000  0.02312000  1.0
  N  N192  1  0.47426000  0.62333000  0.45269000  1.0
  N  N193  1  0.37393000  0.29558000  0.46674000  1.0
  N  N194  1  0.12624000  0.20432000  0.96684000  1.0
  N  N195  1  0.02564000  0.87658000  0.95268000  1.0
  N  N196  1  0.46801000  0.55881000  0.63488000  1.0
  N  N197  1  0.54309000  0.36265000  0.58905000  1.0
  N  N198  1  0.95691000  0.13733000  0.08894000  1.0
  N  N199  1  0.03195000  0.94120000  0.13490000  1.0
  N  N200  1  0.42514000  0.47052000  0.34724000  1.0
  N  N201  1  0.60850000  0.40324000  0.43811000  1.0
  N  N202  1  0.89155000  0.09682000  0.93818000  1.0
  N  N203  1  0.07488000  0.02952000  0.84729000  1.0
  O  O204  1  0.54442000  0.63416000  0.29445000  1.0
  O  O205  1  0.53043000  0.24186000  0.35098000  1.0
  O  O206  1  0.96962000  0.25832000  0.85117000  1.0
  O  O207  1  0.95564000  0.86583000  0.79451000  1.0
  O  O208  1  0.76548000  0.41168000  0.29377000  1.0
  O  O209  1  0.26213000  0.55852000  0.19756000  1.0
  O  O210  1  0.23776000  0.94157000  0.69750000  1.0
  O  O211  1  0.73445000  0.08850000  0.79396000  1.0
  O  O212  1  0.91786000  0.67549000  0.58593000  1.0
  O  O213  1  0.09201000  0.65205000  0.57987000  1.0
  O  O214  1  0.40795000  0.84756000  0.07964000  1.0
  O  O215  1  0.58216000  0.82412000  0.08569000  1.0
  F  F216  1  0.20190000  0.48390000  0.58837000  1.0
  F  F217  1  0.76073000  0.60076000  0.59727000  1.0
  F  F218  1  0.73916000  0.89920000  0.09714000  1.0
  F  F219  1  0.29805000  0.01552000  0.08847000  1.0
