# generated using pymatgen
data_Pr3H50C63N3O22
_symmetry_space_group_name_H-M   'P 1'
_cell_length_a   13.48870000
_cell_length_b   13.94870000
_cell_length_c   22.10180000
_cell_angle_alpha   74.95140000
_cell_angle_beta   88.68730000
_cell_angle_gamma   76.42090000
_symmetry_Int_Tables_number   1
_chemical_formula_structural   Pr3H50C63N3O22
_chemical_formula_sum   'Pr6 H100 C126 N6 O44'
_cell_volume   3900.37552129
_cell_formula_units_Z   2
loop_
 _symmetry_equiv_pos_site_id
 _symmetry_equiv_pos_as_xyz
  1  'x, y, z'
loop_
 _atom_site_type_symbol
 _atom_site_label
 _atom_site_symmetry_multiplicity
 _atom_site_fract_x
 _atom_site_fract_y
 _atom_site_fract_z
 _atom_site_occupancy
  Pr  Pr0  1  0.78398000  0.37657000  0.73817000  1.0
  Pr  Pr1  1  0.21602000  0.62343000  0.26183000  1.0
  Pr  Pr2  1  0.81019000  0.69736000  0.72427000  1.0
  Pr  Pr3  1  0.18981000  0.30264000  0.27573000  1.0
  Pr  Pr4  1  0.87269000  0.09921000  0.67562000  1.0
  Pr  Pr5  1  0.12731000  0.90079000  0.32438000  1.0
  H  H6  1  0.45846000  0.48925000  0.70285000  1.0
  H  H7  1  0.54154000  0.51075000  0.29715000  1.0
  H  H8  1  0.26887000  0.53680000  0.70923000  1.0
  H  H9  1  0.73113000  0.46320000  0.29077000  1.0
  H  H10  1  0.11034000  0.66370000  0.72141000  1.0
  H  H11  1  0.88966000  0.33630000  0.27859000  1.0
  H  H12  1  0.12938000  0.96094000  0.73521000  1.0
  H  H13  1  0.87062000  0.03906000  0.26479000  1.0
  H  H14  1  0.31764000  0.91621000  0.72409000  1.0
  H  H15  1  0.68237000  0.08379000  0.27591000  1.0
  H  H16  1  0.47664000  0.78848000  0.71199000  1.0
  H  H17  1  0.52337000  0.21152000  0.28801000  1.0
  H  H18  1  0.86677000  0.62159000  0.89986000  1.0
  H  H19  1  0.13324000  0.37841000  0.10014000  1.0
  H  H20  1  0.10247000  0.29611000  0.01667000  1.0
  H  H21  1  0.89753000  0.70389000  0.98333000  1.0
  H  H22  1  0.01630000  0.30806000  0.91502000  1.0
  H  H23  1  0.98370000  0.69193000  0.08498000  1.0
  H  H24  1  0.45446000  0.32303000  0.76130000  1.0
  H  H25  1  0.54554000  0.67697000  0.23870000  1.0
  H  H26  1  0.26854000  0.37656000  0.77788000  1.0
  H  H27  1  0.73146000  0.62344000  0.22212000  1.0
  H  H28  1  0.60672000  0.38024000  0.81654000  1.0
  H  H29  1  0.39328000  0.61976000  0.18346000  1.0
  H  H30  1  0.70516000  0.32416000  0.85777000  1.0
  H  H31  1  0.29484000  0.67584000  0.14223000  1.0
  H  H32  1  0.09022000  0.36676000  0.75798000  1.0
  H  H33  1  0.90977000  0.63324000  0.24203000  1.0
  H  H34  1  0.20172000  0.12247000  0.67097000  1.0
  H  H35  1  0.79828000  0.87753000  0.32903000  1.0
  H  H36  1  0.39071000  0.05779000  0.66309000  1.0
  H  H37  1  0.60929000  0.94221000  0.33691000  1.0
  H  H38  1  0.56737000  0.07427000  0.67834000  1.0
  H  H39  1  0.43263000  0.92573000  0.32166000  1.0
  H  H40  1  0.12853000  0.54000000  0.62965000  1.0
  H  H41  1  0.87147000  0.46000000  0.37034000  1.0
  H  H42  1  0.19130000  0.52998000  0.52367000  1.0
  H  H43  1  0.80870000  0.47002000  0.47633000  1.0
  H  H44  1  0.84188000  0.48808000  0.58264000  1.0
  H  H45  1  0.15812000  0.51192000  0.41735000  1.0
  H  H46  1  0.89369000  0.19515000  0.93419000  1.0
  H  H47  1  0.10631000  0.80484000  0.06581000  1.0
  H  H48  1  0.04395000  0.82396000  0.95687000  1.0
  H  H49  1  0.95605000  0.17604000  0.04313000  1.0
  H  H50  1  0.95772000  0.93699000  0.85551000  1.0
  H  H51  1  0.04228000  0.06301000  0.14449000  1.0
  H  H52  1  0.60889000  0.46426000  0.61274000  1.0
  H  H53  1  0.39111000  0.53574000  0.38726000  1.0
  H  H54  1  0.54972000  0.39741000  0.40676000  1.0
  H  H55  1  0.45028000  0.60260000  0.59324000  1.0
  H  H56  1  0.70176000  0.29469000  0.47540000  1.0
  H  H57  1  0.29823000  0.70531000  0.52460000  1.0
  H  H58  1  0.67102000  0.13208000  0.54881000  1.0
  H  H59  1  0.32898000  0.86792000  0.45119000  1.0
  H  H60  1  0.54999000  0.18836000  0.45555000  1.0
  H  H61  1  0.45001000  0.81164000  0.54445000  1.0
  H  H62  1  0.57878000  0.84880000  0.60931000  1.0
  H  H63  1  0.42123000  0.15120000  0.39069000  1.0
  H  H64  1  0.71698000  0.64712000  0.59285000  1.0
  H  H65  1  0.28302000  0.35288000  0.40715000  1.0
  H  H66  1  0.65146000  0.64055000  0.50658000  1.0
  H  H67  1  0.34854000  0.35945000  0.49342000  1.0
  H  H68  1  0.72216000  0.67444000  0.43809000  1.0
  H  H69  1  0.27784000  0.32556000  0.56191000  1.0
  H  H70  1  0.61042000  0.76298000  0.45195000  1.0
  H  H71  1  0.38958000  0.23702000  0.54805000  1.0
  H  H72  1  0.72211000  0.89118000  0.44881000  1.0
  H  H73  1  0.27789000  0.10882000  0.55119000  1.0
  H  H74  1  0.83698000  0.80115000  0.44021000  1.0
  H  H75  1  0.16302000  0.19885000  0.55979000  1.0
  H  H76  1  0.82375000  0.85284000  0.50708000  1.0
  H  H77  1  0.17625000  0.14716000  0.49292000  1.0
  H  H78  1  0.75040000  0.92227000  0.77614000  1.0
  H  H79  1  0.24960000  0.07773000  0.22386000  1.0
  H  H80  1  0.70211000  0.04592000  0.81950000  1.0
  H  H81  1  0.29789000  0.95408000  0.18050000  1.0
  H  H82  1  0.71816000  0.01272000  0.90297000  1.0
  H  H83  1  0.28184000  0.98728000  0.09703000  1.0
  H  H84  1  0.59407000  0.03685000  0.86698000  1.0
  H  H85  1  0.40593000  0.96315000  0.13302000  1.0
  H  H86  1  0.67919000  0.75101000  0.91231000  1.0
  H  H87  1  0.32081000  0.24899000  0.08769000  1.0
  H  H88  1  0.58343000  0.85380000  0.92820000  1.0
  H  H89  1  0.41658000  0.14620000  0.07180000  1.0
  H  H90  1  0.70988000  0.82531000  0.96135000  1.0
  H  H91  1  0.29012000  0.17469000  0.03865000  1.0
  H  H92  1  0.92164000  0.90218000  0.59748000  1.0
  H  H93  1  0.07836000  0.09782000  0.40252000  1.0
  H  H94  1  0.15111000  0.98985000  0.55975000  1.0
  H  H95  1  0.84889000  0.01015000  0.44025000  1.0
  H  H96  1  0.17824000  0.91917000  0.50121000  1.0
  H  H97  1  0.82177000  0.08083000  0.49879000  1.0
  H  H98  1  0.22336000  0.86012000  0.58076000  1.0
  H  H99  1  0.77664000  0.13989000  0.41924000  1.0
  H  H100  1  0.12316000  0.72367000  0.58395000  1.0
  H  H101  1  0.87685000  0.27633000  0.41605000  1.0
  H  H102  1  0.07477000  0.78382000  0.50533000  1.0
  H  H103  1  0.92523000  0.21618000  0.49467000  1.0
  H  H104  1  0.98898000  0.76624000  0.56874000  1.0
  H  H105  1  0.01102000  0.23376000  0.43126000  1.0
  C  C106  1  0.59210000  0.60655000  0.70451000  1.0
  C  C107  1  0.40790000  0.39345000  0.29549000  1.0
  C  C108  1  0.47791000  0.63698000  0.70717000  1.0
  C  C109  1  0.52209000  0.36302000  0.29283000  1.0
  C  C110  1  0.41883000  0.56508000  0.70661000  1.0
  C  C111  1  0.58117000  0.43492000  0.29339000  1.0
  C  C112  1  0.31435000  0.59163000  0.71015000  1.0
  C  C113  1  0.68565000  0.40838000  0.28985000  1.0
  C  C114  1  0.26357000  0.69028000  0.71584000  1.0
  C  C115  1  0.73643000  0.30972000  0.28416000  1.0
  C  C116  1  0.15667000  0.71800000  0.72210000  1.0
  C  C117  1  0.84333000  0.28200000  0.27790000  1.0
  C  C118  1  0.10964000  0.81386000  0.72915000  1.0
  C  C119  1  0.89036000  0.18614000  0.27084000  1.0
  C  C120  1  0.16834000  0.88606000  0.72959000  1.0
  C  C121  1  0.83166000  0.11394000  0.27041000  1.0
  C  C122  1  0.27231000  0.86122000  0.72316000  1.0
  C  C123  1  0.72769000  0.13878000  0.27684000  1.0
  C  C124  1  0.32300000  0.76320000  0.71638000  1.0
  C  C125  1  0.67700000  0.23680000  0.28362000  1.0
  C  C126  1  0.43012000  0.73435000  0.71137000  1.0
  C  C127  1  0.56988000  0.26565000  0.28863000  1.0
  C  C128  1  0.88161000  0.47287000  0.84253000  1.0
  C  C129  1  0.11839000  0.52713000  0.15747000  1.0
  C  C130  1  0.93625000  0.46622000  0.90225000  1.0
  C  C131  1  0.06375000  0.53378000  0.09775000  1.0
  C  C132  1  0.91876000  0.55111000  0.92598000  1.0
  C  C133  1  0.08124000  0.44889000  0.07402000  1.0
  C  C134  1  0.96623000  0.54703000  0.98327000  1.0
  C  C135  1  0.03377000  0.45297000  0.01673000  1.0
  C  C136  1  0.05101000  0.36729000  0.99097000  1.0
  C  C137  1  0.94899000  0.63271000  0.00903000  1.0
  C  C138  1  0.00356000  0.37334000  0.93513000  1.0
  C  C139  1  0.99644000  0.62666000  0.06487000  1.0
  C  C140  1  0.62673000  0.21596000  0.72322000  1.0
  C  C141  1  0.37327000  0.78404000  0.27678000  1.0
  C  C142  1  0.52052000  0.20123000  0.71983000  1.0
  C  C143  1  0.47948000  0.79877000  0.28017000  1.0
  C  C144  1  0.43960000  0.26474000  0.74041000  1.0
  C  C145  1  0.56040000  0.73526000  0.25959000  1.0
  C  C146  1  0.33810000  0.25690000  0.73345000  1.0
  C  C147  1  0.66189000  0.74310000  0.26655000  1.0
  C  C148  1  0.25379000  0.32209000  0.75361000  1.0
  C  C149  1  0.74621000  0.67791000  0.24639000  1.0
  C  C150  1  0.15538000  0.31698000  0.74281000  1.0
  C  C151  1  0.84462000  0.68302000  0.25719000  1.0
  C  C152  1  0.13679000  0.24553000  0.71149000  1.0
  C  C153  1  0.86321000  0.75447000  0.28851000  1.0
  C  C154  1  0.21766000  0.17842000  0.69356000  1.0
  C  C155  1  0.78234000  0.82158000  0.30644000  1.0
  C  C156  1  0.31966000  0.18202000  0.70382000  1.0
  C  C157  1  0.68035000  0.81798000  0.29618000  1.0
  C  C158  1  0.40441000  0.11554000  0.68498000  1.0
  C  C159  1  0.59560000  0.88446000  0.31502000  1.0
  C  C160  1  0.50235000  0.12444000  0.69308000  1.0
  C  C161  1  0.49765000  0.87556000  0.30692000  1.0
  C  C162  1  0.93570000  0.54171000  0.66871000  1.0
  C  C163  1  0.06430000  0.45829000  0.33129000  1.0
  C  C164  1  0.98041000  0.51673000  0.61103000  1.0
  C  C165  1  0.01959000  0.48327000  0.38897000  1.0
  C  C166  1  0.08073000  0.52651000  0.59512000  1.0
  C  C167  1  0.91927000  0.47349000  0.40488000  1.0
  C  C168  1  0.11477000  0.52123000  0.53669000  1.0
  C  C169  1  0.88523000  0.47877000  0.46331000  1.0
  C  C170  1  0.94987000  0.49338000  0.50839000  1.0
  C  C171  1  0.05013000  0.50662000  0.49161000  1.0
  C  C172  1  0.91781000  0.49766000  0.56902000  1.0
  C  C173  1  0.08219000  0.50234000  0.43097000  1.0
  C  C174  1  0.02907000  0.24249000  0.69860000  1.0
  C  C175  1  0.97093000  0.75751000  0.30141000  1.0
  C  C176  1  0.87057000  0.13982000  0.82973000  1.0
  C  C177  1  0.12943000  0.86017000  0.17027000  1.0
  C  C178  1  0.92022000  0.07206000  0.89037000  1.0
  C  C179  1  0.07978000  0.92793000  0.10963000  1.0
  C  C180  1  0.92694000  0.11390000  0.94003000  1.0
  C  C181  1  0.07306000  0.88610000  0.05997000  1.0
  C  C182  1  0.97843000  0.05335000  0.99705000  1.0
  C  C183  1  0.02157000  0.94665000  0.00295000  1.0
  C  C184  1  0.01167000  0.90530000  0.95155000  1.0
  C  C185  1  0.98833000  0.09470000  0.04844000  1.0
  C  C186  1  0.96339000  0.96677000  0.89601000  1.0
  C  C187  1  0.03661000  0.03323000  0.10399000  1.0
  C  C188  1  0.75289000  0.30715000  0.58977000  1.0
  C  C189  1  0.24711000  0.69285000  0.41023000  1.0
  C  C190  1  0.66441000  0.37445000  0.54785000  1.0
  C  C191  1  0.33559000  0.62555000  0.45215000  1.0
  C  C192  1  0.59634000  0.45066000  0.56734000  1.0
  C  C193  1  0.40366000  0.54934000  0.43266000  1.0
  C  C194  1  0.50872000  0.50981000  0.52951000  1.0
  C  C195  1  0.49128000  0.49019000  0.47049000  1.0
  C  C196  1  0.56268000  0.41179000  0.45172000  1.0
  C  C197  1  0.43732000  0.58821000  0.54828000  1.0
  C  C198  1  0.64703000  0.35530000  0.48935000  1.0
  C  C199  1  0.35297000  0.64470000  0.51065000  1.0
  C  C200  1  0.71174000  0.95054000  0.63616000  1.0
  C  C201  1  0.28826000  0.04946000  0.36384000  1.0
  C  C202  1  0.63282000  0.98582000  0.58321000  1.0
  C  C203  1  0.36718000  0.01418000  0.41679000  1.0
  C  C204  1  0.62384000  0.08305000  0.54007000  1.0
  C  C205  1  0.37616000  0.91695000  0.45993000  1.0
  C  C206  1  0.55710000  0.11367000  0.48876000  1.0
  C  C207  1  0.44291000  0.88633000  0.51124000  1.0
  C  C208  1  0.50366000  0.95124000  0.52222000  1.0
  C  C209  1  0.49634000  0.04876000  0.47778000  1.0
  C  C210  1  0.57215000  0.92239000  0.57495000  1.0
  C  C211  1  0.42785000  0.07761000  0.42505000  1.0
  C  C212  1  0.99599000  0.84171000  0.73513000  1.0
  C  C213  1  0.00401000  0.15829000  0.26487000  1.0
  C  C214  1  0.75521000  0.70881000  0.57140000  1.0
  C  C215  1  0.24479000  0.29118000  0.42860000  1.0
  C  C216  1  0.67739000  0.70338000  0.47453000  1.0
  C  C217  1  0.32261000  0.29662000  0.52548000  1.0
  C  C218  1  0.78352000  0.82727000  0.47414000  1.0
  C  C219  1  0.21648000  0.17273000  0.52586000  1.0
  C  C220  1  0.73281000  0.86295000  0.81571000  1.0
  C  C221  1  0.26719000  0.13705000  0.18429000  1.0
  C  C222  1  0.67592000  0.00401000  0.86356000  1.0
  C  C223  1  0.32408000  0.99599000  0.13644000  1.0
  C  C224  1  0.66481000  0.82748000  0.91994000  1.0
  C  C225  1  0.33519000  0.17252000  0.08006000  1.0
  C  C226  1  0.98787000  0.93683000  0.58803000  1.0
  C  C227  1  0.01213000  0.06317000  0.41197000  1.0
  C  C228  1  0.16045000  0.91506000  0.55042000  1.0
  C  C229  1  0.83955000  0.08494000  0.44958000  1.0
  C  C230  1  0.06259000  0.78358000  0.55465000  1.0
  C  C231  1  0.93741000  0.21642000  0.44535000  1.0
  N  N232  1  0.73973000  0.74468000  0.50933000  1.0
  N  N233  1  0.26027000  0.25532000  0.49067000  1.0
  N  N234  1  0.69330000  0.89670000  0.86461000  1.0
  N  N235  1  0.30670000  0.10330000  0.13539000  1.0
  N  N236  1  0.06603000  0.88215000  0.56414000  1.0
  N  N237  1  0.93397000  0.11784000  0.43586000  1.0
  O  O238  1  0.63181000  0.51561000  0.70142000  1.0
  O  O239  1  0.36819000  0.48439000  0.29858000  1.0
  O  O240  1  0.64180000  0.67326000  0.70528000  1.0
  O  O241  1  0.35820000  0.32674000  0.29472000  1.0
  O  O242  1  0.89066000  0.39261000  0.82420000  1.0
  O  O243  1  0.10934000  0.60739000  0.17580000  1.0
  O  O244  1  0.82644000  0.56028000  0.81355000  1.0
  O  O245  1  0.17356000  0.43972000  0.18645000  1.0
  O  O246  1  0.63754000  0.29376000  0.73963000  1.0
  O  O247  1  0.36246000  0.70624000  0.26037000  1.0
  O  O248  1  0.84599000  0.52691000  0.68315000  1.0
  O  O249  1  0.15401000  0.47309000  0.31685000  1.0
  O  O250  1  0.95850000  0.30359000  0.71798000  1.0
  O  O251  1  0.04150000  0.69641000  0.28202000  1.0
  O  O252  1  0.01546000  0.17862000  0.66919000  1.0
  O  O253  1  0.98454000  0.82138000  0.33081000  1.0
  O  O254  1  0.80954000  0.22444000  0.83009000  1.0
  O  O255  1  0.19046000  0.77556000  0.16991000  1.0
  O  O256  1  0.89328000  0.11023000  0.78037000  1.0
  O  O257  1  0.10671000  0.88977000  0.21963000  1.0
  O  O258  1  0.97923000  0.58809000  0.69819000  1.0
  O  O259  1  0.02077000  0.41191000  0.30181000  1.0
  O  O260  1  0.77654000  0.33104000  0.63859000  1.0
  O  O261  1  0.22346000  0.66896000  0.36141000  1.0
  O  O262  1  0.79957000  0.22533000  0.57599000  1.0
  O  O263  1  0.20043000  0.77467000  0.42401000  1.0
  O  O264  1  0.70834000  0.87176000  0.67973000  1.0
  O  O265  1  0.29166000  0.12824000  0.32027000  1.0
  O  O266  1  0.69890000  0.14965000  0.70836000  1.0
  O  O267  1  0.30110000  0.85035000  0.29164000  1.0
  O  O268  1  0.77899000  0.00189000  0.63321000  1.0
  O  O269  1  0.22101000  0.99811000  0.36679000  1.0
  O  O270  1  0.94670000  0.77410000  0.73668000  1.0
  O  O271  1  0.05330000  0.22590000  0.26332000  1.0
  O  O272  1  0.95473000  0.93236000  0.73782000  1.0
  O  O273  1  0.04527000  0.06764000  0.26218000  1.0
  O  O274  1  0.80843000  0.74036000  0.60437000  1.0
  O  O275  1  0.19157000  0.25965000  0.39563000  1.0
  O  O276  1  0.74897000  0.77149000  0.81399000  1.0
  O  O277  1  0.25103000  0.22851000  0.18601000  1.0
  O  O278  1  0.98681000  0.02070000  0.59960000  1.0
  O  O279  1  0.01319000  0.97930000  0.40040000  1.0
  O  O280  1  0.66727000  0.39230000  0.83385000  1.0
  O  O281  1  0.33273000  0.60770000  0.16615000  1.0
