# generated using pymatgen
data_CuH20C28N10(O3F4)2
_symmetry_space_group_name_H-M   'P 1'
_cell_length_a   8.67591000
_cell_length_b   9.90448794
_cell_length_c   20.01030000
_cell_angle_alpha   83.10701714
_cell_angle_beta   90.00370000
_cell_angle_gamma   64.02341220
_symmetry_Int_Tables_number   1
_chemical_formula_structural   CuH20C28N10(O3F4)2
_chemical_formula_sum   'Cu2 H40 C56 N20 O12 F16'
_cell_volume   1531.93519786
_cell_formula_units_Z   2
loop_
 _symmetry_equiv_pos_site_id
 _symmetry_equiv_pos_as_xyz
  1  'x, y, z'
loop_
 _atom_site_type_symbol
 _atom_site_label
 _atom_site_symmetry_multiplicity
 _atom_site_fract_x
 _atom_site_fract_y
 _atom_site_fract_z
 _atom_site_occupancy
  Cu  Cu0  1  0.00000000  0.00000000  0.00000000  1.0
  Cu  Cu1  1  0.00000000  0.00000000  0.50000000  1.0
  H  H2  1  0.10278000  0.45189000  0.34465000  1.0
  H  H3  1  0.55437000  0.54797000  0.15530000  1.0
  H  H4  1  0.89722000  0.54811000  0.65535000  1.0
  H  H5  1  0.44563000  0.45203000  0.84470000  1.0
  H  H6  1  0.90674000  0.52488000  0.29545000  1.0
  H  H7  1  0.43131000  0.47517000  0.20460000  1.0
  H  H8  1  0.09326000  0.47512000  0.70455000  1.0
  H  H9  1  0.56869000  0.52483000  0.79540000  1.0
  H  H10  1  0.34722000  0.40741000  0.02009000  1.0
  H  H11  1  0.75434000  0.59242000  0.47989000  1.0
  H  H12  1  0.65278000  0.59259000  0.97991000  1.0
  H  H13  1  0.24565000  0.40759000  0.52011000  1.0
  H  H14  1  0.51465000  0.23789000  0.06153000  1.0
  H  H15  1  0.75251000  0.76187000  0.43853000  1.0
  H  H16  1  0.48535000  0.76211000  0.93847000  1.0
  H  H17  1  0.24749000  0.23813000  0.56147000  1.0
  H  H18  1  0.44489000  0.20292000  0.92675000  1.0
  H  H19  1  0.64773000  0.79698000  0.57312000  1.0
  H  H20  1  0.55511000  0.79708000  0.07325000  1.0
  H  H21  1  0.35227000  0.20302000  0.42688000  1.0
  H  H22  1  0.26812000  0.04157000  0.89489000  1.0
  H  H23  1  0.30963000  0.95866000  0.60495000  1.0
  H  H24  1  0.73188000  0.95843000  0.10511000  1.0
  H  H25  1  0.69037000  0.04134000  0.39505000  1.0
  H  H26  1  0.13538000  0.17699000  0.08717000  1.0
  H  H27  1  0.31209000  0.82310000  0.41271000  1.0
  H  H28  1  0.86462000  0.82301000  0.91283000  1.0
  H  H29  1  0.68790000  0.17691000  0.58729000  1.0
  H  H30  1  0.94902000  0.98954000  0.34055000  1.0
  H  H31  1  0.93842000  0.01053000  0.15948000  1.0
  H  H32  1  0.05098000  0.01046000  0.65945000  1.0
  H  H33  1  0.06158000  0.98947000  0.84052000  1.0
  H  H34  1  0.95791000  0.21601000  0.24491000  1.0
  H  H35  1  0.17362000  0.78396000  0.25512000  1.0
  H  H36  1  0.04209000  0.78399000  0.75509000  1.0
  H  H37  1  0.82638000  0.21604000  0.74488000  1.0
  H  H38  1  0.03851000  0.30026000  0.44219000  1.0
  H  H39  1  0.33874000  0.69988000  0.05787000  1.0
  H  H40  1  0.96150000  0.69974000  0.55781000  1.0
  H  H41  1  0.66126000  0.30012000  0.94213000  1.0
  C  C42  1  0.03211000  0.42641000  0.30620000  1.0
  C  C43  1  0.45835000  0.57355000  0.19380000  1.0
  C  C44  1  0.96789000  0.57359000  0.69380000  1.0
  C  C45  1  0.54165000  0.42645000  0.80620000  1.0
  C  C46  1  0.28642000  0.27535000  0.24023000  1.0
  C  C47  1  0.56224000  0.72433000  0.25967000  1.0
  C  C48  1  0.71358000  0.72465000  0.75977000  1.0
  C  C49  1  0.43776000  0.27567000  0.74033000  1.0
  C  C50  1  0.36813000  0.24558000  0.18017000  1.0
  C  C51  1  0.61411000  0.75414000  0.31974000  1.0
  C  C52  1  0.63187000  0.75442000  0.81983000  1.0
  C  C53  1  0.38589000  0.24586000  0.68026000  1.0
  C  C54  1  0.29201000  0.33637000  0.11903000  1.0
  C  C55  1  0.62840000  0.66353000  0.38090000  1.0
  C  C56  1  0.70799000  0.66363000  0.88097000  1.0
  C  C57  1  0.37160000  0.33647000  0.61910000  1.0
  C  C58  1  0.13185000  0.45946000  0.12133000  1.0
  C  C59  1  0.59106000  0.54059000  0.37862000  1.0
  C  C60  1  0.86815000  0.54054000  0.87867000  1.0
  C  C61  1  0.40894000  0.45941000  0.62138000  1.0
  C  C62  1  0.05073000  0.48994000  0.18155000  1.0
  C  C63  1  0.54050000  0.51006000  0.31842000  1.0
  C  C64  1  0.94927000  0.51007000  0.81845000  1.0
  C  C65  1  0.45950000  0.48994000  0.68158000  1.0
  C  C66  1  0.12520000  0.39776000  0.24230000  1.0
  C  C67  1  0.52306000  0.60210000  0.25767000  1.0
  C  C68  1  0.87481000  0.60224000  0.75770000  1.0
  C  C69  1  0.47694000  0.39789000  0.74233000  1.0
  C  C70  1  0.37458000  0.30194000  0.05341000  1.0
  C  C71  1  0.67637000  0.69792000  0.44657000  1.0
  C  C72  1  0.62543000  0.69805000  0.94659000  1.0
  C  C73  1  0.32363000  0.30208000  0.55343000  1.0
  C  C74  1  0.35633000  0.17178000  0.95494000  1.0
  C  C75  1  0.52797000  0.82819000  0.54495000  1.0
  C  C76  1  0.64368000  0.82821000  0.04506000  1.0
  C  C77  1  0.47203000  0.17181000  0.45505000  1.0
  C  C78  1  0.26796000  0.09238000  0.93981000  1.0
  C  C79  1  0.36026000  0.90774000  0.56006000  1.0
  C  C80  1  0.73204000  0.90762000  0.06019000  1.0
  C  C81  1  0.63973000  0.09227000  0.43994000  1.0
  C  C82  1  0.19749000  0.15888000  0.03979000  1.0
  C  C83  1  0.35619000  0.84113000  0.46009000  1.0
  C  C84  1  0.80251000  0.84112000  0.96021000  1.0
  C  C85  1  0.64382000  0.15887000  0.53991000  1.0
  C  C86  1  0.96662000  0.08903000  0.34700000  1.0
  C  C87  1  0.05555000  0.91109000  0.15303000  1.0
  C  C88  1  0.03338000  0.91097000  0.65300000  1.0
  C  C89  1  0.94445000  0.08891000  0.84697000  1.0
  C  C90  1  0.97372000  0.19825000  0.29957000  1.0
  C  C91  1  0.17179000  0.80179000  0.20046000  1.0
  C  C92  1  0.02627000  0.80175000  0.70043000  1.0
  C  C93  1  0.82821000  0.19821000  0.79954000  1.0
  C  C94  1  0.01760000  0.24435000  0.40207000  1.0
  C  C95  1  0.26188000  0.75581000  0.09798000  1.0
  C  C96  1  0.98241000  0.75564000  0.59793000  1.0
  C  C97  1  0.73812000  0.24419000  0.90202000  1.0
  N  N98  1  0.16997000  0.08519000  0.99310000  1.0
  N  N99  1  0.25504000  0.91490000  0.50678000  1.0
  N  N100  1  0.83003000  0.91481000  0.00690000  1.0
  N  N101  1  0.74496000  0.08510000  0.49322000  1.0
  N  N102  1  0.30992000  0.21339000  0.01802000  1.0
  N  N103  1  0.52314000  0.78654000  0.48188000  1.0
  N  N104  1  0.69008000  0.78661000  0.98198000  1.0
  N  N105  1  0.47686000  0.21347000  0.51811000  1.0
  N  N106  1  0.99352000  0.11960000  0.41034000  1.0
  N  N107  1  0.11308000  0.88060000  0.08970000  1.0
  N  N108  1  0.00648000  0.88040000  0.58966000  1.0
  N  N109  1  0.88691000  0.11940000  0.91030000  1.0
  N  N110  1  0.00713000  0.29478000  0.33522000  1.0
  N  N111  1  0.30176000  0.70529000  0.16482000  1.0
  N  N112  1  0.99287000  0.70522000  0.66478000  1.0
  N  N113  1  0.69824000  0.29471000  0.83518000  1.0
  N  N114  1  0.76936000  0.32011000  0.08943000  1.0
  N  N115  1  0.08851000  0.67997000  0.41055000  1.0
  N  N116  1  0.23064000  0.67989000  0.91057000  1.0
  N  N117  1  0.91148000  0.32003000  0.58945000  1.0
  O  O118  1  0.78466000  0.20408000  0.06306000  1.0
  O  O119  1  0.98794000  0.79598000  0.43698000  1.0
  O  O120  1  0.21535000  0.79591000  0.93694000  1.0
  O  O121  1  0.01206000  0.20402000  0.56302000  1.0
  O  O122  1  0.64872000  0.44862000  0.06759000  1.0
  O  O123  1  0.09695000  0.55136000  0.43259000  1.0
  O  O124  1  0.35128000  0.55137000  0.93241000  1.0
  O  O125  1  0.90304000  0.44864000  0.56741000  1.0
  O  O126  1  0.87300000  0.30624000  0.13731000  1.0
  O  O127  1  0.17752000  0.69398000  0.36241000  1.0
  O  O128  1  0.12700000  0.69376000  0.86269000  1.0
  O  O129  1  0.82246000  0.30603000  0.63760000  1.0
  F  F130  1  0.52520000  0.12608000  0.18164000  1.0
  F  F131  1  0.65200000  0.87344000  0.31828000  1.0
  F  F132  1  0.47480000  0.87392000  0.81836000  1.0
  F  F133  1  0.34799000  0.12657000  0.68172000  1.0
  F  F134  1  0.36448000  0.18207000  0.29779000  1.0
  F  F135  1  0.54725000  0.81740000  0.20208000  1.0
  F  F136  1  0.63553000  0.81793000  0.70221000  1.0
  F  F137  1  0.45274000  0.18261000  0.79792000  1.0
  F  F138  1  0.89463000  0.60962000  0.18024000  1.0
  F  F139  1  0.50389000  0.39046000  0.31976000  1.0
  F  F140  1  0.10538000  0.39039000  0.81976000  1.0
  F  F141  1  0.49610000  0.60954000  0.68024000  1.0
  F  F142  1  0.05110000  0.54934000  0.06361000  1.0
  F  F143  1  0.60004000  0.45083000  0.43637000  1.0
  F  F144  1  0.94891000  0.45066000  0.93639000  1.0
  F  F145  1  0.39996000  0.54917000  0.56363000  1.0
