# generated using pymatgen
data_MgHC4O3
_symmetry_space_group_name_H-M   'P 1'
_cell_length_a   6.88936000
_cell_length_b   15.23150000
_cell_length_c   15.23230000
_cell_angle_alpha   117.77100000
_cell_angle_beta   98.67770000
_cell_angle_gamma   98.67430000
_symmetry_Int_Tables_number   1
_chemical_formula_structural   MgHC4O3
_chemical_formula_sum   'Mg6 H6 C24 O18'
_cell_volume   1352.69602665
_cell_formula_units_Z   6
loop_
 _symmetry_equiv_pos_site_id
 _symmetry_equiv_pos_as_xyz
  1  'x, y, z'
loop_
 _atom_site_type_symbol
 _atom_site_label
 _atom_site_symmetry_multiplicity
 _atom_site_fract_x
 _atom_site_fract_y
 _atom_site_fract_z
 _atom_site_occupancy
  Mg  Mg0  1  0.01751000  0.73177000  0.40605000  1.0
  Mg  Mg1  1  0.28581000  0.67425000  0.26821000  1.0
  Mg  Mg2  1  0.61143000  0.59392000  0.32574000  1.0
  Mg  Mg3  1  0.98249000  0.26823000  0.59395000  1.0
  Mg  Mg4  1  0.71419000  0.32576000  0.73179000  1.0
  Mg  Mg5  1  0.38857000  0.40608000  0.67426000  1.0
  H  H6  1  0.68595000  0.55476000  0.53273000  1.0
  H  H7  1  0.13115000  0.97796000  0.44524000  1.0
  H  H8  1  0.15320000  0.46719000  0.02203000  1.0
  H  H9  1  0.31405000  0.44524000  0.46727000  1.0
  H  H10  1  0.86885000  0.02205000  0.55476000  1.0
  H  H11  1  0.84681000  0.53281000  0.97796000  1.0
  C  C12  1  0.93312000  0.56647000  0.46543000  1.0
  C  C13  1  0.36663000  0.89893000  0.43352000  1.0
  C  C14  1  0.46773000  0.53452000  0.10102000  1.0
  C  C15  1  0.06688000  0.43353000  0.53456000  1.0
  C  C16  1  0.63337000  0.10107000  0.56648000  1.0
  C  C17  1  0.53227000  0.46548000  0.89897000  1.0
  C  C18  1  0.24291000  0.56397000  0.39109000  1.0
  C  C19  1  0.67899000  0.82711000  0.43603000  1.0
  C  C20  1  0.85191000  0.60894000  0.17293000  1.0
  C  C21  1  0.75709000  0.43603000  0.60891000  1.0
  C  C22  1  0.32101000  0.17289000  0.56397000  1.0
  C  C23  1  0.14809000  0.39106000  0.82707000  1.0
  C  C24  1  0.82435000  0.53084000  0.51796000  1.0
  C  C25  1  0.29347000  0.98711000  0.46914000  1.0
  C  C26  1  0.30636000  0.48195000  0.01287000  1.0
  C  C27  1  0.17565000  0.46916000  0.48204000  1.0
  C  C28  1  0.70653000  0.01289000  0.53086000  1.0
  C  C29  1  0.69364000  0.51805000  0.98713000  1.0
  C  C30  1  0.11489000  0.53378000  0.44731000  1.0
  C  C31  1  0.58114000  0.91354000  0.46622000  1.0
  C  C32  1  0.66766000  0.55271000  0.08648000  1.0
  C  C33  1  0.88511000  0.46622000  0.55269000  1.0
  C  C34  1  0.41886000  0.08646000  0.53378000  1.0
  C  C35  1  0.33234000  0.44729000  0.91352000  1.0
  O  O36  1  0.86171000  0.62837000  0.43505000  1.0
  O  O37  1  0.23333000  0.80663000  0.37163000  1.0
  O  O38  1  0.42673000  0.56493000  0.19332000  1.0
  O  O39  1  0.13829000  0.37163000  0.56495000  1.0
  O  O40  1  0.76667000  0.19337000  0.62837000  1.0
  O  O41  1  0.57327000  0.43507000  0.80668000  1.0
  O  O42  1  0.19152000  0.62620000  0.36173000  1.0
  O  O43  1  0.56535000  0.73553000  0.37378000  1.0
  O  O44  1  0.82976000  0.63829000  0.26450000  1.0
  O  O45  1  0.80848000  0.37380000  0.63827000  1.0
  O  O46  1  0.43465000  0.26447000  0.62622000  1.0
  O  O47  1  0.17024000  0.36171000  0.73550000  1.0
  O  O48  1  0.39898000  0.53053000  0.37272000  1.0
  O  O49  1  0.86849000  0.84218000  0.46948000  1.0
  O  O50  1  0.02637000  0.62732000  0.15790000  1.0
  O  O51  1  0.60102000  0.46947000  0.62728000  1.0
  O  O52  1  0.13151000  0.15782000  0.53052000  1.0
  O  O53  1  0.97363000  0.37268000  0.84210000  1.0
