# generated using pymatgen
data_CuH8C8(SN4)2
_symmetry_space_group_name_H-M   'P 1'
_cell_length_a   5.69695000
_cell_length_b   6.47942000
_cell_length_c   8.57004000
_cell_angle_alpha   102.75500000
_cell_angle_beta   99.89650000
_cell_angle_gamma   93.33860000
_symmetry_Int_Tables_number   1
_chemical_formula_structural   CuH8C8(SN4)2
_chemical_formula_sum   'Cu1 H8 C8 S2 N8'
_cell_volume   302.42097723
_cell_formula_units_Z   1
loop_
 _symmetry_equiv_pos_site_id
 _symmetry_equiv_pos_as_xyz
  1  'x, y, z'
loop_
 _atom_site_type_symbol
 _atom_site_label
 _atom_site_symmetry_multiplicity
 _atom_site_fract_x
 _atom_site_fract_y
 _atom_site_fract_z
 _atom_site_occupancy
  Cu  Cu0  1  0.00000000  0.00000000  0.00000000  1.0
  H  H1  1  0.57386000  0.97754000  0.67631000  1.0
  H  H2  1  0.42613000  0.02247000  0.32370000  1.0
  H  H3  1  0.26012000  0.31915000  0.81633000  1.0
  H  H4  1  0.73987000  0.68085000  0.18367000  1.0
  H  H5  1  0.06713000  0.30447000  0.38411000  1.0
  H  H6  1  0.93286000  0.69553000  0.61589000  1.0
  H  H7  1  0.26067000  0.46113000  0.56303000  1.0
  H  H8  1  0.73932000  0.53887000  0.43697000  1.0
  C  C9  1  0.73241000  0.07957000  0.67741000  1.0
  C  C10  1  0.26760000  0.92043000  0.32259000  1.0
  C  C11  1  0.08270000  0.24957000  0.75087000  1.0
  C  C12  1  0.91731000  0.75043000  0.24913000  1.0
  C  C13  1  0.07346000  0.40582000  0.50587000  1.0
  C  C14  1  0.92652000  0.59419000  0.49412000  1.0
  C  C15  1  0.59506000  0.25130000  0.11820000  1.0
  C  C16  1  0.40492000  0.74870000  0.88181000  1.0
  S  S17  1  0.36411000  0.37354000  0.15536000  1.0
  S  S18  1  0.63589000  0.62647000  0.84464000  1.0
  N  N19  1  0.97876000  0.27940000  0.60556000  1.0
  N  N20  1  0.02125000  0.72060000  0.39443000  1.0
  N  N21  1  0.75568000  0.17195000  0.55642000  1.0
  N  N22  1  0.24433000  0.82806000  0.44359000  1.0
  N  N23  1  0.93037000  0.12265000  0.79893000  1.0
  N  N24  1  0.06964000  0.87735000  0.20108000  1.0
  N  N25  1  0.76853000  0.16488000  0.09674000  1.0
  N  N26  1  0.23148000  0.83509000  0.90325000  1.0
