# generated using pymatgen
data_CuH10C16S(NO)4
_symmetry_space_group_name_H-M   'P 1'
_cell_length_a   14.78930000
_cell_length_b   15.22370000
_cell_length_c   15.98930000
_cell_angle_alpha   89.99990000
_cell_angle_beta   90.00000000
_cell_angle_gamma   90.00000000
_symmetry_Int_Tables_number   1
_chemical_formula_structural   CuH10C16S(NO)4
_chemical_formula_sum   'Cu8 H80 C128 S8 N32 O32'
_cell_volume   3599.95678038
_cell_formula_units_Z   8
loop_
 _symmetry_equiv_pos_site_id
 _symmetry_equiv_pos_as_xyz
  1  'x, y, z'
loop_
 _atom_site_type_symbol
 _atom_site_label
 _atom_site_symmetry_multiplicity
 _atom_site_fract_x
 _atom_site_fract_y
 _atom_site_fract_z
 _atom_site_occupancy
  Cu  Cu0  1  0.17195000  0.37641000  0.43961000  1.0
  Cu  Cu1  1  0.82805000  0.37641000  0.06039000  1.0
  Cu  Cu2  1  0.17195000  0.12359000  0.56039000  1.0
  Cu  Cu3  1  0.82805000  0.12359000  0.93961000  1.0
  Cu  Cu4  1  0.82805000  0.62359000  0.56039000  1.0
  Cu  Cu5  1  0.17195000  0.62359000  0.93961000  1.0
  Cu  Cu6  1  0.82805000  0.87641000  0.43961000  1.0
  Cu  Cu7  1  0.17195000  0.87641000  0.06039000  1.0
  H  H8  1  0.01299000  0.41782000  0.55161000  1.0
  H  H9  1  0.98701000  0.41782000  0.94839000  1.0
  H  H10  1  0.01299000  0.08218000  0.44839000  1.0
  H  H11  1  0.98701000  0.08218000  0.05161000  1.0
  H  H12  1  0.98701000  0.58218000  0.44839000  1.0
  H  H13  1  0.01299000  0.58218000  0.05161000  1.0
  H  H14  1  0.98701000  0.91782000  0.55161000  1.0
  H  H15  1  0.01299000  0.91782000  0.94839000  1.0
  H  H16  1  0.84548000  0.39995000  0.54446000  1.0
  H  H17  1  0.15452000  0.39994000  0.95554000  1.0
  H  H18  1  0.84548000  0.10005000  0.45554000  1.0
  H  H19  1  0.15452000  0.10005000  0.04446000  1.0
  H  H20  1  0.15452000  0.60005000  0.45554000  1.0
  H  H21  1  0.84548000  0.60006000  0.04446000  1.0
  H  H22  1  0.15452000  0.89995000  0.54446000  1.0
  H  H23  1  0.84548000  0.89995000  0.95554000  1.0
  H  H24  1  0.88273000  0.27743000  0.30232000  1.0
  H  H25  1  0.11727000  0.27743000  0.19768000  1.0
  H  H26  1  0.88273000  0.22257000  0.69768000  1.0
  H  H27  1  0.11727000  0.22257000  0.80232000  1.0
  H  H28  1  0.11727000  0.72257000  0.69768000  1.0
  H  H29  1  0.88273000  0.72257000  0.80232000  1.0
  H  H30  1  0.11727000  0.77743000  0.30232000  1.0
  H  H31  1  0.88273000  0.77743000  0.19768000  1.0
  H  H32  1  0.05050000  0.30229000  0.32075000  1.0
  H  H33  1  0.94950000  0.30229000  0.17925000  1.0
  H  H34  1  0.05050000  0.19771000  0.67925000  1.0
  H  H35  1  0.94950000  0.19771000  0.82075000  1.0
  H  H36  1  0.94950000  0.69771000  0.67925000  1.0
  H  H37  1  0.05050000  0.69771000  0.82075000  1.0
  H  H38  1  0.94950000  0.80229000  0.32075000  1.0
  H  H39  1  0.05050000  0.80229000  0.17925000  1.0
  H  H40  1  0.49948000  0.40269000  0.54290000  1.0
  H  H41  1  0.50052000  0.40269000  0.95710000  1.0
  H  H42  1  0.49948000  0.09731000  0.45710000  1.0
  H  H43  1  0.50052000  0.09731000  0.04290000  1.0
  H  H44  1  0.50052000  0.59731000  0.45710000  1.0
  H  H45  1  0.49948000  0.59731000  0.04290000  1.0
  H  H46  1  0.50052000  0.90269000  0.54290000  1.0
  H  H47  1  0.49948000  0.90269000  0.95710000  1.0
  H  H48  1  0.33157000  0.42065000  0.55043000  1.0
  H  H49  1  0.66843000  0.42065000  0.94957000  1.0
  H  H50  1  0.33157000  0.07935000  0.44957000  1.0
  H  H51  1  0.66843000  0.07935000  0.05043000  1.0
  H  H52  1  0.66843000  0.57935000  0.44957000  1.0
  H  H53  1  0.33157000  0.57935000  0.05043000  1.0
  H  H54  1  0.66843000  0.92065000  0.55043000  1.0
  H  H55  1  0.33157000  0.92065000  0.94957000  1.0
  H  H56  1  0.29484000  0.30307000  0.31982000  1.0
  H  H57  1  0.70516000  0.30307000  0.18018000  1.0
  H  H58  1  0.29484000  0.19693000  0.68018000  1.0
  H  H59  1  0.70516000  0.19693000  0.81981000  1.0
  H  H60  1  0.70516000  0.69693000  0.68018000  1.0
  H  H61  1  0.29484000  0.69693000  0.81982000  1.0
  H  H62  1  0.70516000  0.80307000  0.31982000  1.0
  H  H63  1  0.29484000  0.80307000  0.18018000  1.0
  H  H64  1  0.45991000  0.27892000  0.30173000  1.0
  H  H65  1  0.54009000  0.27892000  0.19827000  1.0
  H  H66  1  0.45991000  0.22108000  0.69827000  1.0
  H  H67  1  0.54009000  0.22108000  0.80173000  1.0
  H  H68  1  0.54009000  0.72108000  0.69827000  1.0
  H  H69  1  0.45991000  0.72108000  0.80173000  1.0
  H  H70  1  0.54009000  0.77892000  0.30172000  1.0
  H  H71  1  0.45991000  0.77892000  0.19827000  1.0
  H  H72  1  0.21330000  0.34485000  0.75187000  1.0
  H  H73  1  0.78670000  0.34486000  0.74813000  1.0
  H  H74  1  0.21330000  0.15515000  0.24813000  1.0
  H  H75  1  0.78670000  0.15514000  0.25187000  1.0
  H  H76  1  0.78670000  0.65515000  0.24813000  1.0
  H  H77  1  0.21330000  0.65514000  0.25187000  1.0
  H  H78  1  0.78670000  0.84485000  0.75187000  1.0
  H  H79  1  0.21330000  0.84486000  0.74813000  1.0
  H  H80  1  0.16342000  0.52382000  0.67402000  1.0
  H  H81  1  0.83658000  0.52382000  0.82598000  1.0
  H  H82  1  0.16342000  0.97618000  0.32598000  1.0
  H  H83  1  0.83658000  0.97618000  0.17402000  1.0
  H  H84  1  0.83658000  0.47618000  0.32598000  1.0
  H  H85  1  0.16342000  0.47618000  0.17402000  1.0
  H  H86  1  0.83658000  0.02382000  0.67402000  1.0
  H  H87  1  0.16342000  0.02382000  0.82598000  1.0
  C  C88  1  0.98094000  0.38705000  0.49772000  1.0
  C  C89  1  0.01906000  0.38705000  0.00228000  1.0
  C  C90  1  0.98094000  0.11295000  0.50228000  1.0
  C  C91  1  0.01906000  0.11295000  0.99772000  1.0
  C  C92  1  0.01906000  0.61295000  0.50228000  1.0
  C  C93  1  0.98094000  0.61295000  0.99772000  1.0
  C  C94  1  0.01906000  0.88705000  0.49772000  1.0
  C  C95  1  0.98094000  0.88705000  0.00228000  1.0
  C  C96  1  0.88778000  0.37614000  0.49310000  1.0
  C  C97  1  0.11222000  0.37614000  0.00690000  1.0
  C  C98  1  0.88778000  0.12386000  0.50690000  1.0
  C  C99  1  0.11222000  0.12386000  0.99310000  1.0
  C  C100  1  0.11222000  0.62386000  0.50690000  1.0
  C  C101  1  0.88778000  0.62386000  0.99310000  1.0
  C  C102  1  0.11222000  0.87614000  0.49310000  1.0
  C  C103  1  0.88778000  0.87614000  0.00690000  1.0
  C  C104  1  0.85086000  0.33623000  0.42190000  1.0
  C  C105  1  0.14914000  0.33623000  0.07810000  1.0
  C  C106  1  0.85086000  0.16377000  0.57810000  1.0
  C  C107  1  0.14914000  0.16377000  0.92189000  1.0
  C  C108  1  0.14914000  0.66377000  0.57810000  1.0
  C  C109  1  0.85086000  0.66377000  0.92190000  1.0
  C  C110  1  0.14914000  0.83623000  0.42189000  1.0
  C  C111  1  0.85086000  0.83623000  0.07810000  1.0
  C  C112  1  0.90977000  0.30787000  0.35854000  1.0
  C  C113  1  0.09023000  0.30787000  0.14146000  1.0
  C  C114  1  0.90977000  0.19213000  0.64146000  1.0
  C  C115  1  0.09023000  0.19213000  0.85854000  1.0
  C  C116  1  0.09023000  0.69213000  0.64146000  1.0
  C  C117  1  0.90977000  0.69213000  0.85854000  1.0
  C  C118  1  0.09023000  0.80787000  0.35854000  1.0
  C  C119  1  0.90977000  0.80787000  0.14146000  1.0
  C  C120  1  0.00173000  0.32186000  0.36798000  1.0
  C  C121  1  0.99827000  0.32186000  0.13202000  1.0
  C  C122  1  0.00173000  0.17814000  0.63202000  1.0
  C  C123  1  0.99827000  0.17813000  0.86798000  1.0
  C  C124  1  0.99827000  0.67814000  0.63201000  1.0
  C  C125  1  0.00173000  0.67814000  0.86798000  1.0
  C  C126  1  0.99827000  0.82187000  0.36798000  1.0
  C  C127  1  0.00173000  0.82186000  0.13202000  1.0
  C  C128  1  0.75351000  0.32547000  0.41067000  1.0
  C  C129  1  0.24649000  0.32547000  0.08933000  1.0
  C  C130  1  0.75351000  0.17453000  0.58933000  1.0
  C  C131  1  0.24649000  0.17453000  0.91067000  1.0
  C  C132  1  0.24649000  0.67453000  0.58933000  1.0
  C  C133  1  0.75351000  0.67453000  0.91067000  1.0
  C  C134  1  0.24649000  0.82547000  0.41067000  1.0
  C  C135  1  0.75351000  0.82547000  0.08933000  1.0
  C  C136  1  0.59203000  0.32740000  0.41029000  1.0
  C  C137  1  0.40797000  0.32740000  0.08971000  1.0
  C  C138  1  0.59203000  0.17260000  0.58971000  1.0
  C  C139  1  0.40797000  0.17260000  0.91029000  1.0
  C  C140  1  0.40797000  0.67260000  0.58971000  1.0
  C  C141  1  0.59203000  0.67260000  0.91029000  1.0
  C  C142  1  0.40797000  0.82740000  0.41029000  1.0
  C  C143  1  0.59203000  0.82740000  0.08971000  1.0
  C  C144  1  0.49465000  0.33955000  0.42067000  1.0
  C  C145  1  0.50535000  0.33955000  0.07933000  1.0
  C  C146  1  0.49465000  0.16045000  0.57933000  1.0
  C  C147  1  0.50535000  0.16045000  0.92067000  1.0
  C  C148  1  0.50535000  0.66045000  0.57933000  1.0
  C  C149  1  0.49465000  0.66045000  0.92067000  1.0
  C  C150  1  0.50535000  0.83955000  0.42067000  1.0
  C  C151  1  0.49465000  0.83955000  0.07933000  1.0
  C  C152  1  0.45702000  0.37998000  0.49147000  1.0
  C  C153  1  0.54298000  0.37998000  0.00853000  1.0
  C  C154  1  0.45702000  0.12002000  0.50853000  1.0
  C  C155  1  0.54298000  0.12002000  0.99147000  1.0
  C  C156  1  0.54298000  0.62002000  0.50853000  1.0
  C  C157  1  0.45702000  0.62002000  0.99147000  1.0
  C  C158  1  0.54299000  0.87998000  0.49147000  1.0
  C  C159  1  0.45702000  0.87998000  0.00853000  1.0
  C  C160  1  0.36373000  0.38989000  0.49662000  1.0
  C  C161  1  0.63627000  0.38989000  0.00338000  1.0
  C  C162  1  0.36373000  0.11011000  0.50338000  1.0
  C  C163  1  0.63627000  0.11011000  0.99662000  1.0
  C  C164  1  0.63627000  0.61011000  0.50338000  1.0
  C  C165  1  0.36373000  0.61011000  0.99662000  1.0
  C  C166  1  0.63627000  0.88989000  0.49662000  1.0
  C  C167  1  0.36373000  0.88989000  0.00338000  1.0
  C  C168  1  0.34293000  0.32369000  0.36747000  1.0
  C  C169  1  0.65707000  0.32369000  0.13253000  1.0
  C  C170  1  0.34293000  0.17631000  0.63253000  1.0
  C  C171  1  0.65707000  0.17631000  0.86747000  1.0
  C  C172  1  0.65707000  0.67631000  0.63253000  1.0
  C  C173  1  0.34293000  0.67631000  0.86747000  1.0
  C  C174  1  0.65707000  0.82369000  0.36747000  1.0
  C  C175  1  0.34293000  0.82369000  0.13253000  1.0
  C  C176  1  0.43512000  0.31086000  0.35794000  1.0
  C  C177  1  0.56488000  0.31086000  0.14206000  1.0
  C  C178  1  0.43512000  0.18914000  0.64206000  1.0
  C  C179  1  0.56488000  0.18914000  0.85794000  1.0
  C  C180  1  0.56488000  0.68914000  0.64206000  1.0
  C  C181  1  0.43512000  0.68914000  0.85794000  1.0
  C  C182  1  0.56488000  0.81086000  0.35794000  1.0
  C  C183  1  0.43512000  0.81086000  0.14206000  1.0
  C  C184  1  0.17942000  0.35632000  0.61782000  1.0
  C  C185  1  0.82058000  0.35632000  0.88218000  1.0
  C  C186  1  0.17942000  0.14368000  0.38218000  1.0
  C  C187  1  0.82058000  0.14368000  0.11782000  1.0
  C  C188  1  0.82058000  0.64368000  0.38218000  1.0
  C  C189  1  0.17942000  0.64368000  0.11782000  1.0
  C  C190  1  0.82058000  0.85632000  0.61782000  1.0
  C  C191  1  0.17942000  0.85632000  0.88218000  1.0
  C  C192  1  0.19463000  0.39219000  0.70342000  1.0
  C  C193  1  0.80537000  0.39219000  0.79658000  1.0
  C  C194  1  0.19463000  0.10781000  0.29659000  1.0
  C  C195  1  0.80537000  0.10781000  0.20342000  1.0
  C  C196  1  0.80537000  0.60781000  0.29659000  1.0
  C  C197  1  0.19463000  0.60781000  0.20342000  1.0
  C  C198  1  0.80537000  0.89219000  0.70342000  1.0
  C  C199  1  0.19463000  0.89219000  0.79658000  1.0
  C  C200  1  0.18336000  0.47727000  0.72236000  1.0
  C  C201  1  0.81664000  0.47727000  0.77764000  1.0
  C  C202  1  0.18336000  0.02273000  0.27764000  1.0
  C  C203  1  0.81664000  0.02273000  0.22236000  1.0
  C  C204  1  0.81664000  0.52273000  0.27764000  1.0
  C  C205  1  0.18336000  0.52273000  0.22236000  1.0
  C  C206  1  0.81664000  0.97727000  0.72236000  1.0
  C  C207  1  0.18336000  0.97727000  0.77764000  1.0
  C  C208  1  0.19316000  0.51148000  0.80918000  1.0
  C  C209  1  0.80684000  0.51148000  0.69082000  1.0
  C  C210  1  0.19316000  0.98852000  0.19082000  1.0
  C  C211  1  0.80684000  0.98852000  0.30918000  1.0
  C  C212  1  0.80684000  0.48852000  0.19082000  1.0
  C  C213  1  0.19316000  0.48852000  0.30918000  1.0
  C  C214  1  0.80684000  0.01148000  0.80918000  1.0
  C  C215  1  0.19316000  0.01148000  0.69082000  1.0
  S  S216  1  0.67302000  0.37395000  0.47476000  1.0
  S  S217  1  0.32698000  0.37395000  0.02524000  1.0
  S  S218  1  0.67302000  0.12605000  0.52524000  1.0
  S  S219  1  0.32698000  0.12605000  0.97476000  1.0
  S  S220  1  0.32698000  0.62605000  0.52524000  1.0
  S  S221  1  0.67302000  0.62605000  0.97476000  1.0
  S  S222  1  0.32698000  0.87395000  0.47476000  1.0
  S  S223  1  0.67302000  0.87395000  0.02524000  1.0
  N  N224  1  0.03701000  0.36107000  0.43630000  1.0
  N  N225  1  0.96299000  0.36107000  0.06370000  1.0
  N  N226  1  0.03701000  0.13893000  0.56370000  1.0
  N  N227  1  0.96299000  0.13893000  0.93630000  1.0
  N  N228  1  0.96299000  0.63893000  0.56370000  1.0
  N  N229  1  0.03701000  0.63893000  0.93630000  1.0
  N  N230  1  0.96299000  0.86107000  0.43630000  1.0
  N  N231  1  0.03701000  0.86107000  0.06370000  1.0
  N  N232  1  0.71774000  0.27970000  0.34837000  1.0
  N  N233  1  0.28226000  0.27970000  0.15163000  1.0
  N  N234  1  0.71774000  0.22031000  0.65163000  1.0
  N  N235  1  0.28226000  0.22031000  0.84837000  1.0
  N  N236  1  0.28226000  0.72031000  0.65163000  1.0
  N  N237  1  0.71774000  0.72031000  0.84837000  1.0
  N  N238  1  0.28226000  0.77970000  0.34837000  1.0
  N  N239  1  0.71774000  0.77970000  0.15163000  1.0
  N  N240  1  0.62687000  0.28063000  0.34810000  1.0
  N  N241  1  0.37313000  0.28063000  0.15190000  1.0
  N  N242  1  0.62688000  0.21937000  0.65190000  1.0
  N  N243  1  0.37313000  0.21937000  0.84810000  1.0
  N  N244  1  0.37312000  0.71937000  0.65190000  1.0
  N  N245  1  0.62687000  0.71937000  0.84810000  1.0
  N  N246  1  0.37313000  0.78063000  0.34810000  1.0
  N  N247  1  0.62687000  0.78063000  0.15190000  1.0
  N  N248  1  0.30756000  0.36224000  0.43597000  1.0
  N  N249  1  0.69244000  0.36224000  0.06403000  1.0
  N  N250  1  0.30756000  0.13776000  0.56403000  1.0
  N  N251  1  0.69244000  0.13776000  0.93597000  1.0
  N  N252  1  0.69244000  0.63776000  0.56403000  1.0
  N  N253  1  0.30756000  0.63776000  0.93597000  1.0
  N  N254  1  0.69244000  0.86224000  0.43597000  1.0
  N  N255  1  0.30756000  0.86224000  0.06403000  1.0
  O  O256  1  0.17456000  0.41320000  0.55752000  1.0
  O  O257  1  0.82544000  0.41320000  0.94248000  1.0
  O  O258  1  0.17456000  0.08680000  0.44248000  1.0
  O  O259  1  0.82544000  0.08680000  0.05752000  1.0
  O  O260  1  0.82544000  0.58680000  0.44248000  1.0
  O  O261  1  0.17456000  0.58680000  0.05752000  1.0
  O  O262  1  0.82544000  0.91320000  0.55752000  1.0
  O  O263  1  0.17456000  0.91320000  0.94248000  1.0
  O  O264  1  0.17234000  0.27482000  0.60957000  1.0
  O  O265  1  0.82766000  0.27482000  0.89043000  1.0
  O  O266  1  0.17234000  0.22518000  0.39043000  1.0
  O  O267  1  0.82766000  0.22518000  0.10957000  1.0
  O  O268  1  0.82766000  0.72518000  0.39043000  1.0
  O  O269  1  0.17234000  0.72518000  0.10957000  1.0
  O  O270  1  0.82766000  0.77482000  0.60957000  1.0
  O  O271  1  0.17234000  0.77482000  0.89043000  1.0
  O  O272  1  0.16880000  0.59313000  0.81785000  1.0
  O  O273  1  0.83120000  0.59313000  0.68215000  1.0
  O  O274  1  0.16880000  0.90687000  0.18215000  1.0
  O  O275  1  0.83120000  0.90687000  0.31785000  1.0
  O  O276  1  0.83119000  0.40687000  0.18215000  1.0
  O  O277  1  0.16880000  0.40687000  0.31785000  1.0
  O  O278  1  0.83119000  0.09313000  0.81785000  1.0
  O  O279  1  0.16881000  0.09313000  0.68215000  1.0
  O  O280  1  0.22162000  0.46388000  0.86748000  1.0
  O  O281  1  0.77838000  0.46388000  0.63252000  1.0
  O  O282  1  0.22162000  0.03612000  0.13252000  1.0
  O  O283  1  0.77838000  0.03612000  0.36748000  1.0
  O  O284  1  0.77837000  0.53612000  0.13252000  1.0
  O  O285  1  0.22162000  0.53612000  0.36748000  1.0
  O  O286  1  0.77837000  0.96388000  0.86748000  1.0
  O  O287  1  0.22163000  0.96388000  0.63252000  1.0
