# generated using pymatgen
data_MnH2(C2O)3
_symmetry_space_group_name_H-M   'P 1'
_cell_length_a   7.01423000
_cell_length_b   17.27791684
_cell_length_c   17.28250000
_cell_angle_alpha   118.21465206
_cell_angle_beta   97.75500000
_cell_angle_gamma   97.75793902
_symmetry_Int_Tables_number   1
_chemical_formula_structural   MnH2(C2O)3
_chemical_formula_sum   'Mn6 H12 C36 O18'
_cell_volume   1780.72115233
_cell_formula_units_Z   6
loop_
 _symmetry_equiv_pos_site_id
 _symmetry_equiv_pos_as_xyz
  1  'x, y, z'
loop_
 _atom_site_type_symbol
 _atom_site_label
 _atom_site_symmetry_multiplicity
 _atom_site_fract_x
 _atom_site_fract_y
 _atom_site_fract_z
 _atom_site_occupancy
  Mn  Mn0  1  0.41712000  0.68291000  0.27550000  1.0
  Mn  Mn1  1  0.73419000  0.59238000  0.31684000  1.0
  Mn  Mn2  1  0.14150000  0.72425000  0.40730000  1.0
  Mn  Mn3  1  0.58288000  0.31709000  0.72450000  1.0
  Mn  Mn4  1  0.26581000  0.40762000  0.68316000  1.0
  Mn  Mn5  1  0.85850000  0.27575000  0.59270000  1.0
  H  H6  1  0.97562000  0.96577000  0.56614000  1.0
  H  H7  1  0.00965000  0.60029000  0.03382000  1.0
  H  H8  1  0.40966000  0.43351000  0.39974000  1.0
  H  H9  1  0.02439000  0.03424000  0.43387000  1.0
  H  H10  1  0.99034000  0.39970000  0.96618000  1.0
  H  H11  1  0.59035000  0.56649000  0.60026000  1.0
  H  H12  1  0.86025000  0.10828000  0.61779000  1.0
  H  H13  1  0.75158000  0.50954000  0.89151000  1.0
  H  H14  1  0.24211000  0.38197000  0.49050000  1.0
  H  H15  1  0.13975000  0.89172000  0.38220000  1.0
  H  H16  1  0.24841000  0.49046000  0.10849000  1.0
  H  H17  1  0.75790000  0.61803000  0.50951000  1.0
  C  C18  1  0.78614000  0.80062000  0.44426000  1.0
  C  C19  1  0.98573000  0.64331000  0.19900000  1.0
  C  C20  1  0.34241000  0.55552000  0.35649000  1.0
  C  C21  1  0.21386000  0.19938000  0.55574000  1.0
  C  C22  1  0.01426000  0.35669000  0.80100000  1.0
  C  C23  1  0.65759000  0.44448000  0.64351000  1.0
  C  C24  1  0.69864000  0.87994000  0.47577000  1.0
  C  C25  1  0.81885000  0.59571000  0.11981000  1.0
  C  C26  1  0.22331000  0.52405000  0.40427000  1.0
  C  C27  1  0.30136000  0.12006000  0.52423000  1.0
  C  C28  1  0.18115000  0.40429000  0.88019000  1.0
  C  C29  1  0.77669000  0.47595000  0.59573000  1.0
  C  C30  1  0.49931000  0.87536000  0.44233000  1.0
  C  C31  1  0.62410000  0.56698000  0.12453000  1.0
  C  C32  1  0.05708000  0.55744000  0.43292000  1.0
  C  C33  1  0.50069000  0.12464000  0.55767000  1.0
  C  C34  1  0.37590000  0.43303000  0.87547000  1.0
  C  C35  1  0.94291000  0.44255000  0.56708000  1.0
  C  C36  1  0.82477000  0.96519000  0.54034000  1.0
  C  C37  1  0.85951000  0.57506000  0.03452000  1.0
  C  C38  1  0.28470000  0.45946000  0.42498000  1.0
  C  C39  1  0.17524000  0.03482000  0.45967000  1.0
  C  C40  1  0.14048000  0.42494000  0.96548000  1.0
  C  C41  1  0.71530000  0.54053000  0.57501000  1.0
  C  C42  1  0.76153000  0.04386000  0.56828000  1.0
  C  C43  1  0.71748000  0.52440000  0.95597000  1.0
  C  C44  1  0.19324000  0.43159000  0.47566000  1.0
  C  C45  1  0.23847000  0.95614000  0.43171000  1.0
  C  C46  1  0.28251000  0.47561000  0.04404000  1.0
  C  C47  1  0.80678000  0.56841000  0.52435000  1.0
  C  C48  1  0.56640000  0.04214000  0.53148000  1.0
  C  C49  1  0.52421000  0.48932000  0.95784000  1.0
  C  C50  1  0.03498000  0.46856000  0.51073000  1.0
  C  C51  1  0.43361000  0.95786000  0.46851000  1.0
  C  C52  1  0.47579000  0.51069000  0.04217000  1.0
  C  C53  1  0.96502000  0.53143000  0.48926000  1.0
  O  O54  1  0.96951000  0.81020000  0.47441000  1.0
  O  O55  1  0.15949000  0.66373000  0.18932000  1.0
  O  O56  1  0.49557000  0.52528000  0.33587000  1.0
  O  O57  1  0.03049000  0.18980000  0.52559000  1.0
  O  O58  1  0.84051000  0.33627000  0.81069000  1.0
  O  O59  1  0.50443000  0.47472000  0.66413000  1.0
  O  O60  1  0.67590000  0.72214000  0.38378000  1.0
  O  O61  1  0.95393000  0.66130000  0.27750000  1.0
  O  O62  1  0.29266000  0.61606000  0.33853000  1.0
  O  O63  1  0.32410000  0.27786000  0.61622000  1.0
  O  O64  1  0.04608000  0.33871000  0.72251000  1.0
  O  O65  1  0.70733000  0.38394000  0.66147000  1.0
  O  O66  1  0.36650000  0.79768000  0.38576000  1.0
  O  O67  1  0.56909000  0.58813000  0.20227000  1.0
  O  O68  1  0.98072000  0.61387000  0.41159000  1.0
  O  O69  1  0.63350000  0.20232000  0.61424000  1.0
  O  O70  1  0.43091000  0.41187000  0.79774000  1.0
  O  O71  1  0.01928000  0.38612000  0.58841000  1.0
