# generated using pymatgen
data_CuH36C36(N2O3)2
_symmetry_space_group_name_H-M   'P 1'
_cell_length_a   8.48219000
_cell_length_b   9.12622000
_cell_length_c   10.83410000
_cell_angle_alpha   77.46490000
_cell_angle_beta   86.33150000
_cell_angle_gamma   77.64700000
_symmetry_Int_Tables_number   1
_chemical_formula_structural   CuH36C36(N2O3)2
_chemical_formula_sum   'Cu1 H36 C36 N4 O6'
_cell_volume   799.59057679
_cell_formula_units_Z   1
loop_
 _symmetry_equiv_pos_site_id
 _symmetry_equiv_pos_as_xyz
  1  'x, y, z'
loop_
 _atom_site_type_symbol
 _atom_site_label
 _atom_site_symmetry_multiplicity
 _atom_site_fract_x
 _atom_site_fract_y
 _atom_site_fract_z
 _atom_site_occupancy
  Cu  Cu0  1  0.50000000  0.00000000  0.00000000  1.0
  H  H1  1  0.98827000  0.72663000  0.76153000  1.0
  H  H2  1  0.01172000  0.27337000  0.23847000  1.0
  H  H3  1  0.09786000  0.68854000  0.55090000  1.0
  H  H4  1  0.90215000  0.31147000  0.44910000  1.0
  H  H5  1  0.68120000  0.00977000  0.37782000  1.0
  H  H6  1  0.31881000  0.99023000  0.62217000  1.0
  H  H7  1  0.57410000  0.04621000  0.59146000  1.0
  H  H8  1  0.42590000  0.95380000  0.40853000  1.0
  H  H9  1  0.11055000  0.75288000  0.20801000  1.0
  H  H10  1  0.88947000  0.24712000  0.79200000  1.0
  H  H11  1  0.10007000  0.61959000  0.35518000  1.0
  H  H12  1  0.89994000  0.38040000  0.64482000  1.0
  H  H13  1  0.19352000  0.78128000  0.34680000  1.0
  H  H14  1  0.80649000  0.21871000  0.65320000  1.0
  H  H15  1  0.16327000  0.79084000  0.83990000  1.0
  H  H16  1  0.83673000  0.20917000  0.16011000  1.0
  H  H17  1  0.32018000  0.89818000  0.81012000  1.0
  H  H18  1  0.67982000  0.10182000  0.18989000  1.0
  H  H19  1  0.15441000  0.95076000  0.91041000  1.0
  H  H20  1  0.84560000  0.04924000  0.08960000  1.0
  H  H21  1  0.64825000  0.77238000  0.25555000  1.0
  H  H22  1  0.35175000  0.22761000  0.74445000  1.0
  H  H23  1  0.70014000  0.53214000  0.42191000  1.0
  H  H24  1  0.29986000  0.46785000  0.57809000  1.0
  H  H25  1  0.57366000  0.31317000  0.41313000  1.0
  H  H26  1  0.42634000  0.68682000  0.58686000  1.0
  H  H27  1  0.38698000  0.32853000  0.24111000  1.0
  H  H28  1  0.61303000  0.67146000  0.75888000  1.0
  H  H29  1  0.27853000  0.39469000  0.03260000  1.0
  H  H30  1  0.72147000  0.60531000  0.96739000  1.0
  H  H31  1  0.24043000  0.53802000  0.89430000  1.0
  H  H32  1  0.75956000  0.46198000  0.10570000  1.0
  H  H33  1  0.99010000  0.66940000  0.00289000  1.0
  H  H34  1  0.00990000  0.33060000  0.99712000  1.0
  H  H35  1  0.02779000  0.51497000  0.13545000  1.0
  H  H36  1  0.97221000  0.48503000  0.86455000  1.0
  C  C37  1  0.70993000  0.90799000  0.81945000  1.0
  C  C38  1  0.29006000  0.09202000  0.18054000  1.0
  C  C39  1  0.77489000  0.88864000  0.69086000  1.0
  C  C40  1  0.22510000  0.11136000  0.30914000  1.0
  C  C41  1  0.92193000  0.78903000  0.67684000  1.0
  C  C42  1  0.07807000  0.21097000  0.32316000  1.0
  C  C43  1  0.98293000  0.76682000  0.55821000  1.0
  C  C44  1  0.01707000  0.23318000  0.44179000  1.0
  C  C45  1  0.89513000  0.84705000  0.45001000  1.0
  C  C46  1  0.10487000  0.15296000  0.54998000  1.0
  C  C47  1  0.74746000  0.94800000  0.46273000  1.0
  C  C48  1  0.25255000  0.05200000  0.53726000  1.0
  C  C49  1  0.68841000  0.96783000  0.58156000  1.0
  C  C50  1  0.31159000  0.03217000  0.41843000  1.0
  C  C51  1  0.09604000  0.74086000  0.31046000  1.0
  C  C52  1  0.90397000  0.25914000  0.68954000  1.0
  C  C53  1  0.23572000  0.85253000  0.88134000  1.0
  C  C54  1  0.76428000  0.14748000  0.11867000  1.0
  C  C55  1  0.32803000  0.75540000  0.99136000  1.0
  C  C56  1  0.67198000  0.24460000  0.00865000  1.0
  C  C57  1  0.41200000  0.56123000  0.15269000  1.0
  C  C58  1  0.58799000  0.43876000  0.84731000  1.0
  C  C59  1  0.48497000  0.68609000  0.15644000  1.0
  C  C60  1  0.51503000  0.31391000  0.84357000  1.0
  C  C61  1  0.59157000  0.67687000  0.25257000  1.0
  C  C62  1  0.40843000  0.32313000  0.74744000  1.0
  C  C63  1  0.62088000  0.54123000  0.34403000  1.0
  C  C64  1  0.37911000  0.45877000  0.65598000  1.0
  C  C65  1  0.54827000  0.41714000  0.33949000  1.0
  C  C66  1  0.45173000  0.58286000  0.66051000  1.0
  C  C67  1  0.44293000  0.42465000  0.24343000  1.0
  C  C68  1  0.55707000  0.57535000  0.75657000  1.0
  C  C69  1  0.22313000  0.51567000  0.99757000  1.0
  C  C70  1  0.77687000  0.48433000  0.00243000  1.0
  C  C71  1  0.04377000  0.54647000  0.03203000  1.0
  C  C72  1  0.95623000  0.45354000  0.96798000  1.0
  N  N73  1  0.43152000  0.80304000  0.05373000  1.0
  N  N74  1  0.56848000  0.19696000  0.94627000  1.0
  N  N75  1  0.31471000  0.60853000  0.04678000  1.0
  N  N76  1  0.68530000  0.39147000  0.95322000  1.0
  O  O77  1  0.55591000  0.96506000  0.82433000  1.0
  O  O78  1  0.44409000  0.03495000  0.17566000  1.0
  O  O79  1  0.79961000  0.86884000  0.91374000  1.0
  O  O80  1  0.20039000  0.13116000  0.08625000  1.0
  O  O81  1  0.94190000  0.83456000  0.32955000  1.0
  O  O82  1  0.05811000  0.16543000  0.67045000  1.0
