# generated using pymatgen
data_CdP2H16C13Cl2O9
_symmetry_space_group_name_H-M   'P 1'
_cell_length_a   5.76969000
_cell_length_b   9.12512000
_cell_length_c   18.76040000
_cell_angle_alpha   90.00000000
_cell_angle_beta   90.72710000
_cell_angle_gamma   89.99990000
_symmetry_Int_Tables_number   1
_chemical_formula_structural   CdP2H16C13Cl2O9
_chemical_formula_sum   'Cd2 P4 H32 C26 Cl4 O18'
_cell_volume   987.63889930
_cell_formula_units_Z   2
loop_
 _symmetry_equiv_pos_site_id
 _symmetry_equiv_pos_as_xyz
  1  'x, y, z'
loop_
 _atom_site_type_symbol
 _atom_site_label
 _atom_site_symmetry_multiplicity
 _atom_site_fract_x
 _atom_site_fract_y
 _atom_site_fract_z
 _atom_site_occupancy
  Cd  Cd0  1  0.21214000  0.23793000  0.48899000  1.0
  Cd  Cd1  1  0.78786000  0.73793000  0.51101000  1.0
  P  P2  1  0.70327000  0.40638000  0.42675000  1.0
  P  P3  1  0.29673000  0.90638000  0.57325000  1.0
  P  P4  1  0.72814000  0.29367000  0.26984000  1.0
  P  P5  1  0.27185000  0.79367000  0.73016000  1.0
  H  H6  1  0.22538000  0.00933000  0.38040000  1.0
  H  H7  1  0.77462000  0.50933000  0.61960000  1.0
  H  H8  1  0.06230000  0.13580000  0.34912000  1.0
  H  H9  1  0.93770000  0.63580000  0.65088000  1.0
  H  H10  1  0.90528000  0.07459000  0.56483000  1.0
  H  H11  1  0.09472000  0.57459000  0.43517000  1.0
  H  H12  1  0.74926000  0.18922000  0.52166000  1.0
  H  H13  1  0.25074000  0.68922000  0.47834000  1.0
  H  H14  1  0.41120000  0.48599000  0.53794000  1.0
  H  H15  1  0.58880000  0.98599000  0.46206000  1.0
  H  H16  1  0.17805000  0.47959000  0.58280000  1.0
  H  H17  1  0.82195000  0.97959000  0.41720000  1.0
  H  H18  1  0.80774000  0.94589000  0.25936000  1.0
  H  H19  1  0.19226000  0.44588000  0.74064000  1.0
  H  H20  1  0.74793000  0.75085000  0.16733000  1.0
  H  H21  1  0.25209000  0.25084000  0.83267000  1.0
  H  H22  1  0.40448000  0.76141000  0.08553000  1.0
  H  H23  1  0.59554000  0.26140000  0.91447000  1.0
  H  H24  1  0.12389000  0.96758000  0.09457000  1.0
  H  H25  1  0.87611000  0.46758000  0.90543000  1.0
  H  H26  1  0.18773000  0.16331000  0.18663000  1.0
  H  H27  1  0.81227000  0.66331000  0.81337000  1.0
  H  H28  1  0.07438000  0.51326000  0.18636000  1.0
  H  H29  1  0.92562000  0.01327000  0.81364000  1.0
  H  H30  1  0.36085000  0.50407000  0.08803000  1.0
  H  H31  1  0.63915000  0.00407000  0.91197000  1.0
  H  H32  1  0.29044000  0.34182000  0.98331000  1.0
  H  H33  1  0.70956000  0.84183000  0.01669000  1.0
  H  H34  1  0.65714000  0.18830000  0.07952000  1.0
  H  H35  1  0.34286000  0.68830000  0.92048000  1.0
  H  H36  1  0.94214000  0.18079000  0.97951000  1.0
  H  H37  1  0.05786000  0.68079000  0.02048000  1.0
  C  C38  1  0.64152000  0.44475000  0.32929000  1.0
  C  C39  1  0.35848000  0.94475000  0.67071000  1.0
  C  C40  1  0.49982000  0.06366000  0.22662000  1.0
  C  C41  1  0.50019000  0.56366000  0.77338000  1.0
  C  C42  1  0.65991000  0.94956000  0.22275000  1.0
  C  C43  1  0.34009000  0.44956000  0.77726000  1.0
  C  C44  1  0.62483000  0.84104000  0.17112000  1.0
  C  C45  1  0.37519000  0.34104000  0.82888000  1.0
  C  C46  1  0.43222000  0.84690000  0.12534000  1.0
  C  C47  1  0.56779000  0.34690000  0.87466000  1.0
  C  C48  1  0.27388000  0.96219000  0.13039000  1.0
  C  C49  1  0.72613000  0.46219000  0.86961000  1.0
  C  C50  1  0.30758000  0.07223000  0.18115000  1.0
  C  C51  1  0.69242000  0.57223000  0.81885000  1.0
  C  C52  1  0.85043000  0.35298000  0.13678000  1.0
  C  C53  1  0.14956000  0.85298000  0.86321000  1.0
  C  C54  1  0.04531000  0.44309000  0.14021000  1.0
  C  C55  1  0.95469000  0.94310000  0.85979000  1.0
  C  C56  1  0.20439000  0.43727000  0.08482000  1.0
  C  C57  1  0.79561000  0.93728000  0.91518000  1.0
  C  C58  1  0.16663000  0.34455000  0.02663000  1.0
  C  C59  1  0.83337000  0.84455000  0.97337000  1.0
  C  C60  1  0.81014000  0.25847000  0.07957000  1.0
  C  C61  1  0.18985000  0.75846000  0.92043000  1.0
  C  C62  1  0.96990000  0.25535000  0.02422000  1.0
  C  C63  1  0.03010000  0.75535000  0.97578000  1.0
  Cl  Cl64  1  0.34564000  0.48458000  0.31523000  1.0
  Cl  Cl65  1  0.65436000  0.98458000  0.68477000  1.0
  Cl  Cl66  1  0.81541000  0.59893000  0.30410000  1.0
  Cl  Cl67  1  0.18459000  0.09893000  0.69590000  1.0
  O  O68  1  0.09500000  0.07272000  0.39190000  1.0
  O  O69  1  0.90500000  0.57272000  0.60810000  1.0
  O  O70  1  0.88602000  0.18048000  0.55357000  1.0
  O  O71  1  0.11398000  0.68048000  0.44643000  1.0
  O  O72  1  0.31662000  0.42249000  0.56930000  1.0
  O  O73  1  0.68338000  0.92249000  0.43071000  1.0
  O  O74  1  0.57984000  0.26152000  0.44206000  1.0
  O  O75  1  0.42016000  0.76152000  0.55794000  1.0
  O  O76  1  0.59934000  0.53611000  0.46705000  1.0
  O  O77  1  0.40066000  0.03610000  0.53295000  1.0
  O  O78  1  0.96772000  0.39843000  0.43144000  1.0
  O  O79  1  0.03228000  0.89842000  0.56856000  1.0
  O  O80  1  0.52674000  0.17516000  0.27859000  1.0
  O  O81  1  0.47326000  0.67516000  0.72141000  1.0
  O  O82  1  0.68459000  0.35745000  0.19092000  1.0
  O  O83  1  0.31541000  0.85746000  0.80908000  1.0
  O  O84  1  0.96693000  0.23787000  0.28165000  1.0
  O  O85  1  0.03306000  0.73787000  0.71835000  1.0
