# generated using pymatgen
data_DyH6C8NO8
_symmetry_space_group_name_H-M   'P 1'
_cell_length_a   6.32863000
_cell_length_b   9.41179000
_cell_length_c   9.77527000
_cell_angle_alpha   72.50350000
_cell_angle_beta   80.57930000
_cell_angle_gamma   82.44530000
_symmetry_Int_Tables_number   1
_chemical_formula_structural   DyH6C8NO8
_chemical_formula_sum   'Dy2 H12 C16 N2 O16'
_cell_volume   545.72657408
_cell_formula_units_Z   2
loop_
 _symmetry_equiv_pos_site_id
 _symmetry_equiv_pos_as_xyz
  1  'x, y, z'
loop_
 _atom_site_type_symbol
 _atom_site_label
 _atom_site_symmetry_multiplicity
 _atom_site_fract_x
 _atom_site_fract_y
 _atom_site_fract_z
 _atom_site_occupancy
  Dy  Dy0  1  0.59169000  0.78984000  0.80342000  1.0
  Dy  Dy1  1  0.40831000  0.21016000  0.19658000  1.0
  H  H2  1  0.71118000  0.52171000  0.45767000  1.0
  H  H3  1  0.28882000  0.47830000  0.54233000  1.0
  H  H4  1  0.94291000  0.17287000  0.89057000  1.0
  H  H5  1  0.05709000  0.82714000  0.10942000  1.0
  H  H6  1  0.88961000  0.29439000  0.43396000  1.0
  H  H7  1  0.11039000  0.70561000  0.56604000  1.0
  H  H8  1  0.02330000  0.10799000  0.65400000  1.0
  H  H9  1  0.97670000  0.89200000  0.34600000  1.0
  H  H10  1  0.05283000  0.73164000  0.85672000  1.0
  H  H11  1  0.94718000  0.26836000  0.14328000  1.0
  H  H12  1  0.06516000  0.84623000  0.70557000  1.0
  H  H13  1  0.93484000  0.15377000  0.29443000  1.0
  C  C14  1  0.71452000  0.49335000  0.67309000  1.0
  C  C15  1  0.28548000  0.50665000  0.32690000  1.0
  C  C16  1  0.43880000  0.05869000  0.94214000  1.0
  C  C17  1  0.56122000  0.94131000  0.05785000  1.0
  C  C18  1  0.38103000  0.98306000  0.51588000  1.0
  C  C19  1  0.61898000  0.01693000  0.48413000  1.0
  C  C20  1  0.73507000  0.42108000  0.94249000  1.0
  C  C21  1  0.26492000  0.57893000  0.05751000  1.0
  C  C22  1  0.78219000  0.38646000  0.80082000  1.0
  C  C23  1  0.21781000  0.61354000  0.19918000  1.0
  C  C24  1  0.89074000  0.25074000  0.79210000  1.0
  C  C25  1  0.10926000  0.74926000  0.20789000  1.0
  C  C26  1  0.86515000  0.31346000  0.53997000  1.0
  C  C27  1  0.13486000  0.68655000  0.46003000  1.0
  C  C28  1  0.93661000  0.21342000  0.66104000  1.0
  C  C29  1  0.06340000  0.78658000  0.33896000  1.0
  N  N30  1  0.75812000  0.44596000  0.54889000  1.0
  N  N31  1  0.24189000  0.55404000  0.45111000  1.0
  O  O32  1  0.32528000  0.88840000  0.63598000  1.0
  O  O33  1  0.67472000  0.11160000  0.36401000  1.0
  O  O34  1  0.71243000  0.55448000  0.94660000  1.0
  O  O35  1  0.28757000  0.44552000  0.05340000  1.0
  O  O36  1  0.43727000  0.02785000  0.82471000  1.0
  O  O37  1  0.56273000  0.97215000  0.17529000  1.0
  O  O38  1  0.61812000  0.62238000  0.66176000  1.0
  O  O39  1  0.38187000  0.37761000  0.33824000  1.0
  O  O40  1  0.35087000  0.17493000  0.97487000  1.0
  O  O41  1  0.64912000  0.82506000  0.02513000  1.0
  O  O42  1  0.26096000  0.05139000  0.42160000  1.0
  O  O43  1  0.73903000  0.94861000  0.57841000  1.0
  O  O44  1  0.72213000  0.30814000  0.05691000  1.0
  O  O45  1  0.27786000  0.69186000  0.94309000  1.0
  O  O46  1  0.96237000  0.78300000  0.77936000  1.0
  O  O47  1  0.03762000  0.21700000  0.22064000  1.0
