# generated using pymatgen
data_MgH9C4NO6
_symmetry_space_group_name_H-M   'P 1'
_cell_length_a   6.11705000
_cell_length_b   8.70634000
_cell_length_c   14.88270000
_cell_angle_alpha   89.99900000
_cell_angle_beta   89.99910000
_cell_angle_gamma   89.99910000
_symmetry_Int_Tables_number   1
_chemical_formula_structural   MgH9C4NO6
_chemical_formula_sum   'Mg4 H36 C16 N4 O24'
_cell_volume   792.60969630
_cell_formula_units_Z   4
loop_
 _symmetry_equiv_pos_site_id
 _symmetry_equiv_pos_as_xyz
  1  'x, y, z'
loop_
 _atom_site_type_symbol
 _atom_site_label
 _atom_site_symmetry_multiplicity
 _atom_site_fract_x
 _atom_site_fract_y
 _atom_site_fract_z
 _atom_site_occupancy
  Mg  Mg0  1  0.38284000  0.14106000  0.88452000  1.0
  Mg  Mg1  1  0.88283000  0.35893000  0.11547000  1.0
  Mg  Mg2  1  0.61713000  0.64105000  0.61548000  1.0
  Mg  Mg3  1  0.11714000  0.85893000  0.38453000  1.0
  H  H4  1  0.40860000  0.85840000  0.80294000  1.0
  H  H5  1  0.90860000  0.64159000  0.19705000  1.0
  H  H6  1  0.59144000  0.35841000  0.69705000  1.0
  H  H7  1  0.09140000  0.14159000  0.30295000  1.0
  H  H8  1  0.18154000  0.85433000  0.86108000  1.0
  H  H9  1  0.68151000  0.64566000  0.13892000  1.0
  H  H10  1  0.81852000  0.35433000  0.63893000  1.0
  H  H11  1  0.31847000  0.14566000  0.36108000  1.0
  H  H12  1  0.14707000  0.89254000  0.69217000  1.0
  H  H13  1  0.64706000  0.60746000  0.30782000  1.0
  H  H14  1  0.85297000  0.39253000  0.80783000  1.0
  H  H15  1  0.35292000  0.10747000  0.19218000  1.0
  H  H16  1  0.83054000  0.07256000  0.71599000  1.0
  H  H17  1  0.33054000  0.42743000  0.28400000  1.0
  H  H18  1  0.16944000  0.57256000  0.78401000  1.0
  H  H19  1  0.66944000  0.92744000  0.21600000  1.0
  H  H20  1  0.82539000  0.90643000  0.78186000  1.0
  H  H21  1  0.32537000  0.59358000  0.21813000  1.0
  H  H22  1  0.17466000  0.40644000  0.71814000  1.0
  H  H23  1  0.67461000  0.09357000  0.28186000  1.0
  H  H24  1  0.32435000  0.38926000  0.98142000  1.0
  H  H25  1  0.82437000  0.11073000  0.01858000  1.0
  H  H26  1  0.67564000  0.88926000  0.51858000  1.0
  H  H27  1  0.17565000  0.61073000  0.48142000  1.0
  H  H28  1  0.56881000  0.38993000  0.94950000  1.0
  H  H29  1  0.06882000  0.11007000  0.05050000  1.0
  H  H30  1  0.43118000  0.88993000  0.55050000  1.0
  H  H31  1  0.93119000  0.61007000  0.44950000  1.0
  H  H32  1  0.35364000  0.97589000  0.05620000  1.0
  H  H33  1  0.85362000  0.52411000  0.94379000  1.0
  H  H34  1  0.64637000  0.47590000  0.44379000  1.0
  H  H35  1  0.14636000  0.02411000  0.55621000  1.0
  H  H36  1  0.42933000  0.15459000  0.05617000  1.0
  H  H37  1  0.92933000  0.34542000  0.94382000  1.0
  H  H38  1  0.57067000  0.65459000  0.44382000  1.0
  H  H39  1  0.07067000  0.84541000  0.55618000  1.0
  C  C40  1  0.26120000  0.12302000  0.70176000  1.0
  C  C41  1  0.76120000  0.37699000  0.29824000  1.0
  C  C42  1  0.73879000  0.62301000  0.79824000  1.0
  C  C43  1  0.23878000  0.87698000  0.20177000  1.0
  C  C44  1  0.15330000  0.98042000  0.74487000  1.0
  C  C45  1  0.65332000  0.51959000  0.25512000  1.0
  C  C46  1  0.84671000  0.48040000  0.75513000  1.0
  C  C47  1  0.34668000  0.01960000  0.24488000  1.0
  C  C48  1  0.91564000  0.01380000  0.77145000  1.0
  C  C49  1  0.41565000  0.48622000  0.22854000  1.0
  C  C50  1  0.08436000  0.51379000  0.72855000  1.0
  C  C51  1  0.58434000  0.98622000  0.27146000  1.0
  C  C52  1  0.88950000  0.11125000  0.85486000  1.0
  C  C53  1  0.38946000  0.38875000  0.14514000  1.0
  C  C54  1  0.11048000  0.61126000  0.64515000  1.0
  C  C55  1  0.61049000  0.88875000  0.35486000  1.0
  N  N56  1  0.27878000  0.92568000  0.82369000  1.0
  N  N57  1  0.77880000  0.57432000  0.17630000  1.0
  N  N58  1  0.72125000  0.42568000  0.67630000  1.0
  N  N59  1  0.22120000  0.07431000  0.32370000  1.0
  O  O60  1  0.19821000  0.16182000  0.62417000  1.0
  O  O61  1  0.69818000  0.33818000  0.37581000  1.0
  O  O62  1  0.80183000  0.66181000  0.87583000  1.0
  O  O63  1  0.30182000  0.83820000  0.12418000  1.0
  O  O64  1  0.40305000  0.19577000  0.74859000  1.0
  O  O65  1  0.90304000  0.30426000  0.25141000  1.0
  O  O66  1  0.59697000  0.69575000  0.75141000  1.0
  O  O67  1  0.09696000  0.80425000  0.24859000  1.0
  O  O68  1  0.04809000  0.19538000  0.88173000  1.0
  O  O69  1  0.54806000  0.30462000  0.11829000  1.0
  O  O70  1  0.95193000  0.69539000  0.61829000  1.0
  O  O71  1  0.45192000  0.80462000  0.38171000  1.0
  O  O72  1  0.70939000  0.10816000  0.89719000  1.0
  O  O73  1  0.20933000  0.39185000  0.10282000  1.0
  O  O74  1  0.29062000  0.60812000  0.60281000  1.0
  O  O75  1  0.79063000  0.89186000  0.39718000  1.0
  O  O76  1  0.41738000  0.36772000  0.92876000  1.0
  O  O77  1  0.91742000  0.13227000  0.07124000  1.0
  O  O78  1  0.58260000  0.86772000  0.57124000  1.0
  O  O79  1  0.08261000  0.63227000  0.42876000  1.0
  O  O80  1  0.34893000  0.07572000  0.02028000  1.0
  O  O81  1  0.84889000  0.42427000  0.97971000  1.0
  O  O82  1  0.65111000  0.57573000  0.47971000  1.0
  O  O83  1  0.15111000  0.92427000  0.52029000  1.0
