# generated using pymatgen
data_CuH4C8N5
_symmetry_space_group_name_H-M   'P 1'
_cell_length_a   8.06008000
_cell_length_b   9.19632000
_cell_length_c   10.35480000
_cell_angle_alpha   89.99960000
_cell_angle_beta   90.00030000
_cell_angle_gamma   89.62960000
_symmetry_Int_Tables_number   1
_chemical_formula_structural   CuH4C8N5
_chemical_formula_sum   'Cu4 H16 C32 N20'
_cell_volume   767.51357763
_cell_formula_units_Z   4
loop_
 _symmetry_equiv_pos_site_id
 _symmetry_equiv_pos_as_xyz
  1  'x, y, z'
loop_
 _atom_site_type_symbol
 _atom_site_label
 _atom_site_symmetry_multiplicity
 _atom_site_fract_x
 _atom_site_fract_y
 _atom_site_fract_z
 _atom_site_occupancy
  Cu  Cu0  1  0.64797000  0.88434000  0.08456000  1.0
  Cu  Cu1  1  0.35203000  0.61566000  0.58456000  1.0
  Cu  Cu2  1  0.35203000  0.11566000  0.91544000  1.0
  Cu  Cu3  1  0.64797000  0.38434000  0.41544000  1.0
  H  H4  1  0.63483000  0.57694000  0.06527000  1.0
  H  H5  1  0.36517000  0.92306000  0.56528000  1.0
  H  H6  1  0.36517000  0.42306000  0.93473000  1.0
  H  H7  1  0.63482000  0.07694000  0.43472000  1.0
  H  H8  1  0.91715000  0.37616000  0.67649000  1.0
  H  H9  1  0.08285000  0.12385000  0.17650000  1.0
  H  H10  1  0.08285000  0.62383000  0.32351000  1.0
  H  H11  1  0.91715000  0.87615000  0.82350000  1.0
  H  H12  1  0.83721000  0.37859000  0.09048000  1.0
  H  H13  1  0.16279000  0.12140000  0.59049000  1.0
  H  H14  1  0.16278000  0.62140000  0.90952000  1.0
  H  H15  1  0.83721000  0.87860000  0.40951000  1.0
  H  H16  1  0.70919000  0.57273000  0.65210000  1.0
  H  H17  1  0.29081000  0.92728000  0.15211000  1.0
  H  H18  1  0.29082000  0.42727000  0.34789000  1.0
  H  H19  1  0.70919000  0.07272000  0.84789000  1.0
  C  C20  1  0.89044000  0.36354000  0.88504000  1.0
  C  C21  1  0.10956000  0.13647000  0.38504000  1.0
  C  C22  1  0.10956000  0.63647000  0.11496000  1.0
  C  C23  1  0.89044000  0.86353000  0.61496000  1.0
  C  C24  1  0.65729000  0.58881000  0.85689000  1.0
  C  C25  1  0.34271000  0.91119000  0.35689000  1.0
  C  C26  1  0.34271000  0.41119000  0.14311000  1.0
  C  C27  1  0.65729000  0.08880000  0.64311000  1.0
  C  C28  1  0.53764000  0.70791000  0.84446000  1.0
  C  C29  1  0.46236000  0.79209000  0.34446000  1.0
  C  C30  1  0.46237000  0.29209000  0.15554000  1.0
  C  C31  1  0.53764000  0.20791000  0.65554000  1.0
  C  C32  1  0.69467000  0.53252000  0.97979000  1.0
  C  C33  1  0.30533000  0.96748000  0.47979000  1.0
  C  C34  1  0.30533000  0.46748000  0.02021000  1.0
  C  C35  1  0.69467000  0.03253000  0.52021000  1.0
  C  C36  1  0.85350000  0.41886000  0.76126000  1.0
  C  C37  1  0.14650000  0.08115000  0.26127000  1.0
  C  C38  1  0.14650000  0.58114000  0.23874000  1.0
  C  C39  1  0.85350000  0.91885000  0.73873000  1.0
  C  C40  1  0.80899000  0.42067000  0.99451000  1.0
  C  C41  1  0.19101000  0.07933000  0.49451000  1.0
  C  C42  1  0.19101000  0.57932000  0.00549000  1.0
  C  C43  1  0.80899000  0.92068000  0.50549000  1.0
  C  C44  1  0.01445000  0.25570000  0.90185000  1.0
  C  C45  1  0.98555000  0.24430000  0.40184000  1.0
  C  C46  1  0.98555000  0.74430000  0.09816000  1.0
  C  C47  1  0.01445000  0.75570000  0.59815000  1.0
  C  C48  1  0.73724000  0.53013000  0.74792000  1.0
  C  C49  1  0.26276000  0.96987000  0.24792000  1.0
  C  C50  1  0.26276000  0.46987000  0.25208000  1.0
  C  C51  1  0.73724000  0.03013000  0.75208000  1.0
  N  N52  1  0.52087000  0.81862000  0.92949000  1.0
  N  N53  1  0.47913000  0.68138000  0.42949000  1.0
  N  N54  1  0.47914000  0.18137000  0.07051000  1.0
  N  N55  1  0.52087000  0.31863000  0.57051000  1.0
  N  N56  1  0.39851000  0.90384000  0.88110000  1.0
  N  N57  1  0.60148000  0.59615000  0.38109000  1.0
  N  N58  1  0.60149000  0.09615000  0.11890000  1.0
  N  N59  1  0.39852000  0.40385000  0.61890000  1.0
  N  N60  1  0.12264000  0.17214000  0.91873000  1.0
  N  N61  1  0.87735000  0.32787000  0.41873000  1.0
  N  N62  1  0.87735000  0.82786000  0.08128000  1.0
  N  N63  1  0.12264000  0.67214000  0.58127000  1.0
  N  N64  1  0.42673000  0.72506000  0.74733000  1.0
  N  N65  1  0.57326000  0.77494000  0.24733000  1.0
  N  N66  1  0.57327000  0.27494000  0.25267000  1.0
  N  N67  1  0.42674000  0.22506000  0.75267000  1.0
  N  N68  1  0.34118000  0.84748000  0.77312000  1.0
  N  N69  1  0.65881000  0.65252000  0.27312000  1.0
  N  N70  1  0.65882000  0.15251000  0.22688000  1.0
  N  N71  1  0.34119000  0.34748000  0.72688000  1.0
