# generated using pymatgen
data_Zn4H53C97NO13
_symmetry_space_group_name_H-M   'P 1'
_cell_length_a   17.80790000
_cell_length_b   17.83740000
_cell_length_c   17.88630000
_cell_angle_alpha   86.55120000
_cell_angle_beta   68.79390000
_cell_angle_gamma   65.12320000
_symmetry_Int_Tables_number   1
_chemical_formula_structural   Zn4H53C97NO13
_chemical_formula_sum   'Zn4 H53 C97 N1 O13'
_cell_volume   4776.81500120
_cell_formula_units_Z   1
loop_
 _symmetry_equiv_pos_site_id
 _symmetry_equiv_pos_as_xyz
  1  'x, y, z'
loop_
 _atom_site_type_symbol
 _atom_site_label
 _atom_site_symmetry_multiplicity
 _atom_site_fract_x
 _atom_site_fract_y
 _atom_site_fract_z
 _atom_site_occupancy
  Zn  Zn0  1  0.43247000  0.55685000  0.44146000  1.0
  Zn  Zn1  1  0.42885000  0.46847000  0.60098000  1.0
  Zn  Zn2  1  0.54938000  0.56451000  0.53718000  1.0
  Zn  Zn3  1  0.60494000  0.39157000  0.43743000  1.0
  H  H4  1  0.61726000  0.27742000  0.96048000  1.0
  H  H5  1  0.49548000  0.46348000  0.81889000  1.0
  H  H6  1  0.59786000  0.05637000  0.67759000  1.0
  H  H7  1  0.21453000  0.48294000  0.46515000  1.0
  H  H8  1  0.13445000  0.62834000  0.68590000  1.0
  H  H9  1  0.86280000  0.65625000  0.66866000  1.0
  H  H10  1  0.04106000  0.31858000  0.29217000  1.0
  H  H11  1  0.79543000  0.50784000  0.52810000  1.0
  H  H12  1  0.18593000  0.40208000  0.42379000  1.0
  H  H13  1  0.97505000  0.66225000  0.71369000  1.0
  H  H14  1  0.65943000  0.24181000  0.07833000  1.0
  H  H15  1  0.33919000  0.76047000  0.92907000  1.0
  H  H16  1  0.65075000  0.28432000  0.21339000  1.0
  H  H17  1  0.47715000  0.53470000  0.20318000  1.0
  H  H18  1  0.54555000  0.38037000  0.88272000  1.0
  H  H19  1  0.41930000  0.61728000  0.14105000  1.0
  H  H20  1  0.58335000  0.10270000  0.35955000  1.0
  H  H21  1  0.55689000  0.17163000  0.24076000  1.0
  H  H22  1  0.44000000  0.31654000  0.25934000  1.0
  H  H23  1  0.35042000  0.39213000  0.39730000  1.0
  H  H24  1  0.37382000  0.32167000  0.51627000  1.0
  H  H25  1  0.73058000  0.92058000  0.57796000  1.0
  H  H26  1  0.30746000  0.09149000  0.41435000  1.0
  H  H27  1  0.81606000  0.84096000  0.66183000  1.0
  H  H28  1  0.74165000  0.79053000  0.78766000  1.0
  H  H29  1  0.58248000  0.81811000  0.82699000  1.0
  H  H30  1  0.49775000  0.89703000  0.74199000  1.0
  H  H31  1  0.24739000  0.37521000  0.26529000  1.0
  H  H32  1  0.37628000  0.25350000  0.17410000  1.0
  H  H33  1  0.37735000  0.11307000  0.18439000  1.0
  H  H34  1  0.24815000  0.09568000  0.28608000  1.0
  H  H35  1  0.11966000  0.21735000  0.37745000  1.0
  H  H36  1  0.97015000  0.21337000  0.29716000  1.0
  H  H37  1  0.57527000  0.20198000  0.65608000  1.0
  H  H38  1  0.94363000  0.15666000  0.19066000  1.0
  H  H39  1  0.84083000  0.25194000  0.12652000  1.0
  H  H40  1  0.76579000  0.40413000  0.16936000  1.0
  H  H41  1  0.79254000  0.46055000  0.27579000  1.0
  H  H42  1  0.81326000  0.66000000  0.46683000  1.0
  H  H43  1  0.65218000  0.73135000  0.49110000  1.0
  H  H44  1  0.53972000  0.72696000  0.62317000  1.0
  H  H45  1  0.59028000  0.65300000  0.72971000  1.0
  H  H46  1  0.75240000  0.58128000  0.70507000  1.0
  H  H47  1  0.29586000  0.67462000  0.73298000  1.0
  H  H48  1  0.29039000  0.96513000  0.38917000  1.0
  H  H49  1  0.24321000  0.78150000  0.64629000  1.0
  H  H50  1  0.27076000  0.90822000  0.63883000  1.0
  H  H51  1  0.35098000  0.92715000  0.71955000  1.0
  H  H52  1  0.40580000  0.81872000  0.80535000  1.0
  H  H53  1  0.32727000  0.81477000  0.40222000  1.0
  H  H54  1  0.50255000  0.80042000  0.52005000  1.0
  H  H55  1  0.37781000  0.15781000  0.46259000  1.0
  H  H56  1  0.53642000  0.85897000  0.57869000  1.0
  C  C57  1  0.52610000  0.28961000  0.54433000  1.0
  C  C58  1  0.43001000  0.59725000  0.08030000  1.0
  C  C59  1  0.39468000  0.65694000  0.03451000  1.0
  C  C60  1  0.44377000  0.70956000  0.46944000  1.0
  C  C61  1  0.40750000  0.63480000  0.95328000  1.0
  C  C62  1  0.45334000  0.54882000  0.92318000  1.0
  C  C63  1  0.37597000  0.69529000  0.90394000  1.0
  C  C64  1  0.38910000  0.67419000  0.82518000  1.0
  C  C65  1  0.46266000  0.52811000  0.84450000  1.0
  C  C66  1  0.41824000  0.79973000  0.46194000  1.0
  C  C67  1  0.52726000  0.20571000  0.56015000  1.0
  C  C68  1  0.61568000  0.32909000  0.17972000  1.0
  C  C69  1  0.33674000  0.92901000  0.41831000  1.0
  C  C70  1  0.35685000  0.84591000  0.42526000  1.0
  C  C71  1  0.45602000  0.83857000  0.49228000  1.0
  C  C72  1  0.27670000  0.54000000  0.55244000  1.0
  C  C73  1  0.43567000  0.92351000  0.48728000  1.0
  C  C74  1  0.37555000  0.96943000  0.44812000  1.0
  C  C75  1  0.47388000  0.96471000  0.51991000  1.0
  C  C76  1  0.45870000  0.04824000  0.50593000  1.0
  C  C77  1  0.39610000  0.09216000  0.46841000  1.0
  C  C78  1  0.35565000  0.05502000  0.44156000  1.0
  C  C79  1  0.51713000  0.47155000  0.17337000  1.0
  C  C80  1  0.52446000  0.92286000  0.56784000  1.0
  C  C81  1  0.55750000  0.96106000  0.60363000  1.0
  C  C82  1  0.54368000  0.04539000  0.59047000  1.0
  C  C83  1  0.50102000  0.08733000  0.53582000  1.0
  C  C84  1  0.73616000  0.44284000  0.45203000  1.0
  C  C85  1  0.56955000  0.08787000  0.63358000  1.0
  C  C86  1  0.55782000  0.16818000  0.62135000  1.0
  C  C87  1  0.50081000  0.16659000  0.51583000  1.0
  C  C88  1  0.83130000  0.42831000  0.42638000  1.0
  C  C89  1  0.18271000  0.55417000  0.57269000  1.0
  C  C90  1  0.52275000  0.45068000  0.09620000  1.0
  C  C91  1  0.98698000  0.35975000  0.34490000  1.0
  C  C92  1  0.90026000  0.37528000  0.35620000  1.0
  C  C93  1  0.85095000  0.46868000  0.47563000  1.0
  C  C94  1  0.93788000  0.45996000  0.46058000  1.0
  C  C95  1  0.00838000  0.39801000  0.39640000  1.0
  C  C96  1  0.45601000  0.55835000  0.71089000  1.0
  C  C97  1  0.95750000  0.50817000  0.50755000  1.0
  C  C98  1  0.04870000  0.48764000  0.49148000  1.0
  C  C99  1  0.11667000  0.42146000  0.43122000  1.0
  C  C100  1  0.09946000  0.37673000  0.38474000  1.0
  C  C101  1  0.57432000  0.36565000  0.06236000  1.0
  C  C102  1  0.89013000  0.57474000  0.57041000  1.0
  C  C103  1  0.91485000  0.60749000  0.62045000  1.0
  C  C104  1  0.00503000  0.58551000  0.60822000  1.0
  C  C105  1  0.07313000  0.52985000  0.53909000  1.0
  C  C106  1  0.02815000  0.62080000  0.66053000  1.0
  C  C107  1  0.11581000  0.60320000  0.64497000  1.0
  C  C108  1  0.55238000  0.43776000  0.29689000  1.0
  C  C109  1  0.16128000  0.51915000  0.52069000  1.0
  C  C110  1  0.56255000  0.41251000  0.21449000  1.0
  C  C111  1  0.43349000  0.58819000  0.79607000  1.0
  C  C112  1  0.48021000  0.51184000  0.04983000  1.0
  C  C113  1  0.62010000  0.30630000  0.10541000  1.0
  C  C114  1  0.48041000  0.20739000  0.44603000  1.0
  C  C115  1  0.53151000  0.16584000  0.36771000  1.0
  C  C116  1  0.51661000  0.20468000  0.30119000  1.0
  C  C117  1  0.45102000  0.28600000  0.31150000  1.0
  C  C118  1  0.40040000  0.32808000  0.38887000  1.0
  C  C119  1  0.41451000  0.28899000  0.45576000  1.0
  C  C120  1  0.60813000  0.91455000  0.65463000  1.0
  C  C121  1  0.69812000  0.89831000  0.63281000  1.0
  C  C122  1  0.74603000  0.85359000  0.68005000  1.0
  C  C123  1  0.49029000  0.48680000  0.97162000  1.0
  C  C124  1  0.70454000  0.82488000  0.75024000  1.0
  C  C125  1  0.61524000  0.84044000  0.77238000  1.0
  C  C126  1  0.56756000  0.88467000  0.72474000  1.0
  C  C127  1  0.17460000  0.30487000  0.32772000  1.0
  C  C128  1  0.24789000  0.31373000  0.27011000  1.0
  C  C129  1  0.32021000  0.24525000  0.21881000  1.0
  C  C130  1  0.32082000  0.16660000  0.22438000  1.0
  C  C131  1  0.24823000  0.15693000  0.28144000  1.0
  C  C132  1  0.17577000  0.22535000  0.33247000  1.0
  C  C133  1  0.88298000  0.34075000  0.29400000  1.0
  C  C134  1  0.53903000  0.40074000  0.94180000  1.0
  C  C135  1  0.92590000  0.25528000  0.26861000  1.0
  C  C136  1  0.91060000  0.22342000  0.20894000  1.0
  C  C137  1  0.85291000  0.27668000  0.17313000  1.0
  C  C138  1  0.81065000  0.36209000  0.19729000  1.0
  C  C139  1  0.82545000  0.39379000  0.25723000  1.0
  C  C140  1  0.79351000  0.61548000  0.58425000  1.0
  C  C141  1  0.76427000  0.65896000  0.52467000  1.0
  C  C142  1  0.67360000  0.69913000  0.53862000  1.0
  C  C143  1  0.61076000  0.69702000  0.61227000  1.0
  C  C144  1  0.63914000  0.65515000  0.67234000  1.0
  C  C145  1  0.57936000  0.34267000  0.98523000  1.0
  C  C146  1  0.72991000  0.61494000  0.65858000  1.0
  C  C147  1  0.35513000  0.73903000  0.77495000  1.0
  C  C148  1  0.30886000  0.72957000  0.72972000  1.0
  C  C149  1  0.27851000  0.79012000  0.68136000  1.0
  C  C150  1  0.29354000  0.86138000  0.67747000  1.0
  C  C151  1  0.33861000  0.87188000  0.72278000  1.0
  C  C152  1  0.36899000  0.81127000  0.77127000  1.0
  C  C153  1  0.34549000  0.74188000  0.06796000  1.0
  N  N154  1  0.30500000  0.81178000  0.09457000  1.0
  O  O155  1  0.50560000  0.49355000  0.50327000  1.0
  O  O156  1  0.43245000  0.50227000  0.70169000  1.0
  O  O157  1  0.60078000  0.38356000  0.32980000  1.0
  O  O158  1  0.49906000  0.58942000  0.65565000  1.0
  O  O159  1  0.49543000  0.51196000  0.32751000  1.0
  O  O160  1  0.32409000  0.53614000  0.47805000  1.0
  O  O161  1  0.71934000  0.38634000  0.43088000  1.0
  O  O162  1  0.46294000  0.34895000  0.59733000  1.0
  O  O163  1  0.50730000  0.67174000  0.49475000  1.0
  O  O164  1  0.58848000  0.29359000  0.48330000  1.0
  O  O165  1  0.40091000  0.67650000  0.45006000  1.0
  O  O166  1  0.30327000  0.53266000  0.61129000  1.0
  O  O167  1  0.67874000  0.51163000  0.49522000  1.0
