# generated using pymatgen
data_Zn4H13C28S2BrO13
_symmetry_space_group_name_H-M   'P 1'
_cell_length_a   18.51120000
_cell_length_b   19.71030000
_cell_length_c   32.76790000
_cell_angle_alpha   85.93380000
_cell_angle_beta   73.59190000
_cell_angle_gamma   61.99250000
_symmetry_Int_Tables_number   1
_chemical_formula_structural   Zn4H13C28S2BrO13
_chemical_formula_sum   'Zn16 H52 C112 S8 Br4 O52'
_cell_volume   10098.73135157
_cell_formula_units_Z   4
loop_
 _symmetry_equiv_pos_site_id
 _symmetry_equiv_pos_as_xyz
  1  'x, y, z'
loop_
 _atom_site_type_symbol
 _atom_site_label
 _atom_site_symmetry_multiplicity
 _atom_site_fract_x
 _atom_site_fract_y
 _atom_site_fract_z
 _atom_site_occupancy
  Zn  Zn0  1  0.87543000  0.55528000  0.51849000  1.0
  Zn  Zn1  1  0.03771000  0.48718000  0.43780000  1.0
  Zn  Zn2  1  0.04025000  0.39800000  0.52382000  1.0
  Zn  Zn3  1  0.04772000  0.55894000  0.51915000  1.0
  Zn  Zn4  1  0.62555000  0.19129000  0.73117000  1.0
  Zn  Zn5  1  0.46385000  0.34910000  0.72504000  1.0
  Zn  Zn6  1  0.46009000  0.26505000  0.81273000  1.0
  Zn  Zn7  1  0.45158000  0.19240000  0.73034000  1.0
  Zn  Zn8  1  0.46174000  0.76415000  0.31277000  1.0
  Zn  Zn9  1  0.45079000  0.69403000  0.23127000  1.0
  Zn  Zn10  1  0.62553000  0.69206000  0.23001000  1.0
  Zn  Zn11  1  0.46059000  0.85143000  0.22578000  1.0
  Zn  Zn12  1  0.03756000  0.89884000  0.02400000  1.0
  Zn  Zn13  1  0.04866000  0.05748000  0.01911000  1.0
  Zn  Zn14  1  0.87496000  0.05810000  0.01937000  1.0
  Zn  Zn15  1  0.03746000  0.98568000  0.93737000  1.0
  H  H16  1  0.80294000  0.96621000  0.65540000  1.0
  H  H17  1  0.31105000  0.97642000  0.40154000  1.0
  H  H18  1  0.90817000  0.29167000  0.60457000  1.0
  H  H19  1  0.81326000  0.24404000  0.65206000  1.0
  H  H20  1  0.54068000  0.48449000  0.62154000  1.0
  H  H21  1  0.54587000  0.52465000  0.66705000  1.0
  H  H22  1  0.64228000  0.57294000  0.61884000  1.0
  H  H23  1  0.63698000  0.53275000  0.57338000  1.0
  H  H24  1  0.19609000  0.55297000  0.34362000  1.0
  H  H25  1  0.29110000  0.60049000  0.29620000  1.0
  H  H26  1  0.35345000  0.67472000  0.43181000  1.0
  H  H27  1  0.26250000  0.76302000  0.42911000  1.0
  H  H28  1  0.16602000  0.71482000  0.47727000  1.0
  H  H29  1  0.25694000  0.62652000  0.47997000  1.0
  H  H30  1  0.90746000  0.55295000  0.34355000  1.0
  H  H31  1  0.81245000  0.60051000  0.29608000  1.0
  H  H32  1  0.54545000  0.76310000  0.42902000  1.0
  H  H33  1  0.54005000  0.67484000  0.43168000  1.0
  H  H34  1  0.63661000  0.62648000  0.47980000  1.0
  H  H35  1  0.64202000  0.71472000  0.47719000  1.0
  H  H36  1  0.20912000  0.50587000  0.59794000  1.0
  H  H37  1  0.30415000  0.45832000  0.64542000  1.0
  H  H38  1  0.33393000  0.17704000  0.63115000  1.0
  H  H39  1  0.24301000  0.21715000  0.67663000  1.0
  H  H40  1  0.14659000  0.26537000  0.62848000  1.0
  H  H41  1  0.23748000  0.22525000  0.58299000  1.0
  H  H42  1  0.18909000  0.65954000  0.96242000  1.0
  H  H43  1  0.59205000  0.19724000  0.90647000  1.0
  H  H44  1  0.68706000  0.14982000  0.95394000  1.0
  H  H45  1  0.95943000  0.07550000  0.81841000  1.0
  H  H46  1  0.95419000  0.98720000  0.82106000  1.0
  H  H47  1  0.85787000  0.03527000  0.77287000  1.0
  H  H48  1  0.86311000  0.12361000  0.77021000  1.0
  H  H49  1  0.29064000  0.10014000  0.79617000  1.0
  H  H50  1  0.19566000  0.05272000  0.84368000  1.0
  H  H51  1  0.16605000  0.21472000  0.97716000  1.0
  H  H52  1  0.25698000  0.12643000  0.97986000  1.0
  H  H53  1  0.35338000  0.17453000  0.93160000  1.0
  H  H54  1  0.26249000  0.26281000  0.92893000  1.0
  H  H55  1  0.92532000  0.28362000  0.09455000  1.0
  H  H56  1  0.29057000  0.74452000  0.15198000  1.0
  H  H57  1  0.19567000  0.79195000  0.10448000  1.0
  H  H58  1  0.25697000  0.03313000  0.07320000  1.0
  H  H59  1  0.16597000  0.07324000  0.11867000  1.0
  H  H60  1  0.26228000  0.02495000  0.16689000  1.0
  H  H61  1  0.35325000  0.98480000  0.12144000  1.0
  H  H62  1  0.59213000  0.95839000  0.14538000  1.0
  H  H63  1  0.68720000  0.00575000  0.09789000  1.0
  H  H64  1  0.95417000  0.72509000  0.08304000  1.0
  H  H65  1  0.95949000  0.76527000  0.12850000  1.0
  H  H66  1  0.86312000  0.71716000  0.17670000  1.0
  H  H67  1  0.85780000  0.67692000  0.13126000  1.0
  C  C68  1  0.86262000  0.56848000  0.43022000  1.0
  C  C69  1  0.12267000  0.31660000  0.43849000  1.0
  C  C70  1  0.86332000  0.42929000  0.56894000  1.0
  C  C71  1  0.13851000  0.43220000  0.56892000  1.0
  C  C72  1  0.87666000  0.68338000  0.56091000  1.0
  C  C73  1  0.13797000  0.56920000  0.43030000  1.0
  C  C74  1  0.64009000  0.31732000  0.68080000  1.0
  C  C75  1  0.37770000  0.43383000  0.81070000  1.0
  C  C76  1  0.63673000  0.18128000  0.81977000  1.0
  C  C77  1  0.36131000  0.18051000  0.81842000  1.0
  C  C78  1  0.62299000  0.06546000  0.68847000  1.0
  C  C79  1  0.36238000  0.32009000  0.68050000  1.0
  C  C80  1  0.36166000  0.68074000  0.31876000  1.0
  C  C81  1  0.62181000  0.56652000  0.18863000  1.0
  C  C82  1  0.63908000  0.68056000  0.31847000  1.0
  C  C83  1  0.63666000  0.82040000  0.18067000  1.0
  C  C84  1  0.37685000  0.93412000  0.31158000  1.0
  C  C85  1  0.36111000  0.81841000  0.18094000  1.0
  C  C86  1  0.13792000  0.92989000  0.06897000  1.0
  C  C87  1  0.87786000  0.18434000  0.06141000  1.0
  C  C88  1  0.86051000  0.93196000  0.06903000  1.0
  C  C89  1  0.86038000  0.06978000  0.93149000  1.0
  C  C90  1  0.12236000  0.81558000  0.93859000  1.0
  C  C91  1  0.13782000  0.06867000  0.93039000  1.0
  C  C92  1  0.73677000  0.80236000  0.60079000  1.0
  C  C93  1  0.76016000  0.94749000  0.64917000  1.0
  C  C94  1  0.82491000  0.75802000  0.58598000  1.0
  C  C95  1  0.67226000  0.99053000  0.66352000  1.0
  C  C96  1  0.78388000  0.87873000  0.62623000  1.0
  C  C97  1  0.71319000  0.87113000  0.62371000  1.0
  C  C98  1  0.20170000  0.22792000  0.36854000  1.0
  C  C99  1  0.29857000  0.02275000  0.38016000  1.0
  C  C100  1  0.17230000  0.24284000  0.41263000  1.0
  C  C101  1  0.32718000  0.00935000  0.33621000  1.0
  C  C102  1  0.25273000  0.10254000  0.39205000  1.0
  C  C103  1  0.24758000  0.14803000  0.35673000  1.0
  C  C104  1  0.69638000  0.34630000  0.65247000  1.0
  C  C105  1  0.80615000  0.40140000  0.59752000  1.0
  C  C106  1  0.66426000  0.41891000  0.63654000  1.0
  C  C107  1  0.83921000  0.32780000  0.61357000  1.0
  C  C108  1  0.71759000  0.44567000  0.60984000  1.0
  C  C109  1  0.78604000  0.30112000  0.64018000  1.0
  C  C110  1  0.58353000  0.49199000  0.63598000  1.0
  C  C111  1  0.64389000  0.52226000  0.60578000  1.0
  C  C112  1  0.30510000  0.65226000  0.34728000  1.0
  C  C113  1  0.19515000  0.59736000  0.40211000  1.0
  C  C114  1  0.28053000  0.66446000  0.39152000  1.0
  C  C115  1  0.21986000  0.58453000  0.35726000  1.0
  C  C116  1  0.22714000  0.63779000  0.41816000  1.0
  C  C117  1  0.27311000  0.61115000  0.33069000  1.0
  C  C118  1  0.28866000  0.70011000  0.42835000  1.0
  C  C119  1  0.22818000  0.66990000  0.45853000  1.0
  C  C120  1  0.69554000  0.65227000  0.34707000  1.0
  C  C121  1  0.80549000  0.59720000  0.40201000  1.0
  C  C122  1  0.66359000  0.66450000  0.39135000  1.0
  C  C123  1  0.83849000  0.58453000  0.35717000  1.0
  C  C124  1  0.71699000  0.63776000  0.41802000  1.0
  C  C125  1  0.78523000  0.61120000  0.33057000  1.0
  C  C126  1  0.58297000  0.70019000  0.42821000  1.0
  C  C127  1  0.64346000  0.66990000  0.45839000  1.0
  C  C128  1  0.30507000  0.34843000  0.65237000  1.0
  C  C129  1  0.19506000  0.40351000  0.59746000  1.0
  C  C130  1  0.27293000  0.30425000  0.64016000  1.0
  C  C131  1  0.22713000  0.44878000  0.60981000  1.0
  C  C132  1  0.21952000  0.33098000  0.61347000  1.0
  C  C133  1  0.28039000  0.42214000  0.63640000  1.0
  C  C134  1  0.27180000  0.22767000  0.64423000  1.0
  C  C135  1  0.21137000  0.25789000  0.61405000  1.0
  C  C136  1  0.29846000  0.58312000  0.82016000  1.0
  C  C137  1  0.20152000  0.66842000  0.92855000  1.0
  C  C138  1  0.32789000  0.50950000  0.83472000  1.0
  C  C139  1  0.17275000  0.74102000  0.91326000  1.0
  C  C140  1  0.24741000  0.61063000  0.89461000  1.0
  C  C141  1  0.25253000  0.64083000  0.85418000  1.0
  C  C142  1  0.80392000  0.09801000  0.90293000  1.0
  C  C143  1  0.69392000  0.15289000  0.84800000  1.0
  C  C144  1  0.83588000  0.08573000  0.85867000  1.0
  C  C145  1  0.66101000  0.16565000  0.89284000  1.0
  C  C146  1  0.78249000  0.11238000  0.83198000  1.0
  C  C147  1  0.71425000  0.13909000  0.91946000  1.0
  C  C148  1  0.91657000  0.05011000  0.82186000  1.0
  C  C149  1  0.85620000  0.08026000  0.79165000  1.0
  C  C150  1  0.19480000  0.09711000  0.90214000  1.0
  C  C151  1  0.30478000  0.15202000  0.84709000  1.0
  C  C152  1  0.22694000  0.13756000  0.91808000  1.0
  C  C153  1  0.27267000  0.11089000  0.83065000  1.0
  C  C154  1  0.28032000  0.16425000  0.89136000  1.0
  C  C155  1  0.21941000  0.08431000  0.85729000  1.0
  C  C156  1  0.22816000  0.16974000  0.95840000  1.0
  C  C157  1  0.28858000  0.19990000  0.92815000  1.0
  C  C158  1  0.64072000  0.44733000  0.14909000  1.0
  C  C159  1  0.85763000  0.30228000  0.10076000  1.0
  C  C160  1  0.66981000  0.49166000  0.16385000  1.0
  C  C161  1  0.82721000  0.25921000  0.08638000  1.0
  C  C162  1  0.78963000  0.37099000  0.12368000  1.0
  C  C163  1  0.70884000  0.37854000  0.12619000  1.0
  C  C164  1  0.19487000  0.90179000  0.09733000  1.0
  C  C165  1  0.30463000  0.84693000  0.15239000  1.0
  C  C166  1  0.22689000  0.94603000  0.10960000  1.0
  C  C167  1  0.27261000  0.80159000  0.14007000  1.0
  C  C168  1  0.28017000  0.91937000  0.13634000  1.0
  C  C169  1  0.21946000  0.82818000  0.11342000  1.0
  C  C170  1  0.22808000  0.02260000  0.10557000  1.0
  C  C171  1  0.28843000  0.99236000  0.13581000  1.0
  C  C172  1  0.80403000  0.90332000  0.09748000  1.0
  C  C173  1  0.69398000  0.84847000  0.15242000  1.0
  C  C174  1  0.83596000  0.83081000  0.11349000  1.0
  C  C175  1  0.66107000  0.92212000  0.13639000  1.0
  C  C176  1  0.78253000  0.80416000  0.14019000  1.0
  C  C177  1  0.71436000  0.94868000  0.10978000  1.0
  C  C178  1  0.91660000  0.75777000  0.11410000  1.0
  C  C179  1  0.85618000  0.72760000  0.14430000  1.0
  S  S180  1  0.87874000  0.80100000  0.60030000  1.0
  S  S181  1  0.61789000  0.94818000  0.64938000  1.0
  S  S182  1  0.20102000  0.15861000  0.43952000  1.0
  S  S183  1  0.29889000  0.09306000  0.30905000  1.0
  S  S184  1  0.29912000  0.51136000  0.89029000  1.0
  S  S185  1  0.20117000  0.73983000  0.85782000  1.0
  S  S186  1  0.78091000  0.44870000  0.14956000  1.0
  S  S187  1  0.71633000  0.30149000  0.10050000  1.0
  Br  Br188  1  0.65384000  0.77902000  0.59306000  1.0
  Br  Br189  1  0.18616000  0.30038000  0.32711000  1.0
  Br  Br190  1  0.31423000  0.60901000  0.76317000  1.0
  Br  Br191  1  0.52680000  0.47069000  0.15680000  1.0
  O  O192  1  0.00064000  0.49968000  0.50031000  1.0
  O  O193  1  0.82612000  0.58271000  0.47034000  1.0
  O  O194  1  0.10183000  0.37754000  0.41846000  1.0
  O  O195  1  0.94354000  0.38434000  0.55952000  1.0
  O  O196  1  0.94277000  0.53221000  0.41230000  1.0
  O  O197  1  0.82642000  0.49666000  0.55615000  1.0
  O  O198  1  0.10500000  0.31242000  0.47905000  1.0
  O  O199  1  0.11401000  0.38608000  0.55948000  1.0
  O  O200  1  0.95773000  0.65659000  0.55164000  1.0
  O  O201  1  0.11928000  0.49978000  0.55631000  1.0
  O  O202  1  0.83680000  0.65240000  0.55072000  1.0
  O  O203  1  0.11267000  0.53239000  0.41228000  1.0
  O  O204  1  0.11887000  0.58448000  0.47038000  1.0
  O  O205  1  0.50040000  0.24901000  0.75011000  1.0
  O  O206  1  0.67568000  0.24981000  0.69354000  1.0
  O  O207  1  0.39902000  0.43327000  0.77020000  1.0
  O  O208  1  0.55651000  0.21845000  0.83754000  1.0
  O  O209  1  0.55998000  0.36319000  0.68999000  1.0
  O  O210  1  0.67352000  0.16568000  0.77973000  1.0
  O  O211  1  0.39507000  0.37507000  0.83307000  1.0
  O  O212  1  0.38589000  0.21782000  0.83664000  1.0
  O  O213  1  0.54175000  0.09496000  0.69780000  1.0
  O  O214  1  0.38041000  0.16562000  0.77832000  1.0
  O  O215  1  0.66567000  0.09387000  0.69840000  1.0
  O  O216  1  0.38828000  0.36513000  0.68979000  1.0
  O  O217  1  0.38100000  0.25243000  0.69299000  1.0
  O  O218  1  0.50033000  0.75064000  0.25016000  1.0
  O  O219  1  0.38680000  0.71764000  0.33697000  1.0
  O  O220  1  0.54083000  0.59715000  0.19900000  1.0
  O  O221  1  0.67476000  0.66590000  0.27838000  1.0
  O  O222  1  0.38038000  0.66617000  0.27871000  1.0
  O  O223  1  0.55892000  0.71743000  0.33685000  1.0
  O  O224  1  0.66649000  0.59412000  0.19751000  1.0
  O  O225  1  0.67316000  0.75260000  0.19298000  1.0
  O  O226  1  0.39565000  0.93601000  0.27097000  1.0
  O  O227  1  0.55648000  0.86581000  0.19021000  1.0
  O  O228  1  0.39633000  0.87434000  0.33287000  1.0
  O  O229  1  0.38012000  0.75095000  0.19361000  1.0
  O  O230  1  0.38584000  0.86435000  0.19042000  1.0
  O  O231  1  0.00006000  0.99996000  0.99997000  1.0
  O  O232  1  0.11260000  0.88457000  0.05942000  1.0
  O  O233  1  0.95895000  0.15535000  0.05174000  1.0
  O  O234  1  0.82486000  0.99975000  0.05671000  1.0
  O  O235  1  0.11916000  0.99763000  0.05656000  1.0
  O  O236  1  0.94063000  0.88573000  0.05933000  1.0
  O  O237  1  0.83529000  0.15535000  0.05177000  1.0
  O  O238  1  0.82473000  0.08515000  0.97155000  1.0
  O  O239  1  0.10266000  0.87565000  0.91739000  1.0
  O  O240  1  0.94048000  0.03221000  0.91320000  1.0
  O  O241  1  0.10300000  0.81347000  0.97909000  1.0
  O  O242  1  0.11922000  0.08377000  0.97048000  1.0
  O  O243  1  0.11232000  0.03185000  0.91251000  1.0
