# generated using pymatgen
data_La2H22C8S3(NO10)2
_symmetry_space_group_name_H-M   'P 1'
_cell_length_a   6.68498000
_cell_length_b   12.73070000
_cell_length_c   13.59860000
_cell_angle_alpha   79.09160000
_cell_angle_beta   75.85080000
_cell_angle_gamma   74.78900000
_symmetry_Int_Tables_number   1
_chemical_formula_structural   La2H22C8S3(NO10)2
_chemical_formula_sum   'La4 H44 C16 S6 N4 O40'
_cell_volume   1073.15498321
_cell_formula_units_Z   2
loop_
 _symmetry_equiv_pos_site_id
 _symmetry_equiv_pos_as_xyz
  1  'x, y, z'
loop_
 _atom_site_type_symbol
 _atom_site_label
 _atom_site_symmetry_multiplicity
 _atom_site_fract_x
 _atom_site_fract_y
 _atom_site_fract_z
 _atom_site_occupancy
  La  La0  1  0.72107000  0.54864000  0.13109000  1.0
  La  La1  1  0.40096000  0.95131000  0.36885000  1.0
  La  La2  1  0.27893000  0.45136000  0.86891000  1.0
  La  La3  1  0.59904000  0.04869000  0.63115000  1.0
  H  H4  1  0.34643000  0.74898000  0.97452000  1.0
  H  H5  1  0.07036000  0.75092000  0.52584000  1.0
  H  H6  1  0.65356000  0.25102000  0.02548000  1.0
  H  H7  1  0.92964000  0.24908000  0.47416000  1.0
  H  H8  1  0.19881000  0.79311000  0.87454000  1.0
  H  H9  1  0.86714000  0.70672000  0.62559000  1.0
  H  H10  1  0.80119000  0.20689000  0.12546000  1.0
  H  H11  1  0.13286000  0.29328000  0.37441000  1.0
  H  H12  1  0.29335000  0.97663000  0.90961000  1.0
  H  H13  1  0.18033000  0.52332000  0.59043000  1.0
  H  H14  1  0.70665000  0.02337000  0.09039000  1.0
  H  H15  1  0.81967000  0.47668000  0.40956000  1.0
  H  H16  1  0.35507000  0.91047000  0.03083000  1.0
  H  H17  1  0.29644000  0.58948000  0.46919000  1.0
  H  H18  1  0.64493000  0.08953000  0.96917000  1.0
  H  H19  1  0.70356000  0.41051000  0.53080000  1.0
  H  H20  1  0.78666000  0.88577000  0.96803000  1.0
  H  H21  1  0.64093000  0.61440000  0.53179000  1.0
  H  H22  1  0.21333000  0.11423000  0.03197000  1.0
  H  H23  1  0.35908000  0.38560000  0.46821000  1.0
  H  H24  1  0.94832000  0.96454000  0.87573000  1.0
  H  H25  1  0.78923000  0.53554000  0.62423000  1.0
  H  H26  1  0.05168000  0.03546000  0.12427000  1.0
  H  H27  1  0.21077000  0.46446000  0.37577000  1.0
  H  H28  1  0.89460000  0.63851000  0.27837000  1.0
  H  H29  1  0.81129000  0.86146000  0.22162000  1.0
  H  H30  1  0.10540000  0.36149000  0.72163000  1.0
  H  H31  1  0.18872000  0.13854000  0.77838000  1.0
  H  H32  1  0.54610000  0.36159000  0.26486000  1.0
  H  H33  1  0.17243000  0.13842000  0.23511000  1.0
  H  H34  1  0.45390000  0.63841000  0.73514000  1.0
  H  H35  1  0.82757000  0.86158000  0.76489000  1.0
  H  H36  1  0.65035000  0.68307000  0.31995000  1.0
  H  H37  1  0.65308000  0.81700000  0.17989000  1.0
  H  H38  1  0.34966000  0.31693000  0.68005000  1.0
  H  H39  1  0.34692000  0.18301000  0.82012000  1.0
  H  H40  1  0.03627000  0.85862000  0.08167000  1.0
  H  H41  1  0.97629000  0.64140000  0.41840000  1.0
  H  H42  1  0.96373000  0.14138000  0.91833000  1.0
  H  H43  1  0.02371000  0.35860000  0.58159000  1.0
  H  H44  1  0.77641000  0.32532000  0.28106000  1.0
  H  H45  1  0.38290000  0.17441000  0.21893000  1.0
  H  H46  1  0.22358000  0.67468000  0.71894000  1.0
  H  H47  1  0.61710000  0.82559000  0.78107000  1.0
  C  C48  1  0.06204000  0.69046000  0.00633000  1.0
  C  C49  1  0.75924000  0.80948000  0.49376000  1.0
  C  C50  1  0.93796000  0.30954000  0.99368000  1.0
  C  C51  1  0.24076000  0.19052000  0.50624000  1.0
  C  C52  1  0.18662000  0.77789000  0.95784000  1.0
  C  C53  1  0.92282000  0.72204000  0.54233000  1.0
  C  C54  1  0.81338000  0.22211000  0.04216000  1.0
  C  C55  1  0.07718000  0.27796000  0.45767000  1.0
  C  C56  1  0.22735000  0.95631000  0.99120000  1.0
  C  C57  1  0.17516000  0.54363000  0.50884000  1.0
  C  C58  1  0.77265000  0.04369000  0.00880000  1.0
  C  C59  1  0.82484000  0.45637000  0.49116000  1.0
  C  C60  1  0.89048000  0.94237000  0.95795000  1.0
  C  C61  1  0.79109000  0.55768000  0.54200000  1.0
  C  C62  1  0.10952000  0.05764000  0.04205000  1.0
  C  C63  1  0.20891000  0.44232000  0.45800000  1.0
  S  S64  1  0.28716000  0.40692000  0.14570000  1.0
  S  S65  1  0.84000000  0.09295000  0.35435000  1.0
  S  S66  1  0.71284000  0.59308000  0.85430000  1.0
  S  S67  1  0.16000000  0.90705000  0.64565000  1.0
  S  S68  1  0.23580000  0.74996000  0.24995000  1.0
  S  S69  1  0.76420000  0.25005000  0.75005000  1.0
  N  N70  1  0.08041000  0.88215000  0.00240000  1.0
  N  N71  1  0.96521000  0.61783000  0.49764000  1.0
  N  N72  1  0.91959000  0.11785000  0.99760000  1.0
  N  N73  1  0.03479000  0.38217000  0.50236000  1.0
  O  O74  1  0.90574000  0.71201000  0.07974000  1.0
  O  O75  1  0.69771000  0.78791000  0.42031000  1.0
  O  O76  1  0.09426000  0.28799000  0.92026000  1.0
  O  O77  1  0.30230000  0.21209000  0.57969000  1.0
  O  O78  1  0.40056000  0.49672000  0.13012000  1.0
  O  O79  1  0.02759000  0.00306000  0.36978000  1.0
  O  O80  1  0.59944000  0.50328000  0.86988000  1.0
  O  O81  1  0.97241000  0.99694000  0.63022000  1.0
  O  O82  1  0.32190000  0.36278000  0.04751000  1.0
  O  O83  1  0.73283000  0.13690000  0.45262000  1.0
  O  O84  1  0.67810000  0.63722000  0.95249000  1.0
  O  O85  1  0.26717000  0.86310000  0.54738000  1.0
  O  O86  1  0.12335000  0.59975000  0.97127000  1.0
  O  O87  1  0.69476000  0.90018000  0.52883000  1.0
  O  O88  1  0.87664000  0.40025000  0.02874000  1.0
  O  O89  1  0.30524000  0.09982000  0.47117000  1.0
  O  O90  1  0.65964000  0.39170000  0.27809000  1.0
  O  O91  1  0.32917000  0.10817000  0.22181000  1.0
  O  O92  1  0.34036000  0.60830000  0.72191000  1.0
  O  O93  1  0.67083000  0.89183000  0.77819000  1.0
  O  O94  1  0.05814000  0.45046000  0.18541000  1.0
  O  O95  1  0.69389000  0.04965000  0.31447000  1.0
  O  O96  1  0.94186000  0.54954000  0.81459000  1.0
  O  O97  1  0.30610000  0.95035000  0.68553000  1.0
  O  O98  1  0.75301000  0.62098000  0.29032000  1.0
  O  O99  1  0.66404000  0.87901000  0.20969000  1.0
  O  O100  1  0.24699000  0.37902000  0.70968000  1.0
  O  O101  1  0.33596000  0.12099000  0.79031000  1.0
  O  O102  1  0.37188000  0.31683000  0.22320000  1.0
  O  O103  1  0.91201000  0.18315000  0.27706000  1.0
  O  O104  1  0.62812000  0.68317000  0.77680000  1.0
  O  O105  1  0.08799000  0.81685000  0.72294000  1.0
  O  O106  1  0.42385000  0.72029000  0.16577000  1.0
  O  O107  1  0.31047000  0.77964000  0.33415000  1.0
  O  O108  1  0.57615000  0.27971000  0.83423000  1.0
  O  O109  1  0.68953000  0.22036000  0.66585000  1.0
  O  O110  1  0.13560000  0.65482000  0.29136000  1.0
  O  O111  1  0.08163000  0.84507000  0.20856000  1.0
  O  O112  1  0.86440000  0.34518000  0.70864000  1.0
  O  O113  1  0.91838000  0.15494000  0.79144000  1.0
