# generated using pymatgen
data_AgH10C14N7O5
_symmetry_space_group_name_H-M   'P 1'
_cell_length_a   10.21250000
_cell_length_b   11.51040000
_cell_length_c   15.51490000
_cell_angle_alpha   90.00000000
_cell_angle_beta   90.00000000
_cell_angle_gamma   90.00000000
_symmetry_Int_Tables_number   1
_chemical_formula_structural   AgH10C14N7O5
_chemical_formula_sum   'Ag4 H40 C56 N28 O20'
_cell_volume   1823.77587440
_cell_formula_units_Z   4
loop_
 _symmetry_equiv_pos_site_id
 _symmetry_equiv_pos_as_xyz
  1  'x, y, z'
loop_
 _atom_site_type_symbol
 _atom_site_label
 _atom_site_symmetry_multiplicity
 _atom_site_fract_x
 _atom_site_fract_y
 _atom_site_fract_z
 _atom_site_occupancy
  Ag  Ag0  1  0.27351000  0.41940000  0.07044000  1.0
  Ag  Ag1  1  0.72650000  0.91941000  0.92956000  1.0
  Ag  Ag2  1  0.27350000  0.91941000  0.42956000  1.0
  Ag  Ag3  1  0.72649000  0.41940000  0.57044000  1.0
  H  H4  1  0.97421000  0.71187000  0.33882000  1.0
  H  H5  1  0.02580000  0.21187000  0.66118000  1.0
  H  H6  1  0.97420000  0.21187000  0.16118000  1.0
  H  H7  1  0.02580000  0.71186000  0.83882000  1.0
  H  H8  1  0.95154000  0.75782000  0.18147000  1.0
  H  H9  1  0.04847000  0.25782000  0.81852000  1.0
  H  H10  1  0.95154000  0.25782000  0.31853000  1.0
  H  H11  1  0.04846000  0.75782000  0.68148000  1.0
  H  H12  1  0.08459000  0.64323000  0.07565000  1.0
  H  H13  1  0.91541000  0.14323000  0.92435000  1.0
  H  H14  1  0.08459000  0.14323000  0.42435000  1.0
  H  H15  1  0.91541000  0.64323000  0.57565000  1.0
  H  H16  1  0.43798000  0.29891000  0.44755000  1.0
  H  H17  1  0.56202000  0.79892000  0.55244000  1.0
  H  H18  1  0.43798000  0.79892000  0.05245000  1.0
  H  H19  1  0.56202000  0.29891000  0.94755000  1.0
  H  H20  1  0.52912000  0.18135000  0.32768000  1.0
  H  H21  1  0.47088000  0.68135000  0.67232000  1.0
  H  H22  1  0.52912000  0.68135000  0.17232000  1.0
  H  H23  1  0.47088000  0.18134000  0.82768000  1.0
  H  H24  1  0.45347000  0.22264000  0.17606000  1.0
  H  H25  1  0.54653000  0.72264000  0.82394000  1.0
  H  H26  1  0.45347000  0.72264000  0.32394000  1.0
  H  H27  1  0.54653000  0.22264000  0.67606000  1.0
  H  H28  1  0.93107000  0.50428000  0.44544000  1.0
  H  H29  1  0.06893000  0.00428000  0.55455000  1.0
  H  H30  1  0.93107000  0.00428000  0.05456000  1.0
  H  H31  1  0.06893000  0.50427000  0.94545000  1.0
  H  H32  1  0.25628000  0.34109000  0.53941000  1.0
  H  H33  1  0.74371000  0.84109000  0.46059000  1.0
  H  H34  1  0.25628000  0.84109000  0.96059000  1.0
  H  H35  1  0.74371000  0.34109000  0.03941000  1.0
  H  H36  1  0.09002000  0.72094000  0.45627000  1.0
  H  H37  1  0.90998000  0.22094000  0.54373000  1.0
  H  H38  1  0.09002000  0.22094000  0.04373000  1.0
  H  H39  1  0.90999000  0.72093000  0.95627000  1.0
  H  H40  1  0.44377000  0.55592000  0.46534000  1.0
  H  H41  1  0.55623000  0.05593000  0.53466000  1.0
  H  H42  1  0.44377000  0.05592000  0.03466000  1.0
  H  H43  1  0.55623000  0.55592000  0.96534000  1.0
  C  C44  1  0.06881000  0.40000000  0.50654000  1.0
  C  C45  1  0.93119000  0.90000000  0.49346000  1.0
  C  C46  1  0.06880000  0.90000000  0.99346000  1.0
  C  C47  1  0.93119000  0.39999000  0.00654000  1.0
  C  C48  1  0.27769000  0.66299000  0.48345000  1.0
  C  C49  1  0.72231000  0.16299000  0.51654000  1.0
  C  C50  1  0.27770000  0.16299000  0.01655000  1.0
  C  C51  1  0.72231000  0.66299000  0.98345000  1.0
  C  C52  1  0.12875000  0.54413000  0.41055000  1.0
  C  C53  1  0.87125000  0.04413000  0.58944000  1.0
  C  C54  1  0.12875000  0.04413000  0.08945000  1.0
  C  C55  1  0.87125000  0.54413000  0.91055000  1.0
  C  C56  1  0.25476000  0.47274000  0.43540000  1.0
  C  C57  1  0.74524000  0.97275000  0.56460000  1.0
  C  C58  1  0.25476000  0.97274000  0.06460000  1.0
  C  C59  1  0.74524000  0.47274000  0.93540000  1.0
  C  C60  1  0.11444000  0.57400000  0.31602000  1.0
  C  C61  1  0.88556000  0.07400000  0.68398000  1.0
  C  C62  1  0.11444000  0.07400000  0.18398000  1.0
  C  C63  1  0.88556000  0.57400000  0.81602000  1.0
  C  C64  1  0.02903000  0.66274000  0.29079000  1.0
  C  C65  1  0.97098000  0.16273000  0.70921000  1.0
  C  C66  1  0.02902000  0.16274000  0.20921000  1.0
  C  C67  1  0.97098000  0.66273000  0.79079000  1.0
  C  C68  1  0.01642000  0.68886000  0.20367000  1.0
  C  C69  1  0.98358000  0.18887000  0.79633000  1.0
  C  C70  1  0.01642000  0.18887000  0.29633000  1.0
  C  C71  1  0.98358000  0.68886000  0.70367000  1.0
  C  C72  1  0.09017000  0.62548000  0.14451000  1.0
  C  C73  1  0.90983000  0.12549000  0.85548000  1.0
  C  C74  1  0.09017000  0.12549000  0.35549000  1.0
  C  C75  1  0.90982000  0.62549000  0.64452000  1.0
  C  C76  1  0.18529000  0.51408000  0.25255000  1.0
  C  C77  1  0.81471000  0.01408000  0.74745000  1.0
  C  C78  1  0.18529000  0.01408000  0.24745000  1.0
  C  C79  1  0.81471000  0.51407000  0.75255000  1.0
  C  C80  1  0.27830000  0.42037000  0.27659000  1.0
  C  C81  1  0.72169000  0.92038000  0.72341000  1.0
  C  C82  1  0.27830000  0.92038000  0.22341000  1.0
  C  C83  1  0.72170000  0.42037000  0.77659000  1.0
  C  C84  1  0.31308000  0.40106000  0.36314000  1.0
  C  C85  1  0.68691000  0.90107000  0.63686000  1.0
  C  C86  1  0.31309000  0.90107000  0.13686000  1.0
  C  C87  1  0.68692000  0.40106000  0.86314000  1.0
  C  C88  1  0.40516000  0.31483000  0.38168000  1.0
  C  C89  1  0.59484000  0.81484000  0.61831000  1.0
  C  C90  1  0.40516000  0.81483000  0.11832000  1.0
  C  C91  1  0.59484000  0.31483000  0.88168000  1.0
  C  C92  1  0.45688000  0.24874000  0.31475000  1.0
  C  C93  1  0.54312000  0.74875000  0.68525000  1.0
  C  C94  1  0.45688000  0.74875000  0.18525000  1.0
  C  C95  1  0.54312000  0.24874000  0.81475000  1.0
  C  C96  1  0.41519000  0.27146000  0.23085000  1.0
  C  C97  1  0.58481000  0.77147000  0.76915000  1.0
  C  C98  1  0.41519000  0.77146000  0.26915000  1.0
  C  C99  1  0.58481000  0.27146000  0.73085000  1.0
  N  N100  1  0.02358000  0.46979000  0.44075000  1.0
  N  N101  1  0.97641000  0.96978000  0.55924000  1.0
  N  N102  1  0.02358000  0.96979000  0.05925000  1.0
  N  N103  1  0.97641000  0.46978000  0.94076000  1.0
  N  N104  1  0.20198000  0.40018000  0.50502000  1.0
  N  N105  1  0.79801000  0.90018000  0.49499000  1.0
  N  N106  1  0.20198000  0.90018000  0.99499000  1.0
  N  N107  1  0.79801000  0.40018000  0.00502000  1.0
  N  N108  1  0.14799000  0.64798000  0.46327000  1.0
  N  N109  1  0.85202000  0.14798000  0.53673000  1.0
  N  N110  1  0.14799000  0.14798000  0.03673000  1.0
  N  N111  1  0.85202000  0.64797000  0.96327000  1.0
  N  N112  1  0.34294000  0.56206000  0.46573000  1.0
  N  N113  1  0.65706000  0.06206000  0.53426000  1.0
  N  N114  1  0.34294000  0.06206000  0.03426000  1.0
  N  N115  1  0.65706000  0.56206000  0.96574000  1.0
  N  N116  1  0.17247000  0.54064000  0.16822000  1.0
  N  N117  1  0.82754000  0.04064000  0.83178000  1.0
  N  N118  1  0.17246000  0.04064000  0.33178000  1.0
  N  N119  1  0.82753000  0.54064000  0.66822000  1.0
  N  N120  1  0.32915000  0.35575000  0.21236000  1.0
  N  N121  1  0.67085000  0.85576000  0.78764000  1.0
  N  N122  1  0.32915000  0.85575000  0.28765000  1.0
  N  N123  1  0.67085000  0.35575000  0.71236000  1.0
  N  N124  1  0.31560000  0.62755000  0.94021000  1.0
  N  N125  1  0.68441000  0.12755000  0.05979000  1.0
  N  N126  1  0.31559000  0.12755000  0.55979000  1.0
  N  N127  1  0.68441000  0.62755000  0.44021000  1.0
  O  O128  1  0.32750000  0.75365000  0.51325000  1.0
  O  O129  1  0.67250000  0.25366000  0.48674000  1.0
  O  O130  1  0.32750000  0.25365000  0.98674000  1.0
  O  O131  1  0.67250000  0.75366000  0.01325000  1.0
  O  O132  1  0.99772000  0.34636000  0.55832000  1.0
  O  O133  1  0.00227000  0.84634000  0.44169000  1.0
  O  O134  1  0.99772000  0.84635000  0.94169000  1.0
  O  O135  1  0.00227000  0.34634000  0.05831000  1.0
  O  O136  1  0.38208000  0.53672000  0.95946000  1.0
  O  O137  1  0.61793000  0.03673000  0.04054000  1.0
  O  O138  1  0.38207000  0.03673000  0.54054000  1.0
  O  O139  1  0.61793000  0.53672000  0.45946000  1.0
  O  O140  1  0.19212000  0.62506000  0.94472000  1.0
  O  O141  1  0.80788000  0.12506000  0.05528000  1.0
  O  O142  1  0.19212000  0.12506000  0.55528000  1.0
  O  O143  1  0.80788000  0.62506000  0.44472000  1.0
  O  O144  1  0.37394000  0.71947000  0.91793000  1.0
  O  O145  1  0.62606000  0.21947000  0.08207000  1.0
  O  O146  1  0.37394000  0.21947000  0.58207000  1.0
  O  O147  1  0.62606000  0.71947000  0.41794000  1.0
