# generated using pymatgen
data_H8PbC10O7
_symmetry_space_group_name_H-M   'P 1'
_cell_length_a   6.58693000
_cell_length_b   8.18684000
_cell_length_c   10.74450000
_cell_angle_alpha   80.52190000
_cell_angle_beta   76.70830000
_cell_angle_gamma   81.19450000
_symmetry_Int_Tables_number   1
_chemical_formula_structural   H8PbC10O7
_chemical_formula_sum   'H16 Pb2 C20 O14'
_cell_volume   552.16925015
_cell_formula_units_Z   2
loop_
 _symmetry_equiv_pos_site_id
 _symmetry_equiv_pos_as_xyz
  1  'x, y, z'
loop_
 _atom_site_type_symbol
 _atom_site_label
 _atom_site_symmetry_multiplicity
 _atom_site_fract_x
 _atom_site_fract_y
 _atom_site_fract_z
 _atom_site_occupancy
  H  H0  1  0.65398000  0.22292000  0.29339000  1.0
  H  H1  1  0.34601000  0.77708000  0.70660000  1.0
  H  H2  1  0.68513000  0.99947000  0.11931000  1.0
  H  H3  1  0.31488000  0.00052000  0.88067000  1.0
  H  H4  1  0.25119000  0.90148000  0.23719000  1.0
  H  H5  1  0.74881000  0.09853000  0.76281000  1.0
  H  H6  1  0.84862000  0.52789000  0.16999000  1.0
  H  H7  1  0.15139000  0.47208000  0.83002000  1.0
  H  H8  1  0.91227000  0.70549000  0.92555000  1.0
  H  H9  1  0.08775000  0.29449000  0.07445000  1.0
  H  H10  1  0.26691000  0.72704000  0.04160000  1.0
  H  H11  1  0.73311000  0.27297000  0.95840000  1.0
  H  H12  1  0.60151000  0.04398000  0.59470000  1.0
  H  H13  1  0.39849000  0.95602000  0.40529000  1.0
  H  H14  1  0.68930000  0.21506000  0.53497000  1.0
  H  H15  1  0.31069000  0.78494000  0.46502000  1.0
  Pb  Pb16  1  0.23986000  0.35776000  0.56075000  1.0
  Pb  Pb17  1  0.76013000  0.64225000  0.43925000  1.0
  C  C18  1  0.04853000  0.18097000  0.39364000  1.0
  C  C19  1  0.95146000  0.81904000  0.60636000  1.0
  C  C20  1  0.98193000  0.09649000  0.30133000  1.0
  C  C21  1  0.01806000  0.90351000  0.69867000  1.0
  C  C22  1  0.78370000  0.13047000  0.26085000  1.0
  C  C23  1  0.21629000  0.86953000  0.73913000  1.0
  C  C24  1  0.79292000  0.02346000  0.17471000  1.0
  C  C25  1  0.20709000  0.97653000  0.82528000  1.0
  C  C26  1  0.09719000  0.97016000  0.23624000  1.0
  C  C27  1  0.90280000  0.02984000  0.76376000  1.0
  C  C28  1  0.37915000  0.53103000  0.28143000  1.0
  C  C29  1  0.62083000  0.46897000  0.71857000  1.0
  C  C30  1  0.50606000  0.59857000  0.15677000  1.0
  C  C31  1  0.49394000  0.40143000  0.84324000  1.0
  C  C32  1  0.73138000  0.59096000  0.11648000  1.0
  C  C33  1  0.26861000  0.40904000  0.88353000  1.0
  C  C34  1  0.77076000  0.67701000  0.99538000  1.0
  C  C35  1  0.22926000  0.32298000  0.00463000  1.0
  C  C36  1  0.42570000  0.68887000  0.05578000  1.0
  C  C37  1  0.57432000  0.31113000  0.94423000  1.0
  O  O38  1  0.91354000  0.28329000  0.45692000  1.0
  O  O39  1  0.08645000  0.71672000  0.54308000  1.0
  O  O40  1  0.23896000  0.15003000  0.40859000  1.0
  O  O41  1  0.76102000  0.84998000  0.59140000  1.0
  O  O42  1  0.98436000  0.92388000  0.15906000  1.0
  O  O43  1  0.01564000  0.07612000  0.84094000  1.0
  O  O44  1  0.18389000  0.53498000  0.29659000  1.0
  O  O45  1  0.81611000  0.46501000  0.70341000  1.0
  O  O46  1  0.48198000  0.46932000  0.37238000  1.0
  O  O47  1  0.51802000  0.53067000  0.62763000  1.0
  O  O48  1  0.58431000  0.73870000  0.95722000  1.0
  O  O49  1  0.41570000  0.26131000  0.04279000  1.0
  O  O50  1  0.56247000  0.16652000  0.59042000  1.0
  O  O51  1  0.43753000  0.83348000  0.40958000  1.0
