# generated using pymatgen
data_NaH17C10NO3
_symmetry_space_group_name_H-M   'P 1'
_cell_length_a   5.63880000
_cell_length_b   13.18910000
_cell_length_c   14.10190000
_cell_angle_alpha   89.99990000
_cell_angle_beta   85.24180000
_cell_angle_gamma   89.99870000
_symmetry_Int_Tables_number   1
_chemical_formula_structural   NaH17C10NO3
_chemical_formula_sum   'Na4 H68 C40 N4 O12'
_cell_volume   1045.15370142
_cell_formula_units_Z   4
loop_
 _symmetry_equiv_pos_site_id
 _symmetry_equiv_pos_as_xyz
  1  'x, y, z'
loop_
 _atom_site_type_symbol
 _atom_site_label
 _atom_site_symmetry_multiplicity
 _atom_site_fract_x
 _atom_site_fract_y
 _atom_site_fract_z
 _atom_site_occupancy
  Na  Na0  1  0.20196000  0.00812000  0.07944000  1.0
  Na  Na1  1  0.29809000  0.50812000  0.42055000  1.0
  Na  Na2  1  0.79810000  0.99190000  0.92053000  1.0
  Na  Na3  1  0.70195000  0.49188000  0.57944000  1.0
  H  H4  1  0.62711000  0.81777000  0.67696000  1.0
  H  H5  1  0.87286000  0.31777000  0.82303000  1.0
  H  H6  1  0.37289000  0.18224000  0.32303000  1.0
  H  H7  1  0.12712000  0.68222000  0.17697000  1.0
  H  H8  1  0.69971000  0.72869000  0.58365000  1.0
  H  H9  1  0.80029000  0.22869000  0.91635000  1.0
  H  H10  1  0.30029000  0.27132000  0.41635000  1.0
  H  H11  1  0.19968000  0.77130000  0.08366000  1.0
  H  H12  1  0.86079000  0.84481000  0.58740000  1.0
  H  H13  1  0.63921000  0.34481000  0.91258000  1.0
  H  H14  1  0.13920000  0.15519000  0.41260000  1.0
  H  H15  1  0.36076000  0.65519000  0.08741000  1.0
  H  H16  1  0.07666000  0.62165000  0.58593000  1.0
  H  H17  1  0.42335000  0.12168000  0.91409000  1.0
  H  H18  1  0.92331000  0.37831000  0.41411000  1.0
  H  H19  1  0.57663000  0.87833000  0.08593000  1.0
  H  H20  1  0.22639000  0.73949000  0.57375000  1.0
  H  H21  1  0.27360000  0.23954000  0.92623000  1.0
  H  H22  1  0.77359000  0.26048000  0.42623000  1.0
  H  H23  1  0.72638000  0.76047000  0.07376000  1.0
  H  H24  1  0.29677000  0.65405000  0.66455000  1.0
  H  H25  1  0.20326000  0.15404000  0.83546000  1.0
  H  H26  1  0.70322000  0.34594000  0.33548000  1.0
  H  H27  1  0.79673000  0.84594000  0.16455000  1.0
  H  H28  1  0.91418000  0.86667000  0.78143000  1.0
  H  H29  1  0.58579000  0.36667000  0.71857000  1.0
  H  H30  1  0.08584000  0.13334000  0.21857000  1.0
  H  H31  1  0.41419000  0.63333000  0.28144000  1.0
  H  H32  1  0.17760000  0.86547000  0.70356000  1.0
  H  H33  1  0.32242000  0.36546000  0.79644000  1.0
  H  H34  1  0.82241000  0.13454000  0.29645000  1.0
  H  H35  1  0.67757000  0.63453000  0.20357000  1.0
  H  H36  1  0.34536000  0.72973000  0.80457000  1.0
  H  H37  1  0.15463000  0.22973000  0.69541000  1.0
  H  H38  1  0.65463000  0.27026000  0.19542000  1.0
  H  H39  1  0.84535000  0.77026000  0.30458000  1.0
  H  H40  1  0.87395000  0.76500000  0.92466000  1.0
  H  H41  1  0.62607000  0.26499000  0.57534000  1.0
  H  H42  1  0.12609000  0.23501000  0.07535000  1.0
  H  H43  1  0.37396000  0.73501000  0.42467000  1.0
  H  H44  1  0.10126000  0.68290000  0.95813000  1.0
  H  H45  1  0.39880000  0.18289000  0.54186000  1.0
  H  H46  1  0.89877000  0.31710000  0.04186000  1.0
  H  H47  1  0.60124000  0.81711000  0.45814000  1.0
  H  H48  1  0.12131000  0.50248000  0.89553000  1.0
  H  H49  1  0.37875000  0.00248000  0.60443000  1.0
  H  H50  1  0.87869000  0.49751000  0.10444000  1.0
  H  H51  1  0.62127000  0.99754000  0.39554000  1.0
  H  H52  1  0.25748000  0.56311000  0.79241000  1.0
  H  H53  1  0.24257000  0.06311000  0.70761000  1.0
  H  H54  1  0.74252000  0.43691000  0.20758000  1.0
  H  H55  1  0.75745000  0.93688000  0.29240000  1.0
  H  H56  1  0.01082000  0.48015000  0.78230000  1.0
  H  H57  1  0.48925000  0.98015000  0.71768000  1.0
  H  H58  1  0.98919000  0.51988000  0.21765000  1.0
  H  H59  1  0.51077000  0.01984000  0.28229000  1.0
  H  H60  1  0.74677000  0.56521000  0.97803000  1.0
  H  H61  1  0.75329000  0.06521000  0.52198000  1.0
  H  H62  1  0.25325000  0.43479000  0.02196000  1.0
  H  H63  1  0.24672000  0.93480000  0.47803000  1.0
  H  H64  1  0.61110000  0.52071000  0.87601000  1.0
  H  H65  1  0.88894000  0.02071000  0.62399000  1.0
  H  H66  1  0.38890000  0.47930000  0.12400000  1.0
  H  H67  1  0.11106000  0.97929000  0.37602000  1.0
  H  H68  1  0.55618000  0.64693000  0.91824000  1.0
  H  H69  1  0.94386000  0.14693000  0.58177000  1.0
  H  H70  1  0.44384000  0.35307000  0.08178000  1.0
  H  H71  1  0.05616000  0.85308000  0.41825000  1.0
  C  C72  1  0.95559000  0.73573000  0.69122000  1.0
  C  C73  1  0.54440000  0.23571000  0.80876000  1.0
  C  C74  1  0.04441000  0.26428000  0.30876000  1.0
  C  C75  1  0.45558000  0.76427000  0.19124000  1.0
  C  C76  1  0.77288000  0.78437000  0.63083000  1.0
  C  C77  1  0.72708000  0.28437000  0.86916000  1.0
  C  C78  1  0.22712000  0.21563000  0.36917000  1.0
  C  C79  1  0.27289000  0.71562000  0.13085000  1.0
  C  C80  1  0.15142000  0.68380000  0.62565000  1.0
  C  C81  1  0.34854000  0.18381000  0.87434000  1.0
  C  C82  1  0.84857000  0.31619000  0.37435000  1.0
  C  C83  1  0.65142000  0.81619000  0.12566000  1.0
  C  C84  1  0.06116000  0.81846000  0.75192000  1.0
  C  C85  1  0.43885000  0.31845000  0.74806000  1.0
  C  C86  1  0.93885000  0.18154000  0.24808000  1.0
  C  C87  1  0.56114000  0.68155000  0.25195000  1.0
  C  C88  1  0.19542000  0.77674000  0.83342000  1.0
  C  C89  1  0.30459000  0.27674000  0.66657000  1.0
  C  C90  1  0.80459000  0.22326000  0.16657000  1.0
  C  C91  1  0.69541000  0.72326000  0.33343000  1.0
  C  C92  1  0.30240000  0.86347000  0.88959000  1.0
  C  C93  1  0.19762000  0.36348000  0.61040000  1.0
  C  C94  1  0.69764000  0.13653000  0.11041000  1.0
  C  C95  1  0.80238000  0.63653000  0.38960000  1.0
  C  C96  1  0.01783000  0.71427000  0.89683000  1.0
  C  C97  1  0.48220000  0.21426000  0.60318000  1.0
  C  C98  1  0.98219000  0.28575000  0.10317000  1.0
  C  C99  1  0.51783000  0.78573000  0.39683000  1.0
  C  C100  1  0.90832000  0.62512000  0.84604000  1.0
  C  C101  1  0.59167000  0.12512000  0.65398000  1.0
  C  C102  1  0.09166000  0.37488000  0.15398000  1.0
  C  C103  1  0.40834000  0.87488000  0.34604000  1.0
  C  C104  1  0.08696000  0.53747000  0.82728000  1.0
  C  C105  1  0.41305000  0.03746000  0.67272000  1.0
  C  C106  1  0.91303000  0.46254000  0.17271000  1.0
  C  C107  1  0.58696000  0.96254000  0.32728000  1.0
  C  C108  1  0.69042000  0.58682000  0.90806000  1.0
  C  C109  1  0.80960000  0.08682000  0.59194000  1.0
  C  C110  1  0.30959000  0.41319000  0.09194000  1.0
  C  C111  1  0.19041000  0.91318000  0.40806000  1.0
  N  N112  1  0.82826000  0.65826000  0.75315000  1.0
  N  N113  1  0.67178000  0.15825000  0.74685000  1.0
  N  N114  1  0.17181000  0.34175000  0.24686000  1.0
  N  N115  1  0.32824000  0.84175000  0.25315000  1.0
  O  O116  1  0.18874000  0.90341000  0.21273000  1.0
  O  O117  1  0.31113000  0.40342000  0.28728000  1.0
  O  O118  1  0.81118000  0.09657000  0.78728000  1.0
  O  O119  1  0.68870000  0.59660000  0.71273000  1.0
  O  O120  1  0.84203000  0.08094000  0.05860000  1.0
  O  O121  1  0.65796000  0.58097000  0.44143000  1.0
  O  O122  1  0.15800000  0.91904000  0.94141000  1.0
  O  O123  1  0.34203000  0.41907000  0.55861000  1.0
  O  O124  1  0.47412000  0.12519000  0.11884000  1.0
  O  O125  1  0.02588000  0.62518000  0.38114000  1.0
  O  O126  1  0.52589000  0.87481000  0.88113000  1.0
  O  O127  1  0.97411000  0.37479000  0.61883000  1.0
