# generated using pymatgen
data_CaH16C16(NO5)2
_symmetry_space_group_name_H-M   'P 1'
_cell_length_a   7.69638000
_cell_length_b   10.81660000
_cell_length_c   12.07040000
_cell_angle_alpha   72.24900000
_cell_angle_beta   75.04400000
_cell_angle_gamma   89.75490000
_symmetry_Int_Tables_number   1
_chemical_formula_structural   CaH16C16(NO5)2
_chemical_formula_sum   'Ca2 H32 C32 N4 O20'
_cell_volume   921.55743264
_cell_formula_units_Z   2
loop_
 _symmetry_equiv_pos_site_id
 _symmetry_equiv_pos_as_xyz
  1  'x, y, z'
loop_
 _atom_site_type_symbol
 _atom_site_label
 _atom_site_symmetry_multiplicity
 _atom_site_fract_x
 _atom_site_fract_y
 _atom_site_fract_z
 _atom_site_occupancy
  Ca  Ca0  1  0.23639000  0.53423000  0.52854000  1.0
  Ca  Ca1  1  0.76361000  0.46577000  0.47146000  1.0
  H  H2  1  0.41455000  0.75502000  0.16387000  1.0
  H  H3  1  0.58545000  0.24498000  0.83613000  1.0
  H  H4  1  0.60526000  0.92738000  0.98598000  1.0
  H  H5  1  0.39475000  0.07262000  0.01402000  1.0
  H  H6  1  0.50696000  0.72214000  0.75024000  1.0
  H  H7  1  0.49304000  0.27786000  0.24976000  1.0
  H  H8  1  0.31476000  0.55162000  0.92663000  1.0
  H  H9  1  0.68524000  0.44837000  0.07337000  1.0
  H  H10  1  0.08985000  0.54070000  0.15130000  1.0
  H  H11  1  0.91016000  0.45930000  0.84870000  1.0
  H  H12  1  0.26742000  0.44089000  0.15299000  1.0
  H  H13  1  0.73258000  0.55911000  0.84701000  1.0
  H  H14  1  0.19079000  0.91779000  0.57047000  1.0
  H  H15  1  0.80922000  0.08221000  0.42953000  1.0
  H  H16  1  0.00754000  0.74651000  0.75010000  1.0
  H  H17  1  0.99247000  0.25349000  0.24990000  1.0
  H  H18  1  0.13383000  0.94612000  0.98241000  1.0
  H  H19  1  0.86617000  0.05388000  0.01759000  1.0
  H  H20  1  0.32182000  0.11819000  0.80154000  1.0
  H  H21  1  0.67817000  0.88182000  0.19846000  1.0
  H  H22  1  0.39230000  0.10990000  0.48298000  1.0
  H  H23  1  0.60769000  0.89010000  0.51702000  1.0
  H  H24  1  0.53660000  0.12112000  0.57233000  1.0
  H  H25  1  0.46339000  0.87888000  0.42767000  1.0
  H  H26  1  0.41211000  0.46566000  0.72294000  1.0
  H  H27  1  0.58790000  0.53434000  0.27706000  1.0
  H  H28  1  0.21353000  0.40365000  0.79152000  1.0
  H  H29  1  0.78647000  0.59635000  0.20848000  1.0
  H  H30  1  0.00656000  0.74099000  0.44683000  1.0
  H  H31  1  0.99344000  0.25901000  0.55317000  1.0
  H  H32  1  0.19256000  0.81968000  0.38252000  1.0
  H  H33  1  0.80743000  0.18032000  0.61748000  1.0
  C  C34  1  0.35157000  0.64066000  0.05829000  1.0
  C  C35  1  0.64843000  0.35934000  0.94171000  1.0
  C  C36  1  0.43452000  0.74749000  0.07373000  1.0
  C  C37  1  0.56548000  0.25251000  0.92626000  1.0
  C  C38  1  0.54164000  0.84388000  0.97505000  1.0
  C  C39  1  0.45836000  0.15612000  0.02494000  1.0
  C  C40  1  0.56747000  0.83303000  0.85968000  1.0
  C  C41  1  0.43253000  0.16697000  0.14032000  1.0
  C  C42  1  0.48814000  0.72763000  0.84109000  1.0
  C  C43  1  0.51186000  0.27236000  0.15891000  1.0
  C  C44  1  0.38022000  0.63265000  0.94067000  1.0
  C  C45  1  0.61978000  0.36735000  0.05932000  1.0
  C  C46  1  0.22787000  0.53640000  0.16125000  1.0
  C  C47  1  0.77213000  0.46360000  0.83875000  1.0
  C  C48  1  0.22120000  0.53143000  0.28920000  1.0
  C  C49  1  0.77880000  0.46857000  0.71080000  1.0
  C  C50  1  0.27281000  0.02866000  0.67370000  1.0
  C  C51  1  0.72719000  0.97134000  0.32630000  1.0
  C  C52  1  0.18071000  0.92467000  0.66015000  1.0
  C  C53  1  0.81930000  0.07533000  0.33985000  1.0
  C  C54  1  0.07575000  0.82858000  0.76039000  1.0
  C  C55  1  0.92425000  0.17142000  0.23962000  1.0
  C  C56  1  0.06036000  0.83895000  0.87510000  1.0
  C  C57  1  0.93964000  0.16105000  0.12490000  1.0
  C  C58  1  0.14749000  0.94269000  0.89147000  1.0
  C  C59  1  0.85251000  0.05731000  0.10854000  1.0
  C  C60  1  0.25279000  0.03681000  0.79039000  1.0
  C  C61  1  0.74721000  0.96319000  0.20961000  1.0
  C  C62  1  0.39632000  0.12816000  0.56699000  1.0
  C  C63  1  0.60367000  0.87184000  0.43301000  1.0
  C  C64  1  0.35250000  0.26913000  0.55266000  1.0
  C  C65  1  0.64750000  0.73087000  0.44735000  1.0
  N  N66  1  0.67269000  0.93648000  0.75619000  1.0
  N  N67  1  0.32731000  0.06352000  0.24381000  1.0
  N  N68  1  0.95334000  0.73814000  0.98059000  1.0
  N  N69  1  0.04666000  0.26186000  0.01941000  1.0
  O  O70  1  0.36516000  0.55673000  0.31444000  1.0
  O  O71  1  0.63484000  0.44327000  0.68556000  1.0
  O  O72  1  0.07168000  0.49784000  0.36951000  1.0
  O  O73  1  0.92832000  0.50216000  0.63049000  1.0
  O  O74  1  0.72184000  0.91698000  0.65690000  1.0
  O  O75  1  0.27815000  0.08302000  0.34310000  1.0
  O  O76  1  0.70762000  0.04246000  0.77104000  1.0
  O  O77  1  0.29238000  0.95753000  0.22896000  1.0
  O  O78  1  0.48244000  0.35652000  0.51172000  1.0
  O  O79  1  0.51755000  0.64348000  0.48828000  1.0
  O  O80  1  0.18879000  0.29544000  0.57971000  1.0
  O  O81  1  0.81121000  0.70456000  0.42030000  1.0
  O  O82  1  0.88891000  0.64098000  0.96614000  1.0
  O  O83  1  0.11110000  0.35902000  0.03386000  1.0
  O  O84  1  0.93048000  0.75297000  0.08225000  1.0
  O  O85  1  0.06952000  0.24703000  0.91775000  1.0
  O  O86  1  0.28261000  0.48069000  0.72880000  1.0
  O  O87  1  0.71739000  0.51931000  0.27120000  1.0
  O  O88  1  0.13077000  0.74966000  0.45591000  1.0
  O  O89  1  0.86923000  0.25035000  0.54408000  1.0
