# generated using pymatgen
data_Zn4H33C36N3O13
_symmetry_space_group_name_H-M   'P 1'
_cell_length_a   16.45720000
_cell_length_b   16.92380000
_cell_length_c   16.99660000
_cell_angle_alpha   62.78420000
_cell_angle_beta   62.52230000
_cell_angle_gamma   61.86800000
_symmetry_Int_Tables_number   1
_chemical_formula_structural   Zn4H33C36N3O13
_chemical_formula_sum   'Zn8 H66 C72 N6 O26'
_cell_volume   3525.44621810
_cell_formula_units_Z   2
loop_
 _symmetry_equiv_pos_site_id
 _symmetry_equiv_pos_as_xyz
  1  'x, y, z'
loop_
 _atom_site_type_symbol
 _atom_site_label
 _atom_site_symmetry_multiplicity
 _atom_site_fract_x
 _atom_site_fract_y
 _atom_site_fract_z
 _atom_site_occupancy
  Zn  Zn0  1  0.04446000  0.07644000  0.02387000  1.0
  Zn  Zn1  1  0.03412000  0.06967000  0.84115000  1.0
  Zn  Zn2  1  0.84714000  0.06353000  0.02632000  1.0
  Zn  Zn3  1  0.04276000  0.89035000  0.01756000  1.0
  Zn  Zn4  1  0.44199000  0.47423000  0.41967000  1.0
  Zn  Zn5  1  0.42920000  0.48142000  0.60748000  1.0
  Zn  Zn6  1  0.43160000  0.66472000  0.41916000  1.0
  Zn  Zn7  1  0.62461000  0.47423000  0.42507000  1.0
  H  H8  1  0.26505000  0.26529000  0.75242000  1.0
  H  H9  1  0.14665000  0.49141000  0.53809000  1.0
  H  H10  1  0.98492000  0.47240000  0.63089000  1.0
  H  H11  1  0.93995000  0.26999000  0.81359000  1.0
  H  H12  1  0.84470000  0.32290000  0.94670000  1.0
  H  H13  1  0.95715000  0.33037000  0.92700000  1.0
  H  H14  1  0.79072000  0.48669000  0.93330000  1.0
  H  H15  1  0.90465000  0.49808000  0.85573000  1.0
  H  H16  1  0.73994000  0.52786000  0.80523000  1.0
  H  H17  1  0.85044000  0.55070000  0.73134000  1.0
  H  H18  1  0.86896000  0.41951000  0.69877000  1.0
  H  H19  1  0.75761000  0.29524000  0.20618000  1.0
  H  H20  1  0.62268000  0.17011000  0.49650000  1.0
  H  H21  1  0.71128000  0.01166000  0.47535000  1.0
  H  H22  1  0.82730000  0.96989000  0.25107000  1.0
  H  H23  1  0.98208000  0.87443000  0.27414000  1.0
  H  H24  1  0.97324000  0.98393000  0.27258000  1.0
  H  H25  1  0.00290000  0.83218000  0.42551000  1.0
  H  H26  1  0.91375000  0.94035000  0.44195000  1.0
  H  H27  1  0.88366000  0.76535000  0.46813000  1.0
  H  H28  1  0.80824000  0.85015000  0.52845000  1.0
  H  H29  1  0.72450000  0.90884000  0.42076000  1.0
  H  H30  1  0.23883000  0.80367000  0.23624000  1.0
  H  H31  1  0.50587000  0.60703000  0.12045000  1.0
  H  H32  1  0.47924000  0.68848000  0.96574000  1.0
  H  H33  1  0.24272000  0.85229000  0.93620000  1.0
  H  H34  1  0.30399000  0.97248000  0.81505000  1.0
  H  H35  1  0.32960000  0.96836000  0.90807000  1.0
  H  H36  1  0.47924000  0.94523000  0.74790000  1.0
  H  H37  1  0.49766000  0.86944000  0.85691000  1.0
  H  H38  1  0.47369000  0.82217000  0.71915000  1.0
  H  H39  1  0.53140000  0.74657000  0.80600000  1.0
  H  H40  1  0.38560000  0.71346000  0.88438000  1.0
  H  H41  1  0.75424000  0.30244000  0.71437000  1.0
  H  H42  1  0.59995000  0.19537000  0.66007000  1.0
  H  H43  1  0.67095000  0.03609000  0.75650000  1.0
  H  H44  1  0.85546000  0.97443000  0.86250000  1.0
  H  H45  1  0.76122000  0.89735000  0.00208000  1.0
  H  H46  1  0.67278000  0.01071000  0.98302000  1.0
  H  H47  1  0.62970000  0.86144000  0.00937000  1.0
  H  H48  1  0.60313000  0.96432000  0.91600000  1.0
  H  H49  1  0.77410000  0.78199000  0.90745000  1.0
  H  H50  1  0.70966000  0.85740000  0.82573000  1.0
  H  H51  1  0.82250000  0.93094000  0.74936000  1.0
  H  H52  1  0.29592000  0.76224000  0.72519000  1.0
  H  H53  1  0.98300000  0.87524000  0.81389000  1.0
  H  H54  1  0.97796000  0.81320000  0.71324000  1.0
  H  H55  1  0.18734000  0.72299000  0.52992000  1.0
  H  H56  1  0.15753000  0.57863000  0.59184000  1.0
  H  H57  1  0.18845000  0.57013000  0.68361000  1.0
  H  H58  1  0.01703000  0.55112000  0.72773000  1.0
  H  H59  1  0.01755000  0.62738000  0.77227000  1.0
  H  H60  1  0.94378000  0.68058000  0.61494000  1.0
  H  H61  1  0.90507000  0.74372000  0.69224000  1.0
  H  H62  1  0.00599000  0.82579000  0.56863000  1.0
  H  H63  1  0.69380000  0.81164000  0.18125000  1.0
  H  H64  1  0.92304000  0.76783000  0.26934000  1.0
  H  H65  1  0.84637000  0.67771000  0.42891000  1.0
  H  H66  1  0.60766000  0.64576000  0.49574000  1.0
  H  H67  1  0.69532000  0.49499000  0.55918000  1.0
  H  H68  1  0.80598000  0.51777000  0.49604000  1.0
  H  H69  1  0.72447000  0.48477000  0.69038000  1.0
  H  H70  1  0.79923000  0.55700000  0.61716000  1.0
  H  H71  1  0.57751000  0.62349000  0.68172000  1.0
  H  H72  1  0.65249000  0.66873000  0.68647000  1.0
  H  H73  1  0.69873000  0.73428000  0.52656000  1.0
  C  C74  1  0.10859000  0.19832000  0.84185000  1.0
  C  C75  1  0.11632000  0.29130000  0.77094000  1.0
  C  C76  1  0.20364000  0.31004000  0.72568000  1.0
  C  C77  1  0.21356000  0.38480000  0.64271000  1.0
  C  C78  1  0.13643000  0.43757000  0.60561000  1.0
  C  C79  1  0.04632000  0.42520000  0.65734000  1.0
  C  C80  1  0.03358000  0.35368000  0.74204000  1.0
  C  C81  1  0.93451000  0.34151000  0.80285000  1.0
  C  C82  1  0.89888000  0.35815000  0.89739000  1.0
  C  C83  1  0.85156000  0.46571000  0.87407000  1.0
  C  C84  1  0.81924000  0.49663000  0.78940000  1.0
  C  C85  1  0.30199000  0.41351000  0.59315000  1.0
  C  C86  1  0.84930000  0.13357000  0.15612000  1.0
  C  C87  1  0.79121000  0.14429000  0.25201000  1.0
  C  C88  1  0.74707000  0.23293000  0.26500000  1.0
  C  C89  1  0.68578000  0.24224000  0.35323000  1.0
  C  C90  1  0.67184000  0.16226000  0.42838000  1.0
  C  C91  1  0.72081000  0.07382000  0.41585000  1.0
  C  C92  1  0.78028000  0.06287000  0.32800000  1.0
  C  C93  1  0.83287000  0.96537000  0.31539000  1.0
  C  C94  1  0.94038000  0.92824000  0.31028000  1.0
  C  C95  1  0.93465000  0.88455000  0.41314000  1.0
  C  C96  1  0.85309000  0.84191000  0.45857000  1.0
  C  C97  1  0.62982000  0.33518000  0.37115000  1.0
  C  C98  1  0.17550000  0.89011000  0.08433000  1.0
  C  C99  1  0.27322000  0.82013000  0.09145000  1.0
  C  C100  1  0.29131000  0.77892000  0.17649000  1.0
  C  C101  1  0.37510000  0.70142000  0.18698000  1.0
  C  C102  1  0.44191000  0.66843000  0.11098000  1.0
  C  C103  1  0.42604000  0.71394000  0.02486000  1.0
  C  C104  1  0.34128000  0.78944000  0.01335000  1.0
  C  C105  1  0.32044000  0.83677000  0.92076000  1.0
  C  C106  1  0.34629000  0.92815000  0.86393000  1.0
  C  C107  1  0.45483000  0.89162000  0.81184000  1.0
  C  C108  1  0.46597000  0.80594000  0.79233000  1.0
  C  C109  1  0.39173000  0.65063000  0.27911000  1.0
  C  C110  1  0.83399000  0.13711000  0.83600000  1.0
  C  C111  1  0.77150000  0.15448000  0.78280000  1.0
  C  C112  1  0.73510000  0.24432000  0.72401000  1.0
  C  C113  1  0.67263000  0.25949000  0.68017000  1.0
  C  C114  1  0.64913000  0.18386000  0.69350000  1.0
  C  C115  1  0.68821000  0.09450000  0.74903000  1.0
  C  C116  1  0.74860000  0.07787000  0.79585000  1.0
  C  C117  1  0.78935000  0.97887000  0.85640000  1.0
  C  C118  1  0.71836000  0.95107000  0.95528000  1.0
  C  C119  1  0.66226000  0.90836000  0.94354000  1.0
  C  C120  1  0.73996000  0.85653000  0.87210000  1.0
  C  C121  1  0.62403000  0.35317000  0.61999000  1.0
  C  C122  1  0.31318000  0.67781000  0.60942000  1.0
  C  C123  1  0.22281000  0.73707000  0.66461000  1.0
  C  C124  1  0.22658000  0.77336000  0.72176000  1.0
  C  C125  1  0.14015000  0.82563000  0.77346000  1.0
  C  C126  1  0.05109000  0.83797000  0.77099000  1.0
  C  C127  1  0.04848000  0.80240000  0.71353000  1.0
  C  C128  1  0.13359000  0.75340000  0.65787000  1.0
  C  C129  1  0.12848000  0.71420000  0.59645000  1.0
  C  C130  1  0.13577000  0.61014000  0.64526000  1.0
  C  C131  1  0.03143000  0.61575000  0.70801000  1.0
  C  C132  1  0.96995000  0.70196000  0.64900000  1.0
  C  C133  1  0.13012000  0.87608000  0.83180000  1.0
  C  C134  1  0.62386000  0.67472000  0.34065000  1.0
  C  C135  1  0.69229000  0.72098000  0.32161000  1.0
  C  C136  1  0.72746000  0.78197000  0.23533000  1.0
  C  C137  1  0.80934000  0.80100000  0.21806000  1.0
  C  C138  1  0.85609000  0.75708000  0.28564000  1.0
  C  C139  1  0.81375000  0.70512000  0.37440000  1.0
  C  C140  1  0.72943000  0.68942000  0.39469000  1.0
  C  C141  1  0.67560000  0.64554000  0.49374000  1.0
  C  C142  1  0.73240000  0.54280000  0.54211000  1.0
  C  C143  1  0.73166000  0.54776000  0.63030000  1.0
  C  C144  1  0.64689000  0.63781000  0.64546000  1.0
  C  C145  1  0.85278000  0.86736000  0.13103000  1.0
  N  N146  1  0.85379000  0.40904000  0.76725000  1.0
  N  N147  1  0.79775000  0.89093000  0.39259000  1.0
  N  N148  1  0.37560000  0.78355000  0.85412000  1.0
  N  N149  1  0.81326000  0.90486000  0.81881000  1.0
  N  N150  1  0.03619000  0.75545000  0.57739000  1.0
  N  N151  1  0.64693000  0.70403000  0.55203000  1.0
  O  O152  1  0.98984000  0.02878000  0.97831000  1.0
  O  O153  1  0.11646000  0.14166000  0.80657000  1.0
  O  O154  1  0.09217000  0.18242000  0.92755000  1.0
  O  O155  1  0.34955000  0.40303000  0.64123000  1.0
  O  O156  1  0.32057000  0.45102000  0.50485000  1.0
  O  O157  1  0.80324000  0.13410000  0.11257000  1.0
  O  O158  1  0.93923000  0.12287000  0.12775000  1.0
  O  O159  1  0.67422000  0.39124000  0.34773000  1.0
  O  O160  1  0.53881000  0.34998000  0.41274000  1.0
  O  O161  1  0.11355000  0.85408000  0.10227000  1.0
  O  O162  1  0.16084000  0.97768000  0.05998000  1.0
  O  O163  1  0.36104000  0.69767000  0.33432000  1.0
  O  O164  1  0.43639000  0.56177000  0.29598000  1.0
  O  O165  1  0.92260000  0.13242000  0.79150000  1.0
  O  O166  1  0.79218000  0.12574000  0.92310000  1.0
  O  O167  1  0.53614000  0.39459000  0.66068000  1.0
  O  O168  1  0.67167000  0.38012000  0.53406000  1.0
  O  O169  1  0.34370000  0.71796000  0.52229000  1.0
  O  O170  1  0.34886000  0.59171000  0.65387000  1.0
  O  O171  1  0.12106000  0.83171000  0.91792000  1.0
  O  O172  1  0.12097000  0.96318000  0.79221000  1.0
  O  O173  1  0.53539000  0.72220000  0.34580000  1.0
  O  O174  1  0.66457000  0.58605000  0.35287000  1.0
  O  O175  1  0.94300000  0.83193000  0.09137000  1.0
  O  O176  1  0.80028000  0.95340000  0.10589000  1.0
  O  O177  1  0.48266000  0.52740000  0.47191000  1.0
