# generated using pymatgen
data_CoH18C16S2(NO)6
_symmetry_space_group_name_H-M   'P 1'
_cell_length_a   7.10528000
_cell_length_b   8.32252000
_cell_length_c   10.29840000
_cell_angle_alpha   67.48800000
_cell_angle_beta   79.64500000
_cell_angle_gamma   87.43850000
_symmetry_Int_Tables_number   1
_chemical_formula_structural   CoH18C16S2(NO)6
_chemical_formula_sum   'Co1 H18 C16 S2 N6 O6'
_cell_volume   553.22105853
_cell_formula_units_Z   1
loop_
 _symmetry_equiv_pos_site_id
 _symmetry_equiv_pos_as_xyz
  1  'x, y, z'
loop_
 _atom_site_type_symbol
 _atom_site_label
 _atom_site_symmetry_multiplicity
 _atom_site_fract_x
 _atom_site_fract_y
 _atom_site_fract_z
 _atom_site_occupancy
  Co  Co0  1  0.50000000  0.00000000  0.00000000  1.0
  H  H1  1  0.57406000  0.81228000  0.35824000  1.0
  H  H2  1  0.42593000  0.18772000  0.64176000  1.0
  H  H3  1  0.64516000  0.94567000  0.52641000  1.0
  H  H4  1  0.35483000  0.05433000  0.47358000  1.0
  H  H5  1  0.06284000  0.28356000  0.17954000  1.0
  H  H6  1  0.93717000  0.71643000  0.82047000  1.0
  H  H7  1  0.98670000  0.12929000  0.03025000  1.0
  H  H8  1  0.01331000  0.87070000  0.96975000  1.0
  H  H9  1  0.21321000  0.45613000  0.49219000  1.0
  H  H10  1  0.78680000  0.54388000  0.50779000  1.0
  H  H11  1  0.02412000  0.33588000  0.63048000  1.0
  H  H12  1  0.97589000  0.66413000  0.36951000  1.0
  H  H13  1  0.14076000  0.33124000  0.34786000  1.0
  H  H14  1  0.85924000  0.66876000  0.65213000  1.0
  H  H15  1  0.72005000  0.20086000  0.74318000  1.0
  H  H16  1  0.27995000  0.79913000  0.25682000  1.0
  H  H17  1  0.65192000  0.31385000  0.83744000  1.0
  H  H18  1  0.34809000  0.68615000  0.16256000  1.0
  C  C19  1  0.68261000  0.91393000  0.32792000  1.0
  C  C20  1  0.31739000  0.08608000  0.67208000  1.0
  C  C21  1  0.72140000  0.99166000  0.41684000  1.0
  C  C22  1  0.27860000  0.00834000  0.58316000  1.0
  C  C23  1  0.85598000  0.12899000  0.36686000  1.0
  C  C24  1  0.14402000  0.87101000  0.63314000  1.0
  C  C25  1  0.95471000  0.17899000  0.22625000  1.0
  C  C26  1  0.04529000  0.82099000  0.77375000  1.0
  C  C27  1  0.91402000  0.09754000  0.13967000  1.0
  C  C28  1  0.08598000  0.90245000  0.86034000  1.0
  C  C29  1  0.87748000  0.21699000  0.46511000  1.0
  C  C30  1  0.12252000  0.78300000  0.53488000  1.0
  C  C31  1  0.06092000  0.41855000  0.51650000  1.0
  C  C32  1  0.93909000  0.58146000  0.48349000  1.0
  C  C33  1  0.44782000  0.26572000  0.15458000  1.0
  C  C34  1  0.55217000  0.73427000  0.84542000  1.0
  S  S35  1  0.45743000  0.39734000  0.23697000  1.0
  S  S36  1  0.54256000  0.60266000  0.76304000  1.0
  N  N37  1  0.77694000  0.96845000  0.19047000  1.0
  N  N38  1  0.22305000  0.03155000  0.80953000  1.0
  N  N39  1  0.03125000  0.32281000  0.43059000  1.0
  N  N40  1  0.96875000  0.67719000  0.56940000  1.0
  N  N41  1  0.44299000  0.16555000  0.09883000  1.0
  N  N42  1  0.55700000  0.83446000  0.90118000  1.0
  O  O43  1  0.72986000  0.89686000  0.10567000  1.0
  O  O44  1  0.27015000  0.10314000  0.89432000  1.0
  O  O45  1  0.75340000  0.19158000  0.57494000  1.0
  O  O46  1  0.24660000  0.80842000  0.42506000  1.0
  O  O47  1  0.69767000  0.19868000  0.84204000  1.0
  O  O48  1  0.30233000  0.80132000  0.15796000  1.0
