# generated using pymatgen
data_Al2H32C49(N3O7)2
_symmetry_space_group_name_H-M   'P 1'
_cell_length_a   6.62616000
_cell_length_b   28.36770000
_cell_length_c   31.72360000
_cell_angle_alpha   101.91700000
_cell_angle_beta   90.55470000
_cell_angle_gamma   90.23210000
_symmetry_Int_Tables_number   1
_chemical_formula_structural   Al2H32C49(N3O7)2
_chemical_formula_sum   'Al4 H64 C98 N12 O28'
_cell_volume   5834.14872761
_cell_formula_units_Z   2
loop_
 _symmetry_equiv_pos_site_id
 _symmetry_equiv_pos_as_xyz
  1  'x, y, z'
loop_
 _atom_site_type_symbol
 _atom_site_label
 _atom_site_symmetry_multiplicity
 _atom_site_fract_x
 _atom_site_fract_y
 _atom_site_fract_z
 _atom_site_occupancy
  Al  Al0  1  0.89784000  0.49957000  0.50064000  1.0
  Al  Al1  1  0.39825000  0.50115000  0.50063000  1.0
  Al  Al2  1  0.28785000  0.00092000  0.00036000  1.0
  Al  Al3  1  0.78848000  0.99845000  0.00006000  1.0
  H  H4  1  0.81624000  0.69024000  0.65223000  1.0
  H  H5  1  0.41237000  0.65911000  0.69336000  1.0
  H  H6  1  0.73848000  0.82973000  0.81937000  1.0
  H  H7  1  0.72304000  0.89519000  0.88621000  1.0
  H  H8  1  0.36739000  0.89166000  0.89920000  1.0
  H  H9  1  0.38377000  0.82492000  0.83352000  1.0
  H  H10  1  0.67181000  0.76717000  0.32026000  1.0
  H  H11  1  0.64322000  0.82010000  0.26512000  1.0
  H  H12  1  0.49238000  0.72384000  0.17244000  1.0
  H  H13  1  0.76229000  0.82580000  0.11124000  1.0
  H  H14  1  0.76445000  0.88336000  0.06138000  1.0
  H  H15  1  0.32354000  0.88753000  0.16672000  1.0
  H  H16  1  0.23665000  0.64526000  0.46097000  1.0
  H  H17  1  0.02767000  0.58061000  0.31000000  1.0
  H  H18  1  0.15324000  0.17369000  0.73170000  1.0
  H  H19  1  0.17247000  0.22625000  0.67641000  1.0
  H  H20  1  0.04020000  0.32376000  0.76685000  1.0
  H  H21  1  0.02186000  0.27092000  0.82191000  1.0
  H  H22  1  0.32660000  0.37966000  0.65501000  1.0
  H  H23  1  0.33486000  0.43184000  0.60078000  1.0
  H  H24  1  0.94627000  0.38927000  0.56964000  1.0
  H  H25  1  0.85902000  0.11383000  0.84095000  1.0
  H  H26  1  0.84639000  0.06136000  0.89518000  1.0
  H  H27  1  0.24957000  0.11222000  0.93124000  1.0
  H  H28  1  0.26482000  0.16711000  0.87916000  1.0
  H  H29  1  0.31377000  0.39264000  0.39629000  1.0
  H  H30  1  0.29602000  0.32713000  0.32957000  1.0
  H  H31  1  0.94354000  0.32816000  0.32234000  1.0
  H  H32  1  0.95914000  0.39403000  0.38896000  1.0
  H  H33  1  0.25052000  0.18124000  0.17149000  1.0
  H  H34  1  0.87492000  0.10032000  0.10807000  1.0
  H  H35  1  0.89611000  0.16669000  0.17420000  1.0
  H  H36  1  0.84891000  0.62276000  0.58811000  1.0
  H  H37  1  0.64409000  0.65165000  0.15368000  1.0
  H  H38  1  0.79086000  0.69636000  0.18829000  1.0
  H  H39  1  0.84132000  0.63461000  0.18545000  1.0
  H  H40  1  0.65936000  0.66468000  0.25306000  1.0
  H  H41  1  0.51340000  0.62244000  0.21922000  1.0
  H  H42  1  0.18369000  0.01947000  0.12120000  1.0
  H  H43  1  0.21255000  0.00551000  0.17309000  1.0
  H  H44  1  0.41391000  0.03309000  0.15013000  1.0
  H  H45  1  0.48811000  0.94598000  0.14345000  1.0
  H  H46  1  0.44605000  0.95838000  0.09170000  1.0
  H  H47  1  0.55864000  0.70919000  0.41432000  1.0
  H  H48  1  0.45685000  0.72205000  0.36681000  1.0
  H  H49  1  0.46999000  0.76823000  0.41404000  1.0
  H  H50  1  0.11389000  0.73742000  0.40336000  1.0
  H  H51  1  0.21928000  0.72371000  0.45036000  1.0
  H  H52  1  0.30929000  0.48957000  0.32584000  1.0
  H  H53  1  0.29699000  0.48038000  0.37941000  1.0
  H  H54  1  0.16615000  0.44059000  0.33728000  1.0
  H  H55  1  0.92525000  0.49877000  0.38120000  1.0
  H  H56  1  0.93211000  0.50619000  0.32733000  1.0
  H  H57  1  0.93443000  0.33347000  0.62096000  1.0
  H  H58  1  0.23120000  0.11445000  0.10566000  1.0
  H  H59  1  0.40865000  0.53980000  0.67701000  1.0
  H  H60  1  0.35680000  0.51323000  0.62209000  1.0
  H  H61  1  0.60779000  0.51469000  0.64233000  1.0
  H  H62  1  0.56319000  0.57754000  0.59882000  1.0
  H  H63  1  0.61441000  0.60444000  0.65344000  1.0
  H  H64  1  0.65279000  0.55671000  0.48820000  1.0
  H  H65  1  0.15088000  0.43694000  0.49594000  1.0
  H  H66  1  0.53016000  0.93716000  0.99895000  1.0
  H  H67  1  0.03261000  0.06155000  0.99868000  1.0
  C  C68  1  0.64587000  0.44688000  0.55124000  1.0
  C  C69  1  0.64464000  0.43581000  0.43611000  1.0
  C  C70  1  0.14584000  0.55206000  0.44809000  1.0
  C  C71  1  0.14879000  0.56397000  0.56498000  1.0
  C  C72  1  0.97187000  0.63137000  0.61148000  1.0
  C  C73  1  0.95315000  0.66880000  0.64705000  1.0
  C  C74  1  0.11349000  0.67873000  0.67691000  1.0
  C  C75  1  0.28940000  0.65095000  0.66988000  1.0
  C  C76  1  0.31129000  0.61321000  0.63417000  1.0
  C  C77  1  0.14744000  0.60330000  0.60454000  1.0
  C  C78  1  0.07358000  0.78493000  0.78382000  1.0
  C  C79  1  0.09824000  0.71731000  0.71554000  1.0
  C  C80  1  0.87501000  0.84336000  0.83726000  1.0
  C  C81  1  0.86657000  0.87959000  0.87416000  1.0
  C  C82  1  0.04450000  0.89694000  0.89641000  1.0
  C  C83  1  0.23111000  0.87743000  0.88151000  1.0
  C  C84  1  0.24014000  0.84076000  0.84512000  1.0
  C  C85  1  0.06203000  0.82350000  0.82256000  1.0
  C  C86  1  0.26788000  0.66634000  0.29269000  1.0
  C  C87  1  0.95281000  0.70408000  0.32695000  1.0
  C  C88  1  0.94465000  0.73436000  0.29428000  1.0
  C  C89  1  0.09551000  0.73070000  0.26241000  1.0
  C  C90  1  0.25730000  0.69733000  0.26016000  1.0
  C  C91  1  0.78443000  0.76607000  0.29525000  1.0
  C  C92  1  0.76864000  0.79533000  0.26481000  1.0
  C  C93  1  0.91511000  0.79313000  0.23343000  1.0
  C  C94  1  0.07894000  0.76098000  0.23184000  1.0
  C  C95  1  0.22669000  0.75764000  0.19963000  1.0
  C  C96  1  0.38263000  0.72505000  0.19794000  1.0
  C  C97  1  0.40245000  0.69402000  0.22739000  1.0
  C  C98  1  0.89821000  0.82487000  0.20182000  1.0
  C  C99  1  0.21583000  0.78839000  0.16710000  1.0
  C  C100  1  0.88598000  0.85141000  0.11207000  1.0
  C  C101  1  0.88756000  0.88367000  0.08446000  1.0
  C  C102  1  0.04652000  0.91673000  0.08517000  1.0
  C  C103  1  0.20713000  0.91893000  0.11534000  1.0
  C  C104  1  0.20190000  0.88662000  0.14315000  1.0
  C  C105  1  0.04576000  0.85320000  0.14125000  1.0
  C  C106  1  0.18158000  0.66287000  0.39917000  1.0
  C  C107  1  0.19084000  0.63116000  0.42756000  1.0
  C  C108  1  0.13890000  0.58251000  0.41478000  1.0
  C  C109  1  0.07549000  0.56313000  0.37225000  1.0
  C  C110  1  0.07331000  0.59431000  0.34345000  1.0
  C  C111  1  0.12571000  0.64278000  0.35648000  1.0
  C  C112  1  0.73669000  0.20687000  0.82944000  1.0
  C  C113  1  0.41482000  0.16964000  0.79499000  1.0
  C  C114  1  0.42752000  0.20145000  0.76340000  1.0
  C  C115  1  0.59171000  0.23379000  0.76477000  1.0
  C  C116  1  0.74552000  0.23712000  0.79651000  1.0
  C  C117  1  0.27794000  0.19892000  0.73197000  1.0
  C  C118  1  0.28857000  0.22810000  0.70127000  1.0
  C  C119  1  0.44875000  0.26003000  0.70185000  1.0
  C  C120  1  0.60225000  0.26347000  0.73367000  1.0
  C  C121  1  0.76618000  0.29590000  0.73505000  1.0
  C  C122  1  0.91568000  0.29845000  0.76651000  1.0
  C  C123  1  0.90545000  0.26913000  0.79712000  1.0
  C  C124  1  0.45836000  0.28991000  0.66869000  1.0
  C  C125  1  0.77870000  0.32774000  0.70347000  1.0
  C  C126  1  0.46108000  0.38127000  0.63588000  1.0
  C  C127  1  0.46592000  0.41056000  0.60580000  1.0
  C  C128  1  0.64129000  0.41390000  0.58218000  1.0
  C  C129  1  0.81049000  0.38642000  0.58810000  1.0
  C  C130  1  0.80424000  0.35549000  0.61692000  1.0
  C  C131  1  0.63002000  0.35355000  0.64105000  1.0
  C  C132  1  0.72661000  0.11372000  0.86102000  1.0
  C  C133  1  0.71950000  0.08440000  0.89113000  1.0
  C  C134  1  0.54731000  0.08373000  0.91637000  1.0
  C  C135  1  0.38295000  0.11316000  0.91160000  1.0
  C  C136  1  0.39135000  0.14371000  0.88249000  1.0
  C  C137  1  0.56293000  0.14353000  0.85718000  1.0
  C  C138  1  0.45008000  0.37815000  0.37969000  1.0
  C  C139  1  0.44037000  0.34197000  0.34285000  1.0
  C  C140  1  0.61877000  0.32381000  0.32203000  1.0
  C  C141  1  0.80665000  0.34260000  0.33877000  1.0
  C  C142  1  0.81520000  0.37895000  0.37561000  1.0
  C  C143  1  0.63709000  0.39698000  0.39633000  1.0
  C  C144  1  0.58676000  0.21708000  0.21506000  1.0
  C  C145  1  0.60781000  0.28539000  0.28304000  1.0
  C  C146  1  0.38621000  0.16323000  0.15739000  1.0
  C  C147  1  0.37563000  0.12644000  0.12095000  1.0
  C  C148  1  0.55221000  0.10391000  0.10314000  1.0
  C  C149  1  0.73990000  0.11850000  0.12235000  1.0
  C  C150  1  0.75151000  0.15514000  0.15886000  1.0
  C  C151  1  0.57461000  0.17796000  0.17665000  1.0
  C  C152  1  0.54235000  0.06443000  0.06389000  1.0
  C  C153  1  0.54198000  0.05214000  0.94852000  1.0
  C  C154  1  0.03912000  0.93580000  0.93605000  1.0
  C  C155  1  0.03944000  0.94785000  0.05254000  1.0
  C  C156  1  0.57596000  0.65902000  0.22227000  1.0
  C  C157  1  0.71977000  0.66076000  0.18533000  1.0
  C  C158  1  0.37254000  0.95665000  0.12218000  1.0
  C  C159  1  0.29070000  0.00657000  0.14289000  1.0
  C  C160  1  0.23021000  0.71556000  0.41502000  1.0
  C  C161  1  0.43995000  0.72965000  0.40190000  1.0
  C  C162  1  0.02177000  0.51056000  0.35726000  1.0
  C  C163  1  0.20941000  0.47841000  0.34952000  1.0
  C  C164  1  0.50158000  0.58377000  0.63143000  1.0
  C  C165  1  0.46638000  0.53505000  0.64404000  1.0
  N  N166  1  0.26440000  0.72730000  0.74124000  1.0
  N  N167  1  0.25137000  0.76135000  0.77609000  1.0
  N  N168  1  0.90756000  0.77507000  0.75821000  1.0
  N  N169  1  0.91957000  0.74036000  0.72363000  1.0
  N  N170  1  0.11643000  0.67268000  0.32456000  1.0
  N  N171  1  0.05201000  0.82073000  0.17074000  1.0
  N  N172  1  0.57154000  0.17438000  0.82632000  1.0
  N  N173  1  0.62283000  0.32268000  0.67187000  1.0
  N  N174  1  0.78305000  0.26655000  0.26555000  1.0
  N  N175  1  0.77240000  0.23201000  0.23083000  1.0
  N  N176  1  0.41161000  0.23650000  0.23215000  1.0
  N  N177  1  0.42238000  0.27141000  0.26655000  1.0
  O  O178  1  0.47586000  0.45051000  0.45266000  1.0
  O  O179  1  0.81706000  0.45716000  0.53741000  1.0
  O  O180  1  0.97747000  0.54721000  0.55029000  1.0
  O  O181  1  0.81832000  0.45087000  0.45059000  1.0
  O  O182  1  0.97714000  0.54030000  0.46189000  1.0
  O  O183  1  0.47680000  0.46247000  0.54066000  1.0
  O  O184  1  0.64985000  0.52975000  0.50271000  1.0
  O  O185  1  0.31870000  0.54094000  0.46077000  1.0
  O  O186  1  0.31785000  0.55068000  0.54793000  1.0
  O  O187  1  0.14863000  0.47125000  0.49699000  1.0
  O  O188  1  0.40027000  0.63620000  0.29321000  1.0
  O  O189  1  0.82452000  0.70614000  0.35499000  1.0
  O  O190  1  0.75983000  0.85374000  0.20260000  1.0
  O  O191  1  0.34051000  0.78612000  0.13836000  1.0
  O  O192  1  0.86473000  0.20982000  0.85814000  1.0
  O  O193  1  0.27669000  0.14043000  0.79404000  1.0
  O  O194  1  0.33128000  0.28647000  0.63975000  1.0
  O  O195  1  0.91589000  0.35724000  0.70463000  1.0
  O  O196  1  0.71115000  0.03676000  0.95927000  1.0
  O  O197  1  0.36808000  0.04937000  0.04982000  1.0
  O  O198  1  0.20650000  0.95952000  0.03789000  1.0
  O  O199  1  0.37081000  0.04327000  0.96328000  1.0
  O  O200  1  0.20901000  0.95324000  0.95079000  1.0
  O  O201  1  0.70996000  0.04919000  0.04730000  1.0
  O  O202  1  0.53570000  0.97082000  0.99735000  1.0
  O  O203  1  0.86749000  0.94815000  0.95241000  1.0
  O  O204  1  0.86606000  0.95963000  0.04037000  1.0
  O  O205  1  0.03705000  0.02894000  0.00338000  1.0
