# generated using pymatgen
data_CuPH19C23BrNO3
_symmetry_space_group_name_H-M   'P 1'
_cell_length_a   9.43891000
_cell_length_b   9.45006000
_cell_length_c   13.08090000
_cell_angle_alpha   74.41860000
_cell_angle_beta   70.49420000
_cell_angle_gamma   83.70210000
_symmetry_Int_Tables_number   1
_chemical_formula_structural   CuPH19C23BrNO3
_chemical_formula_sum   'Cu2 P2 H38 C46 Br2 N2 O6'
_cell_volume   1059.15243364
_cell_formula_units_Z   2
loop_
 _symmetry_equiv_pos_site_id
 _symmetry_equiv_pos_as_xyz
  1  'x, y, z'
loop_
 _atom_site_type_symbol
 _atom_site_label
 _atom_site_symmetry_multiplicity
 _atom_site_fract_x
 _atom_site_fract_y
 _atom_site_fract_z
 _atom_site_occupancy
  Cu  Cu0  1  0.45239000  0.57747000  0.40479000  1.0
  Cu  Cu1  1  0.54761000  0.42253000  0.59521000  1.0
  P  P2  1  0.55420000  0.57958000  0.23021000  1.0
  P  P3  1  0.44580000  0.42042000  0.76979000  1.0
  H  H4  1  0.11705000  0.57490000  0.50490000  1.0
  H  H5  1  0.88295000  0.42510000  0.49510000  1.0
  H  H6  1  0.91057000  0.75624000  0.54307000  1.0
  H  H7  1  0.08943000  0.24376000  0.45693000  1.0
  H  H8  1  0.25101000  0.08842000  0.43003000  1.0
  H  H9  1  0.74899000  0.91157000  0.56997000  1.0
  H  H10  1  0.44068000  0.89187000  0.39451000  1.0
  H  H11  1  0.55932000  0.10812000  0.60549000  1.0
  H  H12  1  0.65199000  0.27967000  0.36775000  1.0
  H  H13  1  0.34802000  0.72034000  0.63224000  1.0
  H  H14  1  0.66420000  0.00833000  0.38380000  1.0
  H  H15  1  0.33580000  0.99168000  0.61620000  1.0
  H  H16  1  0.71829000  0.91571000  0.21414000  1.0
  H  H17  1  0.28171000  0.08430000  0.78586000  1.0
  H  H18  1  0.76565000  0.09253000  0.02672000  1.0
  H  H19  1  0.23435000  0.90747000  0.97328000  1.0
  H  H20  1  0.75219000  0.36349000  0.01158000  1.0
  H  H21  1  0.24781000  0.63651000  0.98841000  1.0
  H  H22  1  0.26361000  0.35037000  0.18025000  1.0
  H  H23  1  0.73638000  0.64963000  0.81976000  1.0
  H  H24  1  0.98589000  0.38929000  0.22314000  1.0
  H  H25  1  0.01410000  0.61071000  0.77686000  1.0
  H  H26  1  0.86676000  0.62761000  0.26041000  1.0
  H  H27  1  0.13325000  0.37239000  0.73960000  1.0
  H  H28  1  0.02664000  0.82802000  0.24736000  1.0
  H  H29  1  0.97336000  0.17198000  0.75264000  1.0
  H  H30  1  0.30319000  0.78983000  0.20277000  1.0
  H  H31  1  0.69682000  0.21016000  0.79723000  1.0
  H  H32  1  0.90923000  0.73677000  0.05155000  1.0
  H  H33  1  0.09077000  0.26322000  0.94844000  1.0
  H  H34  1  0.02651000  0.84306000  0.84671000  1.0
  H  H35  1  0.97349000  0.15692000  0.15329000  1.0
  H  H36  1  0.86655000  0.95201000  0.72752000  1.0
  H  H37  1  0.13345000  0.04799000  0.27248000  1.0
  H  H38  1  0.58578000  0.95170000  0.81206000  1.0
  H  H39  1  0.41422000  0.04831000  0.18795000  1.0
  H  H40  1  0.47045000  0.84626000  0.01608000  1.0
  H  H41  1  0.52955000  0.15374000  0.98393000  1.0
  C  C42  1  0.14072000  0.69073000  0.48870000  1.0
  C  C43  1  0.85928000  0.30926000  0.51130000  1.0
  C  C44  1  0.02564000  0.79433000  0.51056000  1.0
  C  C45  1  0.97436000  0.20567000  0.48944000  1.0
  C  C46  1  0.05941000  0.94275000  0.48996000  1.0
  C  C47  1  0.94059000  0.05724000  0.51004000  1.0
  C  C48  1  0.21307000  0.97699000  0.44785000  1.0
  C  C49  1  0.78693000  0.02300000  0.55215000  1.0
  C  C50  1  0.32123000  0.86748000  0.42740000  1.0
  C  C51  1  0.67877000  0.13252000  0.57260000  1.0
  C  C52  1  0.70230000  0.33393000  0.18879000  1.0
  C  C53  1  0.29771000  0.66608000  0.81120000  1.0
  C  C54  1  0.67745000  0.23678000  0.29403000  1.0
  C  C55  1  0.32256000  0.76323000  0.70596000  1.0
  C  C56  1  0.68316000  0.08595000  0.30222000  1.0
  C  C57  1  0.31684000  0.91406000  0.69778000  1.0
  C  C58  1  0.71415000  0.03352000  0.20661000  1.0
  C  C59  1  0.28584000  0.96649000  0.79339000  1.0
  C  C60  1  0.73923000  0.13286000  0.10182000  1.0
  C  C61  1  0.26076000  0.86715000  0.89818000  1.0
  C  C62  1  0.73299000  0.28404000  0.09227000  1.0
  C  C63  1  0.26701000  0.71596000  0.90772000  1.0
  C  C64  1  0.29732000  0.56645000  0.19091000  1.0
  C  C65  1  0.70268000  0.43355000  0.80910000  1.0
  C  C66  1  0.20947000  0.45368000  0.19616000  1.0
  C  C67  1  0.79053000  0.54632000  0.80385000  1.0
  C  C68  1  0.05457000  0.47679000  0.22001000  1.0
  C  C69  1  0.94543000  0.52320000  0.77999000  1.0
  C  C70  1  0.98800000  0.61084000  0.23934000  1.0
  C  C71  1  0.01200000  0.38916000  0.76066000  1.0
  C  C72  1  0.07760000  0.72279000  0.23327000  1.0
  C  C73  1  0.92241000  0.27720000  0.76673000  1.0
  C  C74  1  0.23321000  0.70181000  0.20853000  1.0
  C  C75  1  0.76680000  0.29818000  0.79147000  1.0
  C  C76  1  0.68408000  0.78793000  0.04376000  1.0
  C  C77  1  0.31591000  0.21207000  0.95624000  1.0
  C  C78  1  0.84025000  0.78459000  0.99808000  1.0
  C  C79  1  0.15975000  0.21541000  0.00192000  1.0
  C  C80  1  0.90478000  0.84410000  0.88353000  1.0
  C  C81  1  0.09522000  0.15590000  0.11647000  1.0
  C  C82  1  0.81438000  0.90521000  0.81656000  1.0
  C  C83  1  0.18563000  0.09480000  0.18344000  1.0
  C  C84  1  0.65799000  0.90549000  0.86342000  1.0
  C  C85  1  0.34201000  0.09452000  0.13658000  1.0
  C  C86  1  0.59197000  0.84588000  0.97789000  1.0
  C  C87  1  0.40803000  0.15413000  0.02211000  1.0
  Br  Br88  1  0.35096000  0.33775000  0.52836000  1.0
  Br  Br89  1  0.64904000  0.66224000  0.47164000  1.0
  N  N90  1  0.28721000  0.72535000  0.44734000  1.0
  N  N91  1  0.71278000  0.27464000  0.55266000  1.0
  O  O92  1  0.70401000  0.48539000  0.17680000  1.0
  O  O93  1  0.29599000  0.51462000  0.82319000  1.0
  O  O94  1  0.45205000  0.53976000  0.16221000  1.0
  O  O95  1  0.54796000  0.46024000  0.83779000  1.0
  O  O96  1  0.61768000  0.74220000  0.16047000  1.0
  O  O97  1  0.38232000  0.25780000  0.83953000  1.0
