# generated using pymatgen
data_CdH18C26(N2Cl)2
_symmetry_space_group_name_H-M   'P 1'
_cell_length_a   13.27360000
_cell_length_b   16.23730000
_cell_length_c   16.23730000
_cell_angle_alpha   112.87300000
_cell_angle_beta   105.81300000
_cell_angle_gamma   105.81300000
_symmetry_Int_Tables_number   1
_chemical_formula_structural   CdH18C26(N2Cl)2
_chemical_formula_sum   'Cd3 H54 C78 N12 Cl6'
_cell_volume   2805.53252518
_cell_formula_units_Z   3
loop_
 _symmetry_equiv_pos_site_id
 _symmetry_equiv_pos_as_xyz
  1  'x, y, z'
loop_
 _atom_site_type_symbol
 _atom_site_label
 _atom_site_symmetry_multiplicity
 _atom_site_fract_x
 _atom_site_fract_y
 _atom_site_fract_z
 _atom_site_occupancy
  Cd  Cd0  1  0.50000000  0.50000000  0.00000000  1.0
  Cd  Cd1  1  0.50000000  0.00000000  0.50000000  1.0
  Cd  Cd2  1  0.00000000  0.50000000  0.50000000  1.0
  H  H3  1  0.39140000  0.56269000  0.84600000  1.0
  H  H4  1  0.37048000  0.54896000  0.68223000  1.0
  H  H5  1  0.64209000  0.44904000  0.70303000  1.0
  H  H6  1  0.65064000  0.46721000  0.86591000  1.0
  H  H7  1  0.54544000  0.15401000  0.71670000  1.0
  H  H8  1  0.68827000  0.31778000  0.86673000  1.0
  H  H9  1  0.93906000  0.29696000  0.74595000  1.0
  H  H10  1  0.78469000  0.13409000  0.60121000  1.0
  H  H11  1  0.82875000  0.28328000  0.43727000  1.0
  H  H12  1  0.82156000  0.13321000  0.45092000  1.0
  H  H13  1  0.19320000  0.25404000  0.55103000  1.0
  H  H14  1  0.18344000  0.39875000  0.53286000  1.0
  H  H15  1  0.45456000  0.28330000  0.84599000  1.0
  H  H16  1  0.31173000  0.13327000  0.68222000  1.0
  H  H17  1  0.06094000  0.25405000  0.70304000  1.0
  H  H18  1  0.21531000  0.39879000  0.86590000  1.0
  H  H19  1  0.17125000  0.56273000  0.71672000  1.0
  H  H20  1  0.17844000  0.54908000  0.86679000  1.0
  H  H21  1  0.80680000  0.44897000  0.74596000  1.0
  H  H22  1  0.81656000  0.46714000  0.60125000  1.0
  H  H23  1  0.60860000  0.15400000  0.43731000  1.0
  H  H24  1  0.62952000  0.31777000  0.45104000  1.0
  H  H25  1  0.35791000  0.29697000  0.55096000  1.0
  H  H26  1  0.34936000  0.13409000  0.53279000  1.0
  H  H27  1  0.60860000  0.43731000  0.15400000  1.0
  H  H28  1  0.62952000  0.45104000  0.31777000  1.0
  H  H29  1  0.35791000  0.55096000  0.29697000  1.0
  H  H30  1  0.34936000  0.53279000  0.13409000  1.0
  H  H31  1  0.45456000  0.84599000  0.28330000  1.0
  H  H32  1  0.31173000  0.68222000  0.13327000  1.0
  H  H33  1  0.06094000  0.70304000  0.25405000  1.0
  H  H34  1  0.21532000  0.86591000  0.39879000  1.0
  H  H35  1  0.17125000  0.71672000  0.56273000  1.0
  H  H36  1  0.17844000  0.86679000  0.54908000  1.0
  H  H37  1  0.80680000  0.74596000  0.44897000  1.0
  H  H38  1  0.81656000  0.60125000  0.46714000  1.0
  H  H39  1  0.54544000  0.71670000  0.15401000  1.0
  H  H40  1  0.68827000  0.86673000  0.31778000  1.0
  H  H41  1  0.93906000  0.74595000  0.29696000  1.0
  H  H42  1  0.78469000  0.60121000  0.13409000  1.0
  H  H43  1  0.82875000  0.43727000  0.28328000  1.0
  H  H44  1  0.82156000  0.45092000  0.13321000  1.0
  H  H45  1  0.19320000  0.55103000  0.25404000  1.0
  H  H46  1  0.18344000  0.53286000  0.39875000  1.0
  H  H47  1  0.39140000  0.84600000  0.56269000  1.0
  H  H48  1  0.37048000  0.68223000  0.54896000  1.0
  H  H49  1  0.64209000  0.70303000  0.44904000  1.0
  H  H50  1  0.65064000  0.86591000  0.46721000  1.0
  H  H51  1  0.50013000  0.63735000  0.63735000  1.0
  H  H52  1  0.86289000  0.36259000  0.99999000  1.0
  H  H53  1  0.86289000  0.99999000  0.36259000  1.0
  H  H54  1  0.13711000  0.00001000  0.63741000  1.0
  H  H55  1  0.13711000  0.63741000  0.00001000  1.0
  H  H56  1  0.49987000  0.36265000  0.36265000  1.0
  C  C57  1  0.44534000  0.53808000  0.81113000  1.0
  C  C58  1  0.43443000  0.53032000  0.72045000  1.0
  C  C59  1  0.50514000  0.49732000  0.67851000  1.0
  C  C60  1  0.58447000  0.47416000  0.73175000  1.0
  C  C61  1  0.59030000  0.48468000  0.82236000  1.0
  C  C62  1  0.49925000  0.49363000  0.58464000  1.0
  C  C63  1  0.63423000  0.18890000  0.72695000  1.0
  C  C64  1  0.71400000  0.27961000  0.80983000  1.0
  C  C65  1  0.82667000  0.32150000  0.81878000  1.0
  C  C66  1  0.85272000  0.26827000  0.74235000  1.0
  C  C67  1  0.76795000  0.17766000  0.66228000  1.0
  C  C68  1  0.91460000  0.41535000  0.90898000  1.0
  C  C69  1  0.90728000  0.27300000  0.46188000  1.0
  C  C70  1  0.90418000  0.19010000  0.46966000  1.0
  C  C71  1  0.00790000  0.18119000  0.50269000  1.0
  C  C72  1  0.11042000  0.25757000  0.52584000  1.0
  C  C73  1  0.10567000  0.33761000  0.51527000  1.0
  C  C74  1  0.00558000  0.09100000  0.50639000  1.0
  C  C75  1  0.36577000  0.27305000  0.81110000  1.0
  C  C76  1  0.28600000  0.19017000  0.72039000  1.0
  C  C77  1  0.17333000  0.18122000  0.67850000  1.0
  C  C78  1  0.14728000  0.25765000  0.73173000  1.0
  C  C79  1  0.23205000  0.33772000  0.82234000  1.0
  C  C80  1  0.08539000  0.09102000  0.58465000  1.0
  C  C81  1  0.09272000  0.53811000  0.72700000  1.0
  C  C82  1  0.09582000  0.53034000  0.80990000  1.0
  C  C83  1  0.99210000  0.49731000  0.81881000  1.0
  C  C84  1  0.88958000  0.47416000  0.74243000  1.0
  C  C85  1  0.89433000  0.48473000  0.66239000  1.0
  C  C86  1  0.99442000  0.49361000  0.90900000  1.0
  C  C87  1  0.55466000  0.18887000  0.46192000  1.0
  C  C88  1  0.56557000  0.27955000  0.46968000  1.0
  C  C89  1  0.49487000  0.32150000  0.50269000  1.0
  C  C90  1  0.41553000  0.26825000  0.52584000  1.0
  C  C91  1  0.40970000  0.17764000  0.51531000  1.0
  C  C92  1  0.50076000  0.41536000  0.50637000  1.0
  C  C93  1  0.55466000  0.46192000  0.18887000  1.0
  C  C94  1  0.56557000  0.46968000  0.27955000  1.0
  C  C95  1  0.49486000  0.50269000  0.32149000  1.0
  C  C96  1  0.41553000  0.52585000  0.26825000  1.0
  C  C97  1  0.40970000  0.51532000  0.17764000  1.0
  C  C98  1  0.50076000  0.50637000  0.41536000  1.0
  C  C99  1  0.36577000  0.81110000  0.27305000  1.0
  C  C100  1  0.28600000  0.72039000  0.19017000  1.0
  C  C101  1  0.17333000  0.67850000  0.18122000  1.0
  C  C102  1  0.14728000  0.73173000  0.25765000  1.0
  C  C103  1  0.23205000  0.82234000  0.33772000  1.0
  C  C104  1  0.08539000  0.58465000  0.09102000  1.0
  C  C105  1  0.09272000  0.72700000  0.53811000  1.0
  C  C106  1  0.09582000  0.80990000  0.53034000  1.0
  C  C107  1  0.99210000  0.81881000  0.49731000  1.0
  C  C108  1  0.88958000  0.74243000  0.47416000  1.0
  C  C109  1  0.89433000  0.66239000  0.48473000  1.0
  C  C110  1  0.99442000  0.90901000  0.49361000  1.0
  C  C111  1  0.63423000  0.72695000  0.18890000  1.0
  C  C112  1  0.71400000  0.80983000  0.27961000  1.0
  C  C113  1  0.82667000  0.81878000  0.32151000  1.0
  C  C114  1  0.85272000  0.74235000  0.26827000  1.0
  C  C115  1  0.76795000  0.66228000  0.17766000  1.0
  C  C116  1  0.91461000  0.90898000  0.41535000  1.0
  C  C117  1  0.90728000  0.46189000  0.27300000  1.0
  C  C118  1  0.90418000  0.46966000  0.19010000  1.0
  C  C119  1  0.00790000  0.50269000  0.18119000  1.0
  C  C120  1  0.11042000  0.52584000  0.25757000  1.0
  C  C121  1  0.10567000  0.51527000  0.33761000  1.0
  C  C122  1  0.00558000  0.50639000  0.09099000  1.0
  C  C123  1  0.44534000  0.81113000  0.53808000  1.0
  C  C124  1  0.43443000  0.72045000  0.53032000  1.0
  C  C125  1  0.50514000  0.67851000  0.49731000  1.0
  C  C126  1  0.58447000  0.73175000  0.47416000  1.0
  C  C127  1  0.59030000  0.82236000  0.48468000  1.0
  C  C128  1  0.49924000  0.58464000  0.49363000  1.0
  C  C129  1  0.49779000  0.57578000  0.57578000  1.0
  C  C130  1  0.92201000  0.42421000  0.99998000  1.0
  C  C131  1  0.92201000  0.99998000  0.42421000  1.0
  C  C132  1  0.07799000  0.00001000  0.57579000  1.0
  C  C133  1  0.07799000  0.57579000  0.00001000  1.0
  C  C134  1  0.50221000  0.42423000  0.42423000  1.0
  N  N135  1  0.52171000  0.51586000  0.86169000  1.0
  N  N136  1  0.66003000  0.13833000  0.65415000  1.0
  N  N137  1  0.00590000  0.34581000  0.48417000  1.0
  N  N138  1  0.33997000  0.34585000  0.86167000  1.0
  N  N139  1  0.99410000  0.51583000  0.65419000  1.0
  N  N140  1  0.47829000  0.13831000  0.48414000  1.0
  N  N141  1  0.47829000  0.48414000  0.13831000  1.0
  N  N142  1  0.33997000  0.86167000  0.34585000  1.0
  N  N143  1  0.99411000  0.65419000  0.51583000  1.0
  N  N144  1  0.66003000  0.65415000  0.13833000  1.0
  N  N145  1  0.00590000  0.48417000  0.34581000  1.0
  N  N146  1  0.52171000  0.86169000  0.51586000  1.0
  Cl  Cl147  1  0.64073000  0.41506000  0.00001000  1.0
  Cl  Cl148  1  0.64073000  0.00001000  0.41506000  1.0
  Cl  Cl149  1  0.22566000  0.58498000  0.58498000  1.0
  Cl  Cl150  1  0.35927000  0.58494000  0.99999000  1.0
  Cl  Cl151  1  0.77434000  0.41503000  0.41502000  1.0
  Cl  Cl152  1  0.35927000  0.99999000  0.58494000  1.0
