# generated using pymatgen
data_Cu2H9C12N5
_symmetry_space_group_name_H-M   'P 1'
_cell_length_a   8.08790000
_cell_length_b   9.10339000
_cell_length_c   9.67871784
_cell_angle_alpha   115.61714614
_cell_angle_beta   96.20309603
_cell_angle_gamma   102.41770000
_symmetry_Int_Tables_number   1
_chemical_formula_structural   Cu2H9C12N5
_chemical_formula_sum   'Cu4 H18 C24 N10'
_cell_volume   610.96768216
_cell_formula_units_Z   2
loop_
 _symmetry_equiv_pos_site_id
 _symmetry_equiv_pos_as_xyz
  1  'x, y, z'
loop_
 _atom_site_type_symbol
 _atom_site_label
 _atom_site_symmetry_multiplicity
 _atom_site_fract_x
 _atom_site_fract_y
 _atom_site_fract_z
 _atom_site_occupancy
  Cu  Cu0  1  0.16908000  0.48658000  0.04998000  1.0
  Cu  Cu1  1  0.83090000  0.51340000  0.95001000  1.0
  Cu  Cu2  1  0.08309000  0.04443000  0.20406000  1.0
  Cu  Cu3  1  0.91690000  0.95558000  0.79595000  1.0
  H  H4  1  0.40709000  0.27391000  0.91201000  1.0
  H  H5  1  0.59292000  0.72609000  0.08798000  1.0
  H  H6  1  0.12924000  0.53308000  0.76480000  1.0
  H  H7  1  0.87077000  0.46692000  0.23520000  1.0
  H  H8  1  0.23843000  0.45023000  0.51918000  1.0
  H  H9  1  0.76158000  0.54977000  0.48082000  1.0
  H  H10  1  0.52616000  0.17842000  0.67635000  1.0
  H  H11  1  0.47385000  0.82160000  0.32365000  1.0
  H  H12  1  0.74188000  0.25646000  0.61877000  1.0
  H  H13  1  0.25812000  0.74354000  0.38123000  1.0
  H  H14  1  0.96867000  0.14053000  0.50649000  1.0
  H  H15  1  0.03133000  0.85947000  0.49352000  1.0
  H  H16  1  0.49372000  0.14483000  0.14980000  1.0
  H  H17  1  0.50629000  0.85518000  0.85021000  1.0
  H  H18  1  0.74634000  0.04952000  0.05944000  1.0
  H  H19  1  0.25367000  0.95049000  0.94056000  1.0
  H  H20  1  0.37899000  0.28066000  0.35482000  1.0
  H  H21  1  0.62102000  0.71935000  0.64517000  1.0
  C  C22  1  0.37436000  0.31272000  0.82318000  1.0
  C  C23  1  0.62564000  0.68727000  0.17681000  1.0
  C  C24  1  0.21952000  0.45636000  0.74086000  1.0
  C  C25  1  0.78047000  0.54365000  0.25914000  1.0
  C  C26  1  0.28079000  0.41034000  0.60469000  1.0
  C  C27  1  0.71922000  0.58966000  0.39530000  1.0
  C  C28  1  0.44314000  0.26064000  0.69047000  1.0
  C  C29  1  0.55687000  0.73936000  0.30953000  1.0
  C  C30  1  0.39867000  0.31224000  0.57748000  1.0
  C  C31  1  0.60133000  0.68776000  0.42252000  1.0
  C  C32  1  0.59092000  0.20552000  0.39223000  1.0
  C  C33  1  0.40908000  0.79449000  0.60778000  1.0
  C  C34  1  0.72981000  0.20492000  0.49262000  1.0
  C  C35  1  0.27018000  0.79507000  0.50738000  1.0
  C  C36  1  0.86137000  0.14300000  0.42981000  1.0
  C  C37  1  0.13862000  0.85700000  0.57020000  1.0
  C  C38  1  0.59683000  0.14484000  0.23210000  1.0
  C  C39  1  0.40317000  0.85517000  0.76791000  1.0
  C  C40  1  0.73627000  0.09061000  0.18135000  1.0
  C  C41  1  0.26374000  0.90940000  0.81866000  1.0
  C  C42  1  0.14423000  0.70479000  0.11558000  1.0
  C  C43  1  0.85577000  0.29520000  0.88442000  1.0
  C  C44  1  0.18913000  0.34541000  0.14172000  1.0
  C  C45  1  0.81086000  0.65458000  0.85827000  1.0
  N  N46  1  0.26559000  0.41028000  0.85122000  1.0
  N  N47  1  0.73441000  0.58972000  0.14877000  1.0
  N  N48  1  0.45595000  0.26994000  0.43960000  1.0
  N  N49  1  0.54405000  0.73006000  0.56040000  1.0
  N  N50  1  0.86893000  0.08784000  0.27754000  1.0
  N  N51  1  0.13107000  0.91216000  0.72247000  1.0
  N  N52  1  0.18497000  0.24181000  0.18512000  1.0
  N  N53  1  0.81503000  0.75817000  0.81488000  1.0
  N  N54  1  0.14173000  0.84747000  0.16341000  1.0
  N  N55  1  0.85826000  0.15250000  0.83658000  1.0
