# generated using pymatgen
data_AgH15C11SN4O3
_symmetry_space_group_name_H-M   'P 1'
_cell_length_a   6.48668000
_cell_length_b   8.54496000
_cell_length_c   24.43670000
_cell_angle_alpha   89.99920000
_cell_angle_beta   83.15280000
_cell_angle_gamma   89.99930000
_symmetry_Int_Tables_number   1
_chemical_formula_structural   AgH15C11SN4O3
_chemical_formula_sum   'Ag4 H60 C44 S4 N16 O12'
_cell_volume   1344.82699179
_cell_formula_units_Z   4
loop_
 _symmetry_equiv_pos_site_id
 _symmetry_equiv_pos_as_xyz
  1  'x, y, z'
loop_
 _atom_site_type_symbol
 _atom_site_label
 _atom_site_symmetry_multiplicity
 _atom_site_fract_x
 _atom_site_fract_y
 _atom_site_fract_z
 _atom_site_occupancy
  Ag  Ag0  1  0.22806000  0.48464000  0.30381000  1.0
  Ag  Ag1  1  0.77194000  0.98465000  0.19620000  1.0
  Ag  Ag2  1  0.77194000  0.51535000  0.69619000  1.0
  Ag  Ag3  1  0.22807000  0.01535000  0.80381000  1.0
  H  H4  1  0.58450000  0.29409000  0.23282000  1.0
  H  H5  1  0.41643000  0.16692000  0.27671000  1.0
  H  H6  1  0.75382000  0.50575000  0.27136000  1.0
  H  H7  1  0.70893000  0.54824000  0.34352000  1.0
  H  H8  1  0.52006000  0.78617000  0.50047000  1.0
  H  H9  1  0.35747000  0.21336000  0.37359000  1.0
  H  H10  1  0.47974000  0.37615000  0.40314000  1.0
  H  H11  1  0.61640000  0.98608000  0.56517000  1.0
  H  H12  1  0.84667000  0.36923000  0.40828000  1.0
  H  H13  1  0.99515000  0.20183000  0.38252000  1.0
  H  H14  1  0.95802000  0.28244000  0.23794000  1.0
  H  H15  1  0.05230000  0.15204000  0.28729000  1.0
  H  H16  1  0.76684000  0.71218000  0.41870000  1.0
  H  H17  1  0.82877000  0.98705000  0.34256000  1.0
  H  H18  1  0.55356000  0.99297000  0.33945000  1.0
  H  H19  1  0.41552000  0.79410000  0.26718000  1.0
  H  H20  1  0.58358000  0.66693000  0.22330000  1.0
  H  H21  1  0.24618000  0.00577000  0.22864000  1.0
  H  H22  1  0.29108000  0.04826000  0.15648000  1.0
  H  H23  1  0.47996000  0.28619000  0.99953000  1.0
  H  H24  1  0.64253000  0.71338000  0.12642000  1.0
  H  H25  1  0.52027000  0.87617000  0.09686000  1.0
  H  H26  1  0.38361000  0.48609000  0.93483000  1.0
  H  H27  1  0.15333000  0.86925000  0.09173000  1.0
  H  H28  1  0.00486000  0.70185000  0.11748000  1.0
  H  H29  1  0.04199000  0.78245000  0.26207000  1.0
  H  H30  1  0.94770000  0.65206000  0.21272000  1.0
  H  H31  1  0.23317000  0.21217000  0.08131000  1.0
  H  H32  1  0.17123000  0.48707000  0.15745000  1.0
  H  H33  1  0.44644000  0.49299000  0.16055000  1.0
  H  H34  1  0.41551000  0.70591000  0.76718000  1.0
  H  H35  1  0.58357000  0.83308000  0.72329000  1.0
  H  H36  1  0.24617000  0.49425000  0.72864000  1.0
  H  H37  1  0.29107000  0.45176000  0.65648000  1.0
  H  H38  1  0.47996000  0.21380000  0.49954000  1.0
  H  H39  1  0.64253000  0.78663000  0.62641000  1.0
  H  H40  1  0.52026000  0.62385000  0.59686000  1.0
  H  H41  1  0.38361000  0.01391000  0.43483000  1.0
  H  H42  1  0.15332000  0.63076000  0.59172000  1.0
  H  H43  1  0.00484000  0.79817000  0.61748000  1.0
  H  H44  1  0.04198000  0.71755000  0.76206000  1.0
  H  H45  1  0.94769000  0.84795000  0.71271000  1.0
  H  H46  1  0.23317000  0.28783000  0.58131000  1.0
  H  H47  1  0.17122000  0.01295000  0.65744000  1.0
  H  H48  1  0.44643000  0.00702000  0.66055000  1.0
  H  H49  1  0.58448000  0.20591000  0.73282000  1.0
  H  H50  1  0.41643000  0.33308000  0.77670000  1.0
  H  H51  1  0.75383000  0.99425000  0.77136000  1.0
  H  H52  1  0.70894000  0.95175000  0.84351000  1.0
  H  H53  1  0.52004000  0.71381000  0.00046000  1.0
  H  H54  1  0.35747000  0.28662000  0.87359000  1.0
  H  H55  1  0.47975000  0.12383000  0.90313000  1.0
  H  H56  1  0.61639000  0.51392000  0.06517000  1.0
  H  H57  1  0.84667000  0.13075000  0.90827000  1.0
  H  H58  1  0.99515000  0.29816000  0.88252000  1.0
  H  H59  1  0.95802000  0.21756000  0.73793000  1.0
  H  H60  1  0.05230000  0.34795000  0.78728000  1.0
  H  H61  1  0.76683000  0.78782000  0.91869000  1.0
  H  H62  1  0.82877000  0.51294000  0.84255000  1.0
  H  H63  1  0.55356000  0.50702000  0.83945000  1.0
  C  C64  1  0.55822000  0.23786000  0.27346000  1.0
  C  C65  1  0.00759000  0.86475000  0.43922000  1.0
  C  C66  1  0.72581000  0.45444000  0.31271000  1.0
  C  C67  1  0.67478000  0.83789000  0.49476000  1.0
  C  C68  1  0.49925000  0.28414000  0.37153000  1.0
  C  C69  1  0.72919000  0.94948000  0.53108000  1.0
  C  C70  1  0.86321000  0.27762000  0.37651000  1.0
  C  C71  1  0.92771000  0.02140000  0.52352000  1.0
  C  C72  1  0.92519000  0.22983000  0.27894000  1.0
  C  C73  1  0.81390000  0.79567000  0.44841000  1.0
  C  C74  1  0.69648000  0.06224000  0.33684000  1.0
  C  C75  1  0.44178000  0.73787000  0.22655000  1.0
  C  C76  1  0.99241000  0.36475000  0.06078000  1.0
  C  C77  1  0.27420000  0.95446000  0.18729000  1.0
  C  C78  1  0.32522000  0.33790000  0.00525000  1.0
  C  C79  1  0.50076000  0.78415000  0.12847000  1.0
  C  C80  1  0.27081000  0.44948000  0.96892000  1.0
  C  C81  1  0.13679000  0.77764000  0.12350000  1.0
  C  C82  1  0.07228000  0.52139000  0.97648000  1.0
  C  C83  1  0.07482000  0.72985000  0.22107000  1.0
  C  C84  1  0.18611000  0.29567000  0.05160000  1.0
  C  C85  1  0.30352000  0.56226000  0.16316000  1.0
  C  C86  1  0.44177000  0.76214000  0.72654000  1.0
  C  C87  1  0.99241000  0.13526000  0.56078000  1.0
  C  C88  1  0.27419000  0.54556000  0.68729000  1.0
  C  C89  1  0.32523000  0.16210000  0.50525000  1.0
  C  C90  1  0.50075000  0.71586000  0.62847000  1.0
  C  C91  1  0.27080000  0.05051000  0.46893000  1.0
  C  C92  1  0.13678000  0.72238000  0.62349000  1.0
  C  C93  1  0.07229000  0.97861000  0.47649000  1.0
  C  C94  1  0.07481000  0.77017000  0.72106000  1.0
  C  C95  1  0.18612000  0.20432000  0.55160000  1.0
  C  C96  1  0.30351000  0.93775000  0.66316000  1.0
  C  C97  1  0.55822000  0.26214000  0.77345000  1.0
  C  C98  1  0.00759000  0.63525000  0.93922000  1.0
  C  C99  1  0.72581000  0.04555000  0.81271000  1.0
  C  C100  1  0.67477000  0.66211000  0.99475000  1.0
  C  C101  1  0.49925000  0.21585000  0.87153000  1.0
  C  C102  1  0.72919000  0.55053000  0.03108000  1.0
  C  C103  1  0.86322000  0.22237000  0.87650000  1.0
  C  C104  1  0.92770000  0.47861000  0.02352000  1.0
  C  C105  1  0.92519000  0.27017000  0.77893000  1.0
  C  C106  1  0.81388000  0.70432000  0.94840000  1.0
  C  C107  1  0.69648000  0.43775000  0.83684000  1.0
  S  S108  1  0.16941000  0.81414000  0.37709000  1.0
  S  S109  1  0.83059000  0.31414000  0.12291000  1.0
  S  S110  1  0.83058000  0.18586000  0.62291000  1.0
  S  S111  1  0.16940000  0.68585000  0.87709000  1.0
  N  N112  1  0.53068000  0.36195000  0.31633000  1.0
  N  N113  1  0.73466000  0.13443000  0.28086000  1.0
  N  N114  1  0.90575000  0.35454000  0.32137000  1.0
  N  N115  1  0.67416000  0.18334000  0.37999000  1.0
  N  N116  1  0.46932000  0.86196000  0.18367000  1.0
  N  N117  1  0.26535000  0.63444000  0.21914000  1.0
  N  N118  1  0.09426000  0.85456000  0.17863000  1.0
  N  N119  1  0.32585000  0.68336000  0.12001000  1.0
  N  N120  1  0.46932000  0.63805000  0.68367000  1.0
  N  N121  1  0.26534000  0.86557000  0.71914000  1.0
  N  N122  1  0.09425000  0.64546000  0.67863000  1.0
  N  N123  1  0.32583000  0.81666000  0.62001000  1.0
  N  N124  1  0.53069000  0.13804000  0.81633000  1.0
  N  N125  1  0.73465000  0.36557000  0.78086000  1.0
  N  N126  1  0.90575000  0.14545000  0.82137000  1.0
  N  N127  1  0.67416000  0.31665000  0.87999000  1.0
  O  O128  1  0.04097000  0.70314000  0.34906000  1.0
  O  O129  1  0.20480000  0.96120000  0.34528000  1.0
  O  O130  1  0.36136000  0.74362000  0.39167000  1.0
  O  O131  1  0.95904000  0.20314000  0.15095000  1.0
  O  O132  1  0.79522000  0.46120000  0.15472000  1.0
  O  O133  1  0.63864000  0.24365000  0.10833000  1.0
  O  O134  1  0.95902000  0.29686000  0.65094000  1.0
  O  O135  1  0.79522000  0.03880000  0.65472000  1.0
  O  O136  1  0.63862000  0.25636000  0.60833000  1.0
  O  O137  1  0.04096000  0.79685000  0.84905000  1.0
  O  O138  1  0.20477000  0.53879000  0.84528000  1.0
  O  O139  1  0.36136000  0.75635000  0.89167000  1.0
