# generated using pymatgen
data_Zn3H13C31Cl3(O6F)2
_symmetry_space_group_name_H-M   'P 1'
_cell_length_a   18.56950000
_cell_length_b   18.74590000
_cell_length_c   18.77056575
_cell_angle_alpha   109.54201569
_cell_angle_beta   108.90273845
_cell_angle_gamma   109.68600000
_symmetry_Int_Tables_number   1
_chemical_formula_structural   Zn3H13C31Cl3(O6F)2
_chemical_formula_sum   'Zn6 H26 C62 Cl6 O24 F4'
_cell_volume   5047.21552210
_cell_formula_units_Z   2
loop_
 _symmetry_equiv_pos_site_id
 _symmetry_equiv_pos_as_xyz
  1  'x, y, z'
loop_
 _atom_site_type_symbol
 _atom_site_label
 _atom_site_symmetry_multiplicity
 _atom_site_fract_x
 _atom_site_fract_y
 _atom_site_fract_z
 _atom_site_occupancy
  Zn  Zn0  1  0.00638000  0.45264000  0.94638000  1.0
  Zn  Zn1  1  0.00468000  0.57398000  0.07377000  1.0
  Zn  Zn2  1  0.57062000  0.00597000  0.05789000  1.0
  Zn  Zn3  1  0.43546000  0.99472000  0.93212000  1.0
  Zn  Zn4  1  0.43415000  0.42892000  0.49466000  1.0
  Zn  Zn5  1  0.56171000  0.55633000  0.49658000  1.0
  H  H6  1  0.88340000  0.38269000  0.15082000  1.0
  H  H7  1  0.69800000  0.35696000  0.53505000  1.0
  H  H8  1  0.74834000  0.28760000  0.65889000  1.0
  H  H9  1  0.82562000  0.36235000  0.64551000  1.0
  H  H10  1  0.27637000  0.81816000  0.19110000  1.0
  H  H11  1  0.40262000  0.91942000  0.19015000  1.0
  H  H12  1  0.22321000  0.73692000  0.84522000  1.0
  H  H13  1  0.10664000  0.61823000  0.84471000  1.0
  H  H14  1  0.18007000  0.57788000  0.87294000  1.0
  H  H15  1  0.11521000  0.49498000  0.24680000  1.0
  H  H16  1  0.34289000  0.36259000  0.16260000  1.0
  H  H17  1  0.30301000  0.47412000  0.08581000  1.0
  H  H18  1  0.23261000  0.35914000  0.03839000  1.0
  H  H19  1  0.51853000  0.29207000  0.11082000  1.0
  H  H20  1  0.54277000  0.41187000  0.24045000  1.0
  H  H21  1  0.52136000  0.21148000  0.38923000  1.0
  H  H22  1  0.40953000  0.18636000  0.34137000  1.0
  H  H23  1  0.62217000  0.23794000  0.72699000  1.0
  H  H24  1  0.37880000  0.06495000  0.20420000  1.0
  H  H25  1  0.34556000  0.73572000  0.69731000  1.0
  H  H26  1  0.36267000  0.62977000  0.59232000  1.0
  H  H27  1  0.70348000  0.77938000  0.82106000  1.0
  H  H28  1  0.71132000  0.84785000  0.77308000  1.0
  H  H29  1  0.69332000  0.94712000  0.88582000  1.0
  H  H30  1  0.77939000  0.24420000  0.13530000  1.0
  H  H31  1  0.80827000  0.58790000  0.89746000  1.0
  C  C32  1  0.89078000  0.49478000  0.87342000  1.0
  C  C33  1  0.73318000  0.27685000  0.93489000  1.0
  C  C34  1  0.80786000  0.34424000  0.01763000  1.0
  C  C35  1  0.82554000  0.33160000  0.08827000  1.0
  C  C36  1  0.76949000  0.25243000  0.07874000  1.0
  C  C37  1  0.70003000  0.18347000  0.99841000  1.0
  C  C38  1  0.76790000  0.42110000  0.71912000  1.0
  C  C39  1  0.81295000  0.48529000  0.80622000  1.0
  C  C40  1  0.77719000  0.53877000  0.82956000  1.0
  C  C41  1  0.70291000  0.53004000  0.76795000  1.0
  C  C42  1  0.65930000  0.46741000  0.67910000  1.0
  C  C43  1  0.87832000  0.41933000  0.02416000  1.0
  C  C44  1  0.69395000  0.41322000  0.65825000  1.0
  C  C45  1  0.68698000  0.34131000  0.58343000  1.0
  C  C46  1  0.76685000  0.34661000  0.65289000  1.0
  C  C47  1  0.21896000  0.70286000  0.98120000  1.0
  C  C48  1  0.21118000  0.72113000  0.05589000  1.0
  C  C49  1  0.27908000  0.80126000  0.13087000  1.0
  C  C50  1  0.35047000  0.85876000  0.13040000  1.0
  C  C51  1  0.35485000  0.84133000  0.05334000  1.0
  C  C52  1  0.28644000  0.76270000  0.97966000  1.0
  C  C53  1  0.24772000  0.70827000  0.88274000  1.0
  C  C54  1  0.10709000  0.47025000  0.09456000  1.0
  C  C55  1  0.17487000  0.63700000  0.88564000  1.0
  C  C56  1  0.23111000  0.44095000  0.15477000  1.0
  C  C57  1  0.16623000  0.45983000  0.16064000  1.0
  C  C58  1  0.16304000  0.47708000  0.23815000  1.0
  C  C59  1  0.22062000  0.47351000  0.30484000  1.0
  C  C60  1  0.28826000  0.45710000  0.30035000  1.0
  C  C61  1  0.29134000  0.44254000  0.22380000  1.0
  C  C62  1  0.34141000  0.42364000  0.17689000  1.0
  C  C63  1  0.27320000  0.42221000  0.09909000  1.0
  C  C64  1  0.48191000  0.12440000  0.08064000  1.0
  C  C65  1  0.13530000  0.65544000  0.05167000  1.0
  C  C66  1  0.63571000  0.11119000  0.00060000  1.0
  C  C67  1  0.47427000  0.87644000  0.85854000  1.0
  C  C68  1  0.42229000  0.90308000  0.04432000  1.0
  C  C69  1  0.51194000  0.62989000  0.60448000  1.0
  C  C70  1  0.58850000  0.46759000  0.61192000  1.0
  C  C71  1  0.52213000  0.40420000  0.37706000  1.0
  C  C72  1  0.35591000  0.46087000  0.37372000  1.0
  C  C73  1  0.47651000  0.18476000  0.21808000  1.0
  C  C74  1  0.48687000  0.19607000  0.15162000  1.0
  C  C75  1  0.50973000  0.27954000  0.16097000  1.0
  C  C76  1  0.70619000  0.29070000  0.86331000  1.0
  C  C77  1  0.52367000  0.34752000  0.23444000  1.0
  C  C78  1  0.51192000  0.33481000  0.30059000  1.0
  C  C79  1  0.48718000  0.25118000  0.28962000  1.0
  C  C80  1  0.46559000  0.19486000  0.33021000  1.0
  C  C81  1  0.44753000  0.11832000  0.24649000  1.0
  C  C82  1  0.56511000  0.82284000  0.80742000  1.0
  C  C83  1  0.48320000  0.81440000  0.79263000  1.0
  C  C84  1  0.41077000  0.74466000  0.71191000  1.0
  C  C85  1  0.42059000  0.68560000  0.65232000  1.0
  C  C86  1  0.50398000  0.69646000  0.66696000  1.0
  C  C87  1  0.64194000  0.22523000  0.78064000  1.0
  C  C88  1  0.57570000  0.76791000  0.74506000  1.0
  C  C89  1  0.67496000  0.81599000  0.79966000  1.0
  C  C90  1  0.66337000  0.87868000  0.87014000  1.0
  C  C91  1  0.60372000  0.14022000  0.76738000  1.0
  C  C92  1  0.62332000  0.12161000  0.83446000  1.0
  C  C93  1  0.68345000  0.19160000  0.92199000  1.0
  Cl  Cl94  1  0.31514000  0.67625000  0.84556000  1.0
  Cl  Cl95  1  0.21079000  0.49613000  0.39755000  1.0
  Cl  Cl96  1  0.45228000  0.50826000  0.22489000  1.0
  Cl  Cl97  1  0.70217000  0.87947000  0.97115000  1.0
  Cl  Cl98  1  0.58126000  0.01317000  0.80551000  1.0
  Cl  Cl99  1  0.66379000  0.59930000  0.80212000  1.0
  O  O100  1  0.91994000  0.44362000  0.84639000  1.0
  O  O101  1  0.42384000  0.09119000  0.00133000  1.0
  O  O102  1  0.66689000  0.08837000  0.05565000  1.0
  O  O103  1  0.55491000  0.08297000  0.95312000  1.0
  O  O104  1  0.53001000  0.90899000  0.93729000  1.0
  O  O105  1  0.41361000  0.89531000  0.83202000  1.0
  O  O106  1  0.50419000  0.93336000  0.09350000  1.0
  O  O107  1  0.39055000  0.91912000  0.98447000  1.0
  O  O108  1  0.45868000  0.55051000  0.57597000  1.0
  O  O109  1  0.57204000  0.65678000  0.58436000  1.0
  O  O110  1  0.50799000  0.41495000  0.58460000  1.0
  O  O111  1  0.92221000  0.55060000  0.95208000  1.0
  O  O112  1  0.61630000  0.52094000  0.58716000  1.0
  O  O113  1  0.47635000  0.37814000  0.41033000  1.0
  O  O114  1  0.57515000  0.48488000  0.40495000  1.0
  O  O115  1  0.32987000  0.40665000  0.39949000  1.0
  O  O116  1  0.43449000  0.51756000  0.40366000  1.0
  O  O117  1  0.90795000  0.39639000  0.97373000  1.0
  O  O118  1  0.90738000  0.49809000  0.08118000  1.0
  O  O119  1  0.08719000  0.42651000  0.01477000  1.0
  O  O120  1  0.08088000  0.52257000  0.12186000  1.0
  O  O121  1  0.10109000  0.57728000  0.99180000  1.0
  O  O122  1  0.10744000  0.67903000  0.10509000  1.0
  O  O123  1  0.53681000  0.10064000  0.10655000  1.0
  F  F124  1  0.74393000  0.37373000  0.87773000  1.0
  F  F125  1  0.49933000  0.07935000  0.26230000  1.0
  F  F126  1  0.54598000  0.07436000  0.68467000  1.0
  F  F127  1  0.60869000  0.26027000  0.53731000  1.0
