# generated using pymatgen
data_CuH8C12S2(NO2)2
_symmetry_space_group_name_H-M   'P 1'
_cell_length_a   9.31573000
_cell_length_b   9.95207000
_cell_length_c   13.03570000
_cell_angle_alpha   67.68500000
_cell_angle_beta   82.33950000
_cell_angle_gamma   69.34000000
_symmetry_Int_Tables_number   1
_chemical_formula_structural   CuH8C12S2(NO2)2
_chemical_formula_sum   'Cu2 H16 C24 S4 N4 O8'
_cell_volume   1046.14127463
_cell_formula_units_Z   2
loop_
 _symmetry_equiv_pos_site_id
 _symmetry_equiv_pos_as_xyz
  1  'x, y, z'
loop_
 _atom_site_type_symbol
 _atom_site_label
 _atom_site_symmetry_multiplicity
 _atom_site_fract_x
 _atom_site_fract_y
 _atom_site_fract_z
 _atom_site_occupancy
  Cu  Cu0  1  0.25022000  0.44063000  0.11848000  1.0
  Cu  Cu1  1  0.74972000  0.55932000  0.88152000  1.0
  H  H2  1  0.03631000  0.31434000  0.28634000  1.0
  H  H3  1  0.46491000  0.39880000  0.28645000  1.0
  H  H4  1  0.96366000  0.68565000  0.71372000  1.0
  H  H5  1  0.53505000  0.60123000  0.71352000  1.0
  H  H6  1  0.83837000  0.39521000  0.42087000  1.0
  H  H7  1  0.66244000  0.18333000  0.42115000  1.0
  H  H8  1  0.16165000  0.60483000  0.57921000  1.0
  H  H9  1  0.33758000  0.81674000  0.57880000  1.0
  H  H10  1  0.95145000  0.81441000  0.31645000  1.0
  H  H11  1  0.54771000  0.86927000  0.31623000  1.0
  H  H12  1  0.04859000  0.18565000  0.68350000  1.0
  H  H13  1  0.45239000  0.13073000  0.68375000  1.0
  H  H14  1  0.14723000  0.71197000  0.18848000  1.0
  H  H15  1  0.35247000  0.09974000  0.18803000  1.0
  H  H16  1  0.85277000  0.28800000  0.81147000  1.0
  H  H17  1  0.64758000  0.90022000  0.81196000  1.0
  C  C18  1  0.01504000  0.42272000  0.29788000  1.0
  C  C19  1  0.48569000  0.27906000  0.29791000  1.0
  C  C20  1  0.98495000  0.57728000  0.70217000  1.0
  C  C21  1  0.51430000  0.72097000  0.70206000  1.0
  C  C22  1  0.90403000  0.46945000  0.37102000  1.0
  C  C23  1  0.59644000  0.15912000  0.37115000  1.0
  C  C24  1  0.09600000  0.53057000  0.62903000  1.0
  C  C25  1  0.40358000  0.84094000  0.62880000  1.0
  C  C26  1  0.88087000  0.61173000  0.37989000  1.0
  C  C27  1  0.61902000  0.00815000  0.37995000  1.0
  C  C28  1  0.11917000  0.38830000  0.62012000  1.0
  C  C29  1  0.38104000  0.99190000  0.62002000  1.0
  C  C30  1  0.96771000  0.70214000  0.31329000  1.0
  C  C31  1  0.53186000  0.98453000  0.31318000  1.0
  C  C32  1  0.03232000  0.29788000  0.68668000  1.0
  C  C33  1  0.46821000  0.01547000  0.68680000  1.0
  C  C34  1  0.07657000  0.64588000  0.24244000  1.0
  C  C35  1  0.42329000  0.11171000  0.24220000  1.0
  C  C36  1  0.92343000  0.35413000  0.75754000  1.0
  C  C37  1  0.57675000  0.88827000  0.75779000  1.0
  C  C38  1  0.00074000  0.58488000  0.97051000  1.0
  C  C39  1  0.49911000  0.44474000  0.97024000  1.0
  C  C40  1  0.99917000  0.41504000  0.02952000  1.0
  C  C41  1  0.50083000  0.55522000  0.02976000  1.0
  S  S42  1  0.74353000  0.66109000  0.47871000  1.0
  S  S43  1  0.75602000  0.86006000  0.47899000  1.0
  S  S44  1  0.25654000  0.33898000  0.52131000  1.0
  S  S45  1  0.24407000  0.14002000  0.52097000  1.0
  N  N46  1  0.10121000  0.50816000  0.23562000  1.0
  N  N47  1  0.39925000  0.25608000  0.23545000  1.0
  N  N48  1  0.89878000  0.49182000  0.76439000  1.0
  N  N49  1  0.60074000  0.74392000  0.76454000  1.0
  O  O50  1  0.10444000  0.61869000  0.99936000  1.0
  O  O51  1  0.39573000  0.38189000  0.99901000  1.0
  O  O52  1  0.89548000  0.38122000  0.00069000  1.0
  O  O53  1  0.60420000  0.61806000  0.00101000  1.0
  O  O54  1  0.89998000  0.67812000  0.89780000  1.0
  O  O55  1  0.59943000  0.42467000  0.89718000  1.0
  O  O56  1  0.09993000  0.32179000  0.10227000  1.0
  O  O57  1  0.40046000  0.57531000  0.10282000  1.0
