# generated using pymatgen
data_Cd3H8C15N6O13
_symmetry_space_group_name_H-M   'P 1'
_cell_length_a   9.17147000
_cell_length_b   12.21190000
_cell_length_c   12.41040000
_cell_angle_alpha   89.99960000
_cell_angle_beta   89.99850000
_cell_angle_gamma   76.78400000
_symmetry_Int_Tables_number   1
_chemical_formula_structural   Cd3H8C15N6O13
_chemical_formula_sum   'Cd6 H16 C30 N12 O26'
_cell_volume   1353.16469879
_cell_formula_units_Z   2
loop_
 _symmetry_equiv_pos_site_id
 _symmetry_equiv_pos_as_xyz
  1  'x, y, z'
loop_
 _atom_site_type_symbol
 _atom_site_label
 _atom_site_symmetry_multiplicity
 _atom_site_fract_x
 _atom_site_fract_y
 _atom_site_fract_z
 _atom_site_occupancy
  Cd  Cd0  1  0.21284000  0.61355000  0.91049000  1.0
  Cd  Cd1  1  0.21283000  0.11355000  0.08952000  1.0
  Cd  Cd2  1  0.22853000  0.96659000  0.78255000  1.0
  Cd  Cd3  1  0.22847000  0.46660000  0.21745000  1.0
  Cd  Cd4  1  0.26778000  0.65057000  0.57027000  1.0
  Cd  Cd5  1  0.26775000  0.15056000  0.42974000  1.0
  H  H6  1  0.97290000  0.86938000  0.64834000  1.0
  H  H7  1  0.97286000  0.36939000  0.35163000  1.0
  H  H8  1  0.82861000  0.57529000  0.01746000  1.0
  H  H9  1  0.82862000  0.07525000  0.98255000  1.0
  H  H10  1  0.59235000  0.02308000  0.87295000  1.0
  H  H11  1  0.59230000  0.52312000  0.12705000  1.0
  H  H12  1  0.68958000  0.61999000  0.69083000  1.0
  H  H13  1  0.68954000  0.11999000  0.30917000  1.0
  H  H14  1  0.76609000  0.81739000  0.60123000  1.0
  H  H15  1  0.76605000  0.31743000  0.39877000  1.0
  H  H16  1  0.20606000  0.90657000  0.23115000  1.0
  H  H17  1  0.20608000  0.40656000  0.76885000  1.0
  H  H18  1  0.45841000  0.51765000  0.71460000  1.0
  H  H19  1  0.45840000  0.01763000  0.28540000  1.0
  H  H20  1  0.52192000  0.45962000  0.60448000  1.0
  H  H21  1  0.52189000  0.95959000  0.39552000  1.0
  C  C22  1  0.01472000  0.64074000  0.70000000  1.0
  C  C23  1  0.01469000  0.14076000  0.30001000  1.0
  C  C24  1  0.90392000  0.61790000  0.77840000  1.0
  C  C25  1  0.90390000  0.11790000  0.22161000  1.0
  C  C26  1  0.75405000  0.61073000  0.76495000  1.0
  C  C27  1  0.75403000  0.11073000  0.23505000  1.0
  C  C28  1  0.70555000  0.59135000  0.86819000  1.0
  C  C29  1  0.70555000  0.09132000  0.13183000  1.0
  C  C30  1  0.55631000  0.58319000  0.91048000  1.0
  C  C31  1  0.55632000  0.08316000  0.08953000  1.0
  C  C32  1  0.44689000  0.79641000  0.63466000  1.0
  C  C33  1  0.44684000  0.29643000  0.36532000  1.0
  C  C34  1  0.54438000  0.86470000  0.68318000  1.0
  C  C35  1  0.54434000  0.36471000  0.31680000  1.0
  C  C36  1  0.69361000  0.86647000  0.66149000  1.0
  C  C37  1  0.69355000  0.36650000  0.33851000  1.0
  C  C38  1  0.73032000  0.93720000  0.74037000  1.0
  C  C39  1  0.73028000  0.43722000  0.25963000  1.0
  C  C40  1  0.87052000  0.96896000  0.76485000  1.0
  C  C41  1  0.87047000  0.46900000  0.23515000  1.0
  C  C42  1  0.20606000  0.69814000  0.36177000  1.0
  C  C43  1  0.20608000  0.19813000  0.63823000  1.0
  C  C44  1  0.19031000  0.72828000  0.24717000  1.0
  C  C45  1  0.19036000  0.22827000  0.75283000  1.0
  C  C46  1  0.19551000  0.82835000  0.19413000  1.0
  C  C47  1  0.19553000  0.32834000  0.80587000  1.0
  C  C48  1  0.18925000  0.80083000  0.08476000  1.0
  C  C49  1  0.18928000  0.30081000  0.91524000  1.0
  C  C50  1  0.20454000  0.86133000  0.98516000  1.0
  C  C51  1  0.20455000  0.36133000  0.01484000  1.0
  N  N52  1  0.94544000  0.60291000  0.88296000  1.0
  N  N53  1  0.94544000  0.10288000  0.11705000  1.0
  N  N54  1  0.82457000  0.58825000  0.93551000  1.0
  N  N55  1  0.82458000  0.08821000  0.06451000  1.0
  N  N56  1  0.49376000  0.93064000  0.76903000  1.0
  N  N57  1  0.49372000  0.43068000  0.23096000  1.0
  N  N58  1  0.60573000  0.97389000  0.80268000  1.0
  N  N59  1  0.60569000  0.47394000  0.19734000  1.0
  N  N60  1  0.18175000  0.64772000  0.17320000  1.0
  N  N61  1  0.18179000  0.14772000  0.82681000  1.0
  N  N62  1  0.17948000  0.69173000  0.07540000  1.0
  N  N63  1  0.17951000  0.19172000  0.92461000  1.0
  O  O64  1  0.97602000  0.68577000  0.61017000  1.0
  O  O65  1  0.97598000  0.18582000  0.38982000  1.0
  O  O66  1  0.15410000  0.61302000  0.72950000  1.0
  O  O67  1  0.15406000  0.11303000  0.27050000  1.0
  O  O68  1  0.45452000  0.57911000  0.83993000  1.0
  O  O69  1  0.45451000  0.07909000  0.16008000  1.0
  O  O70  1  0.53648000  0.58531000  0.01075000  1.0
  O  O71  1  0.53650000  0.08528000  0.98926000  1.0
  O  O72  1  0.50366000  0.71650000  0.57228000  1.0
  O  O73  1  0.50361000  0.21653000  0.42770000  1.0
  O  O74  1  0.30862000  0.81870000  0.66403000  1.0
  O  O75  1  0.30857000  0.31873000  0.33595000  1.0
  O  O76  1  0.98796000  0.92840000  0.69856000  1.0
  O  O77  1  0.98792000  0.42842000  0.30142000  1.0
  O  O78  1  0.88889000  0.02940000  0.84035000  1.0
  O  O79  1  0.88884000  0.52946000  0.15966000  1.0
  O  O80  1  0.19601000  0.77557000  0.43130000  1.0
  O  O81  1  0.19599000  0.27556000  0.56870000  1.0
  O  O82  1  0.23518000  0.59264000  0.38731000  1.0
  O  O83  1  0.23518000  0.09263000  0.61268000  1.0
  O  O84  1  0.24055000  0.95581000  0.98692000  1.0
  O  O85  1  0.24053000  0.45582000  0.01308000  1.0
  O  O86  1  0.18607000  0.81570000  0.89405000  1.0
  O  O87  1  0.18606000  0.31570000  0.10594000  1.0
  O  O88  1  0.42971000  0.49014000  0.64349000  1.0
  O  O89  1  0.42969000  0.99012000  0.35650000  1.0
