# generated using pymatgen
data_Mg3H52C54(N5O8)2
_symmetry_space_group_name_H-M   'P 1'
_cell_length_a   15.15450000
_cell_length_b   15.15440000
_cell_length_c   16.96720000
_cell_angle_alpha   70.06740000
_cell_angle_beta   70.06740000
_cell_angle_gamma   70.65280000
_symmetry_Int_Tables_number   1
_chemical_formula_structural   Mg3H52C54(N5O8)2
_chemical_formula_sum   'Mg6 H104 C108 N20 O32'
_cell_volume   3340.23760677
_cell_formula_units_Z   2
loop_
 _symmetry_equiv_pos_site_id
 _symmetry_equiv_pos_as_xyz
  1  'x, y, z'
loop_
 _atom_site_type_symbol
 _atom_site_label
 _atom_site_symmetry_multiplicity
 _atom_site_fract_x
 _atom_site_fract_y
 _atom_site_fract_z
 _atom_site_occupancy
  Mg  Mg0  1  0.50000000  0.00000000  0.00000000  1.0
  Mg  Mg1  1  0.00000000  0.50000000  0.50000000  1.0
  Mg  Mg2  1  0.36174000  0.97102000  0.22107000  1.0
  Mg  Mg3  1  0.02899000  0.63826000  0.27893000  1.0
  Mg  Mg4  1  0.63826000  0.02899000  0.77892000  1.0
  Mg  Mg5  1  0.97102000  0.36174000  0.72107000  1.0
  H  H6  1  0.26599000  0.72886000  0.18236000  1.0
  H  H7  1  0.27114000  0.73401000  0.31765000  1.0
  H  H8  1  0.73400000  0.27115000  0.81764000  1.0
  H  H9  1  0.72886000  0.26599000  0.68235000  1.0
  H  H10  1  0.50885000  0.09493000  0.29289000  1.0
  H  H11  1  0.90508000  0.49115000  0.20711000  1.0
  H  H12  1  0.49115000  0.90508000  0.70711000  1.0
  H  H13  1  0.09492000  0.50886000  0.79289000  1.0
  H  H14  1  0.60336000  0.17825000  0.32874000  1.0
  H  H15  1  0.82176000  0.39664000  0.17126000  1.0
  H  H16  1  0.39664000  0.82176000  0.67125000  1.0
  H  H17  1  0.17824000  0.60337000  0.82874000  1.0
  H  H18  1  0.54559000  0.77883000  0.02834000  1.0
  H  H19  1  0.22117000  0.45440000  0.47166000  1.0
  H  H20  1  0.45440000  0.22117000  0.97166000  1.0
  H  H21  1  0.77883000  0.54559000  0.52834000  1.0
  H  H22  1  0.30035000  0.58643000  0.12591000  1.0
  H  H23  1  0.41357000  0.69965000  0.37410000  1.0
  H  H24  1  0.69964000  0.41358000  0.87409000  1.0
  H  H25  1  0.58643000  0.30035000  0.62590000  1.0
  H  H26  1  0.58094000  0.63319000  0.97425000  1.0
  H  H27  1  0.36681000  0.41906000  0.52575000  1.0
  H  H28  1  0.41905000  0.36681000  0.02575000  1.0
  H  H29  1  0.63319000  0.58095000  0.47425000  1.0
  H  H30  1  0.67389000  0.15161000  0.02741000  1.0
  H  H31  1  0.84839000  0.32611000  0.47259000  1.0
  H  H32  1  0.32611000  0.84839000  0.97258000  1.0
  H  H33  1  0.15161000  0.67388000  0.52741000  1.0
  H  H34  1  0.76661000  0.23838000  0.06194000  1.0
  H  H35  1  0.76162000  0.23339000  0.43806000  1.0
  H  H36  1  0.23339000  0.76162000  0.93806000  1.0
  H  H37  1  0.23839000  0.76660000  0.56193000  1.0
  H  H38  1  0.19114000  0.40853000  0.87226000  1.0
  H  H39  1  0.59148000  0.80886000  0.62774000  1.0
  H  H40  1  0.80885000  0.59148000  0.12775000  1.0
  H  H41  1  0.40852000  0.19114000  0.37226000  1.0
  H  H42  1  0.57300000  0.81973000  0.20079000  1.0
  H  H43  1  0.18026000  0.42700000  0.29921000  1.0
  H  H44  1  0.42700000  0.18027000  0.79920000  1.0
  H  H45  1  0.81974000  0.57300000  0.70080000  1.0
  H  H46  1  0.30911000  0.24990000  0.91746000  1.0
  H  H47  1  0.75010000  0.69090000  0.58254000  1.0
  H  H48  1  0.69089000  0.75010000  0.08254000  1.0
  H  H49  1  0.24990000  0.30910000  0.41746000  1.0
  H  H50  1  0.11363000  0.19260000  0.16926000  1.0
  H  H51  1  0.80739000  0.88637000  0.33073000  1.0
  H  H52  1  0.88637000  0.80740000  0.83074000  1.0
  H  H53  1  0.19260000  0.11363000  0.66927000  1.0
  H  H54  1  0.70869000  0.71749000  0.22559000  1.0
  H  H55  1  0.28250000  0.29131000  0.27441000  1.0
  H  H56  1  0.29131000  0.28251000  0.77440000  1.0
  H  H57  1  0.71749000  0.70869000  0.72560000  1.0
  H  H58  1  0.68532000  0.62598000  0.32401000  1.0
  H  H59  1  0.37402000  0.31468000  0.17600000  1.0
  H  H60  1  0.31468000  0.37402000  0.67598000  1.0
  H  H61  1  0.62598000  0.68532000  0.82401000  1.0
  H  H62  1  0.74318000  0.71405000  0.31751000  1.0
  H  H63  1  0.28595000  0.25682000  0.18249000  1.0
  H  H64  1  0.25682000  0.28595000  0.68249000  1.0
  H  H65  1  0.71405000  0.74318000  0.81751000  1.0
  H  H66  1  0.18723000  0.13690000  0.29486000  1.0
  H  H67  1  0.86311000  0.81276000  0.20514000  1.0
  H  H68  1  0.81277000  0.86309000  0.70514000  1.0
  H  H69  1  0.13690000  0.18723000  0.79485000  1.0
  H  H70  1  0.99721000  0.35170000  0.12687000  1.0
  H  H71  1  0.64830000  0.00278000  0.37313000  1.0
  H  H72  1  0.00278000  0.64830000  0.87313000  1.0
  H  H73  1  0.35170000  0.99721000  0.62687000  1.0
  H  H74  1  0.61599000  0.75449000  0.44283000  1.0
  H  H75  1  0.24551000  0.38401000  0.05718000  1.0
  H  H76  1  0.38401000  0.24551000  0.55717000  1.0
  H  H77  1  0.75449000  0.61599000  0.94283000  1.0
  H  H78  1  0.51968000  0.70475000  0.45200000  1.0
  H  H79  1  0.29526000  0.48032000  0.04800000  1.0
  H  H80  1  0.48032000  0.29526000  0.54799000  1.0
  H  H81  1  0.70474000  0.51968000  0.95201000  1.0
  H  H82  1  0.50356000  0.83317000  0.42264000  1.0
  H  H83  1  0.16684000  0.49644000  0.07736000  1.0
  H  H84  1  0.49644000  0.16683000  0.57735000  1.0
  H  H85  1  0.83316000  0.50356000  0.92265000  1.0
  H  H86  1  0.08507000  0.97156000  0.53001000  1.0
  H  H87  1  0.02843000  0.91493000  0.96998000  1.0
  H  H88  1  0.91493000  0.02843000  0.46999000  1.0
  H  H89  1  0.97157000  0.08507000  0.03001000  1.0
  H  H90  1  0.16123000  0.02325000  0.55255000  1.0
  H  H91  1  0.97675000  0.83877000  0.94745000  1.0
  H  H92  1  0.83876000  0.97674000  0.44745000  1.0
  H  H93  1  0.02325000  0.16123000  0.05255000  1.0
  H  H94  1  0.21339000  0.94136000  0.48429000  1.0
  H  H95  1  0.05864000  0.78661000  0.01571000  1.0
  H  H96  1  0.78661000  0.05863000  0.51571000  1.0
  H  H97  1  0.94136000  0.21339000  0.98429000  1.0
  H  H98  1  0.06733000  0.22083000  0.37538000  1.0
  H  H99  1  0.77917000  0.93267000  0.12463000  1.0
  H  H100  1  0.93267000  0.77916000  0.62462000  1.0
  H  H101  1  0.22084000  0.06733000  0.87537000  1.0
  H  H102  1  0.07282000  0.19606000  0.48424000  1.0
  H  H103  1  0.80393000  0.92718000  0.01577000  1.0
  H  H104  1  0.92718000  0.80393000  0.51576000  1.0
  H  H105  1  0.19607000  0.07282000  0.98424000  1.0
  H  H106  1  0.99360000  0.14891000  0.46133000  1.0
  H  H107  1  0.85109000  0.00640000  0.03868000  1.0
  H  H108  1  0.00640000  0.85109000  0.53867000  1.0
  H  H109  1  0.14891000  0.99360000  0.96132000  1.0
  C  C110  1  0.38558000  0.84519000  0.14600000  1.0
  C  C111  1  0.15481000  0.61442000  0.35400000  1.0
  C  C112  1  0.61441000  0.15481000  0.85400000  1.0
  C  C113  1  0.84519000  0.38558000  0.64600000  1.0
  C  C114  1  0.29226000  0.12322000  0.07489000  1.0
  C  C115  1  0.87678000  0.70774000  0.42511000  1.0
  C  C116  1  0.70774000  0.87678000  0.92511000  1.0
  C  C117  1  0.12322000  0.29226000  0.57489000  1.0
  C  C118  1  0.40449000  0.76190000  0.10965000  1.0
  C  C119  1  0.23810000  0.59550000  0.39034000  1.0
  C  C120  1  0.59550000  0.23810000  0.89035000  1.0
  C  C121  1  0.76190000  0.40450000  0.60965000  1.0
  C  C122  1  0.58554000  0.11930000  0.15807000  1.0
  C  C123  1  0.88070000  0.41446000  0.34193000  1.0
  C  C124  1  0.41446000  0.88070000  0.84193000  1.0
  C  C125  1  0.11930000  0.58555000  0.65807000  1.0
  C  C126  1  0.52561000  0.07203000  0.13808000  1.0
  C  C127  1  0.92797000  0.47439000  0.36192000  1.0
  C  C128  1  0.47439000  0.92797000  0.86192000  1.0
  C  C129  1  0.07203000  0.52561000  0.63808000  1.0
  C  C130  1  0.33493000  0.70829000  0.13652000  1.0
  C  C131  1  0.29171000  0.66507000  0.36348000  1.0
  C  C132  1  0.66507000  0.29171000  0.86348000  1.0
  C  C133  1  0.70830000  0.33493000  0.63652000  1.0
  C  C134  1  0.56560000  0.12669000  0.24307000  1.0
  C  C135  1  0.87331000  0.43440000  0.25693000  1.0
  C  C136  1  0.43440000  0.87331000  0.75692000  1.0
  C  C137  1  0.12669000  0.56560000  0.74307000  1.0
  C  C138  1  0.61805000  0.17188000  0.26314000  1.0
  C  C139  1  0.82812000  0.38196000  0.23686000  1.0
  C  C140  1  0.38196000  0.82812000  0.73685000  1.0
  C  C141  1  0.17188000  0.61804000  0.76314000  1.0
  C  C142  1  0.44394000  0.59936000  0.04807000  1.0
  C  C143  1  0.40064000  0.55606000  0.45193000  1.0
  C  C144  1  0.55605000  0.40064000  0.95193000  1.0
  C  C145  1  0.59936000  0.44394000  0.54806000  1.0
  C  C146  1  0.49313000  0.73511000  0.05020000  1.0
  C  C147  1  0.26489000  0.50686000  0.44980000  1.0
  C  C148  1  0.50686000  0.26489000  0.94980000  1.0
  C  C149  1  0.73511000  0.49314000  0.55020000  1.0
  C  C150  1  0.35433000  0.62806000  0.10539000  1.0
  C  C151  1  0.37194000  0.64567000  0.39461000  1.0
  C  C152  1  0.64566000  0.37194000  0.89461000  1.0
  C  C153  1  0.62806000  0.35433000  0.60538000  1.0
  C  C154  1  0.69139000  0.21163000  0.19733000  1.0
  C  C155  1  0.78837000  0.30862000  0.30266000  1.0
  C  C156  1  0.30862000  0.78837000  0.80266000  1.0
  C  C157  1  0.21163000  0.69138000  0.69733000  1.0
  C  C158  1  0.51274000  0.65472000  0.01985000  1.0
  C  C159  1  0.34528000  0.48726000  0.48015000  1.0
  C  C160  1  0.48725000  0.34528000  0.98015000  1.0
  C  C161  1  0.65472000  0.51274000  0.51985000  1.0
  C  C162  1  0.21869000  0.21376000  0.04614000  1.0
  C  C163  1  0.78624000  0.78131000  0.45386000  1.0
  C  C164  1  0.78131000  0.78625000  0.95386000  1.0
  C  C165  1  0.21376000  0.21869000  0.54614000  1.0
  C  C166  1  0.65948000  0.15763000  0.09301000  1.0
  C  C167  1  0.84237000  0.34052000  0.40699000  1.0
  C  C168  1  0.34052000  0.84237000  0.90699000  1.0
  C  C169  1  0.15763000  0.65948000  0.59301000  1.0
  C  C170  1  0.71109000  0.20496000  0.11213000  1.0
  C  C171  1  0.79504000  0.28892000  0.38787000  1.0
  C  C172  1  0.28892000  0.79503000  0.88786000  1.0
  C  C173  1  0.20497000  0.71108000  0.61213000  1.0
  C  C174  1  0.17511000  0.36043000  0.93704000  1.0
  C  C175  1  0.63958000  0.82489000  0.56296000  1.0
  C  C176  1  0.82489000  0.63958000  0.06297000  1.0
  C  C177  1  0.36042000  0.17510000  0.43704000  1.0
  C  C178  1  0.53885000  0.82025000  0.26960000  1.0
  C  C179  1  0.17975000  0.46115000  0.23041000  1.0
  C  C180  1  0.46115000  0.17975000  0.73040000  1.0
  C  C181  1  0.82025000  0.53885000  0.76960000  1.0
  C  C182  1  0.23992000  0.27314000  0.96176000  1.0
  C  C183  1  0.72687000  0.76009000  0.53824000  1.0
  C  C184  1  0.76008000  0.72687000  0.03824000  1.0
  C  C185  1  0.27313000  0.23991000  0.46176000  1.0
  C  C186  1  0.12981000  0.24133000  0.10478000  1.0
  C  C187  1  0.75867000  0.87019000  0.39521000  1.0
  C  C188  1  0.87019000  0.75867000  0.89522000  1.0
  C  C189  1  0.24133000  0.12981000  0.60479000  1.0
  C  C190  1  0.68775000  0.70251000  0.29654000  1.0
  C  C191  1  0.29749000  0.31225000  0.20346000  1.0
  C  C192  1  0.31225000  0.29749000  0.70345000  1.0
  C  C193  1  0.70251000  0.68775000  0.79655000  1.0
  C  C194  1  0.20127000  0.07202000  0.34835000  1.0
  C  C195  1  0.92798000  0.79872000  0.15164000  1.0
  C  C196  1  0.79873000  0.92797000  0.65164000  1.0
  C  C197  1  0.07202000  0.20127000  0.84835000  1.0
  C  C198  1  0.06527000  0.32882000  0.08137000  1.0
  C  C199  1  0.67117000  0.93473000  0.41863000  1.0
  C  C200  1  0.93473000  0.67118000  0.91864000  1.0
  C  C201  1  0.32882000  0.06527000  0.58136000  1.0
  C  C202  1  0.55590000  0.76433000  0.41627000  1.0
  C  C203  1  0.23567000  0.44410000  0.08373000  1.0
  C  C204  1  0.44410000  0.23567000  0.58372000  1.0
  C  C205  1  0.76433000  0.55590000  0.91628000  1.0
  C  C206  1  0.15088000  0.99905000  0.50293000  1.0
  C  C207  1  0.00095000  0.84912000  0.99707000  1.0
  C  C208  1  0.84912000  0.00094000  0.49707000  1.0
  C  C209  1  0.99906000  0.15088000  0.00293000  1.0
  C  C210  1  0.08905000  0.39005000  0.99769000  1.0
  C  C211  1  0.60996000  0.91096000  0.50231000  1.0
  C  C212  1  0.91095000  0.60995000  0.00232000  1.0
  C  C213  1  0.39004000  0.08904000  0.49769000  1.0
  C  C214  1  0.06488000  0.16578000  0.43746000  1.0
  C  C215  1  0.83422000  0.93512000  0.06254000  1.0
  C  C216  1  0.93512000  0.83421000  0.56254000  1.0
  C  C217  1  0.16579000  0.06489000  0.93746000  1.0
  N  N218  1  0.14170000  0.07921000  0.42634000  1.0
  N  N219  1  0.92079000  0.85829000  0.07366000  1.0
  N  N220  1  0.85830000  0.92078000  0.57366000  1.0
  N  N221  1  0.07921000  0.14171000  0.92634000  1.0
  N  N222  1  0.45781000  0.51501000  0.02264000  1.0
  N  N223  1  0.48499000  0.54218000  0.47736000  1.0
  N  N224  1  0.54218000  0.48499000  0.97736000  1.0
  N  N225  1  0.51501000  0.45781000  0.52264000  1.0
  N  N226  1  0.59393000  0.76610000  0.32442000  1.0
  N  N227  1  0.23390000  0.40607000  0.17558000  1.0
  N  N228  1  0.40607000  0.23390000  0.67557000  1.0
  N  N229  1  0.76609000  0.59393000  0.82443000  1.0
  N  N230  1  0.74674000  0.26153000  0.21048000  1.0
  N  N231  1  0.73848000  0.25326000  0.28952000  1.0
  N  N232  1  0.25326000  0.73848000  0.78952000  1.0
  N  N233  1  0.26153000  0.74674000  0.71047000  1.0
  N  N234  1  0.03199000  0.48324000  0.96962000  1.0
  N  N235  1  0.51677000  0.96801000  0.53038000  1.0
  N  N236  1  0.96801000  0.51676000  0.03039000  1.0
  N  N237  1  0.48323000  0.03199000  0.46962000  1.0
  O  O238  1  0.44513000  0.06355000  0.19323000  1.0
  O  O239  1  0.93645000  0.55487000  0.30677000  1.0
  O  O240  1  0.55487000  0.93646000  0.80677000  1.0
  O  O241  1  0.06355000  0.44513000  0.69323000  1.0
  O  O242  1  0.55943000  0.04436000  0.06869000  1.0
  O  O243  1  0.95564000  0.44058000  0.43131000  1.0
  O  O244  1  0.44057000  0.95563000  0.93132000  1.0
  O  O245  1  0.04436000  0.55942000  0.56869000  1.0
  O  O246  1  0.37134000  0.10404000  0.01901000  1.0
  O  O247  1  0.89596000  0.62866000  0.48099000  1.0
  O  O248  1  0.62866000  0.89597000  0.98099000  1.0
  O  O249  1  0.10404000  0.37134000  0.51901000  1.0
  O  O250  1  0.26922000  0.07522000  0.15345000  1.0
  O  O251  1  0.92478000  0.73078000  0.34655000  1.0
  O  O252  1  0.73078000  0.92478000  0.84655000  1.0
  O  O253  1  0.07522000  0.26922000  0.65345000  1.0
  O  O254  1  0.26747000  0.99895000  0.33534000  1.0
  O  O255  1  0.00105000  0.73252000  0.16465000  1.0
  O  O256  1  0.73253000  0.00104000  0.66465000  1.0
  O  O257  1  0.99895000  0.26747000  0.83534000  1.0
  O  O258  1  0.45451000  0.86869000  0.29359000  1.0
  O  O259  1  0.13131000  0.54549000  0.20642000  1.0
  O  O260  1  0.54549000  0.13131000  0.70641000  1.0
  O  O261  1  0.86869000  0.45451000  0.79359000  1.0
  O  O262  1  0.31477000  0.85821000  0.21101000  1.0
  O  O263  1  0.14179000  0.68522000  0.28899000  1.0
  O  O264  1  0.68522000  0.14179000  0.78899000  1.0
  O  O265  1  0.85821000  0.31478000  0.71101000  1.0
  O  O266  1  0.44435000  0.90141000  0.11406000  1.0
  O  O267  1  0.09859000  0.55565000  0.38594000  1.0
  O  O268  1  0.55565000  0.09859000  0.88594000  1.0
  O  O269  1  0.90141000  0.44435000  0.61406000  1.0
