# generated using pymatgen
data_CuNiH20C14(NO3)4
_symmetry_space_group_name_H-M   'P 1'
_cell_length_a   7.13547000
_cell_length_b   9.84251000
_cell_length_c   13.76790000
_cell_angle_alpha   90.00010000
_cell_angle_beta   90.00630000
_cell_angle_gamma   99.40480000
_symmetry_Int_Tables_number   1
_chemical_formula_structural   CuNiH20C14(NO3)4
_chemical_formula_sum   'Cu2 Ni2 H40 C28 N8 O24'
_cell_volume   953.93543485
_cell_formula_units_Z   2
loop_
 _symmetry_equiv_pos_site_id
 _symmetry_equiv_pos_as_xyz
  1  'x, y, z'
loop_
 _atom_site_type_symbol
 _atom_site_label
 _atom_site_symmetry_multiplicity
 _atom_site_fract_x
 _atom_site_fract_y
 _atom_site_fract_z
 _atom_site_occupancy
  Cu  Cu0  1  0.50000000  0.00000000  0.00000000  1.0
  Cu  Cu1  1  0.00000000  0.00000000  0.50000000  1.0
  Ni  Ni2  1  0.50000000  0.50000000  0.50000000  1.0
  Ni  Ni3  1  0.00000000  0.50000000  0.00000000  1.0
  H  H4  1  0.86148000  0.57816000  0.46134000  1.0
  H  H5  1  0.63852000  0.42184000  0.96137000  1.0
  H  H6  1  0.13852000  0.42184000  0.53866000  1.0
  H  H7  1  0.36148000  0.57816000  0.03864000  1.0
  H  H8  1  0.84653000  0.52580000  0.57089000  1.0
  H  H9  1  0.65351000  0.47417000  0.07091000  1.0
  H  H10  1  0.15347000  0.47421000  0.42911000  1.0
  H  H11  1  0.34650000  0.52583000  0.92909000  1.0
  H  H12  1  0.18635000  0.10369000  0.99032000  1.0
  H  H13  1  0.31375000  0.89636000  0.49050000  1.0
  H  H14  1  0.81366000  0.89631000  0.00967000  1.0
  H  H15  1  0.68626000  0.10365000  0.50950000  1.0
  H  H16  1  0.19498000  0.00937000  0.08887000  1.0
  H  H17  1  0.30482000  0.99061000  0.58906000  1.0
  H  H18  1  0.80502000  0.99064000  0.91113000  1.0
  H  H19  1  0.69519000  0.00939000  0.41094000  1.0
  H  H20  1  0.74548000  0.08644000  0.13247000  1.0
  H  H21  1  0.75444000  0.91362000  0.63242000  1.0
  H  H22  1  0.25452000  0.91356000  0.86753000  1.0
  H  H23  1  0.24556000  0.08638000  0.36758000  1.0
  H  H24  1  0.72077000  0.21500000  0.05674000  1.0
  H  H25  1  0.77904000  0.78505000  0.55668000  1.0
  H  H26  1  0.27923000  0.78500000  0.94325000  1.0
  H  H27  1  0.22096000  0.21495000  0.44332000  1.0
  H  H28  1  0.22946000  0.23770000  0.14968000  1.0
  H  H29  1  0.27030000  0.76216000  0.64973000  1.0
  H  H30  1  0.77054000  0.76231000  0.85031000  1.0
  H  H31  1  0.72970000  0.23784000  0.35026000  1.0
  H  H32  1  0.38147000  0.29264000  0.05125000  1.0
  H  H33  1  0.11839000  0.70737000  0.55121000  1.0
  H  H34  1  0.61854000  0.70736000  0.94874000  1.0
  H  H35  1  0.88161000  0.29263000  0.44878000  1.0
  H  H36  1  0.57612000  0.28030000  0.19917000  1.0
  H  H37  1  0.92360000  0.71960000  0.69908000  1.0
  H  H38  1  0.42388000  0.71970000  0.80083000  1.0
  H  H39  1  0.07641000  0.28040000  0.30091000  1.0
  H  H40  1  0.47039000  0.10482000  0.21742000  1.0
  H  H41  1  0.02939000  0.89506000  0.71744000  1.0
  H  H42  1  0.52961000  0.89518000  0.78257000  1.0
  H  H43  1  0.97062000  0.10494000  0.28256000  1.0
  C  C44  1  0.50175000  0.59292000  0.30952000  1.0
  C  C45  1  0.99817000  0.40702000  0.80953000  1.0
  C  C46  1  0.49824000  0.40707000  0.69049000  1.0
  C  C47  1  0.00183000  0.59298000  0.19048000  1.0
  C  C48  1  0.48323000  0.63152000  0.20803000  1.0
  C  C49  1  0.01674000  0.36842000  0.70805000  1.0
  C  C50  1  0.51677000  0.36846000  0.79197000  1.0
  C  C51  1  0.98326000  0.63158000  0.29195000  1.0
  C  C52  1  0.42929000  0.77115000  0.20657000  1.0
  C  C53  1  0.07068000  0.22880000  0.70659000  1.0
  C  C54  1  0.57071000  0.22884000  0.79344000  1.0
  C  C55  1  0.92932000  0.77120000  0.29341000  1.0
  C  C56  1  0.43112000  0.82195000  0.30848000  1.0
  C  C57  1  0.06882000  0.17799000  0.80851000  1.0
  C  C58  1  0.56888000  0.17804000  0.69152000  1.0
  C  C59  1  0.93119000  0.82202000  0.19149000  1.0
  C  C60  1  0.46644000  0.70742000  0.36988000  1.0
  C  C61  1  0.03351000  0.29253000  0.86990000  1.0
  C  C62  1  0.53355000  0.29257000  0.63013000  1.0
  C  C63  1  0.96649000  0.70747000  0.13010000  1.0
  C  C64  1  0.34128000  0.20850000  0.10304000  1.0
  C  C65  1  0.15856000  0.79145000  0.60306000  1.0
  C  C66  1  0.65872000  0.79150000  0.89696000  1.0
  C  C67  1  0.84144000  0.20855000  0.39694000  1.0
  C  C68  1  0.51268000  0.18457000  0.16224000  1.0
  C  C69  1  0.98712000  0.81535000  0.66222000  1.0
  C  C70  1  0.48733000  0.81543000  0.83775000  1.0
  C  C71  1  0.01289000  0.18465000  0.33778000  1.0
  N  N72  1  0.27300000  0.08279000  0.04597000  1.0
  N  N73  1  0.22695000  0.91721000  0.54609000  1.0
  N  N74  1  0.72701000  0.91721000  0.95402000  1.0
  N  N75  1  0.77305000  0.08280000  0.45391000  1.0
  N  N76  1  0.64908000  0.13370000  0.09580000  1.0
  N  N77  1  0.85080000  0.86632000  0.59575000  1.0
  N  N78  1  0.35092000  0.86630000  0.90420000  1.0
  N  N79  1  0.14921000  0.13368000  0.40425000  1.0
  O  O80  1  0.53590000  0.48105000  0.34591000  1.0
  O  O81  1  0.96403000  0.51889000  0.84592000  1.0
  O  O82  1  0.46410000  0.51894000  0.65410000  1.0
  O  O83  1  0.03596000  0.48111000  0.15408000  1.0
  O  O84  1  0.50145000  0.56072000  0.13328000  1.0
  O  O85  1  0.99855000  0.43923000  0.63329000  1.0
  O  O86  1  0.49854000  0.43926000  0.86673000  1.0
  O  O87  1  0.00145000  0.56078000  0.36671000  1.0
  O  O88  1  0.38658000  0.83214000  0.13260000  1.0
  O  O89  1  0.11344000  0.16782000  0.63264000  1.0
  O  O90  1  0.61343000  0.16785000  0.86740000  1.0
  O  O91  1  0.88654000  0.83219000  0.36736000  1.0
  O  O92  1  0.40590000  0.93811000  0.33743000  1.0
  O  O93  1  0.09403000  0.06183000  0.83747000  1.0
  O  O94  1  0.59410000  0.06189000  0.66257000  1.0
  O  O95  1  0.90598000  0.93817000  0.16253000  1.0
  O  O96  1  0.46348000  0.70161000  0.46179000  1.0
  O  O97  1  0.03650000  0.29837000  0.96181000  1.0
  O  O98  1  0.53651000  0.29838000  0.53821000  1.0
  O  O99  1  0.96350000  0.70163000  0.03819000  1.0
  O  O100  1  0.78222000  0.57577000  0.52175000  1.0
  O  O101  1  0.71779000  0.42421000  0.02177000  1.0
  O  O102  1  0.21777000  0.42423000  0.47825000  1.0
  O  O103  1  0.28222000  0.57579000  0.97824000  1.0
