# generated using pymatgen
data_InH12C22O5
_symmetry_space_group_name_H-M   'P 1'
_cell_length_a   14.31780000
_cell_length_b   15.70020000
_cell_length_c   16.36020000
_cell_angle_alpha   90.00000000
_cell_angle_beta   90.00010000
_cell_angle_gamma   103.38500000
_symmetry_Int_Tables_number   1
_chemical_formula_structural   InH12C22O5
_chemical_formula_sum   'In4 H48 C88 O20'
_cell_volume   3577.74965758
_cell_formula_units_Z   4
loop_
 _symmetry_equiv_pos_site_id
 _symmetry_equiv_pos_as_xyz
  1  'x, y, z'
loop_
 _atom_site_type_symbol
 _atom_site_label
 _atom_site_symmetry_multiplicity
 _atom_site_fract_x
 _atom_site_fract_y
 _atom_site_fract_z
 _atom_site_occupancy
  In  In0  1  0.50000000  0.50000000  0.00000000  1.0
  In  In1  1  0.00000000  0.50000000  0.00000000  1.0
  In  In2  1  0.75000000  0.50000000  0.99739000  1.0
  In  In3  1  0.25000000  0.50000000  0.00261000  1.0
  H  H4  1  0.68208000  0.69819000  0.50077000  1.0
  H  H5  1  0.73022000  0.91958000  0.70868000  1.0
  H  H6  1  0.73087000  0.91956000  0.29225000  1.0
  H  H7  1  0.79892000  0.63728000  0.77450000  1.0
  H  H8  1  0.82524000  0.72364000  0.64452000  1.0
  H  H9  1  0.55273000  0.79108000  0.67714000  1.0
  H  H10  1  0.52523000  0.70142000  0.80473000  1.0
  H  H11  1  0.81009000  0.63930000  0.23001000  1.0
  H  H12  1  0.83133000  0.72731000  0.35867000  1.0
  H  H13  1  0.55404000  0.78381000  0.32268000  1.0
  H  H14  1  0.53084000  0.69118000  0.19672000  1.0
  H  H15  1  0.09467000  0.38165000  0.96255000  1.0
  H  H16  1  0.81792000  0.30181000  0.50077000  1.0
  H  H17  1  0.76978000  0.08042000  0.70868000  1.0
  H  H18  1  0.76913000  0.08044000  0.29225000  1.0
  H  H19  1  0.70108000  0.36272000  0.77450000  1.0
  H  H20  1  0.67476000  0.27636000  0.64452000  1.0
  H  H21  1  0.94727000  0.20892000  0.67714000  1.0
  H  H22  1  0.97477000  0.29858000  0.80473000  1.0
  H  H23  1  0.68991000  0.36070000  0.23001000  1.0
  H  H24  1  0.66867000  0.27269000  0.35867000  1.0
  H  H25  1  0.94596000  0.21619000  0.32268000  1.0
  H  H26  1  0.96916000  0.30882000  0.19672000  1.0
  H  H27  1  0.40533000  0.61835000  0.96254000  1.0
  H  H28  1  0.31792000  0.30181000  0.49923000  1.0
  H  H29  1  0.26978000  0.08042000  0.29131000  1.0
  H  H30  1  0.26913000  0.08044000  0.70775000  1.0
  H  H31  1  0.20108000  0.36272000  0.22550000  1.0
  H  H32  1  0.17476000  0.27636000  0.35548000  1.0
  H  H33  1  0.44728000  0.20892000  0.32286000  1.0
  H  H34  1  0.47477000  0.29858000  0.19527000  1.0
  H  H35  1  0.18991000  0.36070000  0.76999000  1.0
  H  H36  1  0.16867000  0.27269000  0.64133000  1.0
  H  H37  1  0.44596000  0.21619000  0.67732000  1.0
  H  H38  1  0.46916000  0.30882000  0.80328000  1.0
  H  H39  1  0.90533000  0.61835000  0.03745000  1.0
  H  H40  1  0.18208000  0.69819000  0.49923000  1.0
  H  H41  1  0.23022000  0.91958000  0.29131000  1.0
  H  H42  1  0.23087000  0.91956000  0.70775000  1.0
  H  H43  1  0.29892000  0.63728000  0.22550000  1.0
  H  H44  1  0.32524000  0.72364000  0.35548000  1.0
  H  H45  1  0.05272000  0.79108000  0.32286000  1.0
  H  H46  1  0.02523000  0.70142000  0.19527000  1.0
  H  H47  1  0.31009000  0.63930000  0.76999000  1.0
  H  H48  1  0.33133000  0.72731000  0.64133000  1.0
  H  H49  1  0.05404000  0.78381000  0.67732000  1.0
  H  H50  1  0.03084000  0.69118000  0.80328000  1.0
  H  H51  1  0.59467000  0.38165000  0.03746000  1.0
  C  C52  1  0.64586000  0.61040000  0.87340000  1.0
  C  C53  1  0.65578000  0.60654000  0.12886000  1.0
  C  C54  1  0.66084000  0.66434000  0.79730000  1.0
  C  C55  1  0.66946000  0.66047000  0.20524000  1.0
  C  C56  1  0.74532000  0.67078000  0.75204000  1.0
  C  C57  1  0.75418000  0.67090000  0.25090000  1.0
  C  C58  1  0.75962000  0.71894000  0.67987000  1.0
  C  C59  1  0.76582000  0.72004000  0.32265000  1.0
  C  C60  1  0.69071000  0.76297000  0.65238000  1.0
  C  C61  1  0.69436000  0.76174000  0.34896000  1.0
  C  C62  1  0.60652000  0.75698000  0.69836000  1.0
  C  C63  1  0.61000000  0.75172000  0.30248000  1.0
  C  C64  1  0.59114000  0.70729000  0.76966000  1.0
  C  C65  1  0.59694000  0.70050000  0.23208000  1.0
  C  C66  1  0.70579000  0.81401000  0.57524000  1.0
  C  C67  1  0.70713000  0.81372000  0.42576000  1.0
  C  C68  1  0.72675000  0.90659000  0.57625000  1.0
  C  C69  1  0.72735000  0.90636000  0.42461000  1.0
  C  C70  1  0.73884000  0.95532000  0.65104000  1.0
  C  C71  1  0.73923000  0.95528000  0.34995000  1.0
  C  C72  1  0.69828000  0.76962000  0.50060000  1.0
  C  C73  1  0.73848000  0.95321000  0.50038000  1.0
  C  C74  1  0.85414000  0.38960000  0.87340000  1.0
  C  C75  1  0.84422000  0.39346000  0.12886000  1.0
  C  C76  1  0.83916000  0.33566000  0.79730000  1.0
  C  C77  1  0.83054000  0.33952000  0.20524000  1.0
  C  C78  1  0.75468000  0.32923000  0.75204000  1.0
  C  C79  1  0.74581000  0.32910000  0.25090000  1.0
  C  C80  1  0.74038000  0.28106000  0.67987000  1.0
  C  C81  1  0.73418000  0.27996000  0.32265000  1.0
  C  C82  1  0.80929000  0.23703000  0.65238000  1.0
  C  C83  1  0.80564000  0.23826000  0.34896000  1.0
  C  C84  1  0.89348000  0.24302000  0.69836000  1.0
  C  C85  1  0.89000000  0.24827000  0.30248000  1.0
  C  C86  1  0.90886000  0.29271000  0.76966000  1.0
  C  C87  1  0.90306000  0.29950000  0.23208000  1.0
  C  C88  1  0.79421000  0.18599000  0.57524000  1.0
  C  C89  1  0.79287000  0.18628000  0.42576000  1.0
  C  C90  1  0.77325000  0.09341000  0.57625000  1.0
  C  C91  1  0.77265000  0.09364000  0.42461000  1.0
  C  C92  1  0.76116000  0.04468000  0.65104000  1.0
  C  C93  1  0.76077000  0.04472000  0.34995000  1.0
  C  C94  1  0.80172000  0.23038000  0.50060000  1.0
  C  C95  1  0.76152000  0.04679000  0.50038000  1.0
  C  C96  1  0.35414000  0.38960000  0.12659000  1.0
  C  C97  1  0.34421000  0.39346000  0.87114000  1.0
  C  C98  1  0.33916000  0.33566000  0.20270000  1.0
  C  C99  1  0.33054000  0.33953000  0.79476000  1.0
  C  C100  1  0.25468000  0.32923000  0.24796000  1.0
  C  C101  1  0.24582000  0.32910000  0.74910000  1.0
  C  C102  1  0.24038000  0.28106000  0.32013000  1.0
  C  C103  1  0.23418000  0.27996000  0.67735000  1.0
  C  C104  1  0.30929000  0.23703000  0.34762000  1.0
  C  C105  1  0.30564000  0.23826000  0.65104000  1.0
  C  C106  1  0.39348000  0.24302000  0.30164000  1.0
  C  C107  1  0.39000000  0.24828000  0.69752000  1.0
  C  C108  1  0.40886000  0.29271000  0.23034000  1.0
  C  C109  1  0.40306000  0.29950000  0.76792000  1.0
  C  C110  1  0.29421000  0.18599000  0.42476000  1.0
  C  C111  1  0.29287000  0.18628000  0.57423000  1.0
  C  C112  1  0.27325000  0.09341000  0.42375000  1.0
  C  C113  1  0.27265000  0.09364000  0.57539000  1.0
  C  C114  1  0.26116000  0.04468000  0.34896000  1.0
  C  C115  1  0.26076000  0.04472000  0.65005000  1.0
  C  C116  1  0.30173000  0.23038000  0.49940000  1.0
  C  C117  1  0.26153000  0.04679000  0.49962000  1.0
  C  C118  1  0.14586000  0.61039000  0.12660000  1.0
  C  C119  1  0.15579000  0.60654000  0.87114000  1.0
  C  C120  1  0.16083000  0.66434000  0.20270000  1.0
  C  C121  1  0.16946000  0.66047000  0.79476000  1.0
  C  C122  1  0.24532000  0.67077000  0.24796000  1.0
  C  C123  1  0.25419000  0.67090000  0.74910000  1.0
  C  C124  1  0.25962000  0.71894000  0.32013000  1.0
  C  C125  1  0.26582000  0.72004000  0.67735000  1.0
  C  C126  1  0.19071000  0.76297000  0.34762000  1.0
  C  C127  1  0.19436000  0.76174000  0.65104000  1.0
  C  C128  1  0.10652000  0.75697000  0.30164000  1.0
  C  C129  1  0.11000000  0.75173000  0.69752000  1.0
  C  C130  1  0.09113000  0.70729000  0.23034000  1.0
  C  C131  1  0.09694000  0.70050000  0.76792000  1.0
  C  C132  1  0.20579000  0.81401000  0.42476000  1.0
  C  C133  1  0.20713000  0.81372000  0.57424000  1.0
  C  C134  1  0.22676000  0.90659000  0.42375000  1.0
  C  C135  1  0.22735000  0.90636000  0.57539000  1.0
  C  C136  1  0.23884000  0.95532000  0.34896000  1.0
  C  C137  1  0.23924000  0.95528000  0.65005000  1.0
  C  C138  1  0.19828000  0.76962000  0.49940000  1.0
  C  C139  1  0.23848000  0.95321000  0.49962000  1.0
  O  O140  1  0.39351000  0.57462000  0.00588000  1.0
  O  O141  1  0.56345000  0.59744000  0.90763000  1.0
  O  O142  1  0.73107000  0.59034000  0.09628000  1.0
  O  O143  1  0.71655000  0.58104000  0.89804000  1.0
  O  O144  1  0.57020000  0.58129000  0.10257000  1.0
  O  O145  1  0.10649000  0.42538000  0.00588000  1.0
  O  O146  1  0.93655000  0.40256000  0.90764000  1.0
  O  O147  1  0.76893000  0.40966000  0.09628000  1.0
  O  O148  1  0.78345000  0.41896000  0.89804000  1.0
  O  O149  1  0.92980000  0.41872000  0.10257000  1.0
  O  O150  1  0.60649000  0.42539000  0.99412000  1.0
  O  O151  1  0.43655000  0.40256000  0.09236000  1.0
  O  O152  1  0.26893000  0.40966000  0.90372000  1.0
  O  O153  1  0.28346000  0.41896000  0.10196000  1.0
  O  O154  1  0.42980000  0.41872000  0.89743000  1.0
  O  O155  1  0.89351000  0.57461000  0.99412000  1.0
  O  O156  1  0.06345000  0.59744000  0.09236000  1.0
  O  O157  1  0.23107000  0.59034000  0.90372000  1.0
  O  O158  1  0.21654000  0.58103000  0.10196000  1.0
  O  O159  1  0.07020000  0.58128000  0.89743000  1.0
