# generated using pymatgen
data_FeH9C7O3
_symmetry_space_group_name_H-M   'P 1'
_cell_length_a   6.63322000
_cell_length_b   15.42890000
_cell_length_c   15.49470000
_cell_angle_alpha   117.87300000
_cell_angle_beta   97.87300000
_cell_angle_gamma   98.45250000
_symmetry_Int_Tables_number   1
_chemical_formula_structural   FeH9C7O3
_chemical_formula_sum   'Fe6 H54 C42 O18'
_cell_volume   1347.66587412
_cell_formula_units_Z   6
loop_
 _symmetry_equiv_pos_site_id
 _symmetry_equiv_pos_as_xyz
  1  'x, y, z'
loop_
 _atom_site_type_symbol
 _atom_site_label
 _atom_site_symmetry_multiplicity
 _atom_site_fract_x
 _atom_site_fract_y
 _atom_site_fract_z
 _atom_site_occupancy
  Fe  Fe0  1  0.48182000  0.27515000  0.60082000  1.0
  Fe  Fe1  1  0.21000000  0.32091000  0.72608000  1.0
  Fe  Fe2  1  0.88472000  0.40121000  0.67778000  1.0
  Fe  Fe3  1  0.51239000  0.72206000  0.39963000  1.0
  Fe  Fe4  1  0.78808000  0.67601000  0.27080000  1.0
  Fe  Fe5  1  0.12383000  0.59702000  0.32222000  1.0
  H  H6  1  0.18132000  0.55903000  0.53962000  1.0
  H  H7  1  0.61905000  0.97819000  0.44023000  1.0
  H  H8  1  0.64211000  0.45993000  0.02229000  1.0
  H  H9  1  0.82139000  0.43995000  0.46156000  1.0
  H  H10  1  0.37646000  0.01801000  0.55857000  1.0
  H  H11  1  0.35728000  0.53875000  0.97691000  1.0
  H  H12  1  0.86720000  0.59099000  0.85617000  1.0
  H  H13  1  0.27826000  0.26773000  0.41804000  1.0
  H  H14  1  0.00554000  0.14012000  0.73436000  1.0
  H  H15  1  0.14167000  0.41482000  0.14680000  1.0
  H  H16  1  0.72144000  0.73249000  0.59071000  1.0
  H  H17  1  0.99098000  0.85550000  0.26525000  1.0
  H  H18  1  0.75523000  0.55277000  0.72924000  1.0
  H  H19  1  0.19786000  0.17366000  0.45017000  1.0
  H  H20  1  0.02616000  0.26885000  0.82210000  1.0
  H  H21  1  0.25409000  0.44952000  0.27295000  1.0
  H  H22  1  0.79147000  0.81821000  0.54729000  1.0
  H  H23  1  0.97429000  0.72842000  0.17365000  1.0
  H  H24  1  0.47511000  0.56647000  0.82471000  1.0
  H  H25  1  0.90671000  0.25696000  0.43730000  1.0
  H  H26  1  0.64900000  0.17558000  0.74395000  1.0
  H  H27  1  0.53162000  0.43370000  0.17571000  1.0
  H  H28  1  0.08698000  0.73851000  0.56256000  1.0
  H  H29  1  0.34984000  0.82338000  0.25543000  1.0
  H  H30  1  0.60132000  0.69469000  0.91126000  1.0
  H  H31  1  0.91446000  0.22132000  0.31155000  1.0
  H  H32  1  0.68545000  0.09026000  0.78777000  1.0
  H  H33  1  0.39858000  0.30676000  0.08796000  1.0
  H  H34  1  0.09314000  0.78384000  0.69132000  1.0
  H  H35  1  0.31177000  0.91222000  0.21652000  1.0
  H  H36  1  0.49230000  0.65696000  0.78418000  1.0
  H  H37  1  0.83608000  0.12726000  0.34386000  1.0
  H  H38  1  0.70885000  0.21944000  0.87491000  1.0
  H  H39  1  0.50853000  0.34155000  0.21411000  1.0
  H  H40  1  0.16092000  0.87042000  0.64865000  1.0
  H  H41  1  0.29280000  0.78480000  0.12558000  1.0
  H  H42  1  0.97673000  0.77047000  0.89402000  1.0
  H  H43  1  0.21988000  0.13341000  0.23798000  1.0
  H  H44  1  0.07442000  0.10397000  0.87666000  1.0
  H  H45  1  0.01979000  0.23501000  0.10511000  1.0
  H  H46  1  0.79788000  0.87841000  0.76722000  1.0
  H  H47  1  0.92202000  0.89919000  0.12866000  1.0
  H  H48  1  0.85638000  0.73292000  0.76833000  1.0
  H  H49  1  0.13009000  0.03964000  0.26880000  1.0
  H  H50  1  0.08768000  0.23191000  0.96360000  1.0
  H  H51  1  0.14005000  0.26837000  0.22954000  1.0
  H  H52  1  0.87448000  0.96333000  0.72382000  1.0
  H  H53  1  0.91419000  0.77350000  0.03750000  1.0
  H  H54  1  0.07807000  0.68882000  0.79356000  1.0
  H  H55  1  0.39575000  0.11014000  0.31781000  1.0
  H  H56  1  0.28023000  0.20167000  0.89193000  1.0
  H  H57  1  0.92398000  0.31727000  0.20752000  1.0
  H  H58  1  0.60947000  0.89331000  0.68488000  1.0
  H  H59  1  0.71850000  0.79779000  0.10786000  1.0
  C  C60  1  0.25004000  0.43842000  0.60912000  1.0
  C  C61  1  0.80995000  0.16834000  0.56417000  1.0
  C  C62  1  0.64071000  0.39272000  0.83229000  1.0
  C  C63  1  0.75036000  0.56038000  0.39069000  1.0
  C  C64  1  0.18451000  0.82800000  0.43526000  1.0
  C  C65  1  0.35797000  0.60854000  0.16687000  1.0
  C  C66  1  0.38346000  0.46772000  0.55437000  1.0
  C  C67  1  0.91233000  0.08366000  0.53297000  1.0
  C  C68  1  0.82779000  0.44632000  0.91544000  1.0
  C  C69  1  0.61889000  0.53118000  0.44666000  1.0
  C  C70  1  0.08314000  0.91272000  0.46597000  1.0
  C  C71  1  0.17148000  0.55297000  0.08379000  1.0
  C  C72  1  0.56877000  0.43215000  0.53235000  1.0
  C  C73  1  0.13267000  0.09672000  0.56823000  1.0
  C  C74  1  0.03458000  0.46837000  0.90078000  1.0
  C  C75  1  0.43365000  0.56648000  0.46896000  1.0
  C  C76  1  0.86310000  0.89957000  0.43037000  1.0
  C  C77  1  0.96489000  0.53056000  0.09861000  1.0
  C  C78  1  0.32238000  0.53318000  0.52244000  1.0
  C  C79  1  0.78560000  0.98659000  0.46592000  1.0
  C  C80  1  0.79985000  0.47740000  0.01289000  1.0
  C  C81  1  0.68046000  0.46590000  0.47894000  1.0
  C  C82  1  0.20998000  0.00976000  0.53290000  1.0
  C  C83  1  0.19967000  0.52135000  0.98644000  1.0
  C  C84  1  0.78700000  0.61556000  0.80754000  1.0
  C  C85  1  0.17282000  0.19332000  0.38999000  1.0
  C  C86  1  0.97669000  0.19057000  0.80772000  1.0
  C  C87  1  0.21872000  0.38779000  0.19384000  1.0
  C  C88  1  0.82545000  0.80524000  0.61180000  1.0
  C  C89  1  0.02196000  0.80797000  0.19150000  1.0
  C  C90  1  0.57746000  0.63415000  0.83319000  1.0
  C  C91  1  0.94530000  0.20020000  0.36986000  1.0
  C  C92  1  0.74223000  0.16786000  0.80320000  1.0
  C  C93  1  0.42584000  0.36657000  0.16656000  1.0
  C  C94  1  0.05391000  0.79902000  0.62923000  1.0
  C  C95  1  0.25692000  0.83334000  0.19775000  1.0
  C  C96  1  0.93305000  0.70696000  0.81636000  1.0
  C  C97  1  0.23343000  0.11482000  0.29863000  1.0
  C  C98  1  0.11270000  0.18149000  0.88942000  1.0
  C  C99  1  0.06679000  0.29713000  0.18344000  1.0
  C  C100  1  0.77344000  0.88970000  0.70186000  1.0
  C  C101  1  0.88623000  0.82028000  0.11204000  1.0
  O  O102  1  0.29897000  0.37401000  0.63503000  1.0
  O  O103  1  0.92393000  0.25798000  0.63048000  1.0
  O  O104  1  0.66406000  0.36941000  0.74257000  1.0
  O  O105  1  0.69524000  0.62229000  0.36213000  1.0
  O  O106  1  0.06951000  0.73817000  0.37063000  1.0
  O  O107  1  0.33243000  0.63758000  0.25705000  1.0
  O  O108  1  0.08966000  0.47276000  0.62996000  1.0
  O  O109  1  0.61677000  0.15609000  0.52933000  1.0
  O  O110  1  0.45905000  0.36984000  0.84502000  1.0
  O  O111  1  0.91189000  0.52732000  0.37070000  1.0
  O  O112  1  0.37847000  0.84039000  0.46943000  1.0
  O  O113  1  0.54085000  0.62789000  0.15324000  1.0
  O  O114  1  0.63959000  0.36816000  0.55836000  1.0
  O  O115  1  0.26872000  0.18608000  0.63266000  1.0
  O  O116  1  0.08011000  0.44221000  0.81108000  1.0
  O  O117  1  0.36021000  0.62976000  0.44260000  1.0
  O  O118  1  0.72798000  0.81026000  0.36528000  1.0
  O  O119  1  0.92070000  0.55633000  0.18873000  1.0
