# generated using pymatgen
data_ZnH12C7S2(NO)4
_symmetry_space_group_name_H-M   'P 1'
_cell_length_a   8.38109000
_cell_length_b   10.83800000
_cell_length_c   14.68570000
_cell_angle_alpha   90.00010000
_cell_angle_beta   90.00010000
_cell_angle_gamma   90.00000000
_symmetry_Int_Tables_number   1
_chemical_formula_structural   ZnH12C7S2(NO)4
_chemical_formula_sum   'Zn4 H48 C28 S8 N16 O16'
_cell_volume   1333.96459545
_cell_formula_units_Z   4
loop_
 _symmetry_equiv_pos_site_id
 _symmetry_equiv_pos_as_xyz
  1  'x, y, z'
loop_
 _atom_site_type_symbol
 _atom_site_label
 _atom_site_symmetry_multiplicity
 _atom_site_fract_x
 _atom_site_fract_y
 _atom_site_fract_z
 _atom_site_occupancy
  Zn  Zn0  1  0.18024000  0.86946000  0.82904000  1.0
  Zn  Zn1  1  0.31976000  0.13054000  0.32904000  1.0
  Zn  Zn2  1  0.81976000  0.36946000  0.67096000  1.0
  Zn  Zn3  1  0.68024000  0.63054000  0.17096000  1.0
  H  H4  1  0.60168000  0.01932000  0.97712000  1.0
  H  H5  1  0.89832000  0.98068000  0.47712000  1.0
  H  H6  1  0.39832000  0.51932000  0.52288000  1.0
  H  H7  1  0.10168000  0.48068000  0.02288000  1.0
  H  H8  1  0.79473000  0.30138000  0.00054000  1.0
  H  H9  1  0.70527000  0.69862000  0.50054000  1.0
  H  H10  1  0.20527000  0.80138000  0.49946000  1.0
  H  H11  1  0.29473000  0.19862000  0.99946000  1.0
  H  H12  1  0.92531000  0.21446000  0.93164000  1.0
  H  H13  1  0.57469000  0.78554000  0.43164000  1.0
  H  H14  1  0.07469000  0.71446000  0.56836000  1.0
  H  H15  1  0.42531000  0.28554000  0.06836000  1.0
  H  H16  1  0.82523000  0.14142000  0.02440000  1.0
  H  H17  1  0.67477000  0.85858000  0.52440000  1.0
  H  H18  1  0.17477000  0.64142000  0.47560000  1.0
  H  H19  1  0.32523000  0.35858000  0.97560000  1.0
  H  H20  1  0.71944000  0.06918000  0.72077000  1.0
  H  H21  1  0.78057000  0.93082000  0.22077000  1.0
  H  H22  1  0.28056000  0.56918000  0.77923000  1.0
  H  H23  1  0.21943000  0.43082000  0.27923000  1.0
  H  H24  1  0.61416000  0.93213000  0.69305000  1.0
  H  H25  1  0.88585000  0.06786000  0.19305000  1.0
  H  H26  1  0.38584000  0.43213000  0.80695000  1.0
  H  H27  1  0.11416000  0.56787000  0.30695000  1.0
  H  H28  1  0.96084000  0.74431000  0.72546000  1.0
  H  H29  1  0.53916000  0.25569000  0.22546000  1.0
  H  H30  1  0.03916000  0.24431000  0.77454000  1.0
  H  H31  1  0.46084000  0.75569000  0.27454000  1.0
  H  H32  1  0.75595000  0.73902000  0.70817000  1.0
  H  H33  1  0.74406000  0.26098000  0.20817000  1.0
  H  H34  1  0.24405000  0.23902000  0.79183000  1.0
  H  H35  1  0.25595000  0.76098000  0.29183000  1.0
  H  H36  1  0.97623000  0.70076000  0.11217000  1.0
  H  H37  1  0.52377000  0.29924000  0.61217000  1.0
  H  H38  1  0.02377000  0.20076000  0.38783000  1.0
  H  H39  1  0.47623000  0.79924000  0.88783000  1.0
  H  H40  1  0.05480000  0.82151000  0.17930000  1.0
  H  H41  1  0.44520000  0.17849000  0.67931000  1.0
  H  H42  1  0.94520000  0.32151000  0.32070000  1.0
  H  H43  1  0.55480000  0.67849000  0.82070000  1.0
  H  H44  1  0.26904000  0.95236000  0.99606000  1.0
  H  H45  1  0.23096000  0.04764000  0.49606000  1.0
  H  H46  1  0.73096000  0.45236000  0.50394000  1.0
  H  H47  1  0.76904000  0.54764000  0.00394000  1.0
  H  H48  1  0.18501000  0.98538000  0.10366000  1.0
  H  H49  1  0.31499000  0.01462000  0.60366000  1.0
  H  H50  1  0.81499000  0.48538000  0.39634000  1.0
  H  H51  1  0.68501000  0.51462000  0.89633000  1.0
  C  C52  1  0.85476000  0.91433000  0.72223000  1.0
  C  C53  1  0.64524000  0.08567000  0.22223000  1.0
  C  C54  1  0.14524000  0.41433000  0.77777000  1.0
  C  C55  1  0.35476000  0.58567000  0.27777000  1.0
  C  C56  1  0.11203000  0.82426000  0.04271000  1.0
  C  C57  1  0.38798000  0.17574000  0.54271000  1.0
  C  C58  1  0.88798000  0.32426000  0.45729000  1.0
  C  C59  1  0.61202000  0.67574000  0.95729000  1.0
  C  C60  1  0.44311000  0.05310000  0.86148000  1.0
  C  C61  1  0.05689000  0.94690000  0.36148000  1.0
  C  C62  1  0.55689000  0.55310000  0.63852000  1.0
  C  C63  1  0.94311000  0.44690000  0.13852000  1.0
  C  C64  1  0.65895000  0.26847000  0.82944000  1.0
  C  C65  1  0.84105000  0.73152000  0.32944000  1.0
  C  C66  1  0.34105000  0.76847000  0.67056000  1.0
  C  C67  1  0.15895000  0.23153000  0.17056000  1.0
  C  C68  1  0.67643000  0.18023000  0.90791000  1.0
  C  C69  1  0.82357000  0.81977000  0.40790000  1.0
  C  C70  1  0.32357000  0.68023000  0.59210000  1.0
  C  C71  1  0.17643000  0.31977000  0.09210000  1.0
  C  C72  1  0.58012000  0.08239000  0.92042000  1.0
  C  C73  1  0.91988000  0.91761000  0.42042000  1.0
  C  C74  1  0.41988000  0.58239000  0.57958000  1.0
  C  C75  1  0.08012000  0.41761000  0.07958000  1.0
  C  C76  1  0.81258000  0.20976000  0.96990000  1.0
  C  C77  1  0.68742000  0.79024000  0.46990000  1.0
  C  C78  1  0.18742000  0.70976000  0.53010000  1.0
  C  C79  1  0.31258000  0.29025000  0.03010000  1.0
  S  S80  1  0.02622000  0.99915000  0.74333000  1.0
  S  S81  1  0.47378000  0.00086000  0.24332000  1.0
  S  S82  1  0.97378000  0.49914000  0.75667000  1.0
  S  S83  1  0.52622000  0.50085000  0.25667000  1.0
  S  S84  1  0.09518000  0.73881000  0.94368000  1.0
  S  S85  1  0.40483000  0.26119000  0.44368000  1.0
  S  S86  1  0.90483000  0.23881000  0.55632000  1.0
  S  S87  1  0.59517000  0.76119000  0.05632000  1.0
  N  N88  1  0.71954000  0.97589000  0.70873000  1.0
  N  N89  1  0.78046000  0.02411000  0.20873000  1.0
  N  N90  1  0.28046000  0.47589000  0.79127000  1.0
  N  N91  1  0.21954000  0.52411000  0.29127000  1.0
  N  N92  1  0.85749000  0.79146000  0.71557000  1.0
  N  N93  1  0.64251000  0.20854000  0.21557000  1.0
  N  N94  1  0.14251000  0.29146000  0.78443000  1.0
  N  N95  1  0.35749000  0.70854000  0.28443000  1.0
  N  N96  1  0.04004000  0.78076000  0.11693000  1.0
  N  N97  1  0.45997000  0.21924000  0.61693000  1.0
  N  N98  1  0.95997000  0.28076000  0.38307000  1.0
  N  N99  1  0.54003000  0.71924000  0.88307000  1.0
  N  N100  1  0.19193000  0.93022000  0.04739000  1.0
  N  N101  1  0.30807000  0.06978000  0.54739000  1.0
  N  N102  1  0.80807000  0.43022000  0.45261000  1.0
  N  N103  1  0.69193000  0.56978000  0.95261000  1.0
  O  O104  1  0.36840000  0.95213000  0.88521000  1.0
  O  O105  1  0.13160000  0.04787000  0.38520000  1.0
  O  O106  1  0.63160000  0.45213000  0.61480000  1.0
  O  O107  1  0.86840000  0.54788000  0.11479000  1.0
  O  O108  1  0.40021000  0.12003000  0.79590000  1.0
  O  O109  1  0.09979000  0.87997000  0.29589000  1.0
  O  O110  1  0.59979000  0.62003000  0.70411000  1.0
  O  O111  1  0.90021000  0.37997000  0.20410000  1.0
  O  O112  1  0.73971000  0.23730000  0.75796000  1.0
  O  O113  1  0.76028000  0.76270000  0.25796000  1.0
  O  O114  1  0.26028000  0.73730000  0.74204000  1.0
  O  O115  1  0.23971000  0.26270000  0.24204000  1.0
  O  O116  1  0.58399000  0.36740000  0.83936000  1.0
  O  O117  1  0.91601000  0.63260000  0.33936000  1.0
  O  O118  1  0.41601000  0.86740000  0.66064000  1.0
  O  O119  1  0.08399000  0.13260000  0.16064000  1.0
