# generated using pymatgen
data_CoH4(CO3)2
_symmetry_space_group_name_H-M   'P 1'
_cell_length_a   5.50191000
_cell_length_b   6.53913000
_cell_length_c   8.10780000
_cell_angle_alpha   80.68390000
_cell_angle_beta   70.16820000
_cell_angle_gamma   65.20770000
_symmetry_Int_Tables_number   1
_chemical_formula_structural   CoH4(CO3)2
_chemical_formula_sum   'Co2 H8 C4 O12'
_cell_volume   249.04392279
_cell_formula_units_Z   2
loop_
 _symmetry_equiv_pos_site_id
 _symmetry_equiv_pos_as_xyz
  1  'x, y, z'
loop_
 _atom_site_type_symbol
 _atom_site_label
 _atom_site_symmetry_multiplicity
 _atom_site_fract_x
 _atom_site_fract_y
 _atom_site_fract_z
 _atom_site_occupancy
  Co  Co0  1  0.42161000  0.75028000  0.24985000  1.0
  Co  Co1  1  0.57839000  0.24973000  0.75015000  1.0
  H  H2  1  0.12199000  0.16983000  0.35308000  1.0
  H  H3  1  0.64537000  0.32991000  0.14689000  1.0
  H  H4  1  0.87801000  0.83017000  0.64692000  1.0
  H  H5  1  0.35461000  0.67010000  0.85310000  1.0
  H  H6  1  0.19215000  0.17146000  0.14010000  1.0
  H  H7  1  0.50414000  0.32847000  0.35986000  1.0
  H  H8  1  0.80787000  0.82853000  0.85989000  1.0
  H  H9  1  0.49586000  0.67153000  0.64014000  1.0
  C  C10  1  0.86904000  0.75119000  0.35204000  1.0
  C  C11  1  0.97243000  0.74860000  0.14802000  1.0
  C  C12  1  0.13098000  0.24881000  0.64795000  1.0
  C  C13  1  0.02758000  0.25140000  0.85199000  1.0
  O  O14  1  0.03490000  0.75179000  0.42888000  1.0
  O  O15  1  0.21536000  0.74878000  0.07123000  1.0
  O  O16  1  0.96512000  0.24819000  0.57113000  1.0
  O  O17  1  0.78465000  0.25122000  0.92877000  1.0
  O  O18  1  0.62554000  0.75275000  0.42742000  1.0
  O  O19  1  0.80628000  0.74646000  0.07256000  1.0
  O  O20  1  0.37446000  0.24727000  0.57257000  1.0
  O  O21  1  0.19373000  0.25356000  0.92745000  1.0
  O  O22  1  0.25777000  0.09440000  0.24238000  1.0
  O  O23  1  0.59461000  0.40571000  0.25751000  1.0
  O  O24  1  0.74221000  0.90558000  0.75763000  1.0
  O  O25  1  0.40535000  0.59430000  0.74248000  1.0
