# generated using pymatgen
data_BaH15C20S2N5
_symmetry_space_group_name_H-M   'P 1'
_cell_length_a   10.01490000
_cell_length_b   10.35000000
_cell_length_c   10.58040000
_cell_angle_alpha   108.25200000
_cell_angle_beta   92.98040000
_cell_angle_gamma   91.90240000
_symmetry_Int_Tables_number   1
_chemical_formula_structural   BaH15C20S2N5
_chemical_formula_sum   'Ba2 H30 C40 S4 N10'
_cell_volume   1038.70055471
_cell_formula_units_Z   2
loop_
 _symmetry_equiv_pos_site_id
 _symmetry_equiv_pos_as_xyz
  1  'x, y, z'
loop_
 _atom_site_type_symbol
 _atom_site_label
 _atom_site_symmetry_multiplicity
 _atom_site_fract_x
 _atom_site_fract_y
 _atom_site_fract_z
 _atom_site_occupancy
  Ba  Ba0  1  0.96642000  0.27309000  0.44094000  1.0
  Ba  Ba1  1  0.03358000  0.72691000  0.55906000  1.0
  H  H2  1  0.29005000  0.10845000  0.46214000  1.0
  H  H3  1  0.70995000  0.89156000  0.53786000  1.0
  H  H4  1  0.49183000  0.05726000  0.32919000  1.0
  H  H5  1  0.50817000  0.94274000  0.67081000  1.0
  H  H6  1  0.22748000  0.98213000  0.97401000  1.0
  H  H7  1  0.77252000  0.01787000  0.02599000  1.0
  H  H8  1  0.03784000  0.02999000  0.12140000  1.0
  H  H9  1  0.96216000  0.97002000  0.87860000  1.0
  H  H10  1  0.58796000  0.98107000  0.11645000  1.0
  H  H11  1  0.41204000  0.01893000  0.88356000  1.0
  H  H12  1  0.58430000  0.30374000  0.48246000  1.0
  H  H13  1  0.41570000  0.69626000  0.51754000  1.0
  H  H14  1  0.41304000  0.32735000  0.64910000  1.0
  H  H15  1  0.58696000  0.67265000  0.35090000  1.0
  H  H16  1  0.73123000  0.30243000  0.93181000  1.0
  H  H17  1  0.26877000  0.69757000  0.06818000  1.0
  H  H18  1  0.88906000  0.27562000  0.75045000  1.0
  H  H19  1  0.11094000  0.72438000  0.24955000  1.0
  H  H20  1  0.52108000  0.33181000  0.00799000  1.0
  H  H21  1  0.47893000  0.66820000  0.99201000  1.0
  H  H22  1  0.28052000  0.33623000  0.81487000  1.0
  H  H23  1  0.71948000  0.66377000  0.18513000  1.0
  H  H24  1  0.06527000  0.33074000  0.90436000  1.0
  H  H25  1  0.93474000  0.66925000  0.09563000  1.0
  H  H26  1  0.92672000  0.34119000  0.09773000  1.0
  H  H27  1  0.07328000  0.65881000  0.90226000  1.0
  H  H28  1  0.26511000  0.38365000  0.35201000  1.0
  H  H29  1  0.73489000  0.61635000  0.64799000  1.0
  H  H30  1  0.41641000  0.37167000  0.17317000  1.0
  H  H31  1  0.58360000  0.62833000  0.82683000  1.0
  C  C32  1  0.76410000  0.44646000  0.34004000  1.0
  C  C33  1  0.23590000  0.55354000  0.65997000  1.0
  C  C34  1  0.13677000  0.10303000  0.66960000  1.0
  C  C35  1  0.86323000  0.89698000  0.33040000  1.0
  C  C36  1  0.28042000  0.08013000  0.35346000  1.0
  C  C37  1  0.71958000  0.91987000  0.64654000  1.0
  C  C38  1  0.39274000  0.05207000  0.27926000  1.0
  C  C39  1  0.60726000  0.94793000  0.72075000  1.0
  C  C40  1  0.37834000  0.01983000  0.13960000  1.0
  C  C41  1  0.62166000  0.98018000  0.86040000  1.0
  C  C42  1  0.24694000  0.00976000  0.08178000  1.0
  C  C43  1  0.75306000  0.99025000  0.91822000  1.0
  C  C44  1  0.14076000  0.03698000  0.16392000  1.0
  C  C45  1  0.85925000  0.96302000  0.83608000  1.0
  C  C46  1  0.49739000  0.99872000  0.06327000  1.0
  C  C47  1  0.50261000  0.00129000  0.93673000  1.0
  C  C48  1  0.61276000  0.30314000  0.58344000  1.0
  C  C49  1  0.38724000  0.69685000  0.41655000  1.0
  C  C50  1  0.51730000  0.31593000  0.67680000  1.0
  C  C51  1  0.48270000  0.68407000  0.32319000  1.0
  C  C52  1  0.55784000  0.31645000  0.80654000  1.0
  C  C53  1  0.44216000  0.68355000  0.19345000  1.0
  C  C54  1  0.69473000  0.30252000  0.83289000  1.0
  C  C55  1  0.30527000  0.69748000  0.16711000  1.0
  C  C56  1  0.78274000  0.28899000  0.73306000  1.0
  C  C57  1  0.21725000  0.71101000  0.26694000  1.0
  C  C58  1  0.46945000  0.33036000  0.91399000  1.0
  C  C59  1  0.53055000  0.66964000  0.08601000  1.0
  C  C60  1  0.33508000  0.33896000  0.90786000  1.0
  C  C61  1  0.66492000  0.66103000  0.09214000  1.0
  C  C62  1  0.25363000  0.34850000  0.02026000  1.0
  C  C63  1  0.74637000  0.65150000  0.97974000  1.0
  C  C64  1  0.11308000  0.34231000  0.00249000  1.0
  C  C65  1  0.88693000  0.65768000  0.99751000  1.0
  C  C66  1  0.03611000  0.34819000  0.10982000  1.0
  C  C67  1  0.96389000  0.65181000  0.89017000  1.0
  C  C68  1  0.22417000  0.37034000  0.25080000  1.0
  C  C69  1  0.77583000  0.62966000  0.74920000  1.0
  C  C70  1  0.30861000  0.36376000  0.14968000  1.0
  C  C71  1  0.69140000  0.63624000  0.85032000  1.0
  S  S72  1  0.68150000  0.32161000  0.22758000  1.0
  S  S73  1  0.31850000  0.67840000  0.77242000  1.0
  S  S74  1  0.22252000  0.99080000  0.71257000  1.0
  S  S75  1  0.77747000  0.00920000  0.28743000  1.0
  N  N76  1  0.83039000  0.53067000  0.42546000  1.0
  N  N77  1  0.16961000  0.46934000  0.57454000  1.0
  N  N78  1  0.07669000  0.18681000  0.63913000  1.0
  N  N79  1  0.92331000  0.81319000  0.36087000  1.0
  N  N80  1  0.15538000  0.07532000  0.29824000  1.0
  N  N81  1  0.84462000  0.92468000  0.70176000  1.0
  N  N82  1  0.74408000  0.28993000  0.60953000  1.0
  N  N83  1  0.25592000  0.71007000  0.39046000  1.0
  N  N84  1  0.08926000  0.36117000  0.23304000  1.0
  N  N85  1  0.91074000  0.63883000  0.76696000  1.0
