# generated using pymatgen
data_ZnH7C10N3O5
_symmetry_space_group_name_H-M   'P 1'
_cell_length_a   6.71932000
_cell_length_b   8.41037000
_cell_length_c   17.57210000
_cell_angle_alpha   89.99990000
_cell_angle_beta   90.00010000
_cell_angle_gamma   89.99980000
_symmetry_Int_Tables_number   1
_chemical_formula_structural   ZnH7C10N3O5
_chemical_formula_sum   'Zn4 H28 C40 N12 O20'
_cell_volume   993.03394143
_cell_formula_units_Z   4
loop_
 _symmetry_equiv_pos_site_id
 _symmetry_equiv_pos_as_xyz
  1  'x, y, z'
loop_
 _atom_site_type_symbol
 _atom_site_label
 _atom_site_symmetry_multiplicity
 _atom_site_fract_x
 _atom_site_fract_y
 _atom_site_fract_z
 _atom_site_occupancy
  Zn  Zn0  1  0.25729000  0.90493000  0.68771000  1.0
  Zn  Zn1  1  0.24271000  0.09508000  0.18771000  1.0
  Zn  Zn2  1  0.75729000  0.59508000  0.31229000  1.0
  Zn  Zn3  1  0.74271000  0.40492000  0.81229000  1.0
  H  H4  1  0.79775000  0.57469000  0.52169000  1.0
  H  H5  1  0.70225000  0.42531000  0.02169000  1.0
  H  H6  1  0.29775000  0.92531000  0.47831000  1.0
  H  H7  1  0.20225000  0.07469000  0.97831000  1.0
  H  H8  1  0.96740000  0.19303000  0.70300000  1.0
  H  H9  1  0.53261000  0.80697000  0.20300000  1.0
  H  H10  1  0.46739000  0.30697000  0.29700000  1.0
  H  H11  1  0.03261000  0.69303000  0.79700000  1.0
  H  H12  1  0.13167000  0.52952000  0.52755000  1.0
  H  H13  1  0.36833000  0.47048000  0.02755000  1.0
  H  H14  1  0.63167000  0.97047000  0.47245000  1.0
  H  H15  1  0.86833000  0.02953000  0.97245000  1.0
  H  H16  1  0.48909000  0.11949000  0.58229000  1.0
  H  H17  1  0.01091000  0.88050000  0.08229000  1.0
  H  H18  1  0.98908000  0.38051000  0.41771000  1.0
  H  H19  1  0.51091000  0.61950000  0.91771000  1.0
  H  H20  1  0.43178000  0.36545000  0.50268000  1.0
  H  H21  1  0.06822000  0.63455000  0.00268000  1.0
  H  H22  1  0.93178000  0.13455000  0.49732000  1.0
  H  H23  1  0.56822000  0.86545000  0.99732000  1.0
  H  H24  1  0.94118000  0.84766000  0.60750000  1.0
  H  H25  1  0.55882000  0.15234000  0.10750000  1.0
  H  H26  1  0.44118000  0.65234000  0.39250000  1.0
  H  H27  1  0.05882000  0.34766000  0.89250000  1.0
  H  H28  1  0.82922000  0.91603000  0.68088000  1.0
  H  H29  1  0.67079000  0.08397000  0.18088000  1.0
  H  H30  1  0.32921000  0.58397000  0.31912000  1.0
  H  H31  1  0.17079000  0.41603000  0.81912000  1.0
  C  C32  1  0.40564000  0.57411000  0.73514000  1.0
  C  C33  1  0.09437000  0.42589000  0.23514000  1.0
  C  C34  1  0.90563000  0.92589000  0.26486000  1.0
  C  C35  1  0.59436000  0.07411000  0.76486000  1.0
  C  C36  1  0.02629000  0.37577000  0.61826000  1.0
  C  C37  1  0.47372000  0.62423000  0.11826000  1.0
  C  C38  1  0.52628000  0.12423000  0.38174000  1.0
  C  C39  1  0.97372000  0.87577000  0.88174000  1.0
  C  C40  1  0.06866000  0.23581000  0.65889000  1.0
  C  C41  1  0.43134000  0.76419000  0.15889000  1.0
  C  C42  1  0.56866000  0.26419000  0.34111000  1.0
  C  C43  1  0.93135000  0.73581000  0.84111000  1.0
  C  C44  1  0.45647000  0.71695000  0.55462000  1.0
  C  C45  1  0.04353000  0.28305000  0.05462000  1.0
  C  C46  1  0.95647000  0.78306000  0.44538000  1.0
  C  C47  1  0.54352000  0.21695000  0.94538000  1.0
  C  C48  1  0.15768000  0.42151000  0.56029000  1.0
  C  C49  1  0.34232000  0.57849000  0.06029000  1.0
  C  C50  1  0.65767000  0.07849000  0.43971000  1.0
  C  C51  1  0.84232000  0.92152000  0.93971000  1.0
  C  C52  1  0.57472000  0.56916000  0.68143000  1.0
  C  C53  1  0.92528000  0.43084000  0.18143000  1.0
  C  C54  1  0.07472000  0.93084000  0.31857000  1.0
  C  C55  1  0.42528000  0.06916000  0.81857000  1.0
  C  C56  1  0.58558000  0.62271000  0.60679000  1.0
  C  C57  1  0.91442000  0.37729000  0.10679000  1.0
  C  C58  1  0.08558000  0.87729000  0.39321000  1.0
  C  C59  1  0.41442000  0.12271000  0.89321000  1.0
  C  C60  1  0.35851000  0.19443000  0.58996000  1.0
  C  C61  1  0.14149000  0.80556000  0.08996000  1.0
  C  C62  1  0.85850000  0.30556000  0.41004000  1.0
  C  C63  1  0.64149000  0.69444000  0.91004000  1.0
  C  C64  1  0.84417000  0.46557000  0.63222000  1.0
  C  C65  1  0.65583000  0.53443000  0.13222000  1.0
  C  C66  1  0.34417000  0.03443000  0.36778000  1.0
  C  C67  1  0.15583000  0.96557000  0.86778000  1.0
  C  C68  1  0.32595000  0.32978000  0.54627000  1.0
  C  C69  1  0.17405000  0.67022000  0.04627000  1.0
  C  C70  1  0.82594000  0.17022000  0.45373000  1.0
  C  C71  1  0.67405000  0.82978000  0.95372000  1.0
  N  N72  1  0.73588000  0.47278000  0.69624000  1.0
  N  N73  1  0.76413000  0.52722000  0.19624000  1.0
  N  N74  1  0.23587000  0.02721000  0.30376000  1.0
  N  N75  1  0.26413000  0.97278000  0.80376000  1.0
  N  N76  1  0.75298000  0.55348000  0.57717000  1.0
  N  N77  1  0.74702000  0.44652000  0.07717000  1.0
  N  N78  1  0.25298000  0.94652000  0.42283000  1.0
  N  N79  1  0.24702000  0.05348000  0.92283000  1.0
  N  N80  1  0.23003000  0.14688000  0.64420000  1.0
  N  N81  1  0.26997000  0.85312000  0.14420000  1.0
  N  N82  1  0.73002000  0.35311000  0.35580000  1.0
  N  N83  1  0.76998000  0.64688000  0.85580000  1.0
  O  O84  1  0.26057000  0.66632000  0.72130000  1.0
  O  O85  1  0.23943000  0.33367000  0.22130000  1.0
  O  O86  1  0.76057000  0.83368000  0.27870000  1.0
  O  O87  1  0.73943000  0.16632000  0.77870000  1.0
  O  O88  1  0.41029000  0.47578000  0.79052000  1.0
  O  O89  1  0.08970000  0.52421000  0.29052000  1.0
  O  O90  1  0.91029000  0.02422000  0.20948000  1.0
  O  O91  1  0.58971000  0.97579000  0.70948000  1.0
  O  O92  1  0.45321000  0.66851000  0.48692000  1.0
  O  O93  1  0.04677000  0.33149000  0.98692000  1.0
  O  O94  1  0.95323000  0.83150000  0.51308000  1.0
  O  O95  1  0.54677000  0.16851000  0.01308000  1.0
  O  O96  1  0.36332000  0.84048000  0.57817000  1.0
  O  O97  1  0.13668000  0.15952000  0.07817000  1.0
  O  O98  1  0.86332000  0.65953000  0.42184000  1.0
  O  O99  1  0.63667000  0.34048000  0.92183000  1.0
  O  O100  1  0.95424000  0.86404000  0.66311000  1.0
  O  O101  1  0.54577000  0.13596000  0.16311000  1.0
  O  O102  1  0.45423000  0.63596000  0.33689000  1.0
  O  O103  1  0.04577000  0.36404000  0.83689000  1.0
