# generated using pymatgen
data_ZnH5C5O6
_symmetry_space_group_name_H-M   'P 1'
_cell_length_a   5.15948000
_cell_length_b   8.33693000
_cell_length_c   16.24060000
_cell_angle_alpha   89.99930000
_cell_angle_beta   89.99980000
_cell_angle_gamma   82.50170000
_symmetry_Int_Tables_number   1
_chemical_formula_structural   ZnH5C5O6
_chemical_formula_sum   'Zn4 H20 C20 O24'
_cell_volume   692.60308346
_cell_formula_units_Z   4
loop_
 _symmetry_equiv_pos_site_id
 _symmetry_equiv_pos_as_xyz
  1  'x, y, z'
loop_
 _atom_site_type_symbol
 _atom_site_label
 _atom_site_symmetry_multiplicity
 _atom_site_fract_x
 _atom_site_fract_y
 _atom_site_fract_z
 _atom_site_occupancy
  Zn  Zn0  1  0.65968000  0.37382000  0.66491000  1.0
  Zn  Zn1  1  0.84031000  0.12618000  0.16491000  1.0
  Zn  Zn2  1  0.34032000  0.62619000  0.33510000  1.0
  Zn  Zn3  1  0.15969000  0.87381000  0.83510000  1.0
  H  H4  1  0.35360000  0.65054000  0.68864000  1.0
  H  H5  1  0.14639000  0.84946000  0.18864000  1.0
  H  H6  1  0.64639000  0.34946000  0.31136000  1.0
  H  H7  1  0.85359000  0.15055000  0.81136000  1.0
  H  H8  1  0.39663000  0.64301000  0.58987000  1.0
  H  H9  1  0.10335000  0.85700000  0.08987000  1.0
  H  H10  1  0.60335000  0.35699000  0.41013000  1.0
  H  H11  1  0.89663000  0.14301000  0.91012000  1.0
  H  H12  1  0.05588000  0.52330000  0.61409000  1.0
  H  H13  1  0.44411000  0.97671000  0.11409000  1.0
  H  H14  1  0.94410000  0.47670000  0.38591000  1.0
  H  H15  1  0.55588000  0.02330000  0.88591000  1.0
  H  H16  1  0.79902000  0.56061000  0.55494000  1.0
  H  H17  1  0.70097000  0.93939000  0.05494000  1.0
  H  H18  1  0.20096000  0.43939000  0.44506000  1.0
  H  H19  1  0.29903000  0.06061000  0.94506000  1.0
  H  H20  1  0.24875000  0.36161000  0.89844000  1.0
  H  H21  1  0.25127000  0.13839000  0.39844000  1.0
  H  H22  1  0.75126000  0.63840000  0.10157000  1.0
  H  H23  1  0.74873000  0.86161000  0.60157000  1.0
  C  C24  1  0.54060000  0.55248000  0.82365000  1.0
  C  C25  1  0.95942000  0.94751000  0.32365000  1.0
  C  C26  1  0.45941000  0.44750000  0.17635000  1.0
  C  C27  1  0.04059000  0.05249000  0.67635000  1.0
  C  C28  1  0.52818000  0.52954000  0.91534000  1.0
  C  C29  1  0.97186000  0.97046000  0.41534000  1.0
  C  C30  1  0.47185000  0.47046000  0.08466000  1.0
  C  C31  1  0.02816000  0.02954000  0.58466000  1.0
  C  C32  1  0.66861000  0.60913000  0.97328000  1.0
  C  C33  1  0.83141000  0.89086000  0.47328000  1.0
  C  C34  1  0.33141000  0.39087000  0.02673000  1.0
  C  C35  1  0.16860000  0.10913000  0.52673000  1.0
  C  C36  1  0.85503000  0.72346000  0.94816000  1.0
  C  C37  1  0.64498000  0.77654000  0.44816000  1.0
  C  C38  1  0.14497000  0.27654000  0.05184000  1.0
  C  C39  1  0.35503000  0.22346000  0.55184000  1.0
  C  C40  1  0.36225000  0.42139000  0.94288000  1.0
  C  C41  1  0.13777000  0.07860000  0.44288000  1.0
  C  C42  1  0.63777000  0.57861000  0.05713000  1.0
  C  C43  1  0.86224000  0.92139000  0.55713000  1.0
  O  O44  1  0.64674000  0.42891000  0.78455000  1.0
  O  O45  1  0.85328000  0.07108000  0.28455000  1.0
  O  O46  1  0.35326000  0.57107000  0.21545000  1.0
  O  O47  1  0.14674000  0.92893000  0.71545000  1.0
  O  O48  1  0.43156000  0.68154000  0.79000000  1.0
  O  O49  1  0.06845000  0.81844000  0.29001000  1.0
  O  O50  1  0.56844000  0.31844000  0.20999000  1.0
  O  O51  1  0.93156000  0.18156000  0.70999000  1.0
  O  O52  1  0.92799000  0.71683000  0.87277000  1.0
  O  O53  1  0.57202000  0.78317000  0.37277000  1.0
  O  O54  1  0.07200000  0.28318000  0.12723000  1.0
  O  O55  1  0.42798000  0.21683000  0.62723000  1.0
  O  O56  1  0.93129000  0.81903000  0.00089000  1.0
  O  O57  1  0.56870000  0.68097000  0.50090000  1.0
  O  O58  1  0.06872000  0.18098000  0.99911000  1.0
  O  O59  1  0.43128000  0.31903000  0.49910000  1.0
  O  O60  1  0.33914000  0.58366000  0.63805000  1.0
  O  O61  1  0.16084000  0.91634000  0.13805000  1.0
  O  O62  1  0.66084000  0.41634000  0.36195000  1.0
  O  O63  1  0.83914000  0.08367000  0.86195000  1.0
  O  O64  1  0.89825000  0.47852000  0.59190000  1.0
  O  O65  1  0.60174000  0.02148000  0.09191000  1.0
  O  O66  1  0.10173000  0.52148000  0.40809000  1.0
  O  O67  1  0.39826000  0.97852000  0.90809000  1.0
