# generated using pymatgen
data_CdH10C14N4O3
_symmetry_space_group_name_H-M   'P 1'
_cell_length_a   7.39150000
_cell_length_b   13.62580000
_cell_length_c   13.67080000
_cell_angle_alpha   102.92030000
_cell_angle_beta   90.27620000
_cell_angle_gamma   101.13510000
_symmetry_Int_Tables_number   1
_chemical_formula_structural   CdH10C14N4O3
_chemical_formula_sum   'Cd4 H40 C56 N16 O12'
_cell_volume   1315.07334983
_cell_formula_units_Z   4
loop_
 _symmetry_equiv_pos_site_id
 _symmetry_equiv_pos_as_xyz
  1  'x, y, z'
loop_
 _atom_site_type_symbol
 _atom_site_label
 _atom_site_symmetry_multiplicity
 _atom_site_fract_x
 _atom_site_fract_y
 _atom_site_fract_z
 _atom_site_occupancy
  Cd  Cd0  1  0.54066000  0.25615000  0.25564000  1.0
  Cd  Cd1  1  0.45934000  0.74385000  0.74436000  1.0
  Cd  Cd2  1  0.04136000  0.24524000  0.35104000  1.0
  Cd  Cd3  1  0.95864000  0.75476000  0.64896000  1.0
  H  H4  1  0.81734000  0.38975000  0.46962000  1.0
  H  H5  1  0.18266000  0.61025000  0.53039000  1.0
  H  H6  1  0.02156000  0.42847000  0.51134000  1.0
  H  H7  1  0.97845000  0.57157000  0.48864000  1.0
  H  H8  1  0.03945000  0.18324000  0.54141000  1.0
  H  H9  1  0.96055000  0.81676000  0.45859000  1.0
  H  H10  1  0.47829000  0.82238000  0.97125000  1.0
  H  H11  1  0.52172000  0.17763000  0.02876000  1.0
  H  H12  1  0.98063000  0.74648000  0.09525000  1.0
  H  H13  1  0.01938000  0.25352000  0.90476000  1.0
  H  H14  1  0.74765000  0.32128000  0.78979000  1.0
  H  H15  1  0.25233000  0.67871000  0.21020000  1.0
  H  H16  1  0.24894000  0.10505000  0.66143000  1.0
  H  H17  1  0.75106000  0.89495000  0.33857000  1.0
  H  H18  1  0.73111000  0.67444000  0.16713000  1.0
  H  H19  1  0.26889000  0.32557000  0.83287000  1.0
  H  H20  1  0.61625000  0.89168000  0.60018000  1.0
  H  H21  1  0.38373000  0.10832000  0.39982000  1.0
  H  H22  1  0.99670000  0.47422000  0.82801000  1.0
  H  H23  1  0.00329000  0.52578000  0.17199000  1.0
  H  H24  1  0.51621000  0.24998000  0.67351000  1.0
  H  H25  1  0.48378000  0.75001000  0.32649000  1.0
  H  H26  1  0.89944000  0.10656000  0.14002000  1.0
  H  H27  1  0.10057000  0.89344000  0.85999000  1.0
  H  H28  1  0.26410000  0.48879000  0.71826000  1.0
  H  H29  1  0.73589000  0.51120000  0.28175000  1.0
  H  H30  1  0.62864000  0.96532000  0.09614000  1.0
  H  H31  1  0.37136000  0.03468000  0.90387000  1.0
  H  H32  1  0.25356000  0.88955000  0.13659000  1.0
  H  H33  1  0.74645000  0.11045000  0.86341000  1.0
  H  H34  1  0.20856000  0.52424000  0.01277000  1.0
  H  H35  1  0.79144000  0.47576000  0.98723000  1.0
  H  H36  1  0.46835000  0.52704000  0.13071000  1.0
  H  H37  1  0.53165000  0.47297000  0.86929000  1.0
  H  H38  1  0.88259000  0.03466000  0.61037000  1.0
  H  H39  1  0.11740000  0.96534000  0.38963000  1.0
  H  H40  1  0.31393000  0.39174000  0.20482000  1.0
  H  H41  1  0.68608000  0.60826000  0.79518000  1.0
  H  H42  1  0.43954000  0.46764000  0.29768000  1.0
  H  H43  1  0.56046000  0.53236000  0.70232000  1.0
  C  C44  1  0.02864000  0.24806000  0.60303000  1.0
  C  C45  1  0.97135000  0.75194000  0.39697000  1.0
  C  C46  1  0.09416000  0.00738000  0.14256000  1.0
  C  C47  1  0.90585000  0.99262000  0.85745000  1.0
  C  C48  1  0.41577000  0.98924000  0.63179000  1.0
  C  C49  1  0.58422000  0.01076000  0.36820000  1.0
  C  C50  1  0.47689000  0.75737000  0.00586000  1.0
  C  C51  1  0.52313000  0.24263000  0.99414000  1.0
  C  C52  1  0.32805000  0.67308000  0.98448000  1.0
  C  C53  1  0.67196000  0.32693000  0.01553000  1.0
  C  C54  1  0.17835000  0.67043000  0.91309000  1.0
  C  C55  1  0.82166000  0.32957000  0.08691000  1.0
  C  C56  1  0.25592000  0.90509000  0.63306000  1.0
  C  C57  1  0.74408000  0.09492000  0.36695000  1.0
  C  C58  1  0.32065000  0.34730000  0.55544000  1.0
  C  C59  1  0.67935000  0.65270000  0.44456000  1.0
  C  C60  1  0.78514000  0.84515000  0.09332000  1.0
  C  C61  1  0.21487000  0.15485000  0.90668000  1.0
  C  C62  1  0.96295000  0.82555000  0.10560000  1.0
  C  C63  1  0.03706000  0.17445000  0.89441000  1.0
  C  C64  1  0.87346000  0.24237000  0.66151000  1.0
  C  C65  1  0.12653000  0.75762000  0.33849000  1.0
  C  C66  1  0.62487000  0.75850000  0.07100000  1.0
  C  C67  1  0.37514000  0.24151000  0.92901000  1.0
  C  C68  1  0.86467000  0.32580000  0.74191000  1.0
  C  C69  1  0.13532000  0.67420000  0.25809000  1.0
  C  C70  1  0.25781000  0.09133000  0.17416000  1.0
  C  C71  1  0.74219000  0.90867000  0.82585000  1.0
  C  C72  1  0.38806000  0.09056000  0.65024000  1.0
  C  C73  1  0.61194000  0.90944000  0.34975000  1.0
  C  C74  1  0.16735000  0.33777000  0.62203000  1.0
  C  C75  1  0.83265000  0.66223000  0.37797000  1.0
  C  C76  1  0.61861000  0.67421000  0.11527000  1.0
  C  C77  1  0.38139000  0.32580000  0.88474000  1.0
  C  C78  1  0.59447000  0.97037000  0.61595000  1.0
  C  C79  1  0.40552000  0.02963000  0.38405000  1.0
  C  C80  1  0.00509000  0.41256000  0.76332000  1.0
  C  C81  1  0.99490000  0.58743000  0.23668000  1.0
  C  C82  1  0.53774000  0.17122000  0.65709000  1.0
  C  C83  1  0.46225000  0.82878000  0.34290000  1.0
  C  C84  1  0.91749000  0.02756000  0.13026000  1.0
  C  C85  1  0.08252000  0.97244000  0.86975000  1.0
  C  C86  1  0.15567000  0.42010000  0.70275000  1.0
  C  C87  1  0.84433000  0.57989000  0.29725000  1.0
  C  C88  1  0.76479000  0.94749000  0.10431000  1.0
  C  C89  1  0.23521000  0.05251000  0.89569000  1.0
  C  C90  1  0.11607000  0.90528000  0.12808000  1.0
  C  C91  1  0.88394000  0.09471000  0.87192000  1.0
  C  C92  1  0.32367000  0.58994000  0.02978000  1.0
  C  C93  1  0.67633000  0.41006000  0.97022000  1.0
  C  C94  1  0.46975000  0.59135000  0.09534000  1.0
  C  C95  1  0.53025000  0.40865000  0.90466000  1.0
  C  C96  1  0.74434000  0.05117000  0.62055000  1.0
  C  C97  1  0.25565000  0.94883000  0.37945000  1.0
  C  C98  1  0.71815000  0.15302000  0.64383000  1.0
  C  C99  1  0.28184000  0.84698000  0.35617000  1.0
  N  N100  1  0.03122000  0.68778000  0.78420000  1.0
  N  N101  1  0.96879000  0.31222000  0.21580000  1.0
  N  N102  1  0.99739000  0.63558000  0.92323000  1.0
  N  N103  1  0.00262000  0.36442000  0.07678000  1.0
  N  N104  1  0.49473000  0.40001000  0.58182000  1.0
  N  N105  1  0.50527000  0.59998000  0.41819000  1.0
  N  N106  1  0.30577000  0.30237000  0.45623000  1.0
  N  N107  1  0.69423000  0.69764000  0.54377000  1.0
  N  N108  1  0.91059000  0.64821000  0.84238000  1.0
  N  N109  1  0.08942000  0.35179000  0.15762000  1.0
  N  N110  1  0.47477000  0.32680000  0.42259000  1.0
  N  N111  1  0.52523000  0.67320000  0.57741000  1.0
  N  N112  1  0.58690000  0.38458000  0.49718000  1.0
  N  N113  1  0.41311000  0.61542000  0.50283000  1.0
  N  N114  1  0.20156000  0.70271000  0.82656000  1.0
  N  N115  1  0.79844000  0.29729000  0.17344000  1.0
  O  O116  1  0.23472000  0.17846000  0.23093000  1.0
  O  O117  1  0.76529000  0.82153000  0.76908000  1.0
  O  O118  1  0.28242000  0.81958000  0.65113000  1.0
  O  O119  1  0.71758000  0.18043000  0.34887000  1.0
  O  O120  1  0.94869000  0.39596000  0.44867000  1.0
  O  O121  1  0.05131000  0.60403000  0.55133000  1.0
  O  O122  1  0.41772000  0.08017000  0.14900000  1.0
  O  O123  1  0.58229000  0.91984000  0.85101000  1.0
  O  O124  1  0.09227000  0.91662000  0.61764000  1.0
  O  O125  1  0.90772000  0.08338000  0.38235000  1.0
  O  O126  1  0.44166000  0.41124000  0.23843000  1.0
  O  O127  1  0.55834000  0.58876000  0.76157000  1.0
