# generated using pymatgen
data_CdH20C16(NO2)2
_symmetry_space_group_name_H-M   'P 1'
_cell_length_a   4.93861000
_cell_length_b   11.04160000
_cell_length_c   14.08280000
_cell_angle_alpha   86.97540000
_cell_angle_beta   85.01310000
_cell_angle_gamma   81.51620000
_symmetry_Int_Tables_number   1
_chemical_formula_structural   CdH20C16(NO2)2
_chemical_formula_sum   'Cd2 H40 C32 N4 O8'
_cell_volume   756.03717614
_cell_formula_units_Z   2
loop_
 _symmetry_equiv_pos_site_id
 _symmetry_equiv_pos_as_xyz
  1  'x, y, z'
loop_
 _atom_site_type_symbol
 _atom_site_label
 _atom_site_symmetry_multiplicity
 _atom_site_fract_x
 _atom_site_fract_y
 _atom_site_fract_z
 _atom_site_occupancy
  Cd  Cd0  1  0.40280000  0.67256000  0.47916000  1.0
  Cd  Cd1  1  0.59723000  0.32744000  0.52084000  1.0
  H  H2  1  0.81965000  0.65687000  0.16141000  1.0
  H  H3  1  0.18035000  0.34312000  0.83859000  1.0
  H  H4  1  0.04549000  0.76792000  0.15361000  1.0
  H  H5  1  0.95450000  0.23208000  0.84639000  1.0
  H  H6  1  0.75744000  0.88624000  0.50042000  1.0
  H  H7  1  0.24256000  0.11375000  0.49959000  1.0
  H  H8  1  0.14230000  0.76186000  0.68029000  1.0
  H  H9  1  0.85771000  0.23813000  0.31972000  1.0
  H  H10  1  0.86193000  0.48378000  0.27931000  1.0
  H  H11  1  0.13806000  0.51621000  0.72071000  1.0
  H  H12  1  0.47919000  0.41971000  0.22309000  1.0
  H  H13  1  0.52079000  0.58029000  0.77690000  1.0
  H  H14  1  0.23518000  0.31762000  0.22554000  1.0
  H  H15  1  0.76479000  0.68237000  0.77446000  1.0
  H  H16  1  0.22555000  0.89500000  0.81188000  1.0
  H  H17  1  0.77444000  0.10501000  0.18813000  1.0
  H  H18  1  0.99223000  0.44123000  0.09860000  1.0
  H  H19  1  0.00774000  0.55877000  0.90140000  1.0
  H  H20  1  0.34254000  0.40224000  0.05910000  1.0
  H  H21  1  0.65742000  0.59775000  0.94090000  1.0
  H  H22  1  0.85283000  0.03071000  0.62142000  1.0
  H  H23  1  0.14718000  0.96930000  0.37857000  1.0
  H  H24  1  0.16950000  0.62447000  0.02045000  1.0
  H  H25  1  0.83050000  0.37553000  0.97954000  1.0
  H  H26  1  0.43573000  0.60861000  0.09817000  1.0
  H  H27  1  0.56425000  0.39139000  0.90183000  1.0
  H  H28  1  0.83573000  0.05463000  0.79898000  1.0
  H  H29  1  0.16426000  0.94538000  0.20102000  1.0
  H  H30  1  0.52052000  0.14885000  0.78240000  1.0
  H  H31  1  0.47946000  0.85116000  0.21760000  1.0
  H  H32  1  0.32616000  0.64077000  0.27476000  1.0
  H  H33  1  0.67384000  0.35922000  0.72523000  1.0
  H  H34  1  0.37699000  0.20596000  0.93366000  1.0
  H  H35  1  0.62302000  0.79404000  0.06635000  1.0
  H  H36  1  0.70180000  0.14106000  0.97417000  1.0
  H  H37  1  0.29820000  0.85895000  0.02583000  1.0
  H  H38  1  0.86412000  0.92161000  0.94785000  1.0
  H  H39  1  0.13588000  0.07840000  0.05215000  1.0
  H  H40  1  0.64946000  0.83549000  0.89097000  1.0
  H  H41  1  0.35054000  0.16452000  0.10903000  1.0
  C  C42  1  0.03503000  0.66961000  0.16684000  1.0
  C  C43  1  0.96496000  0.33038000  0.83316000  1.0
  C  C44  1  0.63900000  0.89421000  0.56950000  1.0
  C  C45  1  0.36101000  0.10579000  0.43051000  1.0
  C  C46  1  0.29812000  0.82282000  0.67103000  1.0
  C  C47  1  0.70187000  0.17718000  0.32898000  1.0
  C  C48  1  0.07793000  0.49354000  0.28650000  1.0
  C  C49  1  0.92206000  0.50646000  0.71350000  1.0
  C  C50  1  0.14469000  0.44133000  0.38555000  1.0
  C  C51  1  0.85540000  0.55867000  0.61444000  1.0
  C  C52  1  0.93103000  0.70840000  0.34170000  1.0
  C  C53  1  0.06897000  0.29159000  0.65829000  1.0
  C  C54  1  0.26268000  0.41438000  0.21246000  1.0
  C  C55  1  0.73730000  0.58562000  0.78754000  1.0
  C  C56  1  0.34518000  0.89651000  0.74322000  1.0
  C  C57  1  0.65481000  0.10350000  0.25679000  1.0
  C  C58  1  0.20171000  0.45721000  0.11052000  1.0
  C  C59  1  0.79826000  0.54279000  0.88948000  1.0
  C  C60  1  0.54872000  0.97252000  0.72749000  1.0
  C  C61  1  0.45126000  0.02749000  0.27251000  1.0
  C  C62  1  0.69538000  0.97142000  0.63774000  1.0
  C  C63  1  0.30462000  0.02859000  0.36226000  1.0
  C  C64  1  0.22158000  0.59365000  0.09306000  1.0
  C  C65  1  0.77841000  0.40635000  0.90693000  1.0
  C  C66  1  0.60999000  0.05454000  0.80270000  1.0
  C  C67  1  0.38999000  0.94547000  0.19729000  1.0
  C  C68  1  0.11110000  0.62943000  0.26823000  1.0
  C  C69  1  0.88890000  0.37056000  0.73177000  1.0
  C  C70  1  0.49125000  0.12212000  0.96399000  1.0
  C  C71  1  0.50875000  0.87789000  0.03601000  1.0
  C  C72  1  0.64709000  0.91070000  0.93929000  1.0
  C  C73  1  0.35290000  0.08931000  0.06071000  1.0
  N  N74  1  0.44306000  0.82079000  0.58561000  1.0
  N  N75  1  0.55693000  0.17922000  0.41440000  1.0
  N  N76  1  0.49829000  0.02320000  0.89854000  1.0
  N  N77  1  0.50171000  0.97681000  0.10146000  1.0
  O  O78  1  0.01108000  0.36097000  0.42392000  1.0
  O  O79  1  0.98901000  0.63903000  0.57610000  1.0
  O  O80  1  0.67266000  0.70634000  0.34400000  1.0
  O  O81  1  0.32734000  0.29367000  0.65598000  1.0
  O  O82  1  0.04237000  0.77183000  0.39577000  1.0
  O  O83  1  0.95764000  0.22816000  0.60422000  1.0
  O  O84  1  0.35240000  0.47501000  0.42194000  1.0
  O  O85  1  0.64773000  0.52498000  0.57804000  1.0
