# generated using pymatgen
data_ZnH22C32(NO2)4
_symmetry_space_group_name_H-M   'P 1'
_cell_length_a   10.10570000
_cell_length_b   12.44290000
_cell_length_c   12.86930000
_cell_angle_alpha   78.67300000
_cell_angle_beta   74.87380000
_cell_angle_gamma   87.06080000
_symmetry_Int_Tables_number   1
_chemical_formula_structural   ZnH22C32(NO2)4
_chemical_formula_sum   'Zn2 H44 C64 N8 O16'
_cell_volume   1531.74583263
_cell_formula_units_Z   2
loop_
 _symmetry_equiv_pos_site_id
 _symmetry_equiv_pos_as_xyz
  1  'x, y, z'
loop_
 _atom_site_type_symbol
 _atom_site_label
 _atom_site_symmetry_multiplicity
 _atom_site_fract_x
 _atom_site_fract_y
 _atom_site_fract_z
 _atom_site_occupancy
  Zn  Zn0  1  0.03855000  0.83706000  0.66741000  1.0
  Zn  Zn1  1  0.96144000  0.16293000  0.33259000  1.0
  H  H2  1  0.44233000  0.27002000  0.61656000  1.0
  H  H3  1  0.55767000  0.72999000  0.38344000  1.0
  H  H4  1  0.88901000  0.93480000  0.30657000  1.0
  H  H5  1  0.11100000  0.06520000  0.69343000  1.0
  H  H6  1  0.33407000  0.53884000  0.84620000  1.0
  H  H7  1  0.66593000  0.46116000  0.15381000  1.0
  H  H8  1  0.17761000  0.64491000  0.56975000  1.0
  H  H9  1  0.82239000  0.35509000  0.43025000  1.0
  H  H10  1  0.17323000  0.56295000  0.40686000  1.0
  H  H11  1  0.82677000  0.43704000  0.59314000  1.0
  H  H12  1  0.04561000  0.66010000  0.27344000  1.0
  H  H13  1  0.95440000  0.33989000  0.72655000  1.0
  H  H14  1  0.93055000  0.90361000  0.47795000  1.0
  H  H15  1  0.06945000  0.09639000  0.52204000  1.0
  H  H16  1  0.95234000  0.02859000  0.14835000  1.0
  H  H17  1  0.04767000  0.97140000  0.85163000  1.0
  H  H18  1  0.88430000  0.17205000  0.00856000  1.0
  H  H19  1  0.11569000  0.82794000  0.99144000  1.0
  H  H20  1  0.66507000  0.80420000  0.10973000  1.0
  H  H21  1  0.33492000  0.19580000  0.89027000  1.0
  H  H22  1  0.60518000  0.94719000  0.96269000  1.0
  H  H23  1  0.39480000  0.05281000  0.03732000  1.0
  H  H24  1  0.56521000  0.16841000  0.10644000  1.0
  H  H25  1  0.43479000  0.83160000  0.89356000  1.0
  H  H26  1  0.39056000  0.31229000  0.14638000  1.0
  H  H27  1  0.60945000  0.68772000  0.85363000  1.0
  H  H28  1  0.63665000  0.30014000  0.76014000  1.0
  H  H29  1  0.36334000  0.69986000  0.23987000  1.0
  H  H30  1  0.46992000  0.44457000  0.79863000  1.0
  H  H31  1  0.53008000  0.55544000  0.20138000  1.0
  H  H32  1  0.54520000  0.81361000  0.67041000  1.0
  H  H33  1  0.45480000  0.18640000  0.32959000  1.0
  H  H34  1  0.33570000  0.11892000  0.60302000  1.0
  H  H35  1  0.66431000  0.88108000  0.39697000  1.0
  H  H36  1  0.73485000  0.11752000  0.66540000  1.0
  H  H37  1  0.26515000  0.88249000  0.33459000  1.0
  H  H38  1  0.84531000  0.78534000  0.88536000  1.0
  H  H39  1  0.15468000  0.21466000  0.11464000  1.0
  H  H40  1  0.85280000  0.68373000  0.07393000  1.0
  H  H41  1  0.14719000  0.31627000  0.92606000  1.0
  H  H42  1  0.05612000  0.56750000  0.09624000  1.0
  H  H43  1  0.94387000  0.43251000  0.90376000  1.0
  H  H44  1  0.23301000  0.67487000  0.74912000  1.0
  H  H45  1  0.76699000  0.32512000  0.25088000  1.0
  C  C46  1  0.11959000  0.68212000  0.51156000  1.0
  C  C47  1  0.88041000  0.31787000  0.48844000  1.0
  C  C48  1  0.11754000  0.63833000  0.42048000  1.0
  C  C49  1  0.88246000  0.36167000  0.57952000  1.0
  C  C50  1  0.04634000  0.69206000  0.34609000  1.0
  C  C51  1  0.95366000  0.30794000  0.65391000  1.0
  C  C52  1  0.97835000  0.79028000  0.36518000  1.0
  C  C53  1  0.02166000  0.20972000  0.63482000  1.0
  C  C54  1  0.98274000  0.82802000  0.45989000  1.0
  C  C55  1  0.01727000  0.17197000  0.54011000  1.0
  C  C56  1  0.84679000  0.81932000  0.22549000  1.0
  C  C57  1  0.15321000  0.18067000  0.77451000  1.0
  C  C58  1  0.80988000  0.90738000  0.14096000  1.0
  C  C59  1  0.19012000  0.09262000  0.85904000  1.0
  C  C60  1  0.87238000  0.01104000  0.11147000  1.0
  C  C61  1  0.12763000  0.98895000  0.88853000  1.0
  C  C62  1  0.83616000  0.09161000  0.03235000  1.0
  C  C63  1  0.16384000  0.90838000  0.96765000  1.0
  C  C64  1  0.71352000  0.88465000  0.08692000  1.0
  C  C65  1  0.28648000  0.11534000  0.91308000  1.0
  C  C66  1  0.67855000  0.96420000  0.00612000  1.0
  C  C67  1  0.32144000  0.03580000  0.99389000  1.0
  C  C68  1  0.73901000  0.06760000  0.98085000  1.0
  C  C69  1  0.26098000  0.93240000  0.01916000  1.0
  C  C70  1  0.61291000  0.22670000  0.93023000  1.0
  C  C71  1  0.38708000  0.77330000  0.06978000  1.0
  C  C72  1  0.54492000  0.22988000  0.03945000  1.0
  C  C73  1  0.45508000  0.77012000  0.96055000  1.0
  C  C74  1  0.44804000  0.31149000  0.06199000  1.0
  C  C75  1  0.55197000  0.68851000  0.93801000  1.0
  C  C76  1  0.58527000  0.30530000  0.84454000  1.0
  C  C77  1  0.41472000  0.69470000  0.15547000  1.0
  C  C78  1  0.48863000  0.38600000  0.86843000  1.0
  C  C79  1  0.51138000  0.61401000  0.13158000  1.0
  C  C80  1  0.41788000  0.39069000  0.97733000  1.0
  C  C81  1  0.58212000  0.60932000  0.02268000  1.0
  C  C82  1  0.30697000  0.47074000  0.00912000  1.0
  C  C83  1  0.69303000  0.52927000  0.99089000  1.0
  C  C84  1  0.77696000  0.89467000  0.68751000  1.0
  C  C85  1  0.22304000  0.10534000  0.31249000  1.0
  C  C86  1  0.65252000  0.95926000  0.66999000  1.0
  C  C87  1  0.34748000  0.04075000  0.33000000  1.0
  C  C88  1  0.54104000  0.90239000  0.66146000  1.0
  C  C89  1  0.45896000  0.09761000  0.33853000  1.0
  C  C90  1  0.42585000  0.95949000  0.63938000  1.0
  C  C91  1  0.57415000  0.04050000  0.36061000  1.0
  C  C92  1  0.30724000  0.89584000  0.63347000  1.0
  C  C93  1  0.69276000  0.10415000  0.36652000  1.0
  C  C94  1  0.42291000  0.07390000  0.62493000  1.0
  C  C95  1  0.57709000  0.92610000  0.37506000  1.0
  C  C96  1  0.53297000  0.13060000  0.63569000  1.0
  C  C97  1  0.46704000  0.86940000  0.36430000  1.0
  C  C98  1  0.64846000  0.07358000  0.65793000  1.0
  C  C99  1  0.35154000  0.92642000  0.34207000  1.0
  C  C100  1  0.93314000  0.73601000  0.89965000  1.0
  C  C101  1  0.06685000  0.26399000  0.10035000  1.0
  C  C102  1  0.93711000  0.67791000  0.00269000  1.0
  C  C103  1  0.06289000  0.32209000  0.99731000  1.0
  C  C104  1  0.05016000  0.61331000  0.01652000  1.0
  C  C105  1  0.94984000  0.38669000  0.98348000  1.0
  C  C106  1  0.15805000  0.60734000  0.92352000  1.0
  C  C107  1  0.84195000  0.39267000  0.07648000  1.0
  C  C108  1  0.14876000  0.67099000  0.82282000  1.0
  C  C109  1  0.85123000  0.32900000  0.17719000  1.0
  N  N110  1  0.05159000  0.77513000  0.53070000  1.0
  N  N111  1  0.94841000  0.22487000  0.46929000  1.0
  N  N112  1  0.91345000  0.85603000  0.29252000  1.0
  N  N113  1  0.08656000  0.14396000  0.70747000  1.0
  N  N114  1  0.27231000  0.54031000  0.92194000  1.0
  N  N115  1  0.72769000  0.45969000  0.07806000  1.0
  N  N116  1  0.03960000  0.73379000  0.81142000  1.0
  N  N117  1  0.96040000  0.26621000  0.18858000  1.0
  O  O118  1  0.88785000  0.94964000  0.67696000  1.0
  O  O119  1  0.11215000  0.05037000  0.32304000  1.0
  O  O120  1  0.77367000  0.79194000  0.70711000  1.0
  O  O121  1  0.22634000  0.20806000  0.29288000  1.0
  O  O122  1  0.18919000  0.94676000  0.64279000  1.0
  O  O123  1  0.81081000  0.05324000  0.35721000  1.0
  O  O124  1  0.32158000  0.79765000  0.62383000  1.0
  O  O125  1  0.67843000  0.20234000  0.37618000  1.0
  O  O126  1  0.53190000  0.24255000  0.62484000  1.0
  O  O127  1  0.46810000  0.75745000  0.37515000  1.0
  O  O128  1  0.81957000  0.72093000  0.23469000  1.0
  O  O129  1  0.18043000  0.27906000  0.76531000  1.0
  O  O130  1  0.70564000  0.14678000  0.89899000  1.0
  O  O131  1  0.29434000  0.85322000  0.10103000  1.0
  O  O132  1  0.24659000  0.47300000  0.10540000  1.0
  O  O133  1  0.75342000  0.52701000  0.89461000  1.0
