# generated using pymatgen
data_LiPH24C19O
_symmetry_space_group_name_H-M   'P 1'
_cell_length_a   8.99883000
_cell_length_b   10.49880000
_cell_length_c   10.64210945
_cell_angle_alpha   60.44441023
_cell_angle_beta   87.74610499
_cell_angle_gamma   85.42700000
_symmetry_Int_Tables_number   1
_chemical_formula_structural   LiPH24C19O
_chemical_formula_sum   'Li2 P2 H48 C38 O2'
_cell_volume   871.81991638
_cell_formula_units_Z   2
loop_
 _symmetry_equiv_pos_site_id
 _symmetry_equiv_pos_as_xyz
  1  'x, y, z'
loop_
 _atom_site_type_symbol
 _atom_site_label
 _atom_site_symmetry_multiplicity
 _atom_site_fract_x
 _atom_site_fract_y
 _atom_site_fract_z
 _atom_site_occupancy
  Li  Li0  1  0.42525000  0.66702000  0.89242000  1.0
  Li  Li1  1  0.92524000  0.55944000  0.10758000  1.0
  P  P2  1  0.66004000  0.80763000  0.81971000  1.0
  P  P3  1  0.16004000  0.62733000  0.18029000  1.0
  H  H4  1  0.93196000  0.78005000  0.85968000  1.0
  H  H5  1  0.43196000  0.63974000  0.14032000  1.0
  H  H6  1  0.76093000  0.51107000  0.91918000  1.0
  H  H7  1  0.26093000  0.43025000  0.08082000  1.0
  H  H8  1  0.10160000  0.53767000  0.91453000  1.0
  H  H9  1  0.60160000  0.45220000  0.08547000  1.0
  H  H10  1  0.99981000  0.37308000  0.95883000  1.0
  H  H11  1  0.49982000  0.33191000  0.04117000  1.0
  H  H12  1  0.46578000  0.92423000  0.97707000  1.0
  H  H13  1  0.96577000  0.90130000  0.02293000  1.0
  H  H14  1  0.47144000  0.14529000  0.00267000  1.0
  H  H15  1  0.97144000  0.14796000  0.99733000  1.0
  H  H16  1  0.67257000  0.31778000  0.88441000  1.0
  H  H17  1  0.17257000  0.20219000  0.11559000  1.0
  H  H18  1  0.86590000  0.26823000  0.73669000  1.0
  H  H19  1  0.36590000  0.00492000  0.26331000  1.0
  H  H20  1  0.85718000  0.04865000  0.70763000  1.0
  H  H21  1  0.35718000  0.75628000  0.29237000  1.0
  H  H22  1  0.86036000  0.76164000  0.61837000  1.0
  H  H23  1  0.36036000  0.38001000  0.38163000  1.0
  H  H24  1  0.87199000  0.88169000  0.34906000  1.0
  H  H25  1  0.37199000  0.23075000  0.65094000  1.0
  H  H26  1  0.68789000  0.08685000  0.19937000  1.0
  H  H27  1  0.18789000  0.28622000  0.80063000  1.0
  H  H28  1  0.49866000  0.17909000  0.31711000  1.0
  H  H29  1  0.99866000  0.49620000  0.68289000  1.0
  H  H30  1  0.48742000  0.05999000  0.58517000  1.0
  H  H31  1  0.98742000  0.64515000  0.41483000  1.0
  H  H32  1  0.11416000  0.83287000  0.62861000  1.0
  H  H33  1  0.61416000  0.46149000  0.37139000  1.0
  H  H34  1  0.26124000  0.95152000  0.54183000  1.0
  H  H35  1  0.76124000  0.49335000  0.45817000  1.0
  H  H36  1  0.16098000  0.84286000  0.85739000  1.0
  H  H37  1  0.66099000  0.70025000  0.14261000  1.0
  H  H38  1  0.11741000  0.02139000  0.70877000  1.0
  H  H39  1  0.61741000  0.73016000  0.29123000  1.0
  H  H40  1  0.30446000  0.96315000  0.76777000  1.0
  H  H41  1  0.80446000  0.73091000  0.23223000  1.0
  H  H42  1  0.42575000  0.79538000  0.50878000  1.0
  H  H43  1  0.92575000  0.30416000  0.49122000  1.0
  H  H44  1  0.27620000  0.67641000  0.55973000  1.0
  H  H45  1  0.77620000  0.23614000  0.44027000  1.0
  H  H46  1  0.58684000  0.59492000  0.70230000  1.0
  H  H47  1  0.08684000  0.29722000  0.29770000  1.0
  H  H48  1  0.51820000  0.53398000  0.58777000  1.0
  H  H49  1  0.01820000  0.12175000  0.41223000  1.0
  H  H50  1  0.43684000  0.47654000  0.76016000  1.0
  H  H51  1  0.93684000  0.23671000  0.23983000  1.0
  C  C52  1  0.83576000  0.71368000  0.88437000  1.0
  C  C53  1  0.33576000  0.59805000  0.11563000  1.0
  C  C54  1  0.86159000  0.56804000  0.90908000  1.0
  C  C55  1  0.36159000  0.47712000  0.09092000  1.0
  C  C56  1  0.99582000  0.48661000  0.93483000  1.0
  C  C57  1  0.49582000  0.42144000  0.06517000  1.0
  C  C58  1  0.66252000  0.97021000  0.84183000  1.0
  C  C59  1  0.16252000  0.81204000  0.15818000  1.0
  C  C60  1  0.55390000  0.99929000  0.92410000  1.0
  C  C61  1  0.05389000  0.92340000  0.07590000  1.0
  C  C62  1  0.55749000  0.12410000  0.93905000  1.0
  C  C63  1  0.05749000  0.06315000  0.06095000  1.0
  C  C64  1  0.66980000  0.22062000  0.87254000  1.0
  C  C65  1  0.16980000  0.09316000  0.12746000  1.0
  C  C66  1  0.77814000  0.19303000  0.78952000  1.0
  C  C67  1  0.27814000  0.98254000  0.21048000  1.0
  C  C68  1  0.77383000  0.06915000  0.77400000  1.0
  C  C69  1  0.27383000  0.84314000  0.22601000  1.0
  C  C70  1  0.67240000  0.90129000  0.62008000  1.0
  C  C71  1  0.17240000  0.52137000  0.37992000  1.0
  C  C72  1  0.77990000  0.85194000  0.55186000  1.0
  C  C73  1  0.27990000  0.40381000  0.44814000  1.0
  C  C74  1  0.78562000  0.91847000  0.40123000  1.0
  C  C75  1  0.28562000  0.31970000  0.59877000  1.0
  C  C76  1  0.68322000  0.03471000  0.31683000  1.0
  C  C77  1  0.18321000  0.35154000  0.68317000  1.0
  C  C78  1  0.57569000  0.08527000  0.38361000  1.0
  C  C79  1  0.07569000  0.46888000  0.61639000  1.0
  C  C80  1  0.57045000  0.01873000  0.53394000  1.0
  C  C81  1  0.07045000  0.55267000  0.46606000  1.0
  C  C82  1  0.21992000  0.86755000  0.64740000  1.0
  C  C83  1  0.71992000  0.51494000  0.35261000  1.0
  C  C84  1  0.19949000  0.92662000  0.75133000  1.0
  C  C85  1  0.69949000  0.67795000  0.24867000  1.0
  C  C86  1  0.37510000  0.70098000  0.59976000  1.0
  C  C87  1  0.87510000  0.30075000  0.40023000  1.0
  C  C88  1  0.48571000  0.56909000  0.66716000  1.0
  C  C89  1  0.98571000  0.23625000  0.33284000  1.0
  O  O90  1  0.32741000  0.74304000  0.70620000  1.0
  O  O91  1  0.82741000  0.44924000  0.29381000  1.0
