# generated using pymatgen
data_AlH11C20Cl2O9
_symmetry_space_group_name_H-M   'P 1'
_cell_length_a   6.90490000
_cell_length_b   25.40480000
_cell_length_c   28.68610000
_cell_angle_alpha   89.99320000
_cell_angle_beta   90.06920000
_cell_angle_gamma   89.99870000
_symmetry_Int_Tables_number   1
_chemical_formula_structural   AlH11C20Cl2O9
_chemical_formula_sum   'Al4 H44 C80 Cl8 O36'
_cell_volume   5032.04320945
_cell_formula_units_Z   4
loop_
 _symmetry_equiv_pos_site_id
 _symmetry_equiv_pos_as_xyz
  1  'x, y, z'
loop_
 _atom_site_type_symbol
 _atom_site_label
 _atom_site_symmetry_multiplicity
 _atom_site_fract_x
 _atom_site_fract_y
 _atom_site_fract_z
 _atom_site_occupancy
  Al  Al0  1  0.65459000  0.74777000  0.75052000  1.0
  Al  Al1  1  0.34687000  0.25142000  0.25035000  1.0
  Al  Al2  1  0.15459000  0.75130000  0.75001000  1.0
  Al  Al3  1  0.84685000  0.24802000  0.25000000  1.0
  H  H4  1  0.33781000  0.42473000  0.42799000  1.0
  H  H5  1  0.65408000  0.57486000  0.57309000  1.0
  H  H6  1  0.66817000  0.57622000  0.92985000  1.0
  H  H7  1  0.34842000  0.41971000  0.06965000  1.0
  H  H8  1  0.84010000  0.07547000  0.07205000  1.0
  H  H9  1  0.15737000  0.92433000  0.92748000  1.0
  H  H10  1  0.16005000  0.92470000  0.57284000  1.0
  H  H11  1  0.84361000  0.07464000  0.42739000  1.0
  H  H12  1  0.76453000  0.34556000  0.35176000  1.0
  H  H13  1  0.23136000  0.65329000  0.64803000  1.0
  H  H14  1  0.23908000  0.65071000  0.84916000  1.0
  H  H15  1  0.77044000  0.35130000  0.15143000  1.0
  H  H16  1  0.26596000  0.15311000  0.14877000  1.0
  H  H17  1  0.73339000  0.84554000  0.85257000  1.0
  H  H18  1  0.73500000  0.84646000  0.64905000  1.0
  H  H19  1  0.26763000  0.15344000  0.35211000  1.0
  H  H20  1  0.81850000  0.50984000  0.42575000  1.0
  H  H21  1  0.16984000  0.48879000  0.57508000  1.0
  H  H22  1  0.15112000  0.48285000  0.92194000  1.0
  H  H23  1  0.87196000  0.51654000  0.07811000  1.0
  H  H24  1  0.32397000  0.98913000  0.07489000  1.0
  H  H25  1  0.67185000  0.01039000  0.92532000  1.0
  H  H26  1  0.67697000  0.01064000  0.57509000  1.0
  H  H27  1  0.32718000  0.98903000  0.42562000  1.0
  H  H28  1  0.40872000  0.33382000  0.33502000  1.0
  H  H29  1  0.58712000  0.66612000  0.66582000  1.0
  H  H30  1  0.59451000  0.66614000  0.83596000  1.0
  H  H31  1  0.41494000  0.33096000  0.16429000  1.0
  H  H32  1  0.91052000  0.16666000  0.16475000  1.0
  H  H33  1  0.08903000  0.83298000  0.83478000  1.0
  H  H34  1  0.09075000  0.83355000  0.66563000  1.0
  H  H35  1  0.91181000  0.16548000  0.33431000  1.0
  H  H36  1  0.59052000  0.39257000  0.39990000  1.0
  H  H37  1  0.40236000  0.60609000  0.59986000  1.0
  H  H38  1  0.41466000  0.60327000  0.89737000  1.0
  H  H39  1  0.60042000  0.39901000  0.10308000  1.0
  H  H40  1  0.09266000  0.10645000  0.10029000  1.0
  H  H41  1  0.90526000  0.89284000  0.90067000  1.0
  H  H42  1  0.90782000  0.89340000  0.60079000  1.0
  H  H43  1  0.09566000  0.10637000  0.40032000  1.0
  H  H44  1  0.39198000  0.67902000  0.75022000  1.0
  H  H45  1  0.60932000  0.32023000  0.25023000  1.0
  H  H46  1  0.89164000  0.82004000  0.75061000  1.0
  H  H47  1  0.10925000  0.17923000  0.24930000  1.0
  C  C48  1  0.41160000  0.81266000  0.68716000  1.0
  C  C49  1  0.59000000  0.18698000  0.31353000  1.0
  C  C50  1  0.58992000  0.18709000  0.18667000  1.0
  C  C51  1  0.41111000  0.81177000  0.81398000  1.0
  C  C52  1  0.91350000  0.68622000  0.81328000  1.0
  C  C53  1  0.09162000  0.31276000  0.18705000  1.0
  C  C54  1  0.08869000  0.31228000  0.31372000  1.0
  C  C55  1  0.90995000  0.68723000  0.68663000  1.0
  C  C56  1  0.23723000  0.37178000  0.37465000  1.0
  C  C57  1  0.75721000  0.62789000  0.62610000  1.0
  C  C58  1  0.76695000  0.62772000  0.87512000  1.0
  C  C59  1  0.24501000  0.36976000  0.12495000  1.0
  C  C60  1  0.73905000  0.12819000  0.12545000  1.0
  C  C61  1  0.25961000  0.87120000  0.87450000  1.0
  C  C62  1  0.26168000  0.87186000  0.62616000  1.0
  C  C63  1  0.74132000  0.12757000  0.37421000  1.0
  C  C64  1  0.21176000  0.40715000  0.41131000  1.0
  C  C65  1  0.78088000  0.59235000  0.58952000  1.0
  C  C66  1  0.79348000  0.59253000  0.91192000  1.0
  C  C67  1  0.22162000  0.40477000  0.08790000  1.0
  C  C68  1  0.71387000  0.09274000  0.08884000  1.0
  C  C69  1  0.28390000  0.90677000  0.91106000  1.0
  C  C70  1  0.28647000  0.90730000  0.58952000  1.0
  C  C71  1  0.71705000  0.09220000  0.41092000  1.0
  C  C72  1  0.02760000  0.42109000  0.42712000  1.0
  C  C73  1  0.96414000  0.57797000  0.57341000  1.0
  C  C74  1  0.97824000  0.57724000  0.92628000  1.0
  C  C75  1  0.03874000  0.42174000  0.07361000  1.0
  C  C76  1  0.52986000  0.07837000  0.07313000  1.0
  C  C77  1  0.46745000  0.92104000  0.92716000  1.0
  C  C78  1  0.47027000  0.92155000  0.57368000  1.0
  C  C79  1  0.53346000  0.07815000  0.42705000  1.0
  C  C80  1  0.86359000  0.39884000  0.40488000  1.0
  C  C81  1  0.12936000  0.60005000  0.59527000  1.0
  C  C82  1  0.14158000  0.59805000  0.90293000  1.0
  C  C83  1  0.87354000  0.40259000  0.09738000  1.0
  C  C84  1  0.36564000  0.10031000  0.09543000  1.0
  C  C85  1  0.63228000  0.89891000  0.90529000  1.0
  C  C86  1  0.63474000  0.89951000  0.59591000  1.0
  C  C87  1  0.36868000  0.10029000  0.40506000  1.0
  C  C88  1  0.88941000  0.36339000  0.36860000  1.0
  C  C89  1  0.10549000  0.63565000  0.63148000  1.0
  C  C90  1  0.11480000  0.63366000  0.86678000  1.0
  C  C91  1  0.89666000  0.36693000  0.13358000  1.0
  C  C92  1  0.39112000  0.13568000  0.13180000  1.0
  C  C93  1  0.60779000  0.86327000  0.86910000  1.0
  C  C94  1  0.60966000  0.86406000  0.63222000  1.0
  C  C95  1  0.39320000  0.13573000  0.36874000  1.0
  C  C96  1  0.07433000  0.34932000  0.35271000  1.0
  C  C97  1  0.92155000  0.65011000  0.64768000  1.0
  C  C98  1  0.92928000  0.64896000  0.85209000  1.0
  C  C99  1  0.08032000  0.35002000  0.14818000  1.0
  C  C100  1  0.57588000  0.15016000  0.14760000  1.0
  C  C101  1  0.42355000  0.84887000  0.85293000  1.0
  C  C102  1  0.42514000  0.84968000  0.64814000  1.0
  C  C103  1  0.57745000  0.14992000  0.35253000  1.0
  C  C104  1  0.89559000  0.50484000  0.45859000  1.0
  C  C105  1  0.09304000  0.49383000  0.54221000  1.0
  C  C106  1  0.09018000  0.49058000  0.95627000  1.0
  C  C107  1  0.93237000  0.50877000  0.04375000  1.0
  C  C108  1  0.40014000  0.99419000  0.04197000  1.0
  C  C109  1  0.59577000  0.00533000  0.95823000  1.0
  C  C110  1  0.60043000  0.00550000  0.54220000  1.0
  C  C111  1  0.40384000  0.99417000  0.45850000  1.0
  C  C112  1  0.88248000  0.54398000  0.49239000  1.0
  C  C113  1  0.10607000  0.45468000  0.50841000  1.0
  C  C114  1  0.10155000  0.45190000  0.99059000  1.0
  C  C115  1  0.92129000  0.54745000  0.00947000  1.0
  C  C116  1  0.38747000  0.95491000  0.00827000  1.0
  C  C117  1  0.60831000  0.04462000  0.99192000  1.0
  C  C118  1  0.61358000  0.04457000  0.50831000  1.0
  C  C119  1  0.39092000  0.95508000  0.49237000  1.0
  C  C120  1  0.98096000  0.53916000  0.53526000  1.0
  C  C121  1  0.00844000  0.45961000  0.46544000  1.0
  C  C122  1  0.02262000  0.46034000  0.03522000  1.0
  C  C123  1  0.99856000  0.53883000  0.96473000  1.0
  C  C124  1  0.48482000  0.95984000  0.96532000  1.0
  C  C125  1  0.51138000  0.03965000  0.03492000  1.0
  C  C126  1  0.51580000  0.03954000  0.46537000  1.0
  C  C127  1  0.48842000  0.96013000  0.53535000  1.0
  Cl  Cl128  1  0.74757000  0.59952000  0.47896000  1.0
  Cl  Cl129  1  0.24022000  0.39904000  0.52190000  1.0
  Cl  Cl130  1  0.20927000  0.39252000  0.97602000  1.0
  Cl  Cl131  1  0.81554000  0.60703000  0.02409000  1.0
  Cl  Cl132  1  0.25437000  0.89915000  0.02185000  1.0
  Cl  Cl133  1  0.74084000  0.10045000  0.97821000  1.0
  Cl  Cl134  1  0.74810000  0.10019000  0.52164000  1.0
  Cl  Cl135  1  0.25703000  0.89938000  0.47895000  1.0
  O  O136  1  0.24023000  0.79940000  0.79819000  1.0
  O  O137  1  0.76159000  0.20000000  0.20171000  1.0
  O  O138  1  0.76073000  0.19909000  0.29758000  1.0
  O  O139  1  0.24014000  0.80005000  0.70242000  1.0
  O  O140  1  0.73929000  0.69962000  0.70247000  1.0
  O  O141  1  0.26010000  0.30015000  0.29813000  1.0
  O  O142  1  0.26251000  0.29954000  0.20230000  1.0
  O  O143  1  0.74152000  0.69892000  0.79832000  1.0
  O  O144  1  0.56927000  0.79534000  0.70418000  1.0
  O  O145  1  0.43166000  0.20478000  0.29723000  1.0
  O  O146  1  0.43241000  0.20404000  0.20396000  1.0
  O  O147  1  0.56939000  0.79421000  0.79753000  1.0
  O  O148  1  0.07056000  0.70367000  0.79616000  1.0
  O  O149  1  0.93314000  0.29580000  0.20387000  1.0
  O  O150  1  0.93112000  0.29448000  0.29707000  1.0
  O  O151  1  0.06848000  0.70479000  0.70300000  1.0
  O  O152  1  0.40265000  0.71706000  0.74995000  1.0
  O  O153  1  0.59889000  0.28219000  0.25014000  1.0
  O  O154  1  0.90244000  0.78201000  0.75058000  1.0
  O  O155  1  0.09876000  0.21726000  0.25007000  1.0
  O  O156  1  0.42187000  0.35982000  0.36098000  1.0
  O  O157  1  0.57305000  0.64005000  0.63998000  1.0
  O  O158  1  0.58202000  0.64068000  0.86237000  1.0
  O  O159  1  0.42903000  0.35583000  0.13756000  1.0
  O  O160  1  0.92371000  0.14058000  0.13887000  1.0
  O  O161  1  0.07527000  0.85908000  0.86063000  1.0
  O  O162  1  0.07720000  0.85964000  0.63975000  1.0
  O  O163  1  0.92560000  0.13954000  0.36029000  1.0
  O  O164  1  0.68282000  0.41207000  0.41973000  1.0
  O  O165  1  0.30973000  0.58659000  0.58018000  1.0
  O  O166  1  0.32224000  0.58326000  0.91674000  1.0
  O  O167  1  0.69369000  0.41893000  0.08403000  1.0
  O  O168  1  0.18489000  0.08686000  0.08057000  1.0
  O  O169  1  0.81286000  0.91239000  0.92032000  1.0
  O  O170  1  0.81537000  0.91294000  0.58104000  1.0
  O  O171  1  0.18818000  0.08698000  0.42014000  1.0
