# generated using pymatgen
data_CdH4C4O5
_symmetry_space_group_name_H-M   'P 1'
_cell_length_a   7.59985000
_cell_length_b   8.70613000
_cell_length_c   9.43269000
_cell_angle_alpha   98.05030000
_cell_angle_beta   98.70740000
_cell_angle_gamma   108.78400000
_symmetry_Int_Tables_number   1
_chemical_formula_structural   CdH4C4O5
_chemical_formula_sum   'Cd4 H16 C16 O20'
_cell_volume   572.05705173
_cell_formula_units_Z   4
loop_
 _symmetry_equiv_pos_site_id
 _symmetry_equiv_pos_as_xyz
  1  'x, y, z'
loop_
 _atom_site_type_symbol
 _atom_site_label
 _atom_site_symmetry_multiplicity
 _atom_site_fract_x
 _atom_site_fract_y
 _atom_site_fract_z
 _atom_site_occupancy
  Cd  Cd0  1  0.22465000  0.15743000  0.14180000  1.0
  Cd  Cd1  1  0.77534000  0.84257000  0.85819000  1.0
  Cd  Cd2  1  0.69631000  0.53563000  0.32910000  1.0
  Cd  Cd3  1  0.30369000  0.46437000  0.67090000  1.0
  H  H4  1  0.04236000  0.45611000  0.17296000  1.0
  H  H5  1  0.95765000  0.54389000  0.82703000  1.0
  H  H6  1  0.16084000  0.58426000  0.06094000  1.0
  H  H7  1  0.83916000  0.41575000  0.93906000  1.0
  H  H8  1  0.24775000  0.82976000  0.27716000  1.0
  H  H9  1  0.75226000  0.17025000  0.72284000  1.0
  H  H10  1  0.02664000  0.91098000  0.43112000  1.0
  H  H11  1  0.97336000  0.08902000  0.56888000  1.0
  H  H12  1  0.30097000  0.04418000  0.62817000  1.0
  H  H13  1  0.69903000  0.95582000  0.37183000  1.0
  H  H14  1  0.36796000  0.95814000  0.47798000  1.0
  H  H15  1  0.63204000  0.04186000  0.52202000  1.0
  H  H16  1  0.31684000  0.99062000  0.90616000  1.0
  H  H17  1  0.68311000  0.00936000  0.09382000  1.0
  H  H18  1  0.32863000  0.17222000  0.89218000  1.0
  H  H19  1  0.67138000  0.82778000  0.10782000  1.0
  C  C20  1  0.34621000  0.56286000  0.24015000  1.0
  C  C21  1  0.65379000  0.43714000  0.75985000  1.0
  C  C22  1  0.15650000  0.57315000  0.17515000  1.0
  C  C23  1  0.84350000  0.42686000  0.82485000  1.0
  C  C24  1  0.11647000  0.72054000  0.25214000  1.0
  C  C25  1  0.88353000  0.27946000  0.74786000  1.0
  C  C26  1  0.96436000  0.75826000  0.15065000  1.0
  C  C27  1  0.03565000  0.24175000  0.84935000  1.0
  C  C28  1  0.95276000  0.78285000  0.59981000  1.0
  C  C29  1  0.04724000  0.21715000  0.40020000  1.0
  C  C30  1  0.08089000  0.82900000  0.49056000  1.0
  C  C31  1  0.91911000  0.17100000  0.50945000  1.0
  C  C32  1  0.28732000  0.92455000  0.56272000  1.0
  C  C33  1  0.71268000  0.07545000  0.43728000  1.0
  C  C34  1  0.38255000  0.83617000  0.65930000  1.0
  C  C35  1  0.61746000  0.16383000  0.34070000  1.0
  O  O36  1  0.46394000  0.67569000  0.34022000  1.0
  O  O37  1  0.53607000  0.32431000  0.65978000  1.0
  O  O38  1  0.38718000  0.43791000  0.18202000  1.0
  O  O39  1  0.61282000  0.56209000  0.81797000  1.0
  O  O40  1  0.79335000  0.70516000  0.16723000  1.0
  O  O41  1  0.20666000  0.29484000  0.83277000  1.0
  O  O42  1  0.01779000  0.83879000  0.05265000  1.0
  O  O43  1  0.98221000  0.16122000  0.94735000  1.0
  O  O44  1  0.05621000  0.68230000  0.38468000  1.0
  O  O45  1  0.94380000  0.31770000  0.61532000  1.0
  O  O46  1  0.27569000  0.70924000  0.69757000  1.0
  O  O47  1  0.72432000  0.29075000  0.30243000  1.0
  O  O48  1  0.56241000  0.89913000  0.69757000  1.0
  O  O49  1  0.43759000  0.10087000  0.30242000  1.0
  O  O50  1  0.99684000  0.88886000  0.71928000  1.0
  O  O51  1  0.00317000  0.11114000  0.28072000  1.0
  O  O52  1  0.80557000  0.65351000  0.56583000  1.0
  O  O53  1  0.19444000  0.34649000  0.43417000  1.0
  O  O54  1  0.37894000  0.10660000  0.95557000  1.0
  O  O55  1  0.62104000  0.89338000  0.04442000  1.0
