# generated using pymatgen
data_Zn4H12C36O37
_symmetry_space_group_name_H-M   'P 1'
_cell_length_a   18.12206837
_cell_length_b   18.12210000
_cell_length_c   18.12210000
_cell_angle_alpha   60.00000000
_cell_angle_beta   90.00000000
_cell_angle_gamma   119.99994226
_symmetry_Int_Tables_number   1
_chemical_formula_structural   Zn4H12C36O37
_chemical_formula_sum   'Zn8 H24 C72 O74'
_cell_volume   4208.33390312
_cell_formula_units_Z   2
loop_
 _symmetry_equiv_pos_site_id
 _symmetry_equiv_pos_as_xyz
  1  'x, y, z'
loop_
 _atom_site_type_symbol
 _atom_site_label
 _atom_site_symmetry_multiplicity
 _atom_site_fract_x
 _atom_site_fract_y
 _atom_site_fract_z
 _atom_site_occupancy
  Zn  Zn0  1  0.04395000  0.41209000  0.54395000  1.0
  Zn  Zn1  1  0.86815000  0.41210000  0.54395000  1.0
  Zn  Zn2  1  0.04396000  0.58790000  0.36814000  1.0
  Zn  Zn3  1  0.04395000  0.58790000  0.54396000  1.0
  Zn  Zn4  1  0.45606000  0.58790000  0.95606000  1.0
  Zn  Zn5  1  0.45605000  0.41210000  0.13185000  1.0
  Zn  Zn6  1  0.63185000  0.58790000  0.95605000  1.0
  Zn  Zn7  1  0.45605000  0.41209000  0.95605000  1.0
  H  H8  1  0.25805000  0.74930000  0.60987000  1.0
  H  H9  1  0.39013000  0.39885000  0.74199000  1.0
  H  H10  1  0.24196000  0.60114000  0.89013000  1.0
  H  H11  1  0.10985000  0.25067000  0.75805000  1.0
  H  H12  1  0.99128000  0.74933000  0.14083000  1.0
  H  H13  1  0.50873000  0.39887000  0.35916000  1.0
  H  H14  1  0.85918000  0.60115000  0.00873000  1.0
  H  H15  1  0.64084000  0.25070000  0.49126000  1.0
  H  H16  1  0.10985000  0.60112000  0.14084000  1.0
  H  H17  1  0.24196000  0.25069000  0.35917000  1.0
  H  H18  1  0.39013000  0.74930000  0.00874000  1.0
  H  H19  1  0.25805000  0.39888000  0.49126000  1.0
  H  H20  1  0.99127000  0.60113000  0.75803000  1.0
  H  H21  1  0.50874000  0.25071000  0.89012000  1.0
  H  H22  1  0.85918000  0.74932000  0.74195000  1.0
  H  H23  1  0.64083000  0.39887000  0.60984000  1.0
  H  H24  1  0.64083000  0.13210000  0.75804000  1.0
  H  H25  1  0.85917000  0.86790000  0.89014000  1.0
  H  H26  1  0.50873000  0.86789000  0.74197000  1.0
  H  H27  1  0.99127000  0.13210000  0.60986000  1.0
  H  H28  1  0.10986000  0.86790000  0.49127000  1.0
  H  H29  1  0.24196000  0.13210000  0.00873000  1.0
  H  H30  1  0.39014000  0.13209000  0.35917000  1.0
  H  H31  1  0.25804000  0.86790000  0.14083000  1.0
  C  C32  1  0.86166000  0.22331000  0.63833000  1.0
  C  C33  1  0.86167000  0.50002000  0.36164000  1.0
  C  C34  1  0.13835000  0.50000000  0.36165000  1.0
  C  C35  1  0.13836000  0.77669000  0.36165000  1.0
  C  C36  1  0.13834000  0.49998000  0.63835000  1.0
  C  C37  1  0.86165000  0.50001000  0.63833000  1.0
  C  C38  1  0.36166000  0.50000000  0.13834000  1.0
  C  C39  1  0.63834000  0.50000000  0.13834000  1.0
  C  C40  1  0.63834000  0.77668000  0.86166000  1.0
  C  C41  1  0.63834000  0.50000000  0.86166000  1.0
  C  C42  1  0.36165000  0.49999000  0.86168000  1.0
  C  C43  1  0.36167000  0.22332000  0.13833000  1.0
  C  C44  1  0.19617000  0.50000000  0.69617000  1.0
  C  C45  1  0.30381000  0.49998000  0.80386000  1.0
  C  C46  1  0.21913000  0.56420000  0.72637000  1.0
  C  C47  1  0.27363000  0.42854000  0.78088000  1.0
  C  C48  1  0.28086000  0.57144000  0.77365000  1.0
  C  C49  1  0.22635000  0.43578000  0.71914000  1.0
  C  C50  1  0.80383000  0.50000000  0.30383000  1.0
  C  C51  1  0.69617000  0.50002000  0.19617000  1.0
  C  C52  1  0.84509000  0.56423000  0.20942000  1.0
  C  C53  1  0.65492000  0.42856000  0.29057000  1.0
  C  C54  1  0.79058000  0.57146000  0.15492000  1.0
  C  C55  1  0.70943000  0.43581000  0.34507000  1.0
  C  C56  1  0.19618000  0.50000000  0.30382000  1.0
  C  C57  1  0.30384000  0.50000000  0.19616000  1.0
  C  C58  1  0.22637000  0.57145000  0.20942000  1.0
  C  C59  1  0.28088000  0.43579000  0.29056000  1.0
  C  C60  1  0.27364000  0.56421000  0.15492000  1.0
  C  C61  1  0.21913000  0.42854000  0.34509000  1.0
  C  C62  1  0.80382000  0.50002000  0.69616000  1.0
  C  C63  1  0.69616000  0.50001000  0.80383000  1.0
  C  C64  1  0.84508000  0.57146000  0.71911000  1.0
  C  C65  1  0.65491000  0.43579000  0.77363000  1.0
  C  C66  1  0.79057000  0.56422000  0.78086000  1.0
  C  C67  1  0.70942000  0.42857000  0.72634000  1.0
  C  C68  1  0.80383000  0.10764000  0.69617000  1.0
  C  C69  1  0.69617000  0.89232000  0.80384000  1.0
  C  C70  1  0.70942000  0.05451000  0.71913000  1.0
  C  C71  1  0.79057000  0.94549000  0.77364000  1.0
  C  C72  1  0.65492000  0.94549000  0.78088000  1.0
  C  C73  1  0.84509000  0.05451000  0.72636000  1.0
  C  C74  1  0.19619000  0.89235000  0.30382000  1.0
  C  C75  1  0.30385000  0.10768000  0.19616000  1.0
  C  C76  1  0.22637000  0.94549000  0.34508000  1.0
  C  C77  1  0.28088000  0.05451000  0.15491000  1.0
  C  C78  1  0.27364000  0.05451000  0.29057000  1.0
  C  C79  1  0.21913000  0.94549000  0.20943000  1.0
  C  C80  1  0.16834000  0.61181000  0.72113000  1.0
  C  C81  1  0.27883000  0.33536000  0.83170000  1.0
  C  C82  1  0.33166000  0.66461000  0.77886000  1.0
  C  C83  1  0.22115000  0.38818000  0.66834000  1.0
  C  C84  1  0.94347000  0.61182000  0.16704000  1.0
  C  C85  1  0.55653000  0.33539000  0.33296000  1.0
  C  C86  1  0.83295000  0.66464000  0.05653000  1.0
  C  C87  1  0.66705000  0.38820000  0.44347000  1.0
  C  C88  1  0.22114000  0.66461000  0.16704000  1.0
  C  C89  1  0.33168000  0.38821000  0.33294000  1.0
  C  C90  1  0.27884000  0.61179000  0.05654000  1.0
  C  C91  1  0.16834000  0.33538000  0.44348000  1.0
  C  C92  1  0.94348000  0.66463000  0.66832000  1.0
  C  C93  1  0.55653000  0.38822000  0.77883000  1.0
  C  C94  1  0.83295000  0.61181000  0.83166000  1.0
  C  C95  1  0.66703000  0.33539000  0.72113000  1.0
  C  C96  1  0.66705000  0.11053000  0.66833000  1.0
  C  C97  1  0.83295000  0.88948000  0.77885000  1.0
  C  C98  1  0.55654000  0.88949000  0.83168000  1.0
  C  C99  1  0.94348000  0.11052000  0.72113000  1.0
  C  C100  1  0.22115000  0.88948000  0.44347000  1.0
  C  C101  1  0.33167000  0.11052000  0.05653000  1.0
  C  C102  1  0.27885000  0.11051000  0.33295000  1.0
  C  C103  1  0.16834000  0.88948000  0.16705000  1.0
  O  O104  1  0.00001000  0.50001000  0.49999000  1.0
  O  O105  1  0.94377000  0.26776000  0.59696000  1.0
  O  O106  1  0.82401000  0.42098000  0.44375000  1.0
  O  O107  1  0.09697000  0.54073000  0.32399000  1.0
  O  O108  1  0.82400000  0.26776000  0.63526000  1.0
  O  O109  1  0.13528000  0.45927000  0.44376000  1.0
  O  O110  1  0.94377000  0.57904000  0.32399000  1.0
  O  O111  1  0.13528000  0.73224000  0.32399000  1.0
  O  O112  1  0.13526000  0.57901000  0.59698000  1.0
  O  O113  1  0.09699000  0.73224000  0.44376000  1.0
  O  O114  1  0.09697000  0.42095000  0.63527000  1.0
  O  O115  1  0.82398000  0.45926000  0.59696000  1.0
  O  O116  1  0.94376000  0.54074000  0.63526000  1.0
  O  O117  1  0.50000000  0.49999000  0.00000000  1.0
  O  O118  1  0.40303000  0.57903000  0.05624000  1.0
  O  O119  1  0.55623000  0.45926000  0.17601000  1.0
  O  O120  1  0.67600000  0.73224000  0.90304000  1.0
  O  O121  1  0.36473000  0.42097000  0.17600000  1.0
  O  O122  1  0.55624000  0.73224000  0.86473000  1.0
  O  O123  1  0.67599000  0.54073000  0.05624000  1.0
  O  O124  1  0.67600000  0.57903000  0.86473000  1.0
  O  O125  1  0.40302000  0.45925000  0.86474000  1.0
  O  O126  1  0.55624000  0.42096000  0.90303000  1.0
  O  O127  1  0.36473000  0.54073000  0.90304000  1.0
  O  O128  1  0.40304000  0.26776000  0.17600000  1.0
  O  O129  1  0.36473000  0.26775000  0.05625000  1.0
  O  O130  1  0.20734000  0.71399000  0.66242000  1.0
  O  O131  1  0.09339000  0.55505000  0.77750000  1.0
  O  O132  1  0.33756000  0.33090000  0.79270000  1.0
  O  O133  1  0.22247000  0.26083000  0.90662000  1.0
  O  O134  1  0.29266000  0.66908000  0.83757000  1.0
  O  O135  1  0.40660000  0.73914000  0.72250000  1.0
  O  O136  1  0.16242000  0.28598000  0.70735000  1.0
  O  O137  1  0.27750000  0.44494000  0.59341000  1.0
  O  O138  1  0.00667000  0.71401000  0.12357000  1.0
  O  O139  1  0.96165000  0.55505000  0.16744000  1.0
  O  O140  1  0.49335000  0.33092000  0.37641000  1.0
  O  O141  1  0.53836000  0.26085000  0.33255000  1.0
  O  O142  1  0.87642000  0.66911000  0.99334000  1.0
  O  O143  1  0.83255000  0.73918000  0.03834000  1.0
  O  O144  1  0.62359000  0.28602000  0.50665000  1.0
  O  O145  1  0.66745000  0.44496000  0.46165000  1.0
  O  O146  1  0.16242000  0.66907000  0.12359000  1.0
  O  O147  1  0.27750000  0.73915000  0.16745000  1.0
  O  O148  1  0.29267000  0.28600000  0.37643000  1.0
  O  O149  1  0.40661000  0.44496000  0.33256000  1.0
  O  O150  1  0.33756000  0.71399000  0.99334000  1.0
  O  O151  1  0.22248000  0.55504000  0.03835000  1.0
  O  O152  1  0.20734000  0.33092000  0.50665000  1.0
  O  O153  1  0.09340000  0.26085000  0.46165000  1.0
  O  O154  1  0.00665000  0.66907000  0.70733000  1.0
  O  O155  1  0.96166000  0.73917000  0.59338000  1.0
  O  O156  1  0.49333000  0.28601000  0.83756000  1.0
  O  O157  1  0.53834000  0.44497000  0.72248000  1.0
  O  O158  1  0.87643000  0.71400000  0.79265000  1.0
  O  O159  1  0.83255000  0.55504000  0.90659000  1.0
  O  O160  1  0.62357000  0.33092000  0.66242000  1.0
  O  O161  1  0.66744000  0.26085000  0.77750000  1.0
  O  O162  1  0.62359000  0.13025000  0.70733000  1.0
  O  O163  1  0.66745000  0.12910000  0.59339000  1.0
  O  O164  1  0.87643000  0.86977000  0.83756000  1.0
  O  O165  1  0.83256000  0.87090000  0.72248000  1.0
  O  O166  1  0.49333000  0.86975000  0.79269000  1.0
  O  O167  1  0.53835000  0.87090000  0.90662000  1.0
  O  O168  1  0.00665000  0.13024000  0.66242000  1.0
  O  O169  1  0.96166000  0.12911000  0.77749000  1.0
  O  O170  1  0.16243000  0.86976000  0.50665000  1.0
  O  O171  1  0.27752000  0.87091000  0.46165000  1.0
  O  O172  1  0.29266000  0.13023000  0.99334000  1.0
  O  O173  1  0.40661000  0.12910000  0.03834000  1.0
  O  O174  1  0.33758000  0.13024000  0.37642000  1.0
  O  O175  1  0.22249000  0.12910000  0.33255000  1.0
  O  O176  1  0.20734000  0.86977000  0.12358000  1.0
  O  O177  1  0.09339000  0.87089000  0.16746000  1.0
