# generated using pymatgen
data_ZnH16C24N2O5
_symmetry_space_group_name_H-M   'P 1'
_cell_length_a   10.35560000
_cell_length_b   15.31875405
_cell_length_c   27.43610000
_cell_angle_alpha   93.94336680
_cell_angle_beta   100.88900000
_cell_angle_gamma   109.75857013
_symmetry_Int_Tables_number   1
_chemical_formula_structural   ZnH16C24N2O5
_chemical_formula_sum   'Zn4 H64 C96 N8 O20'
_cell_volume   3980.69436348
_cell_formula_units_Z   4
loop_
 _symmetry_equiv_pos_site_id
 _symmetry_equiv_pos_as_xyz
  1  'x, y, z'
loop_
 _atom_site_type_symbol
 _atom_site_label
 _atom_site_symmetry_multiplicity
 _atom_site_fract_x
 _atom_site_fract_y
 _atom_site_fract_z
 _atom_site_occupancy
  Zn  Zn0  1  0.88286000  0.72945000  0.52101000  1.0
  Zn  Zn1  1  0.13208000  0.77077000  0.97892000  1.0
  Zn  Zn2  1  0.11713000  0.27054000  0.47899000  1.0
  Zn  Zn3  1  0.86792000  0.22923000  0.02108000  1.0
  H  H4  1  0.82367000  0.66449000  0.07490000  1.0
  H  H5  1  0.58402000  0.83501000  0.42506000  1.0
  H  H6  1  0.17632000  0.33551000  0.92510000  1.0
  H  H7  1  0.41599000  0.16499000  0.57494000  1.0
  H  H8  1  0.84479000  0.53535000  0.20969000  1.0
  H  H9  1  0.59988000  0.96425000  0.29028000  1.0
  H  H10  1  0.15522000  0.46465000  0.79031000  1.0
  H  H11  1  0.40012000  0.03575000  0.70972000  1.0
  H  H12  1  0.97788000  0.95692000  0.03313000  1.0
  H  H13  1  0.48782000  0.54265000  0.46680000  1.0
  H  H14  1  0.02212000  0.04308000  0.96687000  1.0
  H  H15  1  0.51219000  0.45735000  0.53320000  1.0
  H  H16  1  0.95731000  0.80900000  0.06728000  1.0
  H  H17  1  0.58109000  0.69042000  0.43251000  1.0
  H  H18  1  0.04269000  0.19100000  0.93272000  1.0
  H  H19  1  0.41891000  0.30959000  0.56749000  1.0
  H  H20  1  0.73729000  0.87792000  0.17340000  1.0
  H  H21  1  0.18562000  0.62172000  0.32660000  1.0
  H  H22  1  0.26270000  0.12208000  0.82660000  1.0
  H  H23  1  0.81438000  0.37828000  0.67340000  1.0
  H  H24  1  0.76427000  0.80862000  0.36079000  1.0
  H  H25  1  0.09463000  0.69117000  0.13916000  1.0
  H  H26  1  0.23572000  0.19138000  0.63921000  1.0
  H  H27  1  0.90538000  0.30884000  0.86084000  1.0
  H  H28  1  0.95365000  0.58675000  0.28646000  1.0
  H  H29  1  0.58036000  0.91292000  0.21348000  1.0
  H  H30  1  0.04635000  0.41325000  0.71354000  1.0
  H  H31  1  0.41964000  0.08708000  0.78652000  1.0
  H  H32  1  0.96858000  0.60791000  0.37835000  1.0
  H  H33  1  0.48221000  0.89181000  0.12158000  1.0
  H  H34  1  0.03142000  0.39209000  0.62166000  1.0
  H  H35  1  0.51779000  0.10819000  0.87842000  1.0
  H  H36  1  0.75013000  0.78906000  0.26842000  1.0
  H  H37  1  0.19259000  0.71058000  0.23151000  1.0
  H  H38  1  0.24987000  0.21094000  0.73158000  1.0
  H  H39  1  0.80741000  0.28942000  0.76849000  1.0
  H  H40  1  0.75294000  0.02698000  0.13719000  1.0
  H  H41  1  0.08837000  0.47276000  0.36288000  1.0
  H  H42  1  0.24705000  0.97302000  0.86281000  1.0
  H  H43  1  0.91163000  0.52724000  0.63712000  1.0
  H  H44  1  0.66119000  0.72676000  0.54155000  1.0
  H  H45  1  0.89233000  0.77337000  0.95833000  1.0
  H  H46  1  0.33881000  0.27324000  0.45845000  1.0
  H  H47  1  0.10767000  0.22663000  0.04167000  1.0
  H  H48  1  0.73334000  0.81767000  0.58036000  1.0
  H  H49  1  0.83519000  0.68246000  0.91956000  1.0
  H  H50  1  0.26666000  0.18233000  0.41964000  1.0
  H  H51  1  0.16481000  0.31754000  0.08044000  1.0
  H  H52  1  0.94131000  0.57705000  0.05549000  1.0
  H  H53  1  0.80865000  0.92257000  0.44452000  1.0
  H  H54  1  0.05869000  0.42295000  0.94451000  1.0
  H  H55  1  0.19135000  0.07742000  0.55548000  1.0
  H  H56  1  0.94438000  0.42949000  0.01013000  1.0
  H  H57  1  0.00448000  0.07020000  0.48998000  1.0
  H  H58  1  0.05562000  0.57051000  0.98987000  1.0
  H  H59  1  0.99553000  0.92979000  0.51002000  1.0
  H  H60  1  0.75668000  0.26719000  0.10908000  1.0
  H  H61  1  0.87975000  0.23252000  0.39109000  1.0
  H  H62  1  0.24331000  0.73280000  0.89092000  1.0
  H  H63  1  0.12026000  0.76748000  0.60891000  1.0
  H  H64  1  0.73307000  0.40465000  0.15659000  1.0
  H  H65  1  0.67150000  0.09501000  0.34347000  1.0
  H  H66  1  0.26693000  0.59535000  0.84341000  1.0
  H  H67  1  0.32851000  0.90500000  0.65653000  1.0
  C  C68  1  0.83519000  0.50318000  0.10997000  1.0
  C  C69  1  0.72190000  0.99646000  0.39005000  1.0
  C  C70  1  0.16482000  0.49682000  0.89003000  1.0
  C  C71  1  0.27812000  0.00355000  0.60995000  1.0
  C  C72  1  0.83252000  0.58780000  0.13833000  1.0
  C  C73  1  0.60635000  0.91178000  0.36165000  1.0
  C  C74  1  0.16748000  0.41220000  0.86167000  1.0
  C  C75  1  0.39365000  0.08822000  0.63835000  1.0
  C  C76  1  0.83507000  0.74658000  0.14414000  1.0
  C  C77  1  0.44420000  0.75300000  0.35579000  1.0
  C  C78  1  0.16492000  0.25341000  0.85586000  1.0
  C  C79  1  0.55580000  0.24701000  0.64421000  1.0
  C  C80  1  0.84086000  0.67599000  0.21631000  1.0
  C  C81  1  0.44853000  0.82362000  0.28362000  1.0
  C  C82  1  0.15914000  0.32401000  0.78369000  1.0
  C  C83  1  0.55148000  0.17639000  0.71637000  1.0
  C  C84  1  0.82959000  0.66580000  0.11502000  1.0
  C  C85  1  0.54866000  0.83376000  0.38495000  1.0
  C  C86  1  0.17040000  0.33420000  0.88498000  1.0
  C  C87  1  0.45136000  0.16625000  0.61505000  1.0
  C  C88  1  0.84339000  0.83332000  0.12218000  1.0
  C  C89  1  0.38770000  0.66625000  0.37774000  1.0
  C  C90  1  0.15660000  0.16667000  0.87782000  1.0
  C  C91  1  0.61230000  0.33375000  0.62226000  1.0
  C  C92  1  0.84902000  0.68597000  0.27101000  1.0
  C  C93  1  0.39198000  0.81367000  0.22892000  1.0
  C  C94  1  0.15098000  0.31403000  0.72899000  1.0
  C  C95  1  0.60802000  0.18633000  0.77108000  1.0
  C  C96  1  0.83934000  0.59374000  0.18997000  1.0
  C  C97  1  0.55568000  0.90585000  0.30999000  1.0
  C  C98  1  0.16066000  0.40626000  0.81003000  1.0
  C  C99  1  0.44432000  0.09415000  0.69001000  1.0
  C  C100  1  0.87565000  0.72120000  0.43003000  1.0
  C  C101  1  0.22407000  0.77859000  0.06990000  1.0
  C  C102  1  0.12435000  0.27880000  0.56998000  1.0
  C  C103  1  0.77593000  0.22141000  0.93010000  1.0
  C  C104  1  0.86701000  0.70941000  0.37508000  1.0
  C  C105  1  0.28235000  0.79026000  0.12484000  1.0
  C  C106  1  0.13298000  0.29059000  0.62492000  1.0
  C  C107  1  0.71765000  0.20974000  0.87516000  1.0
  C  C108  1  0.92342000  0.93956000  0.06342000  1.0
  C  C109  1  0.42038000  0.56003000  0.43653000  1.0
  C  C110  1  0.07658000  0.06044000  0.93658000  1.0
  C  C111  1  0.57963000  0.43997000  0.56347000  1.0
  C  C112  1  0.91061000  0.85581000  0.08239000  1.0
  C  C113  1  0.47236000  0.64370000  0.41748000  1.0
  C  C114  1  0.08938000  0.14419000  0.91761000  1.0
  C  C115  1  0.52765000  0.35631000  0.58252000  1.0
  C  C116  1  0.86640000  0.00128000  0.08317000  1.0
  C  C117  1  0.28173000  0.49844000  0.41687000  1.0
  C  C118  1  0.13360000  0.99872000  0.91683000  1.0
  C  C119  1  0.71828000  0.50157000  0.58313000  1.0
  C  C120  1  0.78842000  0.89611000  0.14239000  1.0
  C  C121  1  0.24957000  0.60357000  0.35763000  1.0
  C  C122  1  0.21156000  0.10388000  0.85761000  1.0
  C  C123  1  0.75044000  0.39644000  0.64237000  1.0
  C  C124  1  0.80576000  0.76050000  0.34400000  1.0
  C  C125  1  0.20112000  0.73919000  0.15594000  1.0
  C  C126  1  0.19423000  0.23950000  0.65601000  1.0
  C  C127  1  0.79887000  0.26081000  0.84407000  1.0
  C  C128  1  0.91000000  0.63474000  0.30234000  1.0
  C  C129  1  0.47280000  0.86496000  0.19759000  1.0
  C  C130  1  0.08999000  0.36526000  0.69766000  1.0
  C  C131  1  0.52720000  0.13504000  0.80241000  1.0
  C  C132  1  0.91951000  0.64640000  0.35380000  1.0
  C  C133  1  0.41918000  0.85330000  0.14612000  1.0
  C  C134  1  0.08048000  0.35360000  0.64620000  1.0
  C  C135  1  0.58082000  0.14670000  0.85388000  1.0
  C  C136  1  0.79718000  0.74924000  0.29267000  1.0
  C  C137  1  0.25519000  0.75039000  0.20726000  1.0
  C  C138  1  0.20281000  0.25076000  0.70733000  1.0
  C  C139  1  0.74481000  0.24961000  0.79274000  1.0
  C  C140  1  0.79803000  0.97864000  0.12269000  1.0
  C  C141  1  0.19638000  0.52107000  0.37737000  1.0
  C  C142  1  0.20197000  0.02136000  0.87731000  1.0
  C  C143  1  0.80362000  0.47893000  0.62263000  1.0
  C  C144  1  0.87637000  0.08952000  0.06209000  1.0
  C  C145  1  0.22462000  0.41024000  0.43799000  1.0
  C  C146  1  0.12362000  0.91048000  0.93791000  1.0
  C  C147  1  0.77537000  0.58976000  0.56201000  1.0
  C  C148  1  0.89487000  0.50938000  0.06778000  1.0
  C  C149  1  0.81751000  0.99026000  0.43227000  1.0
  C  C150  1  0.10514000  0.49062000  0.93222000  1.0
  C  C151  1  0.18250000  0.00974000  0.56773000  1.0
  C  C152  1  0.89999000  0.42883000  0.04312000  1.0
  C  C153  1  0.92774000  0.07087000  0.45698000  1.0
  C  C154  1  0.10001000  0.57116000  0.95688000  1.0
  C  C155  1  0.07227000  0.92913000  0.54301000  1.0
  C  C156  1  0.79358000  0.33719000  0.09849000  1.0
  C  C157  1  0.85741000  0.16249000  0.40164000  1.0
  C  C158  1  0.20642000  0.66281000  0.90151000  1.0
  C  C159  1  0.14260000  0.83751000  0.59836000  1.0
  C  C160  1  0.78283000  0.41425000  0.12475000  1.0
  C  C161  1  0.74352000  0.08539000  0.37531000  1.0
  C  C162  1  0.21717000  0.58575000  0.87525000  1.0
  C  C163  1  0.25648000  0.91461000  0.62470000  1.0
  N  N164  1  0.83727000  0.75030000  0.19344000  1.0
  N  N165  1  0.39343000  0.74931000  0.30650000  1.0
  N  N166  1  0.16272000  0.24970000  0.80656000  1.0
  N  N167  1  0.60658000  0.25070000  0.69350000  1.0
  N  N168  1  0.85163000  0.34437000  0.05826000  1.0
  N  N169  1  0.94854000  0.15535000  0.44187000  1.0
  N  N170  1  0.14837000  0.65563000  0.94174000  1.0
  N  N171  1  0.05147000  0.84465000  0.55812000  1.0
  O  O172  1  0.82670000  0.77865000  0.44954000  1.0
  O  O173  1  0.09827000  0.72099000  0.05036000  1.0
  O  O174  1  0.17329000  0.22135000  0.55046000  1.0
  O  O175  1  0.90173000  0.27901000  0.94965000  1.0
  O  O176  1  0.93037000  0.67321000  0.45771000  1.0
  O  O177  1  0.29889000  0.82691000  0.04227000  1.0
  O  O178  1  0.06964000  0.32680000  0.54229000  1.0
  O  O179  1  0.70110000  0.17308000  0.95773000  1.0
  O  O180  1  0.94474000  0.11229000  0.02744000  1.0
  O  O181  1  0.30494000  0.38750000  0.47263000  1.0
  O  O182  1  0.05526000  0.88771000  0.97256000  1.0
  O  O183  1  0.69506000  0.61250000  0.52736000  1.0
  O  O184  1  0.81563000  0.14234000  0.07789000  1.0
  O  O185  1  0.09524000  0.35738000  0.42221000  1.0
  O  O186  1  0.18437000  0.85766000  0.92211000  1.0
  O  O187  1  0.90476000  0.64262000  0.57779000  1.0
  O  O188  1  0.71613000  0.79436000  0.54496000  1.0
  O  O189  1  0.87648000  0.70583000  0.95496000  1.0
  O  O190  1  0.28388000  0.20564000  0.45504000  1.0
  O  O191  1  0.12352000  0.29417000  0.04504000  1.0
