# generated using pymatgen
data_KPH9C7NO7
_symmetry_space_group_name_H-M   'P 1'
_cell_length_a   7.39552000
_cell_length_b   9.53528000
_cell_length_c   16.32850000
_cell_angle_alpha   85.04320000
_cell_angle_beta   88.98990000
_cell_angle_gamma   84.13150000
_symmetry_Int_Tables_number   1
_chemical_formula_structural   KPH9C7NO7
_chemical_formula_sum   'K4 P4 H36 C28 N4 O28'
_cell_volume   1141.09568488
_cell_formula_units_Z   4
loop_
 _symmetry_equiv_pos_site_id
 _symmetry_equiv_pos_as_xyz
  1  'x, y, z'
loop_
 _atom_site_type_symbol
 _atom_site_label
 _atom_site_symmetry_multiplicity
 _atom_site_fract_x
 _atom_site_fract_y
 _atom_site_fract_z
 _atom_site_occupancy
  K  K0  1  0.32227000  0.64973000  0.92139000  1.0
  K  K1  1  0.67774000  0.35025000  0.07861000  1.0
  K  K2  1  0.67663000  0.83661000  0.06641000  1.0
  K  K3  1  0.32337000  0.16339000  0.93358000  1.0
  P  P4  1  0.79933000  0.58882000  0.89079000  1.0
  P  P5  1  0.20067000  0.41117000  0.10921000  1.0
  P  P6  1  0.20336000  0.90469000  0.08342000  1.0
  P  P7  1  0.79664000  0.09531000  0.91658000  1.0
  H  H8  1  0.90763000  0.79932000  0.89164000  1.0
  H  H9  1  0.09237000  0.20068000  0.10836000  1.0
  H  H10  1  0.37266000  0.66354000  0.72467000  1.0
  H  H11  1  0.62734000  0.33646000  0.27533000  1.0
  H  H12  1  0.38436000  0.66136000  0.57178000  1.0
  H  H13  1  0.61564000  0.33865000  0.42822000  1.0
  H  H14  1  0.96924000  0.60960000  0.57924000  1.0
  H  H15  1  0.03076000  0.39040000  0.42076000  1.0
  H  H16  1  0.95831000  0.61718000  0.73190000  1.0
  H  H17  1  0.04169000  0.38281000  0.26810000  1.0
  H  H18  1  0.08391000  0.69939000  0.10623000  1.0
  H  H19  1  0.91609000  0.30061000  0.89377000  1.0
  H  H20  1  0.15416000  0.68843000  0.26286000  1.0
  H  H21  1  0.84584000  0.31157000  0.73714000  1.0
  H  H22  1  0.09637000  0.72356000  0.41226000  1.0
  H  H23  1  0.90363000  0.27644000  0.58774000  1.0
  H  H24  1  0.39306000  0.09053000  0.38784000  1.0
  H  H25  1  0.60694000  0.90947000  0.61216000  1.0
  H  H26  1  0.44415000  0.05865000  0.23694000  1.0
  H  H27  1  0.55585000  0.94135000  0.76306000  1.0
  H  H28  1  0.11533000  0.94092000  0.85868000  1.0
  H  H29  1  0.88467000  0.05907000  0.14132000  1.0
  H  H30  1  0.28113000  0.91456000  0.70052000  1.0
  H  H31  1  0.71886000  0.08544000  0.29948000  1.0
  H  H32  1  0.06393000  0.86219000  0.73191000  1.0
  H  H33  1  0.93607000  0.13781000  0.26809000  1.0
  H  H34  1  0.10148000  0.04502000  0.72107000  1.0
  H  H35  1  0.89852000  0.95498000  0.27893000  1.0
  H  H36  1  0.12077000  0.43645000  0.84084000  1.0
  H  H37  1  0.87923000  0.56355000  0.15916000  1.0
  H  H38  1  0.19889000  0.43587000  0.70173000  1.0
  H  H39  1  0.80111000  0.56414000  0.29827000  1.0
  H  H40  1  0.23097000  0.26079000  0.75023000  1.0
  H  H41  1  0.76904000  0.73921000  0.24977000  1.0
  H  H42  1  0.41973000  0.36271000  0.73297000  1.0
  H  H43  1  0.58028000  0.63729000  0.26703000  1.0
  C  C44  1  0.66401000  0.63939000  0.73693000  1.0
  C  C45  1  0.33599000  0.36061000  0.26307000  1.0
  C  C46  1  0.50231000  0.65263000  0.69213000  1.0
  C  C47  1  0.49769000  0.34738000  0.30787000  1.0
  C  C48  1  0.50855000  0.65054000  0.60743000  1.0
  C  C49  1  0.49145000  0.34946000  0.39257000  1.0
  C  C50  1  0.67807000  0.63431000  0.56828000  1.0
  C  C51  1  0.32193000  0.36569000  0.43172000  1.0
  C  C52  1  0.84019000  0.62128000  0.61202000  1.0
  C  C53  1  0.15981000  0.37872000  0.38798000  1.0
  C  C54  1  0.83345000  0.62469000  0.69694000  1.0
  C  C55  1  0.16655000  0.37531000  0.30306000  1.0
  C  C56  1  0.29970000  0.87374000  0.24260000  1.0
  C  C57  1  0.70030000  0.12626000  0.75739000  1.0
  C  C58  1  0.20295000  0.77735000  0.29048000  1.0
  C  C59  1  0.79705000  0.22265000  0.70952000  1.0
  C  C60  1  0.17218000  0.79591000  0.37337000  1.0
  C  C61  1  0.82781000  0.20409000  0.62663000  1.0
  C  C62  1  0.24108000  0.90961000  0.40658000  1.0
  C  C63  1  0.75892000  0.09039000  0.59342000  1.0
  C  C64  1  0.33894000  0.00524000  0.35916000  1.0
  C  C65  1  0.66105000  0.99476000  0.64084000  1.0
  C  C66  1  0.36731000  0.98750000  0.27624000  1.0
  C  C67  1  0.63269000  0.01250000  0.72376000  1.0
  C  C68  1  0.16355000  0.93789000  0.74049000  1.0
  C  C69  1  0.83645000  0.06211000  0.25951000  1.0
  C  C70  1  0.27538000  0.36795000  0.74975000  1.0
  C  C71  1  0.72463000  0.63205000  0.25025000  1.0
  N  N72  1  0.68522000  0.63086000  0.47944000  1.0
  N  N73  1  0.31477000  0.36914000  0.52056000  1.0
  N  N74  1  0.21590000  0.92731000  0.49420000  1.0
  N  N75  1  0.78410000  0.07269000  0.50580000  1.0
  O  O76  1  0.64337000  0.64472000  0.82036000  1.0
  O  O77  1  0.35663000  0.35528000  0.17964000  1.0
  O  O78  1  0.94829000  0.69621000  0.87926000  1.0
  O  O79  1  0.05171000  0.30379000  0.12074000  1.0
  O  O80  1  0.89282000  0.44966000  0.86644000  1.0
  O  O81  1  0.10719000  0.55034000  0.13356000  1.0
  O  O82  1  0.69369000  0.59483000  0.96964000  1.0
  O  O83  1  0.30631000  0.40516000  0.03036000  1.0
  O  O84  1  0.54020000  0.65373000  0.44091000  1.0
  O  O85  1  0.45980000  0.34627000  0.55909000  1.0
  O  O86  1  0.83631000  0.60370000  0.44623000  1.0
  O  O87  1  0.16369000  0.39630000  0.55377000  1.0
  O  O88  1  0.34109000  0.85358000  0.16110000  1.0
  O  O89  1  0.65891000  0.14642000  0.83890000  1.0
  O  O90  1  0.04396000  0.80640000  0.09486000  1.0
  O  O91  1  0.95604000  0.19360000  0.90514000  1.0
  O  O92  1  0.11555000  0.05297000  0.09177000  1.0
  O  O93  1  0.88445000  0.94703000  0.90823000  1.0
  O  O94  1  0.32323000  0.87923000  0.01003000  1.0
  O  O95  1  0.67677000  0.12077000  0.98997000  1.0
  O  O96  1  0.27961000  0.02834000  0.52273000  1.0
  O  O97  1  0.72039000  0.97166000  0.47727000  1.0
  O  O98  1  0.13255000  0.83912000  0.53668000  1.0
  O  O99  1  0.86745000  0.16088000  0.46332000  1.0
  O  O100  1  0.22538000  0.92705000  0.82405000  1.0
  O  O101  1  0.77462000  0.07295000  0.17595000  1.0
  O  O102  1  0.25318000  0.42239000  0.82901000  1.0
  O  O103  1  0.74682000  0.57761000  0.17099000  1.0
