# generated using pymatgen
data_BaH16C16(N5O3)2
_symmetry_space_group_name_H-M   'P 1'
_cell_length_a   7.03346000
_cell_length_b   11.07550000
_cell_length_c   13.97460000
_cell_angle_alpha   105.31700000
_cell_angle_beta   89.99990000
_cell_angle_gamma   89.99980000
_symmetry_Int_Tables_number   1
_chemical_formula_structural   BaH16C16(N5O3)2
_chemical_formula_sum   'Ba2 H32 C32 N20 O12'
_cell_volume   1049.94019606
_cell_formula_units_Z   2
loop_
 _symmetry_equiv_pos_site_id
 _symmetry_equiv_pos_as_xyz
  1  'x, y, z'
loop_
 _atom_site_type_symbol
 _atom_site_label
 _atom_site_symmetry_multiplicity
 _atom_site_fract_x
 _atom_site_fract_y
 _atom_site_fract_z
 _atom_site_occupancy
  Ba  Ba0  1  0.90555000  0.94385000  0.55267000  1.0
  Ba  Ba1  1  0.40555000  0.05615000  0.44733000  1.0
  H  H2  1  0.49512000  0.12989000  0.20269000  1.0
  H  H3  1  0.99512000  0.87011000  0.79730000  1.0
  H  H4  1  0.50073000  0.03282000  0.01904000  1.0
  H  H5  1  0.00073000  0.96718000  0.98095000  1.0
  H  H6  1  0.80703000  0.90159000  0.17206000  1.0
  H  H7  1  0.30704000  0.09841000  0.82794000  1.0
  H  H8  1  0.81198000  0.81900000  0.98696000  1.0
  H  H9  1  0.31199000  0.18101000  0.01304000  1.0
  H  H10  1  0.16738000  0.72878000  0.06999000  1.0
  H  H11  1  0.66738000  0.27122000  0.93001000  1.0
  H  H12  1  0.17048000  0.83999000  0.25042000  1.0
  H  H13  1  0.67047000  0.16001000  0.74958000  1.0
  H  H14  1  0.62510000  0.55982000  0.20696000  1.0
  H  H15  1  0.12509000  0.44018000  0.79305000  1.0
  H  H16  1  0.62072000  0.46422000  0.02525000  1.0
  H  H17  1  0.12071000  0.53578000  0.97475000  1.0
  H  H18  1  0.45490000  0.69325000  0.62680000  1.0
  H  H19  1  0.95491000  0.30675000  0.37319000  1.0
  H  H20  1  0.63295000  0.79869000  0.69282000  1.0
  H  H21  1  0.13296000  0.20130000  0.30718000  1.0
  H  H22  1  0.52651000  0.42097000  0.60182000  1.0
  H  H23  1  0.02651000  0.57903000  0.39819000  1.0
  H  H24  1  0.48327000  0.32848000  0.68633000  1.0
  H  H25  1  0.98327000  0.67152000  0.31368000  1.0
  H  H26  1  0.19157000  0.19357000  0.67618000  1.0
  H  H27  1  0.69157000  0.80643000  0.32382000  1.0
  H  H28  1  0.07008000  0.22462000  0.59083000  1.0
  H  H29  1  0.57008000  0.77538000  0.40917000  1.0
  H  H30  1  0.82467000  0.63093000  0.59773000  1.0
  H  H31  1  0.32466000  0.36908000  0.40227000  1.0
  H  H32  1  0.71875000  0.64696000  0.50386000  1.0
  H  H33  1  0.21874000  0.35304000  0.49615000  1.0
  C  C34  1  0.42204000  0.04183000  0.17016000  1.0
  C  C35  1  0.92204000  0.95817000  0.82983000  1.0
  C  C36  1  0.42418000  0.98859000  0.06836000  1.0
  C  C37  1  0.92418000  0.01140000  0.93164000  1.0
  C  C38  1  0.76789000  0.80471000  0.13648000  1.0
  C  C39  1  0.26789000  0.19530000  0.86352000  1.0
  C  C40  1  0.77114000  0.75899000  0.03373000  1.0
  C  C41  1  0.27114000  0.24101000  0.96627000  1.0
  C  C42  1  0.23935000  0.81829000  0.09595000  1.0
  C  C43  1  0.73935000  0.18171000  0.90405000  1.0
  C  C44  1  0.71722000  0.63473000  0.99054000  1.0
  C  C45  1  0.21722000  0.36527000  0.00946000  1.0
  C  C46  1  0.71546000  0.58659000  0.88248000  1.0
  C  C47  1  0.21546000  0.41341000  0.11752000  1.0
  C  C48  1  0.24284000  0.87957000  0.19657000  1.0
  C  C49  1  0.74283000  0.12044000  0.80343000  1.0
  C  C50  1  0.33530000  0.81389000  0.92365000  1.0
  C  C51  1  0.83530000  0.18611000  0.07635000  1.0
  C  C52  1  0.33146000  0.87403000  0.02976000  1.0
  C  C53  1  0.83146000  0.12597000  0.97024000  1.0
  C  C54  1  0.66486000  0.61509000  0.15586000  1.0
  C  C55  1  0.16486000  0.38491000  0.84414000  1.0
  C  C56  1  0.66239000  0.56159000  0.05385000  1.0
  C  C57  1  0.16238000  0.43841000  0.94615000  1.0
  C  C58  1  0.39101000  0.88694000  0.64087000  1.0
  C  C59  1  0.89102000  0.11306000  0.35913000  1.0
  C  C60  1  0.48037000  0.78331000  0.68109000  1.0
  C  C61  1  0.98037000  0.21668000  0.31890000  1.0
  C  C62  1  0.59239000  0.37915000  0.65676000  1.0
  C  C63  1  0.09239000  0.62085000  0.34325000  1.0
  C  C64  1  0.75088000  0.28895000  0.60383000  1.0
  C  C65  1  0.25088000  0.71105000  0.39617000  1.0
  N  N66  1  0.39785000  0.77487000  0.77371000  1.0
  N  N67  1  0.89786000  0.22512000  0.22629000  1.0
  N  N68  1  0.78197000  0.65159000  0.81895000  1.0
  N  N69  1  0.28197000  0.34841000  0.18105000  1.0
  N  N70  1  0.42643000  0.86210000  0.85773000  1.0
  N  N71  1  0.92644000  0.13789000  0.14227000  1.0
  N  N72  1  0.66119000  0.47833000  0.73915000  1.0
  N  N73  1  0.16120000  0.52167000  0.26085000  1.0
  N  N74  1  0.74711000  0.58191000  0.72868000  1.0
  N  N75  1  0.24711000  0.41809000  0.27132000  1.0
  N  N76  1  0.25348000  0.70149000  0.87926000  1.0
  N  N77  1  0.75349000  0.29851000  0.12074000  1.0
  N  N78  1  0.29450000  0.67744000  0.78401000  1.0
  N  N79  1  0.79450000  0.32256000  0.21599000  1.0
  N  N80  1  0.71626000  0.73460000  0.19720000  1.0
  N  N81  1  0.21625000  0.26540000  0.80280000  1.0
  N  N82  1  0.63992000  0.47612000  0.83308000  1.0
  N  N83  1  0.13992000  0.52388000  0.16692000  1.0
  N  N84  1  0.33340000  0.98868000  0.23403000  1.0
  N  N85  1  0.83340000  0.01132000  0.76596000  1.0
  O  O86  1  0.21597000  0.90651000  0.65571000  1.0
  O  O87  1  0.71597000  0.09349000  0.34429000  1.0
  O  O88  1  0.50424000  0.93922000  0.59361000  1.0
  O  O89  1  0.00424000  0.06078000  0.40639000  1.0
  O  O90  1  0.90985000  0.33590000  0.59233000  1.0
  O  O91  1  0.40986000  0.66410000  0.40767000  1.0
  O  O92  1  0.70174000  0.17466000  0.57595000  1.0
  O  O93  1  0.20175000  0.82534000  0.42405000  1.0
  O  O94  1  0.83576000  0.66950000  0.54199000  1.0
  O  O95  1  0.33575000  0.33050000  0.45802000  1.0
  O  O96  1  0.16257000  0.16157000  0.60327000  1.0
  O  O97  1  0.66257000  0.83844000  0.39673000  1.0
