# generated using pymatgen
data_CdH4C6NClO2
_symmetry_space_group_name_H-M   'P 1'
_cell_length_a   9.92731000
_cell_length_b   9.92730000
_cell_length_c   15.81130000
_cell_angle_alpha   89.99990000
_cell_angle_beta   89.99990000
_cell_angle_gamma   90.00000000
_symmetry_Int_Tables_number   1
_chemical_formula_structural   CdH4C6NClO2
_chemical_formula_sum   'Cd8 H32 C48 N8 Cl8 O16'
_cell_volume   1558.22550674
_cell_formula_units_Z   8
loop_
 _symmetry_equiv_pos_site_id
 _symmetry_equiv_pos_as_xyz
  1  'x, y, z'
loop_
 _atom_site_type_symbol
 _atom_site_label
 _atom_site_symmetry_multiplicity
 _atom_site_fract_x
 _atom_site_fract_y
 _atom_site_fract_z
 _atom_site_occupancy
  Cd  Cd0  1  0.56771000  0.25785000  0.21976000  1.0
  Cd  Cd1  1  0.74215000  0.06771000  0.71976000  1.0
  Cd  Cd2  1  0.75784000  0.43229000  0.71976000  1.0
  Cd  Cd3  1  0.93229000  0.24216000  0.21976000  1.0
  Cd  Cd4  1  0.43229000  0.74216000  0.78024000  1.0
  Cd  Cd5  1  0.25784000  0.93229000  0.28024000  1.0
  Cd  Cd6  1  0.24215000  0.56771000  0.28024000  1.0
  Cd  Cd7  1  0.06771000  0.75784000  0.78024000  1.0
  H  H8  1  0.28315000  0.46720000  0.97029000  1.0
  H  H9  1  0.53280000  0.78315000  0.47029000  1.0
  H  H10  1  0.96720000  0.71685000  0.47029000  1.0
  H  H11  1  0.21685000  0.03280000  0.97029000  1.0
  H  H12  1  0.71685000  0.53280000  0.02971000  1.0
  H  H13  1  0.46720000  0.21685000  0.52971000  1.0
  H  H14  1  0.03280000  0.28315000  0.52971000  1.0
  H  H15  1  0.78315000  0.96720000  0.02971000  1.0
  H  H16  1  0.38352000  0.33640000  0.84976000  1.0
  H  H17  1  0.66360000  0.88352000  0.34976000  1.0
  H  H18  1  0.83640000  0.61648000  0.34976000  1.0
  H  H19  1  0.11648000  0.16360000  0.84976000  1.0
  H  H20  1  0.61648000  0.66360000  0.15023000  1.0
  H  H21  1  0.33640000  0.11648000  0.65024000  1.0
  H  H22  1  0.16360000  0.38352000  0.65023000  1.0
  H  H23  1  0.88352000  0.83640000  0.15024000  1.0
  H  H24  1  0.55373000  0.15524000  0.88310000  1.0
  H  H25  1  0.84476000  0.05374000  0.38310000  1.0
  H  H26  1  0.65524000  0.44627000  0.38311000  1.0
  H  H27  1  0.94627000  0.34475000  0.88310000  1.0
  H  H28  1  0.44627000  0.84476000  0.11690000  1.0
  H  H29  1  0.15524000  0.94626000  0.61690000  1.0
  H  H30  1  0.34476000  0.55373000  0.61690000  1.0
  H  H31  1  0.05373000  0.65524000  0.11690000  1.0
  H  H32  1  0.61834000  0.11743000  0.03411000  1.0
  H  H33  1  0.88257000  0.11834000  0.53411000  1.0
  H  H34  1  0.61743000  0.38166000  0.53411000  1.0
  H  H35  1  0.88166000  0.38257000  0.03411000  1.0
  H  H36  1  0.38166000  0.88257000  0.96589000  1.0
  H  H37  1  0.11743000  0.88166000  0.46589000  1.0
  H  H38  1  0.38257000  0.61834000  0.46589000  1.0
  H  H39  1  0.11834000  0.61743000  0.96589000  1.0
  C  C40  1  0.39878000  0.36083000  0.06376000  1.0
  C  C41  1  0.63917000  0.89878000  0.56376000  1.0
  C  C42  1  0.86083000  0.60122000  0.56376000  1.0
  C  C43  1  0.10122000  0.13917000  0.06376000  1.0
  C  C44  1  0.60122000  0.63917000  0.93624000  1.0
  C  C45  1  0.36083000  0.10122000  0.43624000  1.0
  C  C46  1  0.13917000  0.39878000  0.43624000  1.0
  C  C47  1  0.89878000  0.86083000  0.93624000  1.0
  C  C48  1  0.35737000  0.38864000  0.98138000  1.0
  C  C49  1  0.61136000  0.85737000  0.48138000  1.0
  C  C50  1  0.88864000  0.64263000  0.48138000  1.0
  C  C51  1  0.14264000  0.11136000  0.98138000  1.0
  C  C52  1  0.64263000  0.61136000  0.01862000  1.0
  C  C53  1  0.38864000  0.14263000  0.51862000  1.0
  C  C54  1  0.11136000  0.35737000  0.51862000  1.0
  C  C55  1  0.85737000  0.88864000  0.01862000  1.0
  C  C56  1  0.41303000  0.31513000  0.91481000  1.0
  C  C57  1  0.68487000  0.91303000  0.41481000  1.0
  C  C58  1  0.81513000  0.58697000  0.41481000  1.0
  C  C59  1  0.08697000  0.18487000  0.91481000  1.0
  C  C60  1  0.58697000  0.68487000  0.08519000  1.0
  C  C61  1  0.31513000  0.08696000  0.58519000  1.0
  C  C62  1  0.18487000  0.41303000  0.58519000  1.0
  C  C63  1  0.91303000  0.81513000  0.08519000  1.0
  C  C64  1  0.50725000  0.21507000  0.93272000  1.0
  C  C65  1  0.78493000  0.00726000  0.43272000  1.0
  C  C66  1  0.71507000  0.49274000  0.43273000  1.0
  C  C67  1  0.99274000  0.28493000  0.93272000  1.0
  C  C68  1  0.49274000  0.78493000  0.06728000  1.0
  C  C69  1  0.21506000  0.99274000  0.56728000  1.0
  C  C70  1  0.28493000  0.50726000  0.56727000  1.0
  C  C71  1  0.00725000  0.71507000  0.06727000  1.0
  C  C72  1  0.54409000  0.19352000  0.01677000  1.0
  C  C73  1  0.80648000  0.04409000  0.51677000  1.0
  C  C74  1  0.69352000  0.45591000  0.51677000  1.0
  C  C75  1  0.95591000  0.30648000  0.01677000  1.0
  C  C76  1  0.45591000  0.80648000  0.98323000  1.0
  C  C77  1  0.19352000  0.95591000  0.48323000  1.0
  C  C78  1  0.30648000  0.54409000  0.48323000  1.0
  C  C79  1  0.04409000  0.69352000  0.98323000  1.0
  C  C80  1  0.34254000  0.43709000  0.13803000  1.0
  C  C81  1  0.56291000  0.84254000  0.63803000  1.0
  C  C82  1  0.93709000  0.65746000  0.63803000  1.0
  C  C83  1  0.15746000  0.06291000  0.13803000  1.0
  C  C84  1  0.65746000  0.56291000  0.86197000  1.0
  C  C85  1  0.43709000  0.15746000  0.36197000  1.0
  C  C86  1  0.06291000  0.34254000  0.36197000  1.0
  C  C87  1  0.84254000  0.93709000  0.86197000  1.0
  N  N88  1  0.49164000  0.26514000  0.08062000  1.0
  N  N89  1  0.73486000  0.99164000  0.58062000  1.0
  N  N90  1  0.76514000  0.50836000  0.58062000  1.0
  N  N91  1  0.00836000  0.23486000  0.08062000  1.0
  N  N92  1  0.50836000  0.73486000  0.91938000  1.0
  N  N93  1  0.26514000  0.00836000  0.41938000  1.0
  N  N94  1  0.23486000  0.49164000  0.41938000  1.0
  N  N95  1  0.99164000  0.76514000  0.91938000  1.0
  Cl  Cl96  1  0.74166000  0.06502000  0.20723000  1.0
  Cl  Cl97  1  0.93498000  0.24166000  0.70723000  1.0
  Cl  Cl98  1  0.56502000  0.25834000  0.70723000  1.0
  Cl  Cl99  1  0.75834000  0.43498000  0.20723000  1.0
  Cl  Cl100  1  0.25834000  0.93498000  0.79277000  1.0
  Cl  Cl101  1  0.06502000  0.75834000  0.29277000  1.0
  Cl  Cl102  1  0.43498000  0.74166000  0.29277000  1.0
  Cl  Cl103  1  0.24166000  0.56502000  0.79277000  1.0
  O  O104  1  0.24877000  0.52096000  0.12672000  1.0
  O  O105  1  0.47904000  0.74876000  0.62672000  1.0
  O  O106  1  0.02096000  0.75123000  0.62672000  1.0
  O  O107  1  0.25124000  0.97904000  0.12672000  1.0
  O  O108  1  0.75124000  0.47904000  0.87328000  1.0
  O  O109  1  0.52096000  0.25124000  0.37328000  1.0
  O  O110  1  0.97904000  0.24876000  0.37328000  1.0
  O  O111  1  0.74876000  0.02096000  0.87328000  1.0
  O  O112  1  0.39254000  0.41347000  0.21165000  1.0
  O  O113  1  0.58653000  0.89254000  0.71165000  1.0
  O  O114  1  0.91347000  0.60746000  0.71165000  1.0
  O  O115  1  0.10746000  0.08653000  0.21165000  1.0
  O  O116  1  0.60746000  0.58653000  0.78835000  1.0
  O  O117  1  0.41347000  0.10746000  0.28835000  1.0
  O  O118  1  0.08653000  0.39254000  0.28835000  1.0
  O  O119  1  0.89254000  0.91347000  0.78835000  1.0
