# generated using pymatgen
data_CdH20C28(NO2)2
_symmetry_space_group_name_H-M   'P 1'
_cell_length_a   5.33832000
_cell_length_b   11.70650000
_cell_length_c   18.87437291
_cell_angle_alpha   88.17005308
_cell_angle_beta   81.86935072
_cell_angle_gamma   76.83440000
_symmetry_Int_Tables_number   1
_chemical_formula_structural   CdH20C28(NO2)2
_chemical_formula_sum   'Cd2 H40 C56 N4 O8'
_cell_volume   1136.96962172
_cell_formula_units_Z   2
loop_
 _symmetry_equiv_pos_site_id
 _symmetry_equiv_pos_as_xyz
  1  'x, y, z'
loop_
 _atom_site_type_symbol
 _atom_site_label
 _atom_site_symmetry_multiplicity
 _atom_site_fract_x
 _atom_site_fract_y
 _atom_site_fract_z
 _atom_site_occupancy
  Cd  Cd0  1  0.67559000  0.00028000  0.99995000  1.0
  Cd  Cd1  1  0.42508000  0.49975000  0.50001000  1.0
  H  H2  1  0.38823000  0.69078000  0.92053000  1.0
  H  H3  1  0.83001000  0.80901000  0.42033000  1.0
  H  H4  1  0.05959000  0.19057000  0.57956000  1.0
  H  H5  1  0.99939000  0.30961000  0.07953000  1.0
  H  H6  1  0.43606000  0.43801000  0.75341000  1.0
  H  H7  1  0.62356000  0.06128000  0.25321000  1.0
  H  H8  1  0.93874000  0.93830000  0.74673000  1.0
  H  H9  1  0.62703000  0.56230000  0.24662000  1.0
  H  H10  1  0.04136000  0.55641000  0.71537000  1.0
  H  H11  1  0.34768000  0.94248000  0.21529000  1.0
  H  H12  1  0.50605000  0.05685000  0.78461000  1.0
  H  H13  1  0.31315000  0.44367000  0.28482000  1.0
  H  H14  1  0.80615000  0.74303000  0.78047000  1.0
  H  H15  1  0.29963000  0.75596000  0.28056000  1.0
  H  H16  1  0.33676000  0.24343000  0.71941000  1.0
  H  H17  1  0.32996000  0.25695000  0.21974000  1.0
  H  H18  1  0.74870000  0.52567000  0.90817000  1.0
  H  H19  1  0.02459000  0.97419000  0.40778000  1.0
  H  H20  1  0.40737000  0.02548000  0.59216000  1.0
  H  H21  1  0.18195000  0.47478000  0.09187000  1.0
  H  H22  1  0.68704000  0.32427000  0.81548000  1.0
  H  H23  1  0.76038000  0.17558000  0.31538000  1.0
  H  H24  1  0.25242000  0.82414000  0.68469000  1.0
  H  H25  1  0.82621000  0.67624000  0.18441000  1.0
  H  H26  1  0.12703000  0.42552000  0.93514000  1.0
  H  H27  1  0.30157000  0.07441000  0.43497000  1.0
  H  H28  1  0.81261000  0.92521000  0.56511000  1.0
  H  H29  1  0.48697000  0.57504000  0.06478000  1.0
  H  H30  1  0.46610000  0.27970000  0.98779000  1.0
  H  H31  1  0.49491000  0.22023000  0.48770000  1.0
  H  H32  1  0.20381000  0.77919000  0.51232000  1.0
  H  H33  1  0.73278000  0.72092000  0.01209000  1.0
  H  H34  1  0.27074000  0.00120000  0.89670000  1.0
  H  H35  1  0.02149000  0.49884000  0.39671000  1.0
  H  H36  1  0.91661000  0.50084000  0.60324000  1.0
  H  H37  1  0.16811000  0.99949000  0.10315000  1.0
  H  H38  1  0.91923000  0.13463000  0.83997000  1.0
  H  H39  1  0.80305000  0.36540000  0.33996000  1.0
  H  H40  1  0.50865000  0.63446000  0.66009000  1.0
  H  H41  1  0.89318000  0.86597000  0.15985000  1.0
  C  C42  1  0.93589000  0.83484000  0.89546000  1.0
  C  C43  1  0.52122000  0.66485000  0.39563000  1.0
  C  C44  1  0.58225000  0.33472000  0.60437000  1.0
  C  C45  1  0.66629000  0.16540000  0.10462000  1.0
  C  C46  1  0.08511000  0.72756000  0.85400000  1.0
  C  C47  1  0.56332000  0.77188000  0.35397000  1.0
  C  C48  1  0.68968000  0.22761000  0.64599000  1.0
  C  C49  1  0.66673000  0.27260000  0.14616000  1.0
  C  C50  1  0.31418000  0.66030000  0.87542000  1.0
  C  C51  1  0.72525000  0.83927000  0.37522000  1.0
  C  C52  1  0.94013000  0.16023000  0.62467000  1.0
  C  C53  1  0.84984000  0.33996000  0.12471000  1.0
  C  C54  1  0.44355000  0.55412000  0.84094000  1.0
  C  C55  1  0.74779000  0.94546000  0.34070000  1.0
  C  C56  1  0.03461000  0.05410000  0.65922000  1.0
  C  C57  1  0.83827000  0.44621000  0.15916000  1.0
  C  C58  1  0.34103000  0.51869000  0.78251000  1.0
  C  C59  1  0.60952000  0.98061000  0.28234000  1.0
  C  C60  1  0.87321000  0.01894000  0.71760000  1.0
  C  C61  1  0.64200000  0.48154000  0.21759000  1.0
  C  C62  1  0.11615000  0.58650000  0.76035000  1.0
  C  C63  1  0.45271000  0.91256000  0.26026000  1.0
  C  C64  1  0.62611000  0.08681000  0.73965000  1.0
  C  C65  1  0.46286000  0.41367000  0.23978000  1.0
  C  C66  1  0.98666000  0.69060000  0.79587000  1.0
  C  C67  1  0.42772000  0.80852000  0.29586000  1.0
  C  C68  1  0.53265000  0.19090000  0.70410000  1.0
  C  C69  1  0.47321000  0.30952000  0.20430000  1.0
  C  C70  1  0.66945000  0.48252000  0.86878000  1.0
  C  C71  1  0.90173000  0.01732000  0.36851000  1.0
  C  C72  1  0.28848000  0.98239000  0.63151000  1.0
  C  C73  1  0.02014000  0.51795000  0.13125000  1.0
  C  C74  1  0.77373000  0.36828000  0.85264000  1.0
  C  C75  1  0.89124000  0.13164000  0.35248000  1.0
  C  C76  1  0.37644000  0.86809000  0.64759000  1.0
  C  C77  1  0.99405000  0.63225000  0.14727000  1.0
  C  C78  1  0.98578000  0.29272000  0.88379000  1.0
  C  C79  1  0.02765000  0.20726000  0.38368000  1.0
  C  C80  1  0.61959000  0.79250000  0.61643000  1.0
  C  C81  1  0.16169000  0.70787000  0.11611000  1.0
  C  C82  1  0.14653000  0.33235000  0.92601000  1.0
  C  C83  1  0.22800000  0.16759000  0.42587000  1.0
  C  C84  1  0.82267000  0.83206000  0.57422000  1.0
  C  C85  1  0.40418000  0.66823000  0.07387000  1.0
  C  C86  1  0.33710000  0.25171000  0.95539000  1.0
  C  C87  1  0.33797000  0.24823000  0.45531000  1.0
  C  C88  1  0.04236000  0.75131000  0.54476000  1.0
  C  C89  1  0.54345000  0.74890000  0.04450000  1.0
  C  C90  1  0.22987000  0.09590000  0.90398000  1.0
  C  C91  1  0.07504000  0.40412000  0.40397000  1.0
  C  C92  1  0.88330000  0.59557000  0.59607000  1.0
  C  C93  1  0.22913000  0.90476000  0.09588000  1.0
  C  C94  1  0.03537000  0.17081000  0.87265000  1.0
  C  C95  1  0.95534000  0.32921000  0.37263000  1.0
  C  C96  1  0.65762000  0.67057000  0.62747000  1.0
  C  C97  1  0.07818000  0.82980000  0.12720000  1.0
  N  N98  1  0.37895000  0.13516000  0.94512000  1.0
  N  N99  1  0.26339000  0.36480000  0.44508000  1.0
  N  N100  1  0.07355000  0.63477000  0.55494000  1.0
  N  N101  1  0.45856000  0.86546000  0.05475000  1.0
  O  O102  1  0.73128000  0.89525000  0.87481000  1.0
  O  O103  1  0.37670000  0.60438000  0.37514000  1.0
  O  O104  1  0.35724000  0.39549000  0.62505000  1.0
  O  O105  1  0.50172000  0.10482000  0.12524000  1.0
  O  O106  1  0.02095000  0.85763000  0.95289000  1.0
  O  O107  1  0.62899000  0.64229000  0.45307000  1.0
  O  O108  1  0.72454000  0.35705000  0.54682000  1.0
  O  O109  1  0.83125000  0.14292000  0.04711000  1.0
