# generated using pymatgen
data_AlH4C4Br3N2
_symmetry_space_group_name_H-M   'P 1'
_cell_length_a   6.53737000
_cell_length_b   6.53762000
_cell_length_c   11.88180000
_cell_angle_alpha   77.25270000
_cell_angle_beta   77.25540000
_cell_angle_gamma   61.66160000
_symmetry_Int_Tables_number   1
_chemical_formula_structural   AlH4C4Br3N2
_chemical_formula_sum   'Al2 H8 C8 Br6 N4'
_cell_volume   431.95230739
_cell_formula_units_Z   2
loop_
 _symmetry_equiv_pos_site_id
 _symmetry_equiv_pos_as_xyz
  1  'x, y, z'
loop_
 _atom_site_type_symbol
 _atom_site_label
 _atom_site_symmetry_multiplicity
 _atom_site_fract_x
 _atom_site_fract_y
 _atom_site_fract_z
 _atom_site_occupancy
  Al  Al0  1  0.71041000  0.28958000  0.25000000  1.0
  Al  Al1  1  0.28958000  0.71042000  0.75000000  1.0
  H  H2  1  0.35473000  0.42305000  0.47060000  1.0
  H  H3  1  0.57700000  0.64523000  0.02939000  1.0
  H  H4  1  0.64525000  0.57696000  0.52942000  1.0
  H  H5  1  0.42307000  0.35470000  0.97059000  1.0
  H  H6  1  0.78258000  0.78053000  0.34738000  1.0
  H  H7  1  0.21954000  0.21734000  0.15262000  1.0
  H  H8  1  0.21739000  0.21951000  0.65264000  1.0
  H  H9  1  0.78051000  0.78260000  0.84737000  1.0
  C  C10  1  0.42104000  0.23328000  0.48374000  1.0
  C  C11  1  0.76673000  0.57894000  0.01625000  1.0
  C  C12  1  0.57890000  0.76679000  0.51627000  1.0
  C  C13  1  0.23331000  0.42103000  0.98373000  1.0
  C  C14  1  0.65595000  0.87962000  0.41537000  1.0
  C  C15  1  0.12041000  0.34401000  0.08463000  1.0
  C  C16  1  0.34406000  0.12038000  0.58461000  1.0
  C  C17  1  0.87964000  0.65594000  0.91537000  1.0
  Br  Br18  1  0.36203000  0.63800000  0.25000000  1.0
  Br  Br19  1  0.63800000  0.36204000  0.75001000  1.0
  Br  Br20  1  0.97631000  0.24961000  0.36752000  1.0
  Br  Br21  1  0.75042000  0.02366000  0.13248000  1.0
  Br  Br22  1  0.02363000  0.75044000  0.63248000  1.0
  Br  Br23  1  0.24952000  0.97635000  0.86752000  1.0
  N  N24  1  0.57675000  0.11387000  0.39858000  1.0
  N  N25  1  0.88618000  0.42319000  0.10143000  1.0
  N  N26  1  0.42321000  0.88616000  0.60143000  1.0
  N  N27  1  0.11385000  0.57677000  0.89857000  1.0
