# generated using pymatgen
data_LaH13C21(N3O10)2
_symmetry_space_group_name_H-M   'P 1'
_cell_length_a   9.49383000
_cell_length_b   12.08750000
_cell_length_c   14.11700000
_cell_angle_alpha   114.50600000
_cell_angle_beta   102.34300000
_cell_angle_gamma   97.41230000
_symmetry_Int_Tables_number   1
_chemical_formula_structural   LaH13C21(N3O10)2
_chemical_formula_sum   'La2 H26 C42 N12 O40'
_cell_volume   1396.16668110
_cell_formula_units_Z   2
loop_
 _symmetry_equiv_pos_site_id
 _symmetry_equiv_pos_as_xyz
  1  'x, y, z'
loop_
 _atom_site_type_symbol
 _atom_site_label
 _atom_site_symmetry_multiplicity
 _atom_site_fract_x
 _atom_site_fract_y
 _atom_site_fract_z
 _atom_site_occupancy
  La  La0  1  0.73075000  0.03559000  0.50835000  1.0
  La  La1  1  0.26925000  0.96441000  0.49165000  1.0
  H  H2  1  0.22942000  0.21939000  0.42671000  1.0
  H  H3  1  0.77057000  0.78061000  0.57329000  1.0
  H  H4  1  0.27914000  0.52867000  0.34724000  1.0
  H  H5  1  0.72086000  0.47133000  0.65276000  1.0
  H  H6  1  0.63798000  0.34623000  0.37390000  1.0
  H  H7  1  0.36202000  0.65377000  0.62610000  1.0
  H  H8  1  0.15446000  0.67799000  0.11184000  1.0
  H  H9  1  0.84554000  0.32201000  0.88816000  1.0
  H  H10  1  0.35255000  0.52917000  0.85118000  1.0
  H  H11  1  0.64745000  0.47083000  0.14882000  1.0
  H  H12  1  0.63063000  0.77324000  0.18112000  1.0
  H  H13  1  0.36937000  0.22675000  0.81888000  1.0
  H  H14  1  0.24874000  0.88443000  0.72991000  1.0
  H  H15  1  0.75125000  0.11557000  0.27009000  1.0
  H  H16  1  0.27136000  0.04262000  0.07109000  1.0
  H  H17  1  0.72864000  0.95738000  0.92891000  1.0
  H  H18  1  0.96742000  0.12866000  0.85092000  1.0
  H  H19  1  0.03258000  0.87134000  0.14908000  1.0
  H  H20  1  0.71498000  0.74676000  0.37677000  1.0
  H  H21  1  0.28502000  0.25323000  0.62323000  1.0
  H  H22  1  0.96403000  0.32354000  0.67224000  1.0
  H  H23  1  0.03597000  0.67645000  0.32776000  1.0
  H  H24  1  0.89156000  0.79349000  0.41888000  1.0
  H  H25  1  0.10843000  0.20651000  0.58112000  1.0
  H  H26  1  0.92257000  0.29861000  0.55035000  1.0
  H  H27  1  0.07743000  0.70139000  0.44965000  1.0
  C  C28  1  0.51097000  0.18181000  0.43252000  1.0
  C  C29  1  0.48903000  0.81820000  0.56748000  1.0
  C  C30  1  0.44025000  0.27156000  0.40177000  1.0
  C  C31  1  0.55975000  0.72844000  0.59823000  1.0
  C  C32  1  0.29578000  0.28048000  0.40500000  1.0
  C  C33  1  0.70421000  0.71952000  0.59500000  1.0
  C  C34  1  0.24091000  0.37313000  0.38549000  1.0
  C  C35  1  0.75908000  0.62688000  0.61451000  1.0
  C  C36  1  0.32343000  0.45658000  0.36162000  1.0
  C  C37  1  0.67657000  0.54342000  0.63838000  1.0
  C  C38  1  0.46595000  0.44357000  0.35750000  1.0
  C  C39  1  0.53405000  0.55643000  0.64249000  1.0
  C  C40  1  0.52557000  0.35279000  0.37656000  1.0
  C  C41  1  0.47443000  0.64721000  0.62344000  1.0
  C  C42  1  0.41726000  0.82207000  0.27800000  1.0
  C  C43  1  0.58274000  0.17793000  0.72201000  1.0
  C  C44  1  0.39479000  0.73631000  0.15899000  1.0
  C  C45  1  0.60521000  0.26369000  0.84100000  1.0
  C  C46  1  0.25344000  0.67146000  0.08481000  1.0
  C  C47  1  0.74656000  0.32854000  0.91520000  1.0
  C  C48  1  0.24202000  0.59727000  0.97552000  1.0
  C  C49  1  0.75798000  0.40272000  0.02448000  1.0
  C  C50  1  0.36543000  0.58594000  0.93709000  1.0
  C  C51  1  0.63457000  0.41406000  0.06292000  1.0
  C  C52  1  0.50399000  0.64949000  0.01363000  1.0
  C  C53  1  0.49601000  0.35051000  0.98637000  1.0
  C  C54  1  0.52081000  0.72369000  0.12328000  1.0
  C  C55  1  0.47919000  0.27631000  0.87672000  1.0
  C  C56  1  0.04167000  0.99898000  0.66927000  1.0
  C  C57  1  0.95833000  0.00102000  0.33073000  1.0
  C  C58  1  0.10395000  0.00791000  0.78010000  1.0
  C  C59  1  0.89605000  0.99209000  0.21990000  1.0
  C  C60  1  0.21090000  0.94326000  0.79711000  1.0
  C  C61  1  0.78910000  0.05674000  0.20289000  1.0
  C  C62  1  0.26623000  0.95516000  0.90137000  1.0
  C  C63  1  0.73377000  0.04484000  0.09863000  1.0
  C  C64  1  0.22440000  0.03300000  0.99006000  1.0
  C  C65  1  0.77561000  0.96700000  0.00994000  1.0
  C  C66  1  0.11629000  0.09414000  0.96938000  1.0
  C  C67  1  0.88372000  0.90586000  0.03062000  1.0
  C  C68  1  0.05334000  0.08134000  0.86564000  1.0
  C  C69  1  0.94666000  0.91866000  0.13436000  1.0
  N  N70  1  0.56089000  0.53283000  0.33834000  1.0
  N  N71  1  0.43911000  0.46717000  0.66166000  1.0
  N  N72  1  0.09009000  0.38506000  0.39217000  1.0
  N  N73  1  0.90991000  0.61494000  0.60783000  1.0
  N  N74  1  0.63800000  0.63958000  0.97793000  1.0
  N  N75  1  0.36200000  0.36042000  0.02207000  1.0
  N  N76  1  0.09500000  0.52511000  0.89608000  1.0
  N  N77  1  0.90500000  0.47488000  0.10392000  1.0
  N  N78  1  0.36937000  0.88006000  0.91921000  1.0
  N  N79  1  0.63063000  0.11994000  0.08079000  1.0
  N  N80  1  0.06255000  0.17114000  0.05944000  1.0
  N  N81  1  0.93745000  0.82886000  0.94056000  1.0
  O  O82  1  0.64710000  0.18841000  0.43822000  1.0
  O  O83  1  0.35290000  0.81160000  0.56178000  1.0
  O  O84  1  0.43324000  0.10614000  0.45386000  1.0
  O  O85  1  0.56676000  0.89386000  0.54614000  1.0
  O  O86  1  0.68508000  0.51661000  0.33048000  1.0
  O  O87  1  0.31492000  0.48338000  0.66952000  1.0
  O  O88  1  0.51406000  0.62258000  0.33375000  1.0
  O  O89  1  0.48594000  0.37742000  0.66625000  1.0
  O  O90  1  0.04786000  0.47395000  0.38305000  1.0
  O  O91  1  0.95214000  0.52606000  0.61695000  1.0
  O  O92  1  0.01467000  0.30518000  0.40679000  1.0
  O  O93  1  0.98533000  0.69482000  0.59321000  1.0
  O  O94  1  0.54724000  0.89252000  0.33099000  1.0
  O  O95  1  0.45276000  0.10748000  0.66901000  1.0
  O  O96  1  0.30762000  0.81792000  0.31518000  1.0
  O  O97  1  0.69238000  0.18208000  0.68482000  1.0
  O  O98  1  0.75852000  0.67187000  0.04926000  1.0
  O  O99  1  0.24148000  0.32814000  0.95074000  1.0
  O  O100  1  0.62394000  0.60020000  0.87934000  1.0
  O  O101  1  0.37606000  0.39980000  0.12066000  1.0
  O  O102  1  0.09455000  0.44479000  0.80497000  1.0
  O  O103  1  0.90545000  0.55521000  0.19502000  1.0
  O  O104  1  0.98256000  0.54649000  0.92328000  1.0
  O  O105  1  0.01744000  0.45350000  0.07672000  1.0
  O  O106  1  0.92616000  0.03896000  0.65446000  1.0
  O  O107  1  0.07384000  0.96104000  0.34554000  1.0
  O  O108  1  0.10880000  0.95265000  0.59936000  1.0
  O  O109  1  0.89120000  0.04735000  0.40064000  1.0
  O  O110  1  0.40535000  0.80921000  0.84041000  1.0
  O  O111  1  0.59465000  0.19079000  0.15959000  1.0
  O  O112  1  0.41405000  0.89147000  0.01297000  1.0
  O  O113  1  0.58595000  0.10853000  0.98703000  1.0
  O  O114  1  0.13102000  0.19319000  0.15313000  1.0
  O  O115  1  0.86899000  0.80682000  0.84687000  1.0
  O  O116  1  0.94885000  0.20605000  0.03581000  1.0
  O  O117  1  0.05115000  0.79395000  0.96419000  1.0
  O  O118  1  0.79790000  0.81912000  0.42687000  1.0
  O  O119  1  0.20210000  0.18088000  0.57313000  1.0
  O  O120  1  0.94071000  0.25731000  0.59683000  1.0
  O  O121  1  0.05929000  0.74269000  0.40317000  1.0
