# generated using pymatgen
data_CoH9C15N5O4
_symmetry_space_group_name_H-M   'P 1'
_cell_length_a   9.86391000
_cell_length_b   11.78130000
_cell_length_c   17.37380000
_cell_angle_alpha   90.00640000
_cell_angle_beta   90.00830000
_cell_angle_gamma   80.60090000
_symmetry_Int_Tables_number   1
_chemical_formula_structural   CoH9C15N5O4
_chemical_formula_sum   'Co4 H36 C60 N20 O16'
_cell_volume   1991.89808260
_cell_formula_units_Z   4
loop_
 _symmetry_equiv_pos_site_id
 _symmetry_equiv_pos_as_xyz
  1  'x, y, z'
loop_
 _atom_site_type_symbol
 _atom_site_label
 _atom_site_symmetry_multiplicity
 _atom_site_fract_x
 _atom_site_fract_y
 _atom_site_fract_z
 _atom_site_occupancy
  Co  Co0  1  0.44917000  0.65712000  0.54370000  1.0
  Co  Co1  1  0.05083000  0.84304000  0.04367000  1.0
  Co  Co2  1  0.55083000  0.34287000  0.45630000  1.0
  Co  Co3  1  0.94925000  0.15687000  0.95627000  1.0
  H  H4  1  0.59168000  0.84740000  0.04823000  1.0
  H  H5  1  0.90833000  0.65255000  0.54822000  1.0
  H  H6  1  0.40828000  0.15264000  0.95179000  1.0
  H  H7  1  0.09167000  0.34741000  0.45179000  1.0
  H  H8  1  0.34079000  0.70176000  0.21159000  1.0
  H  H9  1  0.15922000  0.79830000  0.71159000  1.0
  H  H10  1  0.65919000  0.29824000  0.78841000  1.0
  H  H11  1  0.84077000  0.20172000  0.28840000  1.0
  H  H12  1  0.77398000  0.69416000  0.25668000  1.0
  H  H13  1  0.72606000  0.80582000  0.75669000  1.0
  H  H14  1  0.22602000  0.30584000  0.74331000  1.0
  H  H15  1  0.27394000  0.19417000  0.24332000  1.0
  H  H16  1  0.72442000  0.45345000  0.24831000  1.0
  H  H17  1  0.77558000  0.04659000  0.74830000  1.0
  H  H18  1  0.27560000  0.54654000  0.75170000  1.0
  H  H19  1  0.22438000  0.95345000  0.25171000  1.0
  H  H20  1  0.55615000  0.45223000  0.21300000  1.0
  H  H21  1  0.94385000  0.04776000  0.71299000  1.0
  H  H22  1  0.44387000  0.54775000  0.78700000  1.0
  H  H23  1  0.05612000  0.95224000  0.28700000  1.0
  H  H24  1  0.62403000  0.35069000  0.28521000  1.0
  H  H25  1  0.87603000  0.14934000  0.78520000  1.0
  H  H26  1  0.37599000  0.64930000  0.71480000  1.0
  H  H27  1  0.12399000  0.85067000  0.21480000  1.0
  H  H28  1  0.46680000  0.89556000  0.29706000  1.0
  H  H29  1  0.03322000  0.60445000  0.79707000  1.0
  H  H30  1  0.53320000  0.10443000  0.70294000  1.0
  H  H31  1  0.96676000  0.39558000  0.20293000  1.0
  H  H32  1  0.29260000  0.09883000  0.47786000  1.0
  H  H33  1  0.20743000  0.40119000  0.97787000  1.0
  H  H34  1  0.70737000  0.90116000  0.52214000  1.0
  H  H35  1  0.79266000  0.59881000  0.02209000  1.0
  H  H36  1  0.32323000  0.92236000  0.56576000  1.0
  H  H37  1  0.17677000  0.57766000  0.06578000  1.0
  H  H38  1  0.67675000  0.07763000  0.43425000  1.0
  H  H39  1  0.82331000  0.42232000  0.93420000  1.0
  C  C40  1  0.32713000  0.81466000  0.07632000  1.0
  C  C41  1  0.17289000  0.68537000  0.57631000  1.0
  C  C42  1  0.67285000  0.18539000  0.92370000  1.0
  C  C43  1  0.82711000  0.31463000  0.42369000  1.0
  C  C44  1  0.83865000  0.79099000  0.12707000  1.0
  C  C45  1  0.66137000  0.70899000  0.62708000  1.0
  C  C46  1  0.16134000  0.20905000  0.87293000  1.0
  C  C47  1  0.33862000  0.29100000  0.37293000  1.0
  C  C48  1  0.58221000  0.80281000  0.10243000  1.0
  C  C49  1  0.91781000  0.69716000  0.60243000  1.0
  C  C50  1  0.41777000  0.19723000  0.89758000  1.0
  C  C51  1  0.08219000  0.30281000  0.39758000  1.0
  C  C52  1  0.45344000  0.77885000  0.12501000  1.0
  C  C53  1  0.04659000  0.72116000  0.62501000  1.0
  C  C54  1  0.54656000  0.22118000  0.87500000  1.0
  C  C55  1  0.95341000  0.27883000  0.37499000  1.0
  C  C56  1  0.69727000  0.77086000  0.14955000  1.0
  C  C57  1  0.80274000  0.72910000  0.64955000  1.0
  C  C58  1  0.30270000  0.22917000  0.85046000  1.0
  C  C59  1  0.19725000  0.27087000  0.35046000  1.0
  C  C60  1  0.44047000  0.72211000  0.19472000  1.0
  C  C61  1  0.05955000  0.77791000  0.69472000  1.0
  C  C62  1  0.55952000  0.27790000  0.80529000  1.0
  C  C63  1  0.94045000  0.22209000  0.30528000  1.0
  C  C64  1  0.68356000  0.71711000  0.22038000  1.0
  C  C65  1  0.81646000  0.78288000  0.72038000  1.0
  C  C66  1  0.31642000  0.28290000  0.77962000  1.0
  C  C67  1  0.18354000  0.21711000  0.27962000  1.0
  C  C68  1  0.55524000  0.69364000  0.24185000  1.0
  C  C69  1  0.94478000  0.80638000  0.74186000  1.0
  C  C70  1  0.44475000  0.30636000  0.75815000  1.0
  C  C71  1  0.05522000  0.19362000  0.25815000  1.0
  C  C72  1  0.62120000  0.43845000  0.26458000  1.0
  C  C73  1  0.87884000  0.06156000  0.76459000  1.0
  C  C74  1  0.37881000  0.56154000  0.73543000  1.0
  C  C75  1  0.12116000  0.93845000  0.23542000  1.0
  C  C76  1  0.56540000  0.52017000  0.32554000  1.0
  C  C77  1  0.93467000  0.97989000  0.82558000  1.0
  C  C78  1  0.43461000  0.47983000  0.67446000  1.0
  C  C79  1  0.06532000  0.02012000  0.17442000  1.0
  C  C80  1  0.49049000  0.68533000  0.38199000  1.0
  C  C81  1  0.00950000  0.81472000  0.88199000  1.0
  C  C82  1  0.50951000  0.31467000  0.61801000  1.0
  C  C83  1  0.99047000  0.18527000  0.11799000  1.0
  C  C84  1  0.44463000  0.80391000  0.40393000  1.0
  C  C85  1  0.05536000  0.69615000  0.90394000  1.0
  C  C86  1  0.55536000  0.19609000  0.59607000  1.0
  C  C87  1  0.94462000  0.30387000  0.09605000  1.0
  C  C88  1  0.43271000  0.90172000  0.35689000  1.0
  C  C89  1  0.06731000  0.59829000  0.85689000  1.0
  C  C90  1  0.56729000  0.09827000  0.64312000  1.0
  C  C91  1  0.93269000  0.40171000  0.14309000  1.0
  C  C92  1  0.33739000  0.01346000  0.45689000  1.0
  C  C93  1  0.16264000  0.48654000  0.95688000  1.0
  C  C94  1  0.66258000  0.98653000  0.54312000  1.0
  C  C95  1  0.83745000  0.51344000  0.04307000  1.0
  C  C96  1  0.35331000  0.91756000  0.50532000  1.0
  C  C97  1  0.14669000  0.58245000  0.00533000  1.0
  C  C98  1  0.64668000  0.08242000  0.49468000  1.0
  C  C99  1  0.85338000  0.41753000  0.99464000  1.0
  N  N100  1  0.53936000  0.63702000  0.31382000  1.0
  N  N101  1  0.96068000  0.86303000  0.81383000  1.0
  N  N102  1  0.46064000  0.36297000  0.68618000  1.0
  N  N103  1  0.03931000  0.13696000  0.18617000  1.0
  N  N104  1  0.53302000  0.49883000  0.39811000  1.0
  N  N105  1  0.96702000  0.00117000  0.89818000  1.0
  N  N106  1  0.46700000  0.50117000  0.60189000  1.0
  N  N107  1  0.03297000  0.99884000  0.10181000  1.0
  N  N108  1  0.48639000  0.60178000  0.43303000  1.0
  N  N109  1  0.01354000  0.89831000  0.93302000  1.0
  N  N110  1  0.51362000  0.39821000  0.56697000  1.0
  N  N111  1  0.98644000  0.10167000  0.06696000  1.0
  N  N112  1  0.40723000  0.81322000  0.47910000  1.0
  N  N113  1  0.09281000  0.68683000  0.97911000  1.0
  N  N114  1  0.59276000  0.18677000  0.52091000  1.0
  N  N115  1  0.90722000  0.31317000  0.02088000  1.0
  N  N116  1  0.37874000  0.00603000  0.38312000  1.0
  N  N117  1  0.12129000  0.49399000  0.88311000  1.0
  N  N118  1  0.62125000  0.99396000  0.61688000  1.0
  N  N119  1  0.87874000  0.50602000  0.11685000  1.0
  O  O120  1  0.32812000  0.87960000  0.01981000  1.0
  O  O121  1  0.17187000  0.62039000  0.51982000  1.0
  O  O122  1  0.67182000  0.12044000  0.98021000  1.0
  O  O123  1  0.82813000  0.37962000  0.48017000  1.0
  O  O124  1  0.21954000  0.77361000  0.09999000  1.0
  O  O125  1  0.28046000  0.72649000  0.59998000  1.0
  O  O126  1  0.78045000  0.22643000  0.90004000  1.0
  O  O127  1  0.71954000  0.27349000  0.40003000  1.0
  O  O128  1  0.85878000  0.80860000  0.05464000  1.0
  O  O129  1  0.64125000  0.69141000  0.55463000  1.0
  O  O130  1  0.14121000  0.19148000  0.94538000  1.0
  O  O131  1  0.35875000  0.30857000  0.44538000  1.0
  O  O132  1  0.93002000  0.78819000  0.17731000  1.0
  O  O133  1  0.57002000  0.71179000  0.67731000  1.0
  O  O134  1  0.06998000  0.21177000  0.82271000  1.0
  O  O135  1  0.42998000  0.28822000  0.32271000  1.0
