# generated using pymatgen
data_CuH14C15(N3O)2
_symmetry_space_group_name_H-M   'P 1'
_cell_length_a   8.51590000
_cell_length_b   8.55781000
_cell_length_c   11.70150000
_cell_angle_alpha   75.34450000
_cell_angle_beta   77.20740000
_cell_angle_gamma   74.72340000
_symmetry_Int_Tables_number   1
_chemical_formula_structural   CuH14C15(N3O)2
_chemical_formula_sum   'Cu2 H28 C30 N12 O4'
_cell_volume   784.85903285
_cell_formula_units_Z   2
loop_
 _symmetry_equiv_pos_site_id
 _symmetry_equiv_pos_as_xyz
  1  'x, y, z'
loop_
 _atom_site_type_symbol
 _atom_site_label
 _atom_site_symmetry_multiplicity
 _atom_site_fract_x
 _atom_site_fract_y
 _atom_site_fract_z
 _atom_site_occupancy
  Cu  Cu0  1  0.99999000  1.00000000  0.00001000  1.0
  Cu  Cu1  1  0.00000000  0.00000000  0.50000000  1.0
  H  H2  1  0.05323000  0.33820000  0.92929000  1.0
  H  H3  1  0.94677000  0.66179000  0.07071000  1.0
  H  H4  1  0.89228000  0.62416000  0.85203000  1.0
  H  H5  1  0.10772000  0.37582000  0.14796000  1.0
  H  H6  1  0.47678000  0.40745000  0.88702000  1.0
  H  H7  1  0.52321000  0.59255000  0.11298000  1.0
  H  H8  1  0.65412000  0.13169000  0.95818000  1.0
  H  H9  1  0.34586000  0.86832000  0.04183000  1.0
  H  H10  1  0.60758000  0.79901000  0.84898000  1.0
  H  H11  1  0.39241000  0.20099000  0.15100000  1.0
  H  H12  1  0.44125000  0.71259000  0.84468000  1.0
  H  H13  1  0.55874000  0.28741000  0.15532000  1.0
  H  H14  1  0.54180000  0.89362000  0.65384000  1.0
  H  H15  1  0.45819000  0.10639000  0.34615000  1.0
  H  H16  1  0.73399000  0.75449000  0.64136000  1.0
  H  H17  1  0.26601000  0.24552000  0.35864000  1.0
  H  H18  1  0.51483000  0.75230000  0.52107000  1.0
  H  H19  1  0.48523000  0.24770000  0.47889000  1.0
  H  H20  1  0.40793000  0.65277000  0.65603000  1.0
  H  H21  1  0.59205000  0.34727000  0.34392000  1.0
  H  H22  1  0.82065000  0.62191000  0.45273000  1.0
  H  H23  1  0.17938000  0.37809000  0.54729000  1.0
  H  H24  1  0.99532000  0.35279000  0.40958000  1.0
  H  H25  1  0.00471000  0.64721000  0.59046000  1.0
  H  H26  1  0.67496000  0.09006000  0.65274000  1.0
  H  H27  1  0.32504000  0.90994000  0.34725000  1.0
  H  H28  1  0.48253000  0.34633000  0.69863000  1.0
  H  H29  1  0.51746000  0.65367000  0.30136000  1.0
  C  C30  1  0.03327000  0.07739000  0.23820000  1.0
  C  C31  1  0.96674000  0.92261000  0.76180000  1.0
  C  C32  1  0.89441000  0.99533000  0.25322000  1.0
  C  C33  1  0.10558000  0.00469000  0.74679000  1.0
  C  C34  1  0.92553000  0.36019000  0.91679000  1.0
  C  C35  1  0.07447000  0.63980000  0.08321000  1.0
  C  C36  1  0.83643000  0.51716000  0.87338000  1.0
  C  C37  1  0.16356000  0.48283000  0.12661000  1.0
  C  C38  1  0.67173000  0.53917000  0.86000000  1.0
  C  C39  1  0.32827000  0.46083000  0.13999000  1.0
  C  C40  1  0.60499000  0.39813000  0.89271000  1.0
  C  C41  1  0.39499000  0.60188000  0.10728000  1.0
  C  C42  1  0.70181000  0.24411000  0.93388000  1.0
  C  C43  1  0.29818000  0.75589000  0.06613000  1.0
  C  C44  1  0.57365000  0.70788000  0.81275000  1.0
  C  C45  1  0.42635000  0.29212000  0.18724000  1.0
  C  C46  1  0.60197000  0.76191000  0.67543000  1.0
  C  C47  1  0.39802000  0.23809000  0.32456000  1.0
  C  C48  1  0.53094000  0.67020000  0.60851000  1.0
  C  C49  1  0.46907000  0.32981000  0.39147000  1.0
  C  C50  1  0.63854000  0.50839000  0.58392000  1.0
  C  C51  1  0.36147000  0.49160000  0.41608000  1.0
  C  C52  1  0.78516000  0.50636000  0.50048000  1.0
  C  C53  1  0.21486000  0.49363000  0.49954000  1.0
  C  C54  1  0.88320000  0.35753000  0.47596000  1.0
  C  C55  1  0.11683000  0.64247000  0.52407000  1.0
  C  C56  1  0.70360000  0.21031000  0.61080000  1.0
  C  C57  1  0.29642000  0.78968000  0.38920000  1.0
  C  C58  1  0.59797000  0.35531000  0.63746000  1.0
  C  C59  1  0.40202000  0.64468000  0.36253000  1.0
  N  N60  1  0.85105000  0.96389000  0.15860000  1.0
  N  N61  1  0.14896000  0.03610000  0.84141000  1.0
  N  N62  1  0.72372000  0.88953000  0.20152000  1.0
  N  N63  1  0.27627000  0.11046000  0.79850000  1.0
  N  N64  1  0.69102000  0.87704000  0.31979000  1.0
  N  N65  1  0.30898000  0.12296000  0.68023000  1.0
  N  N66  1  0.79655000  0.94227000  0.35452000  1.0
  N  N67  1  0.20346000  0.05774000  0.64549000  1.0
  N  N68  1  0.85942000  0.22564000  0.94592000  1.0
  N  N69  1  0.14056000  0.77436000  0.05408000  1.0
  N  N70  1  0.84516000  0.21048000  0.53176000  1.0
  N  N71  1  0.15485000  0.78952000  0.46825000  1.0
  O  O72  1  0.11155000  0.11422000  0.13425000  1.0
  O  O73  1  0.88842000  0.88580000  0.86575000  1.0
  O  O74  1  0.06578000  0.10927000  0.33136000  1.0
  O  O75  1  0.93422000  0.89073000  0.66865000  1.0
