# generated using pymatgen
data_MnH16C24(NO2)2
_symmetry_space_group_name_H-M   'P 1'
_cell_length_a   8.38996000
_cell_length_b   11.97140000
_cell_length_c   11.97280000
_cell_angle_alpha   77.50040000
_cell_angle_beta   75.50080000
_cell_angle_gamma   75.50050000
_symmetry_Int_Tables_number   1
_chemical_formula_structural   MnH16C24(NO2)2
_chemical_formula_sum   'Mn2 H32 C48 N4 O8'
_cell_volume   1111.89480098
_cell_formula_units_Z   2
loop_
 _symmetry_equiv_pos_site_id
 _symmetry_equiv_pos_as_xyz
  1  'x, y, z'
loop_
 _atom_site_type_symbol
 _atom_site_label
 _atom_site_symmetry_multiplicity
 _atom_site_fract_x
 _atom_site_fract_y
 _atom_site_fract_z
 _atom_site_occupancy
  Mn  Mn0  1  0.25005000  0.42252000  0.57752000  1.0
  Mn  Mn1  1  0.75004000  0.58847000  0.41153000  1.0
  H  H2  1  0.76559000  0.44829000  0.13083000  1.0
  H  H3  1  0.73443000  0.86911000  0.55168000  1.0
  H  H4  1  0.23525000  0.55534000  0.86330000  1.0
  H  H5  1  0.26469000  0.13680000  0.44468000  1.0
  H  H6  1  0.54981000  0.23707000  0.98328000  1.0
  H  H7  1  0.95022000  0.01673000  0.76285000  1.0
  H  H8  1  0.43072000  0.76095000  0.03163000  1.0
  H  H9  1  0.06933000  0.96837000  0.23908000  1.0
  H  H10  1  0.32275000  0.22748000  0.16304000  1.0
  H  H11  1  0.17724000  0.83694000  0.77250000  1.0
  H  H12  1  0.66596000  0.77613000  0.85879000  1.0
  H  H13  1  0.83407000  0.14125000  0.22383000  1.0
  H  H14  1  0.31799000  0.33095000  0.32457000  1.0
  H  H15  1  0.18197000  0.67535000  0.66905000  1.0
  H  H16  1  0.68395000  0.67995000  0.68844000  1.0
  H  H17  1  0.81608000  0.31168000  0.32000000  1.0
  H  H18  1  0.22411000  0.36443000  0.85021000  1.0
  H  H19  1  0.27586000  0.14978000  0.63558000  1.0
  H  H20  1  0.75452000  0.64665000  0.15159000  1.0
  H  H21  1  0.74542000  0.84844000  0.35347000  1.0
  H  H22  1  0.00703000  0.33311000  0.03437000  1.0
  H  H23  1  0.49292000  0.96561000  0.66688000  1.0
  H  H24  1  0.97445000  0.66711000  0.97057000  1.0
  H  H25  1  0.52550000  0.02950000  0.33301000  1.0
  H  H26  1  0.64808000  0.37653000  0.81695000  1.0
  H  H27  1  0.85191000  0.18305000  0.62344000  1.0
  H  H28  1  0.33059000  0.62312000  0.18990000  1.0
  H  H29  1  0.16942000  0.81010000  0.37682000  1.0
  H  H30  1  0.87721000  0.41112000  0.64315000  1.0
  H  H31  1  0.62276000  0.35689000  0.58887000  1.0
  H  H32  1  0.10427000  0.59393000  0.36053000  1.0
  H  H33  1  0.39573000  0.63948000  0.40604000  1.0
  C  C34  1  0.53307000  0.46022000  0.33288000  1.0
  C  C35  1  0.96692000  0.66707000  0.53973000  1.0
  C  C36  1  0.47564000  0.55008000  0.66579000  1.0
  C  C37  1  0.02439000  0.33425000  0.44994000  1.0
  C  C38  1  0.54090000  0.39587000  0.23700000  1.0
  C  C39  1  0.95911000  0.76296000  0.60409000  1.0
  C  C40  1  0.46168000  0.61188000  0.76632000  1.0
  C  C41  1  0.03829000  0.23374000  0.38812000  1.0
  C  C42  1  0.66970000  0.39908000  0.13731000  1.0
  C  C43  1  0.83033000  0.86266000  0.60088000  1.0
  C  C44  1  0.32799000  0.60474000  0.86331000  1.0
  C  C45  1  0.17196000  0.13673000  0.39527000  1.0
  C  C46  1  0.67364000  0.34282000  0.04548000  1.0
  C  C47  1  0.82636000  0.95450000  0.65714000  1.0
  C  C48  1  0.31431000  0.65784000  0.95987000  1.0
  C  C49  1  0.18567000  0.04017000  0.34218000  1.0
  C  C50  1  0.54670000  0.28183000  0.05438000  1.0
  C  C51  1  0.95332000  0.94560000  0.71812000  1.0
  C  C52  1  0.43939000  0.71861000  0.95756000  1.0
  C  C53  1  0.06063000  0.04247000  0.28138000  1.0
  C  C54  1  0.41970000  0.27648000  0.15491000  1.0
  C  C55  1  0.08033000  0.84506000  0.72346000  1.0
  C  C56  1  0.57137000  0.72731000  0.86052000  1.0
  C  C57  1  0.92866000  0.13954000  0.27265000  1.0
  C  C58  1  0.41616000  0.33355000  0.24576000  1.0
  C  C59  1  0.08384000  0.75420000  0.66642000  1.0
  C  C60  1  0.58257000  0.67434000  0.76503000  1.0
  C  C61  1  0.91743000  0.23506000  0.32562000  1.0
  C  C62  1  0.09435000  0.36617000  0.84765000  1.0
  C  C63  1  0.40564000  0.15234000  0.63382000  1.0
  C  C64  1  0.88414000  0.64168000  0.15618000  1.0
  C  C65  1  0.61583000  0.84385000  0.35839000  1.0
  C  C66  1  0.97340000  0.34934000  0.94916000  1.0
  C  C67  1  0.52658000  0.05081000  0.65065000  1.0
  C  C68  1  0.00869000  0.65269000  0.05542000  1.0
  C  C69  1  0.49128000  0.94463000  0.34742000  1.0
  C  C70  1  0.80826000  0.35255000  0.94059000  1.0
  C  C71  1  0.69174000  0.05939000  0.64743000  1.0
  C  C72  1  0.17525000  0.64804000  0.06271000  1.0
  C  C73  1  0.32472000  0.93731000  0.35201000  1.0
  C  C74  1  0.77465000  0.37125000  0.82840000  1.0
  C  C75  1  0.72534000  0.17160000  0.62874000  1.0
  C  C76  1  0.20461000  0.63068000  0.17623000  1.0
  C  C77  1  0.29541000  0.82377000  0.36932000  1.0
  C  C78  1  0.90176000  0.39019000  0.73138000  1.0
  C  C79  1  0.59825000  0.26862000  0.60979000  1.0
  C  C80  1  0.07705000  0.61569000  0.27329000  1.0
  C  C81  1  0.42301000  0.72671000  0.38429000  1.0
  N  N82  1  0.05954000  0.38759000  0.74033000  1.0
  N  N83  1  0.44047000  0.25966000  0.61239000  1.0
  N  N84  1  0.91534000  0.62202000  0.26586000  1.0
  N  N85  1  0.58471000  0.73414000  0.37797000  1.0
  O  O86  1  0.40334000  0.46785000  0.41407000  1.0
  O  O87  1  0.09664000  0.58586000  0.53212000  1.0
  O  O88  1  0.59727000  0.55686000  0.57855000  1.0
  O  O89  1  0.90274000  0.42151000  0.44309000  1.0
  O  O90  1  0.65895000  0.50744000  0.32251000  1.0
  O  O91  1  0.84110000  0.67744000  0.49251000  1.0
  O  O92  1  0.36307000  0.49097000  0.67959000  1.0
  O  O93  1  0.13691000  0.32045000  0.50906000  1.0
