# generated using pymatgen
data_CdH7C3N(ClO)2
_symmetry_space_group_name_H-M   'P 1'
_cell_length_a   6.80766000
_cell_length_b   7.74582000
_cell_length_c   13.26630000
_cell_angle_alpha   90.00000000
_cell_angle_beta   89.99990000
_cell_angle_gamma   89.99950000
_symmetry_Int_Tables_number   1
_chemical_formula_structural   CdH7C3N(ClO)2
_chemical_formula_sum   'Cd4 H28 C12 N4 Cl8 O8'
_cell_volume   699.54405779
_cell_formula_units_Z   4
loop_
 _symmetry_equiv_pos_site_id
 _symmetry_equiv_pos_as_xyz
  1  'x, y, z'
loop_
 _atom_site_type_symbol
 _atom_site_label
 _atom_site_symmetry_multiplicity
 _atom_site_fract_x
 _atom_site_fract_y
 _atom_site_fract_z
 _atom_site_occupancy
  Cd  Cd0  1  0.17630000  0.14897000  0.27865000  1.0
  Cd  Cd1  1  0.82370000  0.64898000  0.72136000  1.0
  Cd  Cd2  1  0.32371000  0.64898000  0.77864000  1.0
  Cd  Cd3  1  0.67630000  0.14896000  0.22136000  1.0
  H  H4  1  0.47841000  0.16592000  0.97411000  1.0
  H  H5  1  0.52158000  0.66590000  0.02590000  1.0
  H  H6  1  0.02159000  0.66593000  0.47410000  1.0
  H  H7  1  0.97842000  0.16590000  0.52590000  1.0
  H  H8  1  0.34617000  0.33755000  0.93915000  1.0
  H  H9  1  0.65382000  0.83753000  0.06085000  1.0
  H  H10  1  0.15383000  0.83757000  0.43915000  1.0
  H  H11  1  0.84618000  0.33756000  0.56086000  1.0
  H  H12  1  0.27823000  0.22445000  0.04111000  1.0
  H  H13  1  0.72175000  0.72445000  0.95889000  1.0
  H  H14  1  0.22177000  0.72445000  0.54111000  1.0
  H  H15  1  0.77823000  0.22446000  0.45888000  1.0
  H  H16  1  0.95852000  0.28053000  0.89105000  1.0
  H  H17  1  0.04147000  0.78052000  0.10895000  1.0
  H  H18  1  0.54147000  0.78054000  0.39106000  1.0
  H  H19  1  0.45853000  0.28055000  0.60896000  1.0
  H  H20  1  0.89846000  0.06317000  0.87377000  1.0
  H  H21  1  0.10154000  0.56316000  0.12621000  1.0
  H  H22  1  0.60154000  0.56320000  0.37377000  1.0
  H  H23  1  0.39847000  0.06318000  0.62624000  1.0
  H  H24  1  0.24572000  0.10945000  0.82931000  1.0
  H  H25  1  0.75429000  0.60942000  0.17069000  1.0
  H  H26  1  0.25429000  0.60947000  0.32931000  1.0
  H  H27  1  0.74573000  0.10944000  0.67069000  1.0
  H  H28  1  0.22924000  0.96897000  0.93441000  1.0
  H  H29  1  0.77078000  0.46897000  0.06557000  1.0
  H  H30  1  0.27078000  0.46900000  0.43440000  1.0
  H  H31  1  0.72921000  0.96900000  0.56559000  1.0
  C  C32  1  0.91280000  0.14377000  0.02887000  1.0
  C  C33  1  0.08721000  0.64379000  0.97112000  1.0
  C  C34  1  0.58721000  0.64377000  0.52888000  1.0
  C  C35  1  0.41278000  0.14377000  0.47113000  1.0
  C  C36  1  0.98678000  0.14990000  0.92092000  1.0
  C  C37  1  0.01322000  0.64991000  0.07908000  1.0
  C  C38  1  0.51322000  0.64992000  0.42093000  1.0
  C  C39  1  0.48679000  0.14989000  0.57906000  1.0
  C  C40  1  0.20242000  0.10132000  0.90853000  1.0
  C  C41  1  0.79758000  0.60132000  0.09145000  1.0
  C  C42  1  0.29758000  0.60134000  0.40853000  1.0
  C  C43  1  0.70246000  0.10131000  0.59147000  1.0
  N  N44  1  0.33654000  0.21457000  0.96862000  1.0
  N  N45  1  0.66345000  0.71456000  0.03137000  1.0
  N  N46  1  0.16346000  0.71458000  0.46862000  1.0
  N  N47  1  0.83653000  0.21455000  0.53139000  1.0
  Cl  Cl48  1  0.39672000  0.91332000  0.19918000  1.0
  Cl  Cl49  1  0.60327000  0.41333000  0.80082000  1.0
  Cl  Cl50  1  0.10327000  0.41333000  0.69919000  1.0
  Cl  Cl51  1  0.89673000  0.91332000  0.30082000  1.0
  Cl  Cl52  1  0.40749000  0.37932000  0.19154000  1.0
  Cl  Cl53  1  0.59250000  0.87932000  0.80846000  1.0
  Cl  Cl54  1  0.09251000  0.87932000  0.69154000  1.0
  Cl  Cl55  1  0.90748000  0.37931000  0.30846000  1.0
  O  O56  1  0.03438000  0.17105000  0.09920000  1.0
  O  O57  1  0.96563000  0.67110000  0.90080000  1.0
  O  O58  1  0.46564000  0.67109000  0.59920000  1.0
  O  O59  1  0.53434000  0.17105000  0.40081000  1.0
  O  O60  1  0.72872000  0.11598000  0.04525000  1.0
  O  O61  1  0.27129000  0.61601000  0.95475000  1.0
  O  O62  1  0.77129000  0.61598000  0.54525000  1.0
  O  O63  1  0.22870000  0.11598000  0.45477000  1.0
