# generated using pymatgen
data_ZnH9C5NO5
_symmetry_space_group_name_H-M   'P 1'
_cell_length_a   6.68601000
_cell_length_b   7.61408000
_cell_length_c   14.06240000
_cell_angle_alpha   83.51260000
_cell_angle_beta   89.99960000
_cell_angle_gamma   89.99950000
_symmetry_Int_Tables_number   1
_chemical_formula_structural   ZnH9C5NO5
_chemical_formula_sum   'Zn4 H36 C20 N4 O20'
_cell_volume   711.30204357
_cell_formula_units_Z   4
loop_
 _symmetry_equiv_pos_site_id
 _symmetry_equiv_pos_as_xyz
  1  'x, y, z'
loop_
 _atom_site_type_symbol
 _atom_site_label
 _atom_site_symmetry_multiplicity
 _atom_site_fract_x
 _atom_site_fract_y
 _atom_site_fract_z
 _atom_site_occupancy
  Zn  Zn0  1  0.13156000  0.48007000  0.82073000  1.0
  Zn  Zn1  1  0.63155000  0.01992000  0.67927000  1.0
  Zn  Zn2  1  0.86845000  0.51993000  0.17927000  1.0
  Zn  Zn3  1  0.36845000  0.98008000  0.32073000  1.0
  H  H4  1  0.22204000  0.42066000  0.99737000  1.0
  H  H5  1  0.72204000  0.07934000  0.50263000  1.0
  H  H6  1  0.77796000  0.57934000  0.00263000  1.0
  H  H7  1  0.27796000  0.92066000  0.49737000  1.0
  H  H8  1  0.16120000  0.53268000  0.59374000  1.0
  H  H9  1  0.66120000  0.96732000  0.90626000  1.0
  H  H10  1  0.83880000  0.46732000  0.40626000  1.0
  H  H11  1  0.33879000  0.03268000  0.09374000  1.0
  H  H12  1  0.39726000  0.56939000  0.53400000  1.0
  H  H13  1  0.89725000  0.93061000  0.96601000  1.0
  H  H14  1  0.60274000  0.43060000  0.46600000  1.0
  H  H15  1  0.10275000  0.06939000  0.03399000  1.0
  H  H16  1  0.24526000  0.73002000  0.97580000  1.0
  H  H17  1  0.74526000  0.76998000  0.52419000  1.0
  H  H18  1  0.75474000  0.26998000  0.02420000  1.0
  H  H19  1  0.25474000  0.23002000  0.47581000  1.0
  H  H20  1  0.46485000  0.71467000  0.90659000  1.0
  H  H21  1  0.96485000  0.78533000  0.59341000  1.0
  H  H22  1  0.53515000  0.28533000  0.09341000  1.0
  H  H23  1  0.03515000  0.21467000  0.40659000  1.0
  H  H24  1  0.58495000  0.41066000  0.87874000  1.0
  H  H25  1  0.08494000  0.08934000  0.62126000  1.0
  H  H26  1  0.41505000  0.58934000  0.12126000  1.0
  H  H27  1  0.91505000  0.91067000  0.37874000  1.0
  H  H28  1  0.44377000  0.22627000  0.92847000  1.0
  H  H29  1  0.94376000  0.27372000  0.57153000  1.0
  H  H30  1  0.55623000  0.77372000  0.07153000  1.0
  H  H31  1  0.05624000  0.72628000  0.42846000  1.0
  H  H32  1  0.83700000  0.59806000  0.72033000  1.0
  H  H33  1  0.33700000  0.90194000  0.77967000  1.0
  H  H34  1  0.16300000  0.40195000  0.27967000  1.0
  H  H35  1  0.66301000  0.09805000  0.22033000  1.0
  H  H36  1  0.85315000  0.38013000  0.72116000  1.0
  H  H37  1  0.35315000  0.11987000  0.77884000  1.0
  H  H38  1  0.14686000  0.61988000  0.27884000  1.0
  H  H39  1  0.64685000  0.88012000  0.22116000  1.0
  C  C40  1  0.38764000  0.36877000  0.65720000  1.0
  C  C41  1  0.88761000  0.13122000  0.84278000  1.0
  C  C42  1  0.61236000  0.63122000  0.34280000  1.0
  C  C43  1  0.11238000  0.86879000  0.15722000  1.0
  C  C44  1  0.32403000  0.54490000  0.60372000  1.0
  C  C45  1  0.82403000  0.95510000  0.89629000  1.0
  C  C46  1  0.67598000  0.45510000  0.39628000  1.0
  C  C47  1  0.17597000  0.04490000  0.10371000  1.0
  C  C48  1  0.35200000  0.70531000  0.65796000  1.0
  C  C49  1  0.85198000  0.79471000  0.84203000  1.0
  C  C50  1  0.64801000  0.29469000  0.34204000  1.0
  C  C51  1  0.14802000  0.20529000  0.15797000  1.0
  C  C52  1  0.38010000  0.65106000  0.96792000  1.0
  C  C53  1  0.88010000  0.84894000  0.53208000  1.0
  C  C54  1  0.61990000  0.34894000  0.03209000  1.0
  C  C55  1  0.11990000  0.15106000  0.46792000  1.0
  C  C56  1  0.49438000  0.35893000  0.94097000  1.0
  C  C57  1  0.99438000  0.14107000  0.55903000  1.0
  C  C58  1  0.50562000  0.64107000  0.05903000  1.0
  C  C59  1  0.00562000  0.85893000  0.44097000  1.0
  N  N60  1  0.31661000  0.47476000  0.94381000  1.0
  N  N61  1  0.81660000  0.02523000  0.55619000  1.0
  N  N62  1  0.68339000  0.52523000  0.05619000  1.0
  N  N63  1  0.18339000  0.97477000  0.44380000  1.0
  O  O64  1  0.31546000  0.32558000  0.74109000  1.0
  O  O65  1  0.81547000  0.17441000  0.75892000  1.0
  O  O66  1  0.68454000  0.67442000  0.25890000  1.0
  O  O67  1  0.18453000  0.82559000  0.24108000  1.0
  O  O68  1  0.50237000  0.27030000  0.61510000  1.0
  O  O69  1  0.00237000  0.22971000  0.88491000  1.0
  O  O70  1  0.49764000  0.72970000  0.38491000  1.0
  O  O71  1  0.99762000  0.77029000  0.11509000  1.0
  O  O72  1  0.28334000  0.70298000  0.74287000  1.0
  O  O73  1  0.78335000  0.79701000  0.75715000  1.0
  O  O74  1  0.71667000  0.29702000  0.25713000  1.0
  O  O75  1  0.21665000  0.20299000  0.24285000  1.0
  O  O76  1  0.43877000  0.83880000  0.61323000  1.0
  O  O77  1  0.93879000  0.66118000  0.88678000  1.0
  O  O78  1  0.56123000  0.16120000  0.38676000  1.0
  O  O79  1  0.06121000  0.33882000  0.11322000  1.0
  O  O80  1  0.92189000  0.49705000  0.70530000  1.0
  O  O81  1  0.42188000  0.00295000  0.79470000  1.0
  O  O82  1  0.07812000  0.50295000  0.29470000  1.0
  O  O83  1  0.57812000  0.99705000  0.20530000  1.0
