# generated using pymatgen
data_Cu2H28C33O14
_symmetry_space_group_name_H-M   'P 1'
_cell_length_a   10.83920000
_cell_length_b   17.34250000
_cell_length_c   27.50350000
_cell_angle_alpha   89.99970000
_cell_angle_beta   90.00020000
_cell_angle_gamma   89.99920000
_symmetry_Int_Tables_number   1
_chemical_formula_structural   Cu2H28C33O14
_chemical_formula_sum   'Cu8 H112 C132 O56'
_cell_volume   5170.07564028
_cell_formula_units_Z   4
loop_
 _symmetry_equiv_pos_site_id
 _symmetry_equiv_pos_as_xyz
  1  'x, y, z'
loop_
 _atom_site_type_symbol
 _atom_site_label
 _atom_site_symmetry_multiplicity
 _atom_site_fract_x
 _atom_site_fract_y
 _atom_site_fract_z
 _atom_site_occupancy
  Cu  Cu0  1  0.55408000  0.94010000  0.48601000  1.0
  Cu  Cu1  1  0.55407000  0.05990000  0.01399000  1.0
  Cu  Cu2  1  0.94592000  0.44009000  0.01399000  1.0
  Cu  Cu3  1  0.94594000  0.55990000  0.48601000  1.0
  Cu  Cu4  1  0.44595000  0.05989000  0.51399000  1.0
  Cu  Cu5  1  0.44594000  0.94010000  0.98601000  1.0
  Cu  Cu6  1  0.05406000  0.55990000  0.98600000  1.0
  Cu  Cu7  1  0.05407000  0.44009000  0.51400000  1.0
  H  H8  1  0.74011000  0.18813000  0.56571000  1.0
  H  H9  1  0.93010000  0.24724000  0.59974000  1.0
  H  H10  1  0.12720000  0.03485000  0.57304000  1.0
  H  H11  1  0.93426000  0.97732000  0.53816000  1.0
  H  H12  1  0.05327000  0.23511000  0.66240000  1.0
  H  H13  1  0.12352000  0.28873000  0.61405000  1.0
  H  H14  1  0.18940000  0.16716000  0.72400000  1.0
  H  H15  1  0.29584000  0.12824000  0.68028000  1.0
  H  H16  1  0.52227000  0.24755000  0.79754000  1.0
  H  H17  1  0.55989000  0.18882000  0.87942000  1.0
  H  H18  1  0.29966000  0.00952000  0.84703000  1.0
  H  H19  1  0.25952000  0.06766000  0.76576000  1.0
  H  H20  1  0.62689000  0.81114000  0.51421000  1.0
  H  H21  1  0.73254000  0.82186000  0.47638000  1.0
  H  H22  1  0.74012000  0.81186000  0.93431000  1.0
  H  H23  1  0.93010000  0.75276000  0.90026000  1.0
  H  H24  1  0.12719000  0.96516000  0.92696000  1.0
  H  H25  1  0.93425000  0.02269000  0.96184000  1.0
  H  H26  1  0.05327000  0.76491000  0.83760000  1.0
  H  H27  1  0.12353000  0.71129000  0.88595000  1.0
  H  H28  1  0.18940000  0.83285000  0.77600000  1.0
  H  H29  1  0.29583000  0.87176000  0.81971000  1.0
  H  H30  1  0.52228000  0.75245000  0.70247000  1.0
  H  H31  1  0.55990000  0.81118000  0.62058000  1.0
  H  H32  1  0.29967000  0.99048000  0.65297000  1.0
  H  H33  1  0.25953000  0.93234000  0.73424000  1.0
  H  H34  1  0.62687000  0.18885000  0.98578000  1.0
  H  H35  1  0.73252000  0.17815000  0.02362000  1.0
  H  H36  1  0.75988000  0.68814000  0.93430000  1.0
  H  H37  1  0.56991000  0.74725000  0.90026000  1.0
  H  H38  1  0.37281000  0.53485000  0.92696000  1.0
  H  H39  1  0.56575000  0.47733000  0.96184000  1.0
  H  H40  1  0.44673000  0.73512000  0.83760000  1.0
  H  H41  1  0.37647000  0.78873000  0.88595000  1.0
  H  H42  1  0.31060000  0.66716000  0.77600000  1.0
  H  H43  1  0.20417000  0.62825000  0.81972000  1.0
  H  H44  1  0.97773000  0.74755000  0.70247000  1.0
  H  H45  1  0.94011000  0.68881000  0.62058000  1.0
  H  H46  1  0.20035000  0.50952000  0.65297000  1.0
  H  H47  1  0.24048000  0.56766000  0.73424000  1.0
  H  H48  1  0.87310000  0.31114000  0.98579000  1.0
  H  H49  1  0.76742000  0.32186000  0.02362000  1.0
  H  H50  1  0.75989000  0.31188000  0.56572000  1.0
  H  H51  1  0.56991000  0.25276000  0.59975000  1.0
  H  H52  1  0.37282000  0.46516000  0.57304000  1.0
  H  H53  1  0.56577000  0.52269000  0.53817000  1.0
  H  H54  1  0.44673000  0.26490000  0.66240000  1.0
  H  H55  1  0.37647000  0.21129000  0.61405000  1.0
  H  H56  1  0.31059000  0.33284000  0.72400000  1.0
  H  H57  1  0.20417000  0.37176000  0.68029000  1.0
  H  H58  1  0.97772000  0.25243000  0.79753000  1.0
  H  H59  1  0.94009000  0.31116000  0.87941000  1.0
  H  H60  1  0.20033000  0.49046000  0.84703000  1.0
  H  H61  1  0.24046000  0.43234000  0.76576000  1.0
  H  H62  1  0.87312000  0.68885000  0.51421000  1.0
  H  H63  1  0.76747000  0.67813000  0.47638000  1.0
  H  H64  1  0.25989000  0.81187000  0.43429000  1.0
  H  H65  1  0.06991000  0.75276000  0.40026000  1.0
  H  H66  1  0.87281000  0.96515000  0.42696000  1.0
  H  H67  1  0.06576000  0.02268000  0.46183000  1.0
  H  H68  1  0.94673000  0.76489000  0.33761000  1.0
  H  H69  1  0.87647000  0.71127000  0.38595000  1.0
  H  H70  1  0.81062000  0.83284000  0.27600000  1.0
  H  H71  1  0.70418000  0.87176000  0.31971000  1.0
  H  H72  1  0.47772000  0.75246000  0.20247000  1.0
  H  H73  1  0.44011000  0.81119000  0.12058000  1.0
  H  H74  1  0.70037000  0.99047000  0.15297000  1.0
  H  H75  1  0.74049000  0.93234000  0.23424000  1.0
  H  H76  1  0.37313000  0.18884000  0.48578000  1.0
  H  H77  1  0.26748000  0.17813000  0.52362000  1.0
  H  H78  1  0.25989000  0.18814000  0.06571000  1.0
  H  H79  1  0.06992000  0.24725000  0.09974000  1.0
  H  H80  1  0.87282000  0.03486000  0.07304000  1.0
  H  H81  1  0.06576000  0.97733000  0.03816000  1.0
  H  H82  1  0.94673000  0.23512000  0.16240000  1.0
  H  H83  1  0.87647000  0.28873000  0.11405000  1.0
  H  H84  1  0.81061000  0.16716000  0.22400000  1.0
  H  H85  1  0.70418000  0.12824000  0.18028000  1.0
  H  H86  1  0.47772000  0.24754000  0.29753000  1.0
  H  H87  1  0.44010000  0.18880000  0.37942000  1.0
  H  H88  1  0.70036000  0.00952000  0.34703000  1.0
  H  H89  1  0.74049000  0.06766000  0.26577000  1.0
  H  H90  1  0.37311000  0.81114000  0.01421000  1.0
  H  H91  1  0.26744000  0.82188000  0.97638000  1.0
  H  H92  1  0.24012000  0.31186000  0.06570000  1.0
  H  H93  1  0.43011000  0.25275000  0.09974000  1.0
  H  H94  1  0.62719000  0.46515000  0.07304000  1.0
  H  H95  1  0.43424000  0.52268000  0.03816000  1.0
  H  H96  1  0.55327000  0.26490000  0.16240000  1.0
  H  H97  1  0.62353000  0.21128000  0.11405000  1.0
  H  H98  1  0.68940000  0.33284000  0.22400000  1.0
  H  H99  1  0.79583000  0.37177000  0.18029000  1.0
  H  H100  1  0.02228000  0.25246000  0.29754000  1.0
  H  H101  1  0.05989000  0.31119000  0.37942000  1.0
  H  H102  1  0.79965000  0.49048000  0.34703000  1.0
  H  H103  1  0.75952000  0.43235000  0.26576000  1.0
  H  H104  1  0.12686000  0.68884000  0.01422000  1.0
  H  H105  1  0.23251000  0.67814000  0.97638000  1.0
  H  H106  1  0.24011000  0.68813000  0.43429000  1.0
  H  H107  1  0.43009000  0.74725000  0.40026000  1.0
  H  H108  1  0.62719000  0.53485000  0.42696000  1.0
  H  H109  1  0.43424000  0.47732000  0.46183000  1.0
  H  H110  1  0.55327000  0.73511000  0.33761000  1.0
  H  H111  1  0.62354000  0.78873000  0.38595000  1.0
  H  H112  1  0.68939000  0.66716000  0.27600000  1.0
  H  H113  1  0.79583000  0.62824000  0.31971000  1.0
  H  H114  1  0.02228000  0.74753000  0.20246000  1.0
  H  H115  1  0.05987000  0.68880000  0.12058000  1.0
  H  H116  1  0.79962000  0.50952000  0.15297000  1.0
  H  H117  1  0.75950000  0.56765000  0.23424000  1.0
  H  H118  1  0.12688000  0.31115000  0.48579000  1.0
  H  H119  1  0.23254000  0.32187000  0.52362000  1.0
  C  C120  1  0.70804000  0.04692000  0.53135000  1.0
  C  C121  1  0.82480000  0.07928000  0.55080000  1.0
  C  C122  1  0.82524000  0.15512000  0.56810000  1.0
  C  C123  1  0.93133000  0.18759000  0.58757000  1.0
  C  C124  1  0.03908000  0.14296000  0.59028000  1.0
  C  C125  1  0.04132000  0.06754000  0.57172000  1.0
  C  C126  1  0.93430000  0.03601000  0.55226000  1.0
  C  C127  1  0.13475000  0.23909000  0.63865000  1.0
  C  C128  1  0.27254000  0.17916000  0.70235000  1.0
  C  C129  1  0.38839000  0.16174000  0.77701000  1.0
  C  C130  1  0.47408000  0.19543000  0.80894000  1.0
  C  C131  1  0.49461000  0.16277000  0.85417000  1.0
  C  C132  1  0.43186000  0.09548000  0.86821000  1.0
  C  C133  1  0.34769000  0.06186000  0.83590000  1.0
  C  C134  1  0.32501000  0.09459000  0.79050000  1.0
  C  C135  1  0.45557000  0.06018000  0.91655000  1.0
  C  C136  1  0.70802000  0.95307000  0.96865000  1.0
  C  C137  1  0.82480000  0.92071000  0.94920000  1.0
  C  C138  1  0.82524000  0.84488000  0.93190000  1.0
  C  C139  1  0.93134000  0.81240000  0.91243000  1.0
  C  C140  1  0.03907000  0.85705000  0.90973000  1.0
  C  C141  1  0.04131000  0.93247000  0.92829000  1.0
  C  C142  1  0.93429000  0.96400000  0.94774000  1.0
  C  C143  1  0.13476000  0.76093000  0.86135000  1.0
  C  C144  1  0.27253000  0.82084000  0.79765000  1.0
  C  C145  1  0.38839000  0.83826000  0.72299000  1.0
  C  C146  1  0.47409000  0.80456000  0.69106000  1.0
  C  C147  1  0.49462000  0.83723000  0.64583000  1.0
  C  C148  1  0.43187000  0.90451000  0.63179000  1.0
  C  C149  1  0.34769000  0.93814000  0.66410000  1.0
  C  C150  1  0.32501000  0.90541000  0.70950000  1.0
  C  C151  1  0.45557000  0.93981000  0.58345000  1.0
  C  C152  1  0.79197000  0.54693000  0.96865000  1.0
  C  C153  1  0.67520000  0.57929000  0.94920000  1.0
  C  C154  1  0.67476000  0.65512000  0.93190000  1.0
  C  C155  1  0.56868000  0.68760000  0.91243000  1.0
  C  C156  1  0.46093000  0.64296000  0.90972000  1.0
  C  C157  1  0.45869000  0.56755000  0.92828000  1.0
  C  C158  1  0.56571000  0.53601000  0.94774000  1.0
  C  C159  1  0.36524000  0.73909000  0.86135000  1.0
  C  C160  1  0.22747000  0.67917000  0.79765000  1.0
  C  C161  1  0.11162000  0.66174000  0.72299000  1.0
  C  C162  1  0.02592000  0.69543000  0.69106000  1.0
  C  C163  1  0.00540000  0.66277000  0.64583000  1.0
  C  C164  1  0.06815000  0.59548000  0.63180000  1.0
  C  C165  1  0.15233000  0.56186000  0.66411000  1.0
  C  C166  1  0.17500000  0.59459000  0.70951000  1.0
  C  C167  1  0.04445000  0.56019000  0.58346000  1.0
  C  C168  1  0.79198000  0.45307000  0.53136000  1.0
  C  C169  1  0.67522000  0.42072000  0.55081000  1.0
  C  C170  1  0.67477000  0.34489000  0.56812000  1.0
  C  C171  1  0.56869000  0.31241000  0.58758000  1.0
  C  C172  1  0.46094000  0.35705000  0.59028000  1.0
  C  C173  1  0.45870000  0.43247000  0.57172000  1.0
  C  C174  1  0.56572000  0.46401000  0.55227000  1.0
  C  C175  1  0.36524000  0.26092000  0.63865000  1.0
  C  C176  1  0.22746000  0.32084000  0.70235000  1.0
  C  C177  1  0.11160000  0.33825000  0.77701000  1.0
  C  C178  1  0.02590000  0.30455000  0.80893000  1.0
  C  C179  1  0.00537000  0.33722000  0.85417000  1.0
  C  C180  1  0.06812000  0.40450000  0.86820000  1.0
  C  C181  1  0.15230000  0.43812000  0.83590000  1.0
  C  C182  1  0.17497000  0.40540000  0.79049000  1.0
  C  C183  1  0.04441000  0.43980000  0.91655000  1.0
  C  C184  1  0.29198000  0.95307000  0.46864000  1.0
  C  C185  1  0.17522000  0.92072000  0.44920000  1.0
  C  C186  1  0.17477000  0.84488000  0.43189000  1.0
  C  C187  1  0.06868000  0.81240000  0.41243000  1.0
  C  C188  1  0.96093000  0.85704000  0.40972000  1.0
  C  C189  1  0.95869000  0.93246000  0.42828000  1.0
  C  C190  1  0.06571000  0.96400000  0.44773000  1.0
  C  C191  1  0.86525000  0.76091000  0.36135000  1.0
  C  C192  1  0.72748000  0.82084000  0.29765000  1.0
  C  C193  1  0.61162000  0.83826000  0.22299000  1.0
  C  C194  1  0.52592000  0.80457000  0.19106000  1.0
  C  C195  1  0.50539000  0.83723000  0.14583000  1.0
  C  C196  1  0.56816000  0.90451000  0.13179000  1.0
  C  C197  1  0.65233000  0.93813000  0.16410000  1.0
  C  C198  1  0.67501000  0.90541000  0.20950000  1.0
  C  C199  1  0.54444000  0.93981000  0.08345000  1.0
  C  C200  1  0.29198000  0.04692000  0.03135000  1.0
  C  C201  1  0.17522000  0.07929000  0.05080000  1.0
  C  C202  1  0.17477000  0.15512000  0.06811000  1.0
  C  C203  1  0.06869000  0.18760000  0.08757000  1.0
  C  C204  1  0.96094000  0.14297000  0.09028000  1.0
  C  C205  1  0.95870000  0.06755000  0.07172000  1.0
  C  C206  1  0.06572000  0.03601000  0.05226000  1.0
  C  C207  1  0.86524000  0.23909000  0.13865000  1.0
  C  C208  1  0.72747000  0.17916000  0.20235000  1.0
  C  C209  1  0.61161000  0.16173000  0.27701000  1.0
  C  C210  1  0.52591000  0.19543000  0.30894000  1.0
  C  C211  1  0.50539000  0.16276000  0.35417000  1.0
  C  C212  1  0.56815000  0.09548000  0.36821000  1.0
  C  C213  1  0.65233000  0.06186000  0.33590000  1.0
  C  C214  1  0.67501000  0.09459000  0.29050000  1.0
  C  C215  1  0.54445000  0.06018000  0.41654000  1.0
  C  C216  1  0.20802000  0.45307000  0.03135000  1.0
  C  C217  1  0.32479000  0.42071000  0.05080000  1.0
  C  C218  1  0.32524000  0.34488000  0.06810000  1.0
  C  C219  1  0.43133000  0.31240000  0.08757000  1.0
  C  C220  1  0.53906000  0.35705000  0.09028000  1.0
  C  C221  1  0.54131000  0.43246000  0.07171000  1.0
  C  C222  1  0.43428000  0.46400000  0.05226000  1.0
  C  C223  1  0.63475000  0.26092000  0.13865000  1.0
  C  C224  1  0.77253000  0.32084000  0.20236000  1.0
  C  C225  1  0.88839000  0.33827000  0.27701000  1.0
  C  C226  1  0.97408000  0.30457000  0.30894000  1.0
  C  C227  1  0.99460000  0.33724000  0.35417000  1.0
  C  C228  1  0.93185000  0.40451000  0.36821000  1.0
  C  C229  1  0.84768000  0.43814000  0.33590000  1.0
  C  C230  1  0.82500000  0.40542000  0.29050000  1.0
  C  C231  1  0.95555000  0.43982000  0.41655000  1.0
  C  C232  1  0.20803000  0.54693000  0.46865000  1.0
  C  C233  1  0.32479000  0.57928000  0.44920000  1.0
  C  C234  1  0.32523000  0.65512000  0.43189000  1.0
  C  C235  1  0.43132000  0.68760000  0.41243000  1.0
  C  C236  1  0.53907000  0.64296000  0.40972000  1.0
  C  C237  1  0.54131000  0.56754000  0.42828000  1.0
  C  C238  1  0.43429000  0.53600000  0.44773000  1.0
  C  C239  1  0.63476000  0.73909000  0.36135000  1.0
  C  C240  1  0.77253000  0.67916000  0.29764000  1.0
  C  C241  1  0.88838000  0.66173000  0.22298000  1.0
  C  C242  1  0.97407000  0.69542000  0.19106000  1.0
  C  C243  1  0.99459000  0.66275000  0.14583000  1.0
  C  C244  1  0.93184000  0.59548000  0.13179000  1.0
  C  C245  1  0.84766000  0.56186000  0.16410000  1.0
  C  C246  1  0.82498000  0.59458000  0.20950000  1.0
  C  C247  1  0.95555000  0.56018000  0.08345000  1.0
  C  C248  1  0.25000000  0.25000000  0.66980000  1.0
  C  C249  1  0.25000000  0.75001000  0.83019000  1.0
  C  C250  1  0.75001000  0.75000000  0.33019000  1.0
  C  C251  1  0.75000000  0.25000000  0.16981000  1.0
  O  O252  1  0.71212000  0.98031000  0.51136000  1.0
  O  O253  1  0.61158000  0.08888000  0.53628000  1.0
  O  O254  1  0.14597000  0.16920000  0.61096000  1.0
  O  O255  1  0.37391000  0.19875000  0.73370000  1.0
  O  O256  1  0.41250000  0.99251000  0.92374000  1.0
  O  O257  1  0.51745000  0.10005000  0.94729000  1.0
  O  O258  1  0.64371000  0.81406000  0.47936000  1.0
  O  O259  1  0.71211000  0.01968000  0.98864000  1.0
  O  O260  1  0.61158000  0.91112000  0.96372000  1.0
  O  O261  1  0.14598000  0.83081000  0.88904000  1.0
  O  O262  1  0.37390000  0.80125000  0.76630000  1.0
  O  O263  1  0.41250000  0.00748000  0.57626000  1.0
  O  O264  1  0.51746000  0.89995000  0.55271000  1.0
  O  O265  1  0.64369000  0.18593000  0.02063000  1.0
  O  O266  1  0.78787000  0.48032000  0.98864000  1.0
  O  O267  1  0.88843000  0.58887000  0.96372000  1.0
  O  O268  1  0.35403000  0.66921000  0.88904000  1.0
  O  O269  1  0.12609000  0.69875000  0.76630000  1.0
  O  O270  1  0.08751000  0.49251000  0.57627000  1.0
  O  O271  1  0.98255000  0.60005000  0.55271000  1.0
  O  O272  1  0.85626000  0.31407000  0.02064000  1.0
  O  O273  1  0.78790000  0.51968000  0.51136000  1.0
  O  O274  1  0.88844000  0.41112000  0.53628000  1.0
  O  O275  1  0.35403000  0.33081000  0.61096000  1.0
  O  O276  1  0.12609000  0.30125000  0.73369000  1.0
  O  O277  1  0.08750000  0.50747000  0.92373000  1.0
  O  O278  1  0.98251000  0.39994000  0.94729000  1.0
  O  O279  1  0.85629000  0.68594000  0.47937000  1.0
  O  O280  1  0.28789000  0.01969000  0.48863000  1.0
  O  O281  1  0.38844000  0.91112000  0.46373000  1.0
  O  O282  1  0.85403000  0.83079000  0.38905000  1.0
  O  O283  1  0.62610000  0.80126000  0.26630000  1.0
  O  O284  1  0.58750000  0.00749000  0.07626000  1.0
  O  O285  1  0.48255000  0.89994000  0.05271000  1.0
  O  O286  1  0.35630000  0.18593000  0.52064000  1.0
  O  O287  1  0.28788000  0.98031000  0.01137000  1.0
  O  O288  1  0.38843000  0.08888000  0.03627000  1.0
  O  O289  1  0.85404000  0.16921000  0.11095000  1.0
  O  O290  1  0.62609000  0.19874000  0.23370000  1.0
  O  O291  1  0.58751000  0.99250000  0.42374000  1.0
  O  O292  1  0.48257000  0.10005000  0.44729000  1.0
  O  O293  1  0.35627000  0.81407000  0.97936000  1.0
  O  O294  1  0.21211000  0.51968000  0.01136000  1.0
  O  O295  1  0.11157000  0.41112000  0.03627000  1.0
  O  O296  1  0.64597000  0.33081000  0.11096000  1.0
  O  O297  1  0.87390000  0.30126000  0.23370000  1.0
  O  O298  1  0.91249000  0.50749000  0.42374000  1.0
  O  O299  1  0.01743000  0.39995000  0.44730000  1.0
  O  O300  1  0.14369000  0.68593000  0.97937000  1.0
  O  O301  1  0.21212000  0.48031000  0.48864000  1.0
  O  O302  1  0.11157000  0.58888000  0.46373000  1.0
  O  O303  1  0.64597000  0.66920000  0.38905000  1.0
  O  O304  1  0.87390000  0.69874000  0.26630000  1.0
  O  O305  1  0.91250000  0.49249000  0.07626000  1.0
  O  O306  1  0.01742000  0.60004000  0.05271000  1.0
  O  O307  1  0.14371000  0.31406000  0.52064000  1.0
