# generated using pymatgen
data_CoH46C66(N3O2)2
_symmetry_space_group_name_H-M   'P 1'
_cell_length_a   11.50150000
_cell_length_b   11.58190000
_cell_length_c   12.72570000
_cell_angle_alpha   68.60940000
_cell_angle_beta   67.17260000
_cell_angle_gamma   73.33020000
_symmetry_Int_Tables_number   1
_chemical_formula_structural   CoH46C66(N3O2)2
_chemical_formula_sum   'Co1 H46 C66 N6 O4'
_cell_volume   1433.76457775
_cell_formula_units_Z   1
loop_
 _symmetry_equiv_pos_site_id
 _symmetry_equiv_pos_as_xyz
  1  'x, y, z'
loop_
 _atom_site_type_symbol
 _atom_site_label
 _atom_site_symmetry_multiplicity
 _atom_site_fract_x
 _atom_site_fract_y
 _atom_site_fract_z
 _atom_site_occupancy
  Co  Co0  1  0.50000000  0.50000000  0.50000000  1.0
  H  H1  1  0.83697000  0.83883000  0.81762000  1.0
  H  H2  1  0.16302000  0.16117000  0.18240000  1.0
  H  H3  1  0.69513000  0.89903000  0.69322000  1.0
  H  H4  1  0.30486000  0.10097000  0.30680000  1.0
  H  H5  1  0.61644000  0.12488000  0.60703000  1.0
  H  H6  1  0.38355000  0.87512000  0.39299000  1.0
  H  H7  1  0.82421000  0.23035000  0.76626000  1.0
  H  H8  1  0.17578000  0.76965000  0.23375000  1.0
  H  H9  1  0.90022000  0.00637000  0.85404000  1.0
  H  H10  1  0.09977000  0.99363000  0.14597000  1.0
  H  H11  1  0.82890000  0.38946000  0.61717000  1.0
  H  H12  1  0.17110000  0.61054000  0.38283000  1.0
  H  H13  1  0.70426000  0.78114000  0.39194000  1.0
  H  H14  1  0.29574000  0.21885000  0.60805000  1.0
  H  H15  1  0.83500000  0.93962000  0.35435000  1.0
  H  H16  1  0.16500000  0.06038000  0.64565000  1.0
  H  H17  1  0.98657000  0.88927000  0.46730000  1.0
  H  H18  1  0.01342000  0.11074000  0.53270000  1.0
  H  H19  1  0.00841000  0.67963000  0.61610000  1.0
  H  H20  1  0.99158000  0.32037000  0.38390000  1.0
  H  H21  1  0.88179000  0.52246000  0.65142000  1.0
  H  H22  1  0.11820000  0.47754000  0.34857000  1.0
  H  H23  1  0.58448000  0.26556000  0.41176000  1.0
  H  H24  1  0.41553000  0.73444000  0.58823000  1.0
  H  H25  1  0.79582000  0.15725000  0.30037000  1.0
  H  H26  1  0.20419000  0.84274000  0.69962000  1.0
  H  H27  1  0.97362000  0.28420000  0.17433000  1.0
  H  H28  1  0.02639000  0.71580000  0.82566000  1.0
  H  H29  1  0.71498000  0.60212000  0.28425000  1.0
  H  H30  1  0.28503000  0.39788000  0.71575000  1.0
  H  H31  1  0.24784000  0.70428000  0.99090000  1.0
  H  H32  1  0.75216000  0.29572000  0.00910000  1.0
  H  H33  1  0.83970000  0.71156000  0.13432000  1.0
  H  H34  1  0.16030000  0.28844000  0.86568000  1.0
  H  H35  1  0.27288000  0.30513000  0.19895000  1.0
  H  H36  1  0.72712000  0.69487000  0.80105000  1.0
  H  H37  1  0.62431000  0.22457000  0.95285000  1.0
  H  H38  1  0.37569000  0.77543000  0.04715000  1.0
  H  H39  1  0.58933000  0.43350000  0.80500000  1.0
  H  H40  1  0.41067000  0.56651000  0.19500000  1.0
  H  H41  1  0.38160000  0.57916000  0.85723000  1.0
  H  H42  1  0.61840000  0.42084000  0.14277000  1.0
  H  H43  1  0.19680000  0.88745000  0.88283000  1.0
  H  H44  1  0.80319000  0.11254000  0.11717000  1.0
  H  H45  1  0.16227000  0.11744000  0.83168000  1.0
  H  H46  1  0.83773000  0.88255000  0.16832000  1.0
  C  C47  1  0.80383000  0.93793000  0.77849000  1.0
  C  C48  1  0.19617000  0.06208000  0.22152000  1.0
  C  C49  1  0.72396000  0.97141000  0.70892000  1.0
  C  C50  1  0.27603000  0.02859000  0.29109000  1.0
  C  C51  1  0.67958000  0.09765000  0.66056000  1.0
  C  C52  1  0.32041000  0.90235000  0.33945000  1.0
  C  C53  1  0.71561000  0.19297000  0.67921000  1.0
  C  C54  1  0.28438000  0.80704000  0.32079000  1.0
  C  C55  1  0.79595000  0.15833000  0.74927000  1.0
  C  C56  1  0.20404000  0.84168000  0.25074000  1.0
  C  C57  1  0.83906000  0.03169000  0.79894000  1.0
  C  C58  1  0.16093000  0.96832000  0.20107000  1.0
  C  C59  1  0.66888000  0.32644000  0.62241000  1.0
  C  C60  1  0.33112000  0.67357000  0.37759000  1.0
  C  C61  1  0.74001000  0.41980000  0.59615000  1.0
  C  C62  1  0.25999000  0.58020000  0.40385000  1.0
  C  C63  1  0.70734000  0.54799000  0.53952000  1.0
  C  C64  1  0.29266000  0.45201000  0.46048000  1.0
  C  C65  1  0.78547000  0.64020000  0.52185000  1.0
  C  C66  1  0.21453000  0.35980000  0.47815000  1.0
  C  C67  1  0.77243000  0.75973000  0.43950000  1.0
  C  C68  1  0.22757000  0.24027000  0.56049000  1.0
  C  C69  1  0.84456000  0.84818000  0.41991000  1.0
  C  C70  1  0.15544000  0.15182000  0.58008000  1.0
  C  C71  1  0.93005000  0.82005000  0.48294000  1.0
  C  C72  1  0.06994000  0.17996000  0.51706000  1.0
  C  C73  1  0.94280000  0.70225000  0.56582000  1.0
  C  C74  1  0.05720000  0.29775000  0.43418000  1.0
  C  C75  1  0.87150000  0.61305000  0.58505000  1.0
  C  C76  1  0.12849000  0.38695000  0.41495000  1.0
  C  C77  1  0.66466000  0.31536000  0.35493000  1.0
  C  C78  1  0.33535000  0.68464000  0.64507000  1.0
  C  C79  1  0.78179000  0.25669000  0.29297000  1.0
  C  C80  1  0.21822000  0.74331000  0.70703000  1.0
  C  C81  1  0.88007000  0.32629000  0.22326000  1.0
  C  C82  1  0.11994000  0.67371000  0.77673000  1.0
  C  C83  1  0.85857000  0.45408000  0.21658000  1.0
  C  C84  1  0.14143000  0.54593000  0.78341000  1.0
  C  C85  1  0.73772000  0.50488000  0.28171000  1.0
  C  C86  1  0.26229000  0.49512000  0.71828000  1.0
  C  C87  1  0.96255000  0.52950000  0.14955000  1.0
  C  C88  1  0.03745000  0.47049000  0.85045000  1.0
  C  C89  1  0.18087000  0.52688000  0.06400000  1.0
  C  C90  1  0.81913000  0.47312000  0.93600000  1.0
  C  C91  1  0.16419000  0.65815000  0.03354000  1.0
  C  C92  1  0.83582000  0.34185000  0.96646000  1.0
  C  C93  1  0.04039000  0.72820000  0.06035000  1.0
  C  C94  1  0.95961000  0.27180000  0.93965000  1.0
  C  C95  1  0.93789000  0.66138000  0.11726000  1.0
  C  C96  1  0.06211000  0.33862000  0.88274000  1.0
  C  C97  1  0.30926000  0.45057000  0.03134000  1.0
  C  C98  1  0.69075000  0.54943000  0.96866000  1.0
  C  C99  1  0.34144000  0.33447000  0.11025000  1.0
  C  C100  1  0.65857000  0.66554000  0.88975000  1.0
  C  C101  1  0.53697000  0.29248000  0.97495000  1.0
  C  C102  1  0.46303000  0.70752000  0.02505000  1.0
  C  C103  1  0.51693000  0.40826000  0.89168000  1.0
  C  C104  1  0.48307000  0.59174000  0.10832000  1.0
  C  C105  1  0.40146000  0.48900000  0.92079000  1.0
  C  C106  1  0.59855000  0.51100000  0.07921000  1.0
  C  C107  1  0.01954000  0.86672000  0.02928000  1.0
  C  C108  1  0.98046000  0.13328000  0.97072000  1.0
  C  C109  1  0.11063000  0.93603000  0.93552000  1.0
  C  C110  1  0.88936000  0.06396000  0.06447000  1.0
  C  C111  1  0.09146000  0.06640000  0.90682000  1.0
  C  C112  1  0.90854000  0.93360000  0.09318000  1.0
  N  N113  1  0.64363000  0.43751000  0.34997000  1.0
  N  N114  1  0.35637000  0.56249000  0.65003000  1.0
  N  N115  1  0.08207000  0.46344000  0.12311000  1.0
  N  N116  1  0.91794000  0.53656000  0.87688000  1.0
  N  N117  1  0.45279000  0.25661000  0.08411000  1.0
  N  N118  1  0.54721000  0.74339000  0.91589000  1.0
  O  O119  1  0.56438000  0.34605000  0.59860000  1.0
  O  O120  1  0.43562000  0.65395000  0.40140000  1.0
  O  O121  1  0.61294000  0.59488000  0.49695000  1.0
  O  O122  1  0.38707000  0.40511000  0.50305000  1.0
