# generated using pymatgen
data_Zr3H10C34(BrO)16
_symmetry_space_group_name_H-M   'P 1'
_cell_length_a   15.55710000
_cell_length_b   17.40980000
_cell_length_c   17.65030000
_cell_angle_alpha   86.53500000
_cell_angle_beta   89.98580000
_cell_angle_gamma   89.70450000
_symmetry_Int_Tables_number   1
_chemical_formula_structural   Zr3H10C34(BrO)16
_chemical_formula_sum   'Zr6 H20 C68 Br32 O32'
_cell_volume   4771.71043991
_cell_formula_units_Z   2
loop_
 _symmetry_equiv_pos_site_id
 _symmetry_equiv_pos_as_xyz
  1  'x, y, z'
loop_
 _atom_site_type_symbol
 _atom_site_label
 _atom_site_symmetry_multiplicity
 _atom_site_fract_x
 _atom_site_fract_y
 _atom_site_fract_z
 _atom_site_occupancy
  Zr  Zr0  1  0.01212000  0.14395000  0.99159000  1.0
  Zr  Zr1  1  0.01821000  0.99347000  0.86532000  1.0
  Zr  Zr2  1  0.00760000  0.00999000  0.14922000  1.0
  Zr  Zr3  1  0.00009000  0.85417000  0.02386000  1.0
  Zr  Zr4  1  0.84914000  0.00419000  0.00315000  1.0
  Zr  Zr5  1  0.17023000  0.99612000  0.01119000  1.0
  H  H6  1  0.14486000  0.11076000  0.88950000  1.0
  H  H7  1  0.88343000  0.88589000  0.89942000  1.0
  H  H8  1  0.12175000  0.88068000  0.13590000  1.0
  H  H9  1  0.88672000  0.12692000  0.10796000  1.0
  H  H10  1  0.06925000  0.88691000  0.77665000  1.0
  H  H11  1  0.00986000  0.82339000  0.86902000  1.0
  H  H12  1  0.94862000  0.75178000  0.12719000  1.0
  H  H13  1  0.05152000  0.93950000  0.28598000  1.0
  H  H14  1  0.95651000  0.11644000  0.24430000  1.0
  H  H15  1  0.96103000  0.28393000  0.05060000  1.0
  H  H16  1  0.96354000  0.23540000  0.87397000  1.0
  H  H17  1  0.02048000  0.14713000  0.82020000  1.0
  H  H18  1  0.95246000  0.92283000  0.27608000  1.0
  H  H19  1  0.06070000  0.27068000  0.06862000  1.0
  H  H20  1  0.08491000  0.10770000  0.76110000  1.0
  H  H21  1  0.05474000  0.75360000  0.91733000  1.0
  H  H22  1  0.66397000  0.50322000  0.96275000  1.0
  H  H23  1  0.35154000  0.49866000  0.97678000  1.0
  H  H24  1  0.35628000  0.01482000  0.50930000  1.0
  H  H25  1  0.67155000  0.99919000  0.50321000  1.0
  C  C26  1  0.80693000  0.18857000  0.97530000  1.0
  C  C27  1  0.23287000  0.99271000  0.83747000  1.0
  C  C28  1  0.81266000  0.00858000  0.82335000  1.0
  C  C29  1  0.21814000  0.18109000  0.00486000  1.0
  C  C30  1  0.22134000  0.00971000  0.18528000  1.0
  C  C31  1  0.79022000  0.82518000  0.02144000  1.0
  C  C32  1  0.20613000  0.81270000  0.01159000  1.0
  C  C33  1  0.79484000  0.00668000  0.17785000  1.0
  C  C34  1  0.55368000  0.43232000  0.94385000  1.0
  C  C35  1  0.46346000  0.43127000  0.95768000  1.0
  C  C36  1  0.42110000  0.50055000  0.96946000  1.0
  C  C37  1  0.46169000  0.57122000  0.97494000  1.0
  C  C38  1  0.55256000  0.57068000  0.97561000  1.0
  C  C39  1  0.59433000  0.50214000  0.96026000  1.0
  C  C40  1  0.47040000  0.00705000  0.57777000  1.0
  C  C41  1  0.56148000  0.00190000  0.57576000  1.0
  C  C42  1  0.60151000  0.00168000  0.50462000  1.0
  C  C43  1  0.55750000  0.00623000  0.43524000  1.0
  C  C44  1  0.46662000  0.01220000  0.43667000  1.0
  C  C45  1  0.42634000  0.01190000  0.50807000  1.0
  C  C46  1  0.28906000  0.07647000  0.29521000  1.0
  C  C47  1  0.29301000  0.01940000  0.24204000  1.0
  C  C48  1  0.36138000  0.96647000  0.24795000  1.0
  C  C49  1  0.40982000  0.95938000  0.31537000  1.0
  C  C50  1  0.41058000  0.01767000  0.36736000  1.0
  C  C51  1  0.35207000  0.07955000  0.35206000  1.0
  C  C52  1  0.65932000  0.93889000  0.34764000  1.0
  C  C53  1  0.61237000  0.00542000  0.36527000  1.0
  C  C54  1  0.62628000  0.07302000  0.31844000  1.0
  C  C55  1  0.68429000  0.07401000  0.25727000  1.0
  C  C56  1  0.72618000  0.00658000  0.23854000  1.0
  C  C57  1  0.71116000  0.93870000  0.28282000  1.0
  C  C58  1  0.36168000  0.06930000  0.66437000  1.0
  C  C59  1  0.41736000  0.00725000  0.64899000  1.0
  C  C60  1  0.41676000  0.94410000  0.70305000  1.0
  C  C61  1  0.36659000  0.94340000  0.76963000  1.0
  C  C62  1  0.30428000  0.00042000  0.77850000  1.0
  C  C63  1  0.30601000  0.06476000  0.72687000  1.0
  C  C64  1  0.63329000  0.06760000  0.68292000  1.0
  C  C65  1  0.62130000  0.00071000  0.64266000  1.0
  C  C66  1  0.67724000  0.93784000  0.66115000  1.0
  C  C67  1  0.73848000  0.94052000  0.71940000  1.0
  C  C68  1  0.74682000  0.00646000  0.76033000  1.0
  C  C69  1  0.69516000  0.07043000  0.74048000  1.0
  C  C70  1  0.31602000  0.71688000  0.06504000  1.0
  C  C71  1  0.27096000  0.74898000  0.00209000  1.0
  C  C72  1  0.28362000  0.71832000  0.93150000  1.0
  C  C73  1  0.34758000  0.66259000  0.92198000  1.0
  C  C74  1  0.40145000  0.63730000  0.98320000  1.0
  C  C75  1  0.38312000  0.66436000  0.05522000  1.0
  C  C76  1  0.66097000  0.76835000  0.95717000  1.0
  C  C77  1  0.72040000  0.76423000  0.01748000  1.0
  C  C78  1  0.72028000  0.69706000  0.06632000  1.0
  C  C79  1  0.66315000  0.63636000  0.05531000  1.0
  C  C80  1  0.60764000  0.63805000  0.99183000  1.0
  C  C81  1  0.61081000  0.70406000  0.94188000  1.0
  C  C82  1  0.27477000  0.29881000  0.93181000  1.0
  C  C83  1  0.28293000  0.24549000  0.99458000  1.0
  C  C84  1  0.35147000  0.25308000  0.04529000  1.0
  C  C85  1  0.40944000  0.31438000  0.03425000  1.0
  C  C86  1  0.40489000  0.36448000  0.96877000  1.0
  C  C87  1  0.33688000  0.35543000  0.91755000  1.0
  C  C88  1  0.65145000  0.23200000  0.95391000  1.0
  C  C89  1  0.74017000  0.24858000  0.95220000  1.0
  C  C90  1  0.76213000  0.32278000  0.91878000  1.0
  C  C91  1  0.69965000  0.37974000  0.90531000  1.0
  C  C92  1  0.61070000  0.36749000  0.92507000  1.0
  C  C93  1  0.59017000  0.28784000  0.92814000  1.0
  Br  Br94  1  0.35704000  0.16871000  0.40790000  1.0
  Br  Br95  1  0.20059000  0.15138000  0.28598000  1.0
  Br  Br96  1  0.46424000  0.86393000  0.33998000  1.0
  Br  Br97  1  0.39121000  0.90540000  0.16706000  1.0
  Br  Br98  1  0.76166000  0.84659000  0.25071000  1.0
  Br  Br99  1  0.66008000  0.84913000  0.41372000  1.0
  Br  Br100  1  0.71212000  0.16745000  0.20141000  1.0
  Br  Br101  1  0.57082000  0.16516000  0.34270000  1.0
  Br  Br102  1  0.23927000  0.15215000  0.75161000  1.0
  Br  Br103  1  0.35812000  0.15980000  0.59963000  1.0
  Br  Br104  1  0.38696000  0.86813000  0.84905000  1.0
  Br  Br105  1  0.47824000  0.85386000  0.68284000  1.0
  Br  Br106  1  0.71556000  0.16241000  0.78928000  1.0
  Br  Br107  1  0.56980000  0.15752000  0.65442000  1.0
  Br  Br108  1  0.81360000  0.85636000  0.74314000  1.0
  Br  Br109  1  0.67494000  0.84832000  0.60551000  1.0
  Br  Br110  1  0.44530000  0.62338000  0.14047000  1.0
  Br  Br111  1  0.27420000  0.73608000  0.16288000  1.0
  Br  Br112  1  0.35742000  0.61852000  0.82690000  1.0
  Br  Br113  1  0.20743000  0.74778000  0.85047000  1.0
  Br  Br114  1  0.55290000  0.70253000  0.84795000  1.0
  Br  Br115  1  0.64881000  0.85898000  0.89355000  1.0
  Br  Br116  1  0.66275000  0.54867000  0.12501000  1.0
  Br  Br117  1  0.79695000  0.68735000  0.15035000  1.0
  Br  Br118  1  0.33675000  0.41439000  0.82396000  1.0
  Br  Br119  1  0.17949000  0.29358000  0.86560000  1.0
  Br  Br120  1  0.49598000  0.32971000  0.10725000  1.0
  Br  Br121  1  0.36349000  0.18194000  0.12970000  1.0
  Br  Br122  1  0.49268000  0.25055000  0.87795000  1.0
  Br  Br123  1  0.60433000  0.13787000  0.99398000  1.0
  Br  Br124  1  0.72720000  0.46844000  0.84046000  1.0
  Br  Br125  1  0.87581000  0.34816000  0.88507000  1.0
  O  O126  1  0.88372000  0.21170000  0.98454000  1.0
  O  O127  1  0.78422000  0.11886000  0.98341000  1.0
  O  O128  1  0.15768000  0.98611000  0.81022000  1.0
  O  O129  1  0.25286000  0.99430000  0.90690000  1.0
  O  O130  1  0.89041000  0.01221000  0.80318000  1.0
  O  O131  1  0.78266000  0.00445000  0.89057000  1.0
  O  O132  1  0.14028000  0.20290000  0.01316000  1.0
  O  O133  1  0.24483000  0.11304000  0.00100000  1.0
  O  O134  1  0.01352000  0.20191000  0.88290000  1.0
  O  O135  1  0.00350000  0.24753000  0.07246000  1.0
  O  O136  1  0.02858000  0.10087000  0.78515000  1.0
  O  O137  1  0.01827000  0.89234000  0.80785000  1.0
  O  O138  1  0.94660000  0.05856000  0.94220000  1.0
  O  O139  1  0.10664000  0.07911000  0.92182000  1.0
  O  O140  1  0.14639000  0.00213000  0.21217000  1.0
  O  O141  1  0.24265000  0.00689000  0.11589000  1.0
  O  O142  1  0.86608000  0.79857000  0.02270000  1.0
  O  O143  1  0.76889000  0.89584000  0.01924000  1.0
  O  O144  1  0.12860000  0.79216000  0.01290000  1.0
  O  O145  1  0.23650000  0.87977000  0.01712000  1.0
  O  O146  1  0.87081000  0.00054000  0.20372000  1.0
  O  O147  1  0.77155000  0.01397000  0.10901000  1.0
  O  O148  1  0.00893000  0.91846000  0.25225000  1.0
  O  O149  1  0.00675000  0.09217000  0.22356000  1.0
  O  O150  1  0.00105000  0.77991000  0.11452000  1.0
  O  O151  1  0.00239000  0.78500000  0.91547000  1.0
  O  O152  1  0.09229000  0.91648000  0.10017000  1.0
  O  O153  1  0.93531000  0.94549000  0.07196000  1.0
  O  O154  1  0.07929000  0.06223000  0.06317000  1.0
  O  O155  1  0.91920000  0.91709000  0.93067000  1.0
  O  O156  1  0.92271000  0.09247000  0.08031000  1.0
  O  O157  1  0.07848000  0.93789000  0.95659000  1.0
