# generated using pymatgen
data_KH7C15(N2O)2
_symmetry_space_group_name_H-M   'P 1'
_cell_length_a   7.20152000
_cell_length_b   12.84720000
_cell_length_c   15.83380000
_cell_angle_alpha   90.00000000
_cell_angle_beta   89.99970000
_cell_angle_gamma   92.33450000
_symmetry_Int_Tables_number   1
_chemical_formula_structural   KH7C15(N2O)2
_chemical_formula_sum   'K4 H28 C60 N16 O8'
_cell_volume   1463.71734233
_cell_formula_units_Z   4
loop_
 _symmetry_equiv_pos_site_id
 _symmetry_equiv_pos_as_xyz
  1  'x, y, z'
loop_
 _atom_site_type_symbol
 _atom_site_label
 _atom_site_symmetry_multiplicity
 _atom_site_fract_x
 _atom_site_fract_y
 _atom_site_fract_z
 _atom_site_occupancy
  K  K0  1  0.92572000  0.98561000  0.27071000  1.0
  K  K1  1  0.57428000  0.01438000  0.77071000  1.0
  K  K2  1  0.07427000  0.01440000  0.72929000  1.0
  K  K3  1  0.42572000  0.98561000  0.22930000  1.0
  H  H4  1  0.58948000  0.69568000  0.21177000  1.0
  H  H5  1  0.91053000  0.30432000  0.71176000  1.0
  H  H6  1  0.41053000  0.30433000  0.78824000  1.0
  H  H7  1  0.08947000  0.69567000  0.28824000  1.0
  H  H8  1  0.45782000  0.52709000  0.16227000  1.0
  H  H9  1  0.04219000  0.47291000  0.66227000  1.0
  H  H10  1  0.54221000  0.47292000  0.83773000  1.0
  H  H11  1  0.95780000  0.52707000  0.33773000  1.0
  H  H12  1  0.30220000  0.44599000  0.41900000  1.0
  H  H13  1  0.19778000  0.55401000  0.91900000  1.0
  H  H14  1  0.69780000  0.55401000  0.58100000  1.0
  H  H15  1  0.80220000  0.44599000  0.08100000  1.0
  H  H16  1  0.43374000  0.61667000  0.46846000  1.0
  H  H17  1  0.06625000  0.38334000  0.96847000  1.0
  H  H18  1  0.56626000  0.38334000  0.53153000  1.0
  H  H19  1  0.93374000  0.61666000  0.03154000  1.0
  H  H20  1  0.23384000  0.39723000  0.14060000  1.0
  H  H21  1  0.26619000  0.60277000  0.64060000  1.0
  H  H22  1  0.76618000  0.60278000  0.85940000  1.0
  H  H23  1  0.73382000  0.39722000  0.35939000  1.0
  H  H24  1  0.24599000  0.26689000  0.18168000  1.0
  H  H25  1  0.25406000  0.73312000  0.68168000  1.0
  H  H26  1  0.75404000  0.73312000  0.81831000  1.0
  H  H27  1  0.74595000  0.26687000  0.31831000  1.0
  H  H28  1  0.45587000  0.34297000  0.16113000  1.0
  H  H29  1  0.04417000  0.65704000  0.66113000  1.0
  H  H30  1  0.54417000  0.65704000  0.83886000  1.0
  H  H31  1  0.95583000  0.34295000  0.33886000  1.0
  C  C32  1  0.59527000  0.79806000  0.46337000  1.0
  C  C33  1  0.90474000  0.20195000  0.96336000  1.0
  C  C34  1  0.40472000  0.20195000  0.53664000  1.0
  C  C35  1  0.09526000  0.79805000  0.03664000  1.0
  C  C36  1  0.60629000  0.76634000  0.37063000  1.0
  C  C37  1  0.89372000  0.23366000  0.87062000  1.0
  C  C38  1  0.39370000  0.23367000  0.62938000  1.0
  C  C39  1  0.10628000  0.76633000  0.12938000  1.0
  C  C40  1  0.74735000  0.77723000  0.51498000  1.0
  C  C41  1  0.75266000  0.22277000  0.01497000  1.0
  C  C42  1  0.25265000  0.22278000  0.48503000  1.0
  C  C43  1  0.24735000  0.77723000  0.98503000  1.0
  C  C44  1  0.43652000  0.85249000  0.48548000  1.0
  C  C45  1  0.06349000  0.14751000  0.98548000  1.0
  C  C46  1  0.56347000  0.14751000  0.51452000  1.0
  C  C47  1  0.93651000  0.85248000  0.01452000  1.0
  C  C48  1  0.29927000  0.87196000  0.42443000  1.0
  C  C49  1  0.20074000  0.12805000  0.92443000  1.0
  C  C50  1  0.70071000  0.12805000  0.57558000  1.0
  C  C51  1  0.79924000  0.87194000  0.07557000  1.0
  C  C52  1  0.39797000  0.89094000  0.56660000  1.0
  C  C53  1  0.10204000  0.10906000  0.06661000  1.0
  C  C54  1  0.60204000  0.10906000  0.43340000  1.0
  C  C55  1  0.89796000  0.89094000  0.93340000  1.0
  C  C56  1  0.77738000  0.82247000  0.59541000  1.0
  C  C57  1  0.72264000  0.17752000  0.09541000  1.0
  C  C58  1  0.22263000  0.17753000  0.40459000  1.0
  C  C59  1  0.27736000  0.82248000  0.90459000  1.0
  C  C60  1  0.88716000  0.71043000  0.48742000  1.0
  C  C61  1  0.61285000  0.28955000  0.98742000  1.0
  C  C62  1  0.11284000  0.28957000  0.51258000  1.0
  C  C63  1  0.38715000  0.71043000  0.01259000  1.0
  C  C64  1  0.52522000  0.66694000  0.34354000  1.0
  C  C65  1  0.97477000  0.33307000  0.84354000  1.0
  C  C66  1  0.47477000  0.33307000  0.65646000  1.0
  C  C67  1  0.02521000  0.66694000  0.15647000  1.0
  C  C68  1  0.52827000  0.64030000  0.25705000  1.0
  C  C69  1  0.97174000  0.35970000  0.75705000  1.0
  C  C70  1  0.47175000  0.35971000  0.74295000  1.0
  C  C71  1  0.02824000  0.64028000  0.24295000  1.0
  C  C72  1  0.45468000  0.54519000  0.22935000  1.0
  C  C73  1  0.04534000  0.45481000  0.72935000  1.0
  C  C74  1  0.54535000  0.45482000  0.77064000  1.0
  C  C75  1  0.95464000  0.54518000  0.27064000  1.0
  C  C76  1  0.37688000  0.47415000  0.28862000  1.0
  C  C77  1  0.12313000  0.52586000  0.78862000  1.0
  C  C78  1  0.62315000  0.52586000  0.71137000  1.0
  C  C79  1  0.87685000  0.47413000  0.21137000  1.0
  C  C80  1  0.37000000  0.50052000  0.37499000  1.0
  C  C81  1  0.12999000  0.49949000  0.87500000  1.0
  C  C82  1  0.63000000  0.49949000  0.62500000  1.0
  C  C83  1  0.86999000  0.50050000  0.12500000  1.0
  C  C84  1  0.44268000  0.59588000  0.40188000  1.0
  C  C85  1  0.05731000  0.40413000  0.90189000  1.0
  C  C86  1  0.55731000  0.40413000  0.59811000  1.0
  C  C87  1  0.94268000  0.59587000  0.09811000  1.0
  C  C88  1  0.31074000  0.34539000  0.18200000  1.0
  C  C89  1  0.18929000  0.65462000  0.68201000  1.0
  C  C90  1  0.68929000  0.65463000  0.81799000  1.0
  C  C91  1  0.81071000  0.34536000  0.31799000  1.0
  N  N92  1  0.00268000  0.65351000  0.46772000  1.0
  N  N93  1  0.49732000  0.34649000  0.96772000  1.0
  N  N94  1  0.99730000  0.34649000  0.53227000  1.0
  N  N95  1  0.50270000  0.65350000  0.03228000  1.0
  N  N96  1  0.81004000  0.86200000  0.66068000  1.0
  N  N97  1  0.68996000  0.13799000  0.16068000  1.0
  N  N98  1  0.18997000  0.13800000  0.33933000  1.0
  N  N99  1  0.31002000  0.86200000  0.83933000  1.0
  N  N100  1  0.35635000  0.92257000  0.63307000  1.0
  N  N101  1  0.14366000  0.07743000  0.13308000  1.0
  N  N102  1  0.64366000  0.07743000  0.36693000  1.0
  N  N103  1  0.85633000  0.92257000  0.86692000  1.0
  N  N104  1  0.18547000  0.89066000  0.37443000  1.0
  N  N105  1  0.31455000  0.10935000  0.87443000  1.0
  N  N106  1  0.81450000  0.10935000  0.62558000  1.0
  N  N107  1  0.68546000  0.89065000  0.12558000  1.0
  O  O108  1  0.68291000  0.83162000  0.32268000  1.0
  O  O109  1  0.81712000  0.16838000  0.82268000  1.0
  O  O110  1  0.31708000  0.16838000  0.67732000  1.0
  O  O111  1  0.18288000  0.83162000  0.17733000  1.0
  O  O112  1  0.30241000  0.37926000  0.26858000  1.0
  O  O113  1  0.19761000  0.62075000  0.76858000  1.0
  O  O114  1  0.69762000  0.62075000  0.73141000  1.0
  O  O115  1  0.80238000  0.37924000  0.23141000  1.0
