# generated using pymatgen
data_ZnH14C14S2N2O5
_symmetry_space_group_name_H-M   'P 1'
_cell_length_a   6.25409000
_cell_length_b   8.52109171
_cell_length_c   15.70540000
_cell_angle_alpha   84.30249154
_cell_angle_beta   89.96370000
_cell_angle_gamma   68.49628699
_symmetry_Int_Tables_number   1
_chemical_formula_structural   ZnH14C14S2N2O5
_chemical_formula_sum   'Zn2 H28 C28 S4 N4 O10'
_cell_volume   774.28390019
_cell_formula_units_Z   2
loop_
 _symmetry_equiv_pos_site_id
 _symmetry_equiv_pos_as_xyz
  1  'x, y, z'
loop_
 _atom_site_type_symbol
 _atom_site_label
 _atom_site_symmetry_multiplicity
 _atom_site_fract_x
 _atom_site_fract_y
 _atom_site_fract_z
 _atom_site_occupancy
  Zn  Zn0  1  0.46905000  0.00023000  0.74988000  1.0
  Zn  Zn1  1  0.53095000  0.99977000  0.25013000  1.0
  H  H2  1  0.04992000  0.96884000  0.70440000  1.0
  H  H3  1  0.01867000  0.03163000  0.79551000  1.0
  H  H4  1  0.95011000  0.03117000  0.29560000  1.0
  H  H5  1  0.98136000  0.96837000  0.20449000  1.0
  H  H6  1  0.44785000  0.41950000  0.85658000  1.0
  H  H7  1  0.86842000  0.58121000  0.64348000  1.0
  H  H8  1  0.55219000  0.58047000  0.14342000  1.0
  H  H9  1  0.13153000  0.41879000  0.35651000  1.0
  H  H10  1  0.32905000  0.70014000  0.77304000  1.0
  H  H11  1  0.02968000  0.30045000  0.72684000  1.0
  H  H12  1  0.67096000  0.29983000  0.22696000  1.0
  H  H13  1  0.97028000  0.69957000  0.27317000  1.0
  H  H14  1  0.92836000  0.76500000  0.84004000  1.0
  H  H15  1  0.69391000  0.23546000  0.65963000  1.0
  H  H16  1  0.07164000  0.23500000  0.15996000  1.0
  H  H17  1  0.30607000  0.76458000  0.34039000  1.0
  H  H18  1  0.08067000  0.48329000  0.92567000  1.0
  H  H19  1  0.56505000  0.51741000  0.57419000  1.0
  H  H20  1  0.91933000  0.51671000  0.07433000  1.0
  H  H21  1  0.43489000  0.48261000  0.42580000  1.0
  H  H22  1  0.67397000  0.06893000  0.02550000  1.0
  H  H23  1  0.74393000  0.93107000  0.47445000  1.0
  H  H24  1  0.32608000  0.93105000  0.97449000  1.0
  H  H25  1  0.25600000  0.06892000  0.52555000  1.0
  H  H26  1  0.47317000  0.27386000  0.99101000  1.0
  H  H27  1  0.74901000  0.72587000  0.50898000  1.0
  H  H28  1  0.52689000  0.72611000  0.00899000  1.0
  H  H29  1  0.25093000  0.27414000  0.49104000  1.0
  C  C30  1  0.77282000  0.42818000  0.90342000  1.0
  C  C31  1  0.20211000  0.57256000  0.59653000  1.0
  C  C32  1  0.22720000  0.57180000  0.09658000  1.0
  C  C33  1  0.79782000  0.42746000  0.40346000  1.0
  C  C34  1  0.56149000  0.49023000  0.85643000  1.0
  C  C35  1  0.05271000  0.51047000  0.64356000  1.0
  C  C36  1  0.43853000  0.50975000  0.14357000  1.0
  C  C37  1  0.94724000  0.48954000  0.35643000  1.0
  C  C38  1  0.49354000  0.64764000  0.80874000  1.0
  C  C39  1  0.14186000  0.35288000  0.69109000  1.0
  C  C40  1  0.50647000  0.35234000  0.19126000  1.0
  C  C41  1  0.85812000  0.64712000  0.30891000  1.0
  C  C42  1  0.82884000  0.68326000  0.84526000  1.0
  C  C43  1  0.51279000  0.31729000  0.65453000  1.0
  C  C44  1  0.17118000  0.31672000  0.15474000  1.0
  C  C45  1  0.48718000  0.68275000  0.34548000  1.0
  C  C46  1  0.91178000  0.52652000  0.89349000  1.0
  C  C47  1  0.43926000  0.47412000  0.60636000  1.0
  C  C48  1  0.08823000  0.47347000  0.10651000  1.0
  C  C49  1  0.56068000  0.52590000  0.39363000  1.0
  C  C50  1  0.63207000  0.17446000  0.97377000  1.0
  C  C51  1  0.80775000  0.82567000  0.52622000  1.0
  C  C52  1  0.36797000  0.82552000  0.02623000  1.0
  C  C53  1  0.19219000  0.17434000  0.47378000  1.0
  C  C54  1  0.59376000  0.10798000  0.89072000  1.0
  C  C55  1  0.70217000  0.89204000  0.60918000  1.0
  C  C56  1  0.40628000  0.89202000  0.10928000  1.0
  C  C57  1  0.29786000  0.10795000  0.39082000  1.0
  S  S58  1  0.86944000  0.24482000  0.97450000  1.0
  S  S59  1  0.11534000  0.75610000  0.52557000  1.0
  S  S60  1  0.13059000  0.75517000  0.02550000  1.0
  S  S61  1  0.88460000  0.24390000  0.47440000  1.0
  N  N62  1  0.61953000  0.74680000  0.80487000  1.0
  N  N63  1  0.36686000  0.25366000  0.69488000  1.0
  N  N64  1  0.38048000  0.25319000  0.19514000  1.0
  N  N65  1  0.63313000  0.74637000  0.30512000  1.0
  O  O66  1  0.75394000  0.06079000  0.83869000  1.0
  O  O67  1  0.81463000  0.93921000  0.66140000  1.0
  O  O68  1  0.24614000  0.93919000  0.16132000  1.0
  O  O69  1  0.18541000  0.06081000  0.33858000  1.0
  O  O70  1  0.39651000  0.10096000  0.87809000  1.0
  O  O71  1  0.49778000  0.89908000  0.62156000  1.0
  O  O72  1  0.60354000  0.89905000  0.12190000  1.0
  O  O73  1  0.50223000  0.10093000  0.37847000  1.0
  O  O74  1  0.13147000  0.00038000  0.74988000  1.0
  O  O75  1  0.86856000  0.99962000  0.25012000  1.0
