# generated using pymatgen
data_AgH21C28SN3(O3F)3
_symmetry_space_group_name_H-M   'P 1'
_cell_length_a   14.10690000
_cell_length_b   15.78030000
_cell_length_c   17.57810000
_cell_angle_alpha   65.24910000
_cell_angle_beta   67.43580000
_cell_angle_gamma   74.24660000
_symmetry_Int_Tables_number   1
_chemical_formula_structural   AgH21C28SN3(O3F)3
_chemical_formula_sum   'Ag4 H84 C112 S4 N12 O36 F12'
_cell_volume   3252.79172053
_cell_formula_units_Z   4
loop_
 _symmetry_equiv_pos_site_id
 _symmetry_equiv_pos_as_xyz
  1  'x, y, z'
loop_
 _atom_site_type_symbol
 _atom_site_label
 _atom_site_symmetry_multiplicity
 _atom_site_fract_x
 _atom_site_fract_y
 _atom_site_fract_z
 _atom_site_occupancy
  Ag  Ag0  1  0.37947000  0.79203000  0.19368000  1.0
  Ag  Ag1  1  0.62052000  0.20797000  0.80632000  1.0
  Ag  Ag2  1  0.04941000  0.24750000  0.32511000  1.0
  Ag  Ag3  1  0.95059000  0.75250000  0.67489000  1.0
  H  H4  1  0.50544000  0.61726000  0.29188000  1.0
  H  H5  1  0.49456000  0.38274000  0.70812000  1.0
  H  H6  1  0.48476000  0.47694000  0.43239000  1.0
  H  H7  1  0.51524000  0.52306000  0.56761000  1.0
  H  H8  1  0.17398000  0.60587000  0.52945000  1.0
  H  H9  1  0.82602000  0.39413000  0.47055000  1.0
  H  H10  1  0.20372000  0.73662000  0.38162000  1.0
  H  H11  1  0.79628000  0.26338000  0.61838000  1.0
  H  H12  1  0.29250000  0.29076000  0.68962000  1.0
  H  H13  1  0.70750000  0.70924000  0.31038000  1.0
  H  H14  1  0.42848000  0.26294000  0.67138000  1.0
  H  H15  1  0.57152000  0.73706000  0.32862000  1.0
  H  H16  1  0.35714000  0.02333000  0.09827000  1.0
  H  H17  1  0.64286000  0.97667000  0.90173000  1.0
  H  H18  1  0.33668000  0.16642000  0.13116000  1.0
  H  H19  1  0.66332000  0.83358000  0.86884000  1.0
  H  H20  1  0.36502000  0.98423000  0.38788000  1.0
  H  H21  1  0.63498000  0.01577000  0.61213000  1.0
  H  H22  1  0.38151000  0.84768000  0.34591000  1.0
  H  H23  1  0.61849000  0.15232000  0.65409000  1.0
  H  H24  1  0.28046000  0.27355000  0.38300000  1.0
  H  H25  1  0.71954000  0.72645000  0.61700000  1.0
  H  H26  1  0.41778000  0.26551000  0.33644000  1.0
  H  H27  1  0.58222000  0.73449000  0.66356000  1.0
  H  H28  1  0.40809000  0.66322000  0.08634000  1.0
  H  H29  1  0.59191000  0.33678000  0.91366000  1.0
  H  H30  1  0.42072000  0.68038000  0.93405000  1.0
  H  H31  1  0.57928000  0.31962000  0.06595000  1.0
  H  H32  1  0.38341000  0.98173000  0.86664000  1.0
  H  H33  1  0.61659000  0.01827000  0.13336000  1.0
  H  H34  1  0.37561000  0.95333000  0.01679000  1.0
  H  H35  1  0.62439000  0.04667000  0.98321000  1.0
  H  H36  1  0.32522000  0.92349000  0.66641000  1.0
  H  H37  1  0.67478000  0.07651000  0.33359000  1.0
  H  H38  1  0.46207000  0.91597000  0.62542000  1.0
  H  H39  1  0.53793000  0.08403000  0.37458000  1.0
  H  H40  1  0.35626000  0.32564000  0.47456000  1.0
  H  H41  1  0.64374000  0.67436000  0.52544000  1.0
  H  H42  1  0.37192000  0.03997000  0.49793000  1.0
  H  H43  1  0.62808000  0.96003000  0.50207000  1.0
  H  H44  1  0.39138000  0.09746000  0.70992000  1.0
  H  H45  1  0.60863000  0.90255000  0.29008000  1.0
  H  H46  1  0.21145000  0.34627000  0.15131000  1.0
  H  H47  1  0.78856000  0.65373000  0.84868000  1.0
  H  H48  1  0.22429000  0.48769000  0.01264000  1.0
  H  H49  1  0.77571000  0.51232000  0.98736000  1.0
  H  H50  1  0.89313000  0.55785000  0.10959000  1.0
  H  H51  1  0.10687000  0.44215000  0.89041000  1.0
  H  H52  1  0.89284000  0.41175000  0.24405000  1.0
  H  H53  1  0.10716000  0.58825000  0.75595000  1.0
  H  H54  1  0.11331000  0.75283000  0.81965000  1.0
  H  H55  1  0.88669000  0.24718000  0.18035000  1.0
  H  H56  1  0.24697000  0.72896000  0.81162000  1.0
  H  H57  1  0.75303000  0.27105000  0.18838000  1.0
  H  H58  1  0.02938000  0.36594000  0.43509000  1.0
  H  H59  1  0.97062000  0.63406000  0.56491000  1.0
  H  H60  1  0.05427000  0.34559000  0.57667000  1.0
  H  H61  1  0.94573000  0.65441000  0.42333000  1.0
  H  H62  1  0.14701000  0.04922000  0.61746000  1.0
  H  H63  1  0.85299000  0.95078000  0.38254000  1.0
  H  H64  1  0.12189000  0.08080000  0.47679000  1.0
  H  H65  1  0.87811000  0.91920000  0.52321000  1.0
  H  H66  1  0.08257000  0.11579000  0.85996000  1.0
  H  H67  1  0.91743000  0.88421000  0.14004000  1.0
  H  H68  1  0.21771000  0.09322000  0.81264000  1.0
  H  H69  1  0.78229000  0.90678000  0.18736000  1.0
  H  H70  1  0.06497000  0.19926000  0.16166000  1.0
  H  H71  1  0.93503000  0.80074000  0.83834000  1.0
  H  H72  1  0.08345000  0.06271000  0.11885000  1.0
  H  H73  1  0.91655000  0.93729000  0.88115000  1.0
  H  H74  1  0.12301000  0.88038000  0.37194000  1.0
  H  H75  1  0.87699000  0.11962000  0.62806000  1.0
  H  H76  1  0.09871000  0.02204000  0.40652000  1.0
  H  H77  1  0.90129000  0.97796000  0.59348000  1.0
  H  H78  1  0.05903000  0.77474000  0.16087000  1.0
  H  H79  1  0.94097000  0.22526000  0.83913000  1.0
  H  H80  1  0.19561000  0.76608000  0.13023000  1.0
  H  H81  1  0.80439000  0.23392000  0.86977000  1.0
  H  H82  1  0.15625000  0.92228000  0.77560000  1.0
  H  H83  1  0.84375000  0.07772000  0.22440000  1.0
  H  H84  1  0.12233000  0.99501000  0.99596000  1.0
  H  H85  1  0.87767000  0.00499000  0.00404000  1.0
  H  H86  1  0.14753000  0.70533000  0.02802000  1.0
  H  H87  1  0.85247000  0.29467000  0.97198000  1.0
  C  C88  1  0.43261000  0.61073000  0.34559000  1.0
  C  C89  1  0.56739000  0.38926000  0.65441000  1.0
  C  C90  1  0.42117000  0.53377000  0.42401000  1.0
  C  C91  1  0.57883000  0.46623000  0.57599000  1.0
  C  C92  1  0.32630000  0.53041000  0.49111000  1.0
  C  C93  1  0.67370000  0.46959000  0.50889000  1.0
  C  C94  1  0.24759000  0.60569000  0.47744000  1.0
  C  C95  1  0.75241000  0.39431000  0.52256000  1.0
  C  C96  1  0.26460000  0.67885000  0.39641000  1.0
  C  C97  1  0.73540000  0.32115000  0.60359000  1.0
  C  C98  1  0.30364000  0.44749000  0.57484000  1.0
  C  C99  1  0.69636000  0.55251000  0.42516000  1.0
  C  C100  1  0.36797000  0.28550000  0.63959000  1.0
  C  C101  1  0.63203000  0.71450000  0.36040000  1.0
  C  C102  1  0.35705000  0.01642000  0.16255000  1.0
  C  C103  1  0.64295000  0.98358000  0.83746000  1.0
  C  C104  1  0.34623000  0.09697000  0.18058000  1.0
  C  C105  1  0.65377000  0.90302000  0.81942000  1.0
  C  C106  1  0.34885000  0.08677000  0.26266000  1.0
  C  C107  1  0.65115000  0.91323000  0.73734000  1.0
  C  C108  1  0.36271000  0.99590000  0.32320000  1.0
  C  C109  1  0.63729000  0.00410000  0.67680000  1.0
  C  C110  1  0.37210000  0.91940000  0.29975000  1.0
  C  C111  1  0.62790000  0.08060000  0.70025000  1.0
  C  C112  1  0.33839000  0.17251000  0.28260000  1.0
  C  C113  1  0.66161000  0.82748000  0.71740000  1.0
  C  C114  1  0.35336000  0.22593000  0.38536000  1.0
  C  C115  1  0.64664000  0.77407000  0.61464000  1.0
  C  C116  1  0.40311000  0.73246000  0.03532000  1.0
  C  C117  1  0.59689000  0.26754000  0.96468000  1.0
  C  C118  1  0.41024000  0.74192000  0.95111000  1.0
  C  C119  1  0.58977000  0.25808000  0.04889000  1.0
  C  C120  1  0.40201000  0.83242000  0.88820000  1.0
  C  C121  1  0.59799000  0.16758000  0.11180000  1.0
  C  C122  1  0.38962000  0.90950000  0.91222000  1.0
  C  C123  1  0.61038000  0.09050000  0.08778000  1.0
  C  C124  1  0.38389000  0.89366000  0.99788000  1.0
  C  C125  1  0.61611000  0.10634000  0.00212000  1.0
  C  C126  1  0.40499000  0.84308000  0.79876000  1.0
  C  C127  1  0.59501000  0.15692000  0.20124000  1.0
  C  C128  1  0.39167000  0.95294000  0.65956000  1.0
  C  C129  1  0.60833000  0.04706000  0.34044000  1.0
  C  C130  1  0.37260000  0.21866000  0.59680000  1.0
  C  C131  1  0.62740000  0.78134000  0.40320000  1.0
  C  C132  1  0.36348000  0.25042000  0.51271000  1.0
  C  C133  1  0.63652000  0.74958000  0.48729000  1.0
  C  C134  1  0.36428000  0.18640000  0.47624000  1.0
  C  C135  1  0.63572000  0.81360000  0.52376000  1.0
  C  C136  1  0.37345000  0.09016000  0.52492000  1.0
  C  C137  1  0.62655000  0.90984000  0.47508000  1.0
  C  C138  1  0.38301000  0.05740000  0.60957000  1.0
  C  C139  1  0.61699000  0.94260000  0.39043000  1.0
  C  C140  1  0.38354000  0.12164000  0.64466000  1.0
  C  C141  1  0.61646000  0.87836000  0.35534000  1.0
  C  C142  1  0.76143000  0.76618000  0.06893000  1.0
  C  C143  1  0.23856000  0.23382000  0.93107000  1.0
  C  C144  1  0.14267000  0.39466000  0.13912000  1.0
  C  C145  1  0.85734000  0.60534000  0.86088000  1.0
  C  C146  1  0.14957000  0.47352000  0.06250000  1.0
  C  C147  1  0.85043000  0.52648000  0.93750000  1.0
  C  C148  1  0.05912000  0.53410000  0.05106000  1.0
  C  C149  1  0.94088000  0.46590000  0.94894000  1.0
  C  C150  1  0.96476000  0.51201000  0.11659000  1.0
  C  C151  1  0.03524000  0.48799000  0.88341000  1.0
  C  C152  1  0.96450000  0.43175000  0.19130000  1.0
  C  C153  1  0.03550000  0.56825000  0.80870000  1.0
  C  C154  1  0.06018000  0.62275000  0.97301000  1.0
  C  C155  1  0.93981000  0.37725000  0.02699000  1.0
  C  C156  1  0.16791000  0.73428000  0.85661000  1.0
  C  C157  1  0.83209000  0.26572000  0.14339000  1.0
  C  C158  1  0.05593000  0.29722000  0.47755000  1.0
  C  C159  1  0.94407000  0.70278000  0.52245000  1.0
  C  C160  1  0.06976000  0.28615000  0.55542000  1.0
  C  C161  1  0.93024000  0.71385000  0.44458000  1.0
  C  C162  1  0.10270000  0.19616000  0.60790000  1.0
  C  C163  1  0.89731000  0.80384000  0.39210000  1.0
  C  C164  1  0.12174000  0.12095000  0.57954000  1.0
  C  C165  1  0.87826000  0.87905000  0.42045000  1.0
  C  C166  1  0.10698000  0.13857000  0.50014000  1.0
  C  C167  1  0.89302000  0.86143000  0.49986000  1.0
  C  C168  1  0.11410000  0.18385000  0.69297000  1.0
  C  C169  1  0.88590000  0.81615000  0.30703000  1.0
  C  C170  1  0.14318000  0.07210000  0.82546000  1.0
  C  C171  1  0.85682000  0.92790000  0.17454000  1.0
  C  C172  1  0.07709000  0.12747000  0.20701000  1.0
  C  C173  1  0.92291000  0.87253000  0.79299000  1.0
  C  C174  1  0.08805000  0.05103000  0.18280000  1.0
  C  C175  1  0.91195000  0.94897000  0.81720000  1.0
  C  C176  1  0.10516000  0.96013000  0.24202000  1.0
  C  C177  1  0.89483000  0.03987000  0.75798000  1.0
  C  C178  1  0.10939000  0.94950000  0.32369000  1.0
  C  C179  1  0.89061000  0.05050000  0.67631000  1.0
  C  C180  1  0.09623000  0.02957000  0.34286000  1.0
  C  C181  1  0.90377000  0.97043000  0.65714000  1.0
  C  C182  1  0.11851000  0.87400000  0.22216000  1.0
  C  C183  1  0.88149000  0.12600000  0.77784000  1.0
  C  C184  1  0.12581000  0.81348000  0.11740000  1.0
  C  C185  1  0.87420000  0.18652000  0.88260000  1.0
  C  C186  1  0.15265000  0.80603000  0.89773000  1.0
  C  C187  1  0.84735000  0.19397000  0.10227000  1.0
  C  C188  1  0.15017000  0.90171000  0.84449000  1.0
  C  C189  1  0.84983000  0.09829000  0.15551000  1.0
  C  C190  1  0.14007000  0.96943000  0.87963000  1.0
  C  C191  1  0.85993000  0.03057000  0.12037000  1.0
  C  C192  1  0.13050000  0.94189000  0.96878000  1.0
  C  C193  1  0.86950000  0.05811000  0.03122000  1.0
  C  C194  1  0.13292000  0.84711000  0.02210000  1.0
  C  C195  1  0.86708000  0.15289000  0.97790000  1.0
  C  C196  1  0.14432000  0.77947000  0.98610000  1.0
  C  C197  1  0.85568000  0.22053000  0.01390000  1.0
  C  C198  1  0.66646000  0.21275000  0.43575000  1.0
  C  C199  1  0.33355000  0.78725000  0.56425000  1.0
  S  S200  1  0.63099000  0.82195000  0.11867000  1.0
  S  S201  1  0.36901000  0.17805000  0.88133000  1.0
  S  S202  1  0.80786000  0.16772000  0.40588000  1.0
  S  S203  1  0.19214000  0.83228000  0.59412000  1.0
  N  N204  1  0.35503000  0.68132000  0.33084000  1.0
  N  N205  1  0.64497000  0.31868000  0.66916000  1.0
  N  N206  1  0.36907000  0.92880000  0.22103000  1.0
  N  N207  1  0.63093000  0.07120000  0.77897000  1.0
  N  N208  1  0.38882000  0.80701000  0.05942000  1.0
  N  N209  1  0.61118000  0.19299000  0.94058000  1.0
  N  N210  1  0.05202000  0.37432000  0.20298000  1.0
  N  N211  1  0.94798000  0.62568000  0.79702000  1.0
  N  N212  1  0.07416000  0.22471000  0.44963000  1.0
  N  N213  1  0.92584000  0.77529000  0.55037000  1.0
  N  N214  1  0.08086000  0.11725000  0.28582000  1.0
  N  N215  1  0.91914000  0.88275000  0.71418000  1.0
  O  O216  1  0.22157000  0.44308000  0.63422000  1.0
  O  O217  1  0.77843000  0.55692000  0.36578000  1.0
  O  O218  1  0.38502000  0.37805000  0.57350000  1.0
  O  O219  1  0.61498000  0.62195000  0.42650000  1.0
  O  O220  1  0.31874000  0.25341000  0.23489000  1.0
  O  O221  1  0.68126000  0.74659000  0.76511000  1.0
  O  O222  1  0.35477000  0.14927000  0.36022000  1.0
  O  O223  1  0.64523000  0.85073000  0.63978000  1.0
  O  O224  1  0.41557000  0.77677000  0.77582000  1.0
  O  O225  1  0.58443000  0.22323000  0.22418000  1.0
  O  O226  1  0.39503000  0.93443000  0.74653000  1.0
  O  O227  1  0.60497000  0.06557000  0.25347000  1.0
  O  O228  1  0.65089000  0.86682000  0.16771000  1.0
  O  O229  1  0.34910000  0.13318000  0.83229000  1.0
  O  O230  1  0.57480000  0.74031000  0.17360000  1.0
  O  O231  1  0.42520000  0.25969000  0.82640000  1.0
  O  O232  1  0.59672000  0.88634000  0.04316000  1.0
  O  O233  1  0.40327000  0.11366000  0.95684000  1.0
  O  O234  1  0.98230000  0.67415000  0.95807000  1.0
  O  O235  1  0.01769000  0.32585000  0.04193000  1.0
  O  O236  1  0.15819000  0.64058000  0.92258000  1.0
  O  O237  1  0.84181000  0.35942000  0.07742000  1.0
  O  O238  1  0.10702000  0.24873000  0.71644000  1.0
  O  O239  1  0.89298000  0.75127000  0.28356000  1.0
  O  O240  1  0.12961000  0.09165000  0.74194000  1.0
  O  O241  1  0.87038000  0.90835000  0.25807000  1.0
  O  O242  1  0.13035000  0.79356000  0.27408000  1.0
  O  O243  1  0.86965000  0.20644000  0.72593000  1.0
  O  O244  1  0.11514000  0.89412000  0.14073000  1.0
  O  O245  1  0.88487000  0.10588000  0.85927000  1.0
  O  O246  1  0.85412000  0.25546000  0.35598000  1.0
  O  O247  1  0.14588000  0.74454000  0.64402000  1.0
  O  O248  1  0.81767000  0.11229000  0.35372000  1.0
  O  O249  1  0.18233000  0.88771000  0.64628000  1.0
  O  O250  1  0.82627000  0.11348000  0.49065000  1.0
  O  O251  1  0.17374000  0.88652000  0.50935000  1.0
  F  F252  1  0.75655000  0.72672000  0.01528000  1.0
  F  F253  1  0.24345000  0.27328000  0.98472000  1.0
  F  F254  1  0.80024000  0.69820000  0.13229000  1.0
  F  F255  1  0.19976000  0.30180000  0.86771000  1.0
  F  F256  1  0.82899000  0.83100000  0.02028000  1.0
  F  F257  1  0.17101000  0.16900000  0.97972000  1.0
  F  F258  1  0.64084000  0.26348000  0.48894000  1.0
  F  F259  1  0.35916000  0.73652000  0.51106000  1.0
  F  F260  1  0.63732000  0.26881000  0.36318000  1.0
  F  F261  1  0.36268000  0.73119000  0.63682000  1.0
  F  F262  1  0.60897000  0.13973000  0.47989000  1.0
  F  F263  1  0.39103000  0.86027000  0.52011000  1.0
