# generated using pymatgen
data_CuHg2H6C10I4(NO)4
_symmetry_space_group_name_H-M   'P 1'
_cell_length_a   9.95559000
_cell_length_b   10.47020000
_cell_length_c   20.09510000
_cell_angle_alpha   90.00000000
_cell_angle_beta   90.00010000
_cell_angle_gamma   89.99920000
_symmetry_Int_Tables_number   1
_chemical_formula_structural   CuHg2H6C10I4(NO)4
_chemical_formula_sum   'Cu4 Hg8 H24 C40 I16 N16 O16'
_cell_volume   2094.65330860
_cell_formula_units_Z   4
loop_
 _symmetry_equiv_pos_site_id
 _symmetry_equiv_pos_as_xyz
  1  'x, y, z'
loop_
 _atom_site_type_symbol
 _atom_site_label
 _atom_site_symmetry_multiplicity
 _atom_site_fract_x
 _atom_site_fract_y
 _atom_site_fract_z
 _atom_site_occupancy
  Cu  Cu0  1  0.00000000  0.00000000  0.50000000  1.0
  Cu  Cu1  1  0.50000000  0.50000000  0.50000000  1.0
  Cu  Cu2  1  0.00000000  0.00000000  0.00000000  1.0
  Cu  Cu3  1  0.50000000  0.50000000  0.00000000  1.0
  Hg  Hg4  1  0.98118000  0.03545000  0.75000000  1.0
  Hg  Hg5  1  0.51882000  0.53544000  0.75000000  1.0
  Hg  Hg6  1  0.48118000  0.46456000  0.25000000  1.0
  Hg  Hg7  1  0.01882000  0.96456000  0.25000000  1.0
  Hg  Hg8  1  0.48693000  0.00160000  0.75000000  1.0
  Hg  Hg9  1  0.01306000  0.50161000  0.75000000  1.0
  Hg  Hg10  1  0.98693000  0.49839000  0.25000000  1.0
  Hg  Hg11  1  0.51306000  0.99839000  0.25000000  1.0
  H  H12  1  0.30844000  0.31000000  0.60423000  1.0
  H  H13  1  0.19155000  0.81000000  0.60423000  1.0
  H  H14  1  0.30844000  0.31000000  0.89577000  1.0
  H  H15  1  0.80844000  0.19000000  0.10423000  1.0
  H  H16  1  0.69156000  0.69000000  0.39577000  1.0
  H  H17  1  0.80845000  0.19000000  0.39577000  1.0
  H  H18  1  0.69156000  0.69001000  0.10423000  1.0
  H  H19  1  0.19156000  0.81000000  0.89577000  1.0
  H  H20  1  0.31732000  0.33356000  0.39698000  1.0
  H  H21  1  0.18269000  0.83357000  0.39698000  1.0
  H  H22  1  0.31731000  0.33356000  0.10302000  1.0
  H  H23  1  0.81731000  0.16643000  0.89697000  1.0
  H  H24  1  0.68268000  0.66643000  0.60302000  1.0
  H  H25  1  0.81732000  0.16643000  0.60303000  1.0
  H  H26  1  0.68269000  0.66643000  0.89697000  1.0
  H  H27  1  0.18268000  0.83357000  0.10302000  1.0
  H  H28  1  0.14737000  0.15461000  0.38918000  1.0
  H  H29  1  0.35263000  0.65461000  0.38918000  1.0
  H  H30  1  0.14737000  0.15461000  0.11082000  1.0
  H  H31  1  0.64737000  0.34539000  0.88917000  1.0
  H  H32  1  0.85263000  0.84539000  0.61083000  1.0
  H  H33  1  0.64738000  0.34539000  0.61083000  1.0
  H  H34  1  0.85263000  0.84539000  0.88917000  1.0
  H  H35  1  0.35263000  0.65461000  0.11082000  1.0
  C  C36  1  0.17777000  0.17889000  0.55196000  1.0
  C  C37  1  0.32223000  0.67889000  0.55196000  1.0
  C  C38  1  0.17776000  0.17890000  0.94804000  1.0
  C  C39  1  0.67776000  0.32110000  0.05196000  1.0
  C  C40  1  0.82224000  0.82110000  0.44804000  1.0
  C  C41  1  0.67777000  0.32111000  0.44804000  1.0
  C  C42  1  0.82224000  0.82111000  0.05196000  1.0
  C  C43  1  0.32224000  0.67889000  0.94804000  1.0
  C  C44  1  0.27290000  0.27634000  0.55588000  1.0
  C  C45  1  0.22709000  0.77634000  0.55588000  1.0
  C  C46  1  0.27290000  0.27634000  0.94412000  1.0
  C  C47  1  0.77291000  0.22366000  0.05587000  1.0
  C  C48  1  0.72710000  0.72366000  0.44412000  1.0
  C  C49  1  0.77292000  0.22366000  0.44413000  1.0
  C  C50  1  0.72710000  0.72366000  0.05588000  1.0
  C  C51  1  0.22710000  0.77634000  0.94412000  1.0
  C  C52  1  0.27787000  0.28846000  0.44178000  1.0
  C  C53  1  0.22212000  0.78846000  0.44178000  1.0
  C  C54  1  0.27787000  0.28846000  0.05822000  1.0
  C  C55  1  0.77787000  0.21154000  0.94177000  1.0
  C  C56  1  0.72213000  0.71154000  0.55822000  1.0
  C  C57  1  0.77788000  0.21153000  0.55823000  1.0
  C  C58  1  0.72213000  0.71154000  0.94178000  1.0
  C  C59  1  0.22213000  0.78846000  0.05822000  1.0
  C  C60  1  0.18403000  0.18985000  0.43683000  1.0
  C  C61  1  0.31597000  0.68986000  0.43683000  1.0
  C  C62  1  0.18403000  0.18985000  0.06317000  1.0
  C  C63  1  0.68403000  0.31014000  0.93682000  1.0
  C  C64  1  0.81597000  0.81014000  0.56317000  1.0
  C  C65  1  0.68403000  0.31015000  0.56318000  1.0
  C  C66  1  0.81597000  0.81014000  0.93683000  1.0
  C  C67  1  0.31597000  0.68985000  0.06317000  1.0
  C  C68  1  0.11129000  0.11791000  0.61117000  1.0
  C  C69  1  0.38871000  0.61791000  0.61117000  1.0
  C  C70  1  0.11128000  0.11791000  0.88883000  1.0
  C  C71  1  0.61128000  0.38209000  0.11116000  1.0
  C  C72  1  0.88872000  0.88209000  0.38883000  1.0
  C  C73  1  0.61129000  0.38209000  0.38884000  1.0
  C  C74  1  0.88872000  0.88209000  0.11117000  1.0
  C  C75  1  0.38872000  0.61791000  0.88883000  1.0
  I  I76  1  0.77544000  0.20080000  0.75000000  1.0
  I  I77  1  0.72456000  0.70080000  0.75000000  1.0
  I  I78  1  0.27544000  0.29921000  0.25000000  1.0
  I  I79  1  0.22456000  0.79920000  0.25000000  1.0
  I  I80  1  0.12479000  0.82153000  0.75000000  1.0
  I  I81  1  0.37521000  0.32153000  0.75000000  1.0
  I  I82  1  0.62479000  0.67847000  0.25000000  1.0
  I  I83  1  0.87521000  0.17847000  0.25000000  1.0
  I  I84  1  0.49125000  0.99097000  0.61832000  1.0
  I  I85  1  0.00874000  0.49097000  0.61832000  1.0
  I  I86  1  0.49126000  0.99097000  0.88168000  1.0
  I  I87  1  0.99126000  0.50903000  0.11831000  1.0
  I  I88  1  0.50875000  0.00902000  0.38169000  1.0
  I  I89  1  0.99125000  0.50903000  0.38168000  1.0
  I  I90  1  0.50875000  0.00903000  0.11832000  1.0
  I  I91  1  0.00874000  0.49097000  0.88169000  1.0
  N  N92  1  0.13540000  0.13651000  0.49222000  1.0
  N  N93  1  0.36460000  0.63651000  0.49222000  1.0
  N  N94  1  0.13539000  0.13651000  0.00778000  1.0
  N  N95  1  0.63539000  0.36348000  0.99222000  1.0
  N  N96  1  0.86460000  0.86349000  0.50778000  1.0
  N  N97  1  0.63540000  0.36348000  0.50778000  1.0
  N  N98  1  0.86461000  0.86349000  0.99222000  1.0
  N  N99  1  0.36460000  0.63651000  0.00778000  1.0
  N  N100  1  0.32258000  0.33074000  0.50065000  1.0
  N  N101  1  0.17742000  0.83074000  0.50065000  1.0
  N  N102  1  0.32258000  0.33074000  0.99935000  1.0
  N  N103  1  0.82258000  0.16926000  0.00065000  1.0
  N  N104  1  0.67742000  0.66926000  0.49935000  1.0
  N  N105  1  0.82259000  0.16926000  0.49936000  1.0
  N  N106  1  0.67742000  0.66926000  0.00065000  1.0
  N  N107  1  0.17742000  0.83074000  0.99935000  1.0
  O  O108  1  0.02385000  0.03029000  0.59721000  1.0
  O  O109  1  0.47615000  0.53029000  0.59721000  1.0
  O  O110  1  0.02385000  0.03029000  0.90279000  1.0
  O  O111  1  0.52384000  0.46971000  0.09720000  1.0
  O  O112  1  0.97615000  0.96971000  0.40279000  1.0
  O  O113  1  0.52386000  0.46971000  0.40279000  1.0
  O  O114  1  0.97615000  0.96971000  0.09721000  1.0
  O  O115  1  0.47615000  0.53029000  0.90279000  1.0
  O  O116  1  0.13942000  0.15518000  0.66844000  1.0
  O  O117  1  0.36058000  0.65518000  0.66844000  1.0
  O  O118  1  0.13943000  0.15518000  0.83156000  1.0
  O  O119  1  0.63943000  0.34483000  0.16844000  1.0
  O  O120  1  0.86058000  0.84482000  0.33156000  1.0
  O  O121  1  0.63943000  0.34482000  0.33156000  1.0
  O  O122  1  0.86057000  0.84482000  0.16844000  1.0
  O  O123  1  0.36058000  0.65518000  0.83156000  1.0
