# generated using pymatgen
data_ZnH14C12N2O5
_symmetry_space_group_name_H-M   'P 1'
_cell_length_a   7.80050000
_cell_length_b   10.01120000
_cell_length_c   16.01610000
_cell_angle_alpha   90.52750000
_cell_angle_beta   90.00000000
_cell_angle_gamma   90.00000000
_symmetry_Int_Tables_number   1
_chemical_formula_structural   ZnH14C12N2O5
_chemical_formula_sum   'Zn4 H56 C48 N8 O20'
_cell_volume   1250.68212984
_cell_formula_units_Z   4
loop_
 _symmetry_equiv_pos_site_id
 _symmetry_equiv_pos_as_xyz
  1  'x, y, z'
loop_
 _atom_site_type_symbol
 _atom_site_label
 _atom_site_symmetry_multiplicity
 _atom_site_fract_x
 _atom_site_fract_y
 _atom_site_fract_z
 _atom_site_occupancy
  Zn  Zn0  1  0.99743000  0.30594000  0.76679000  1.0
  Zn  Zn1  1  0.49743000  0.69406000  0.73321000  1.0
  Zn  Zn2  1  0.00257000  0.69406000  0.23322000  1.0
  Zn  Zn3  1  0.50257000  0.30594000  0.26679000  1.0
  H  H4  1  0.62631000  0.29342000  0.01538000  1.0
  H  H5  1  0.12631000  0.70658000  0.48462000  1.0
  H  H6  1  0.37369000  0.70658000  0.98462000  1.0
  H  H7  1  0.87369000  0.29342000  0.51538000  1.0
  H  H8  1  0.10291000  0.42364000  0.99592000  1.0
  H  H9  1  0.60291000  0.57636000  0.50408000  1.0
  H  H10  1  0.89709000  0.57636000  0.00408000  1.0
  H  H11  1  0.39709000  0.42364000  0.49592000  1.0
  H  H12  1  0.41469000  0.39251000  0.77531000  1.0
  H  H13  1  0.91469000  0.60749000  0.72469000  1.0
  H  H14  1  0.58531000  0.60750000  0.22469000  1.0
  H  H15  1  0.08531000  0.39251000  0.27531000  1.0
  H  H16  1  0.82890000  0.06550000  0.76335000  1.0
  H  H17  1  0.32890000  0.93450000  0.73666000  1.0
  H  H18  1  0.17110000  0.93449000  0.23666000  1.0
  H  H19  1  0.67110000  0.06550000  0.26334000  1.0
  H  H20  1  0.79007000  0.97544000  0.85654000  1.0
  H  H21  1  0.29008000  0.02455000  0.64346000  1.0
  H  H22  1  0.20993000  0.02455000  0.14346000  1.0
  H  H23  1  0.70993000  0.97544000  0.35654000  1.0
  H  H24  1  0.89144000  0.89515000  0.77118000  1.0
  H  H25  1  0.39144000  0.10485000  0.72882000  1.0
  H  H26  1  0.10856000  0.10485000  0.22882000  1.0
  H  H27  1  0.60856000  0.89515000  0.27118000  1.0
  H  H28  1  0.95446000  0.80688000  0.89532000  1.0
  H  H29  1  0.45446000  0.19312000  0.60468000  1.0
  H  H30  1  0.04554000  0.19312000  0.10468000  1.0
  H  H31  1  0.54554000  0.80688000  0.39532000  1.0
  H  H32  1  0.09645000  0.81689000  0.98272000  1.0
  H  H33  1  0.59645000  0.18311000  0.51728000  1.0
  H  H34  1  0.90355000  0.18311000  0.01728000  1.0
  H  H35  1  0.40355000  0.81689000  0.48272000  1.0
  H  H36  1  0.16993000  0.75343000  0.88471000  1.0
  H  H37  1  0.66993000  0.24657000  0.61529000  1.0
  H  H38  1  0.83007000  0.24657000  0.11529000  1.0
  H  H39  1  0.33007000  0.75343000  0.38471000  1.0
  H  H40  1  0.33188000  0.10629000  0.90474000  1.0
  H  H41  1  0.83188000  0.89371000  0.59526000  1.0
  H  H42  1  0.66812000  0.89371000  0.09526000  1.0
  H  H43  1  0.16812000  0.10629000  0.40474000  1.0
  H  H44  1  0.40648000  0.93598000  0.90184000  1.0
  H  H45  1  0.90648000  0.06401000  0.59816000  1.0
  H  H46  1  0.59352000  0.06401000  0.09816000  1.0
  H  H47  1  0.09352000  0.93598000  0.40184000  1.0
  H  H48  1  0.30083000  0.99924000  0.99252000  1.0
  H  H49  1  0.80083000  0.00076000  0.50748000  1.0
  H  H50  1  0.69917000  0.00076000  0.00748000  1.0
  H  H51  1  0.19917000  0.99924000  0.49252000  1.0
  H  H52  1  0.01182000  0.50843000  0.86206000  1.0
  H  H53  1  0.51182000  0.49157000  0.63794000  1.0
  H  H54  1  0.98818000  0.49157000  0.13794000  1.0
  H  H55  1  0.48818000  0.50843000  0.36206000  1.0
  H  H56  1  0.15454000  0.53349000  0.78628000  1.0
  H  H57  1  0.65454000  0.46651000  0.71372000  1.0
  H  H58  1  0.84546000  0.46651000  0.21372000  1.0
  H  H59  1  0.34546000  0.53349000  0.28628000  1.0
  C  C60  1  0.54036000  0.34029000  0.89143000  1.0
  C  C61  1  0.04037000  0.65971000  0.60857000  1.0
  C  C62  1  0.45963000  0.65971000  0.10857000  1.0
  C  C63  1  0.95963000  0.34029000  0.39143000  1.0
  C  C64  1  0.51859000  0.32477000  0.97745000  1.0
  C  C65  1  0.01859000  0.67523000  0.52255000  1.0
  C  C66  1  0.48141000  0.67523000  0.02255000  1.0
  C  C67  1  0.98141000  0.32477000  0.47745000  1.0
  C  C68  1  0.36148000  0.35371000  0.01499000  1.0
  C  C69  1  0.86148000  0.64629000  0.48501000  1.0
  C  C70  1  0.63852000  0.64629000  0.98500000  1.0
  C  C71  1  0.13852000  0.35371000  0.51499000  1.0
  C  C72  1  0.22522000  0.40067000  0.96635000  1.0
  C  C73  1  0.72522000  0.59933000  0.53364000  1.0
  C  C74  1  0.77478000  0.59933000  0.03364000  1.0
  C  C75  1  0.27478000  0.40067000  0.46635000  1.0
  C  C76  1  0.24704000  0.41773000  0.88070000  1.0
  C  C77  1  0.74704000  0.58227000  0.61930000  1.0
  C  C78  1  0.75296000  0.58227000  0.11930000  1.0
  C  C79  1  0.25296000  0.41773000  0.38070000  1.0
  C  C80  1  0.40353000  0.38498000  0.84285000  1.0
  C  C81  1  0.90353000  0.61502000  0.65715000  1.0
  C  C82  1  0.59647000  0.61502000  0.15715000  1.0
  C  C83  1  0.09647000  0.38498000  0.34285000  1.0
  C  C84  1  0.71415000  0.31458000  0.85558000  1.0
  C  C85  1  0.21415000  0.68542000  0.64442000  1.0
  C  C86  1  0.28585000  0.68542000  0.14442000  1.0
  C  C87  1  0.78585000  0.31458000  0.35558000  1.0
  C  C88  1  0.34337000  0.34238000  0.10799000  1.0
  C  C89  1  0.84337000  0.65762000  0.39201000  1.0
  C  C90  1  0.65663000  0.65762000  0.89200000  1.0
  C  C91  1  0.15663000  0.34238000  0.60799000  1.0
  C  C92  1  0.05298000  0.03716000  0.83674000  1.0
  C  C93  1  0.55298000  0.96284000  0.66326000  1.0
  C  C94  1  0.94702000  0.96284000  0.16326000  1.0
  C  C95  1  0.44702000  0.03716000  0.33674000  1.0
  C  C96  1  0.88151000  0.99036000  0.80536000  1.0
  C  C97  1  0.38151000  0.00964000  0.69464000  1.0
  C  C98  1  0.11849000  0.00964000  0.19464000  1.0
  C  C99  1  0.61849000  0.99036000  0.30536000  1.0
  C  C100  1  0.08566000  0.82772000  0.91483000  1.0
  C  C101  1  0.58566000  0.17228000  0.58517000  1.0
  C  C102  1  0.91434000  0.17228000  0.08517000  1.0
  C  C103  1  0.41434000  0.82772000  0.41483000  1.0
  C  C104  1  0.30509000  0.00405000  0.92400000  1.0
  C  C105  1  0.80509000  0.99595000  0.57600000  1.0
  C  C106  1  0.69491000  0.99595000  0.07600000  1.0
  C  C107  1  0.19491000  0.00405000  0.42400000  1.0
  N  N108  1  0.10989000  0.46392000  0.82890000  1.0
  N  N109  1  0.60989000  0.53608000  0.67110000  1.0
  N  N110  1  0.89011000  0.53608000  0.17110000  1.0
  N  N111  1  0.39011000  0.46392000  0.32890000  1.0
  N  N112  1  0.13976000  0.96123000  0.89065000  1.0
  N  N113  1  0.63976000  0.03877000  0.60935000  1.0
  N  N114  1  0.86024000  0.03877000  0.10935000  1.0
  N  N115  1  0.36024000  0.96123000  0.39065000  1.0
  O  O116  1  0.73668000  0.32623000  0.77506000  1.0
  O  O117  1  0.23668000  0.67377000  0.72494000  1.0
  O  O118  1  0.26332000  0.67377000  0.22494000  1.0
  O  O119  1  0.76332000  0.32623000  0.27506000  1.0
  O  O120  1  0.83605000  0.28409000  0.90278000  1.0
  O  O121  1  0.33605000  0.71591000  0.59722000  1.0
  O  O122  1  0.16395000  0.71591000  0.09722000  1.0
  O  O123  1  0.66395000  0.28409000  0.40278000  1.0
  O  O124  1  0.20913000  0.38112000  0.14395000  1.0
  O  O125  1  0.70913000  0.61888000  0.35605000  1.0
  O  O126  1  0.79087000  0.61888000  0.85605000  1.0
  O  O127  1  0.29087000  0.38112000  0.64395000  1.0
  O  O128  1  0.47584000  0.29213000  0.14548000  1.0
  O  O129  1  0.97584000  0.70788000  0.35452000  1.0
  O  O130  1  0.52416000  0.70787000  0.85452000  1.0
  O  O131  1  0.02416000  0.29213000  0.64548000  1.0
  O  O132  1  0.11837000  0.14591000  0.81155000  1.0
  O  O133  1  0.61837000  0.85409000  0.68845000  1.0
  O  O134  1  0.88163000  0.85409000  0.18845000  1.0
  O  O135  1  0.38164000  0.14591000  0.31155000  1.0
