# generated using pymatgen
data_AgH20C22N2O2F3
_symmetry_space_group_name_H-M   'P 1'
_cell_length_a   4.48773000
_cell_length_b   14.35020000
_cell_length_c   15.41170000
_cell_angle_alpha   89.40100000
_cell_angle_beta   85.15190000
_cell_angle_gamma   87.43560000
_symmetry_Int_Tables_number   1
_chemical_formula_structural   AgH20C22N2O2F3
_chemical_formula_sum   'Ag2 H40 C44 N4 O4 F6'
_cell_volume   987.94722711
_cell_formula_units_Z   2
loop_
 _symmetry_equiv_pos_site_id
 _symmetry_equiv_pos_as_xyz
  1  'x, y, z'
loop_
 _atom_site_type_symbol
 _atom_site_label
 _atom_site_symmetry_multiplicity
 _atom_site_fract_x
 _atom_site_fract_y
 _atom_site_fract_z
 _atom_site_occupancy
  Ag  Ag0  1  0.76794000  0.53733000  0.44984000  1.0
  Ag  Ag1  1  0.23206000  0.46268000  0.55016000  1.0
  H  H2  1  0.37837000  0.70863000  0.35948000  1.0
  H  H3  1  0.62163000  0.29137000  0.64052000  1.0
  H  H4  1  0.97696000  0.79766000  0.37983000  1.0
  H  H5  1  0.02304000  0.20234000  0.62017000  1.0
  H  H6  1  0.50974000  0.98699000  0.21613000  1.0
  H  H7  1  0.49026000  0.01301000  0.78387000  1.0
  H  H8  1  0.84577000  0.71958000  0.11728000  1.0
  H  H9  1  0.15423000  0.28043000  0.88272000  1.0
  H  H10  1  0.51151000  0.01812000  0.37225000  1.0
  H  H11  1  0.48849000  0.98188000  0.62776000  1.0
  H  H12  1  0.90399000  0.01236000  0.37895000  1.0
  H  H13  1  0.09601000  0.98764000  0.62105000  1.0
  H  H14  1  0.67812000  0.93515000  0.44226000  1.0
  H  H15  1  0.32188000  0.06486000  0.55775000  1.0
  H  H16  1  0.59975000  0.82577000  0.02286000  1.0
  H  H17  1  0.40025000  0.17423000  0.97714000  1.0
  H  H18  1  0.61846000  0.94672000  0.04477000  1.0
  H  H19  1  0.38154000  0.05328000  0.95524000  1.0
  H  H20  1  0.29254000  0.88711000  0.08057000  1.0
  H  H21  1  0.70746000  0.11289000  0.91943000  1.0
  H  H22  1  0.45787000  0.42482000  0.31559000  1.0
  H  H23  1  0.54213000  0.57518000  0.68441000  1.0
  H  H24  1  0.30816000  0.31566000  0.25864000  1.0
  H  H25  1  0.69184000  0.68434000  0.74136000  1.0
  H  H26  1  0.86035000  0.20914000  0.04843000  1.0
  H  H27  1  0.13966000  0.79086000  0.95157000  1.0
  H  H28  1  0.81297000  0.50410000  0.09880000  1.0
  H  H29  1  0.18703000  0.49590000  0.90120000  1.0
  H  H30  1  0.29146000  0.11686000  0.12114000  1.0
  H  H31  1  0.70854000  0.88314000  0.87886000  1.0
  H  H32  1  0.01623000  0.11418000  0.21018000  1.0
  H  H33  1  0.98377000  0.88581000  0.78981000  1.0
  H  H34  1  0.37471000  0.15568000  0.22539000  1.0
  H  H35  1  0.62529000  0.84432000  0.77460000  1.0
  H  H36  1  0.66393000  0.31756000  0.94141000  1.0
  H  H37  1  0.33607000  0.68243000  0.05859000  1.0
  H  H38  1  0.67823000  0.43970000  0.95536000  1.0
  H  H39  1  0.32177000  0.56030000  0.04464000  1.0
  H  H40  1  0.38737000  0.37753000  0.01143000  1.0
  H  H41  1  0.61264000  0.62247000  0.98857000  1.0
  C  C42  1  0.30610000  0.64907000  0.32484000  1.0
  C  C43  1  0.69390000  0.35093000  0.67516000  1.0
  C  C44  1  0.09370000  0.65910000  0.26284000  1.0
  C  C45  1  0.90630000  0.34090000  0.73716000  1.0
  C  C46  1  0.93823000  0.75007000  0.24873000  1.0
  C  C47  1  0.06177000  0.24993000  0.75127000  1.0
  C  C48  1  0.89861000  0.81511000  0.31643000  1.0
  C  C49  1  0.10139000  0.18489000  0.68357000  1.0
  C  C50  1  0.74504000  0.90089000  0.30556000  1.0
  C  C51  1  0.25496000  0.09911000  0.69444000  1.0
  C  C52  1  0.63262000  0.92064000  0.22516000  1.0
  C  C53  1  0.36738000  0.07936000  0.77484000  1.0
  C  C54  1  0.66747000  0.85665000  0.15640000  1.0
  C  C55  1  0.33253000  0.14335000  0.84360000  1.0
  C  C56  1  0.81947000  0.77118000  0.16902000  1.0
  C  C57  1  0.18053000  0.22882000  0.83098000  1.0
  C  C58  1  0.70581000  0.97008000  0.37863000  1.0
  C  C59  1  0.29419000  0.02992000  0.62137000  1.0
  C  C60  1  0.53846000  0.88008000  0.07145000  1.0
  C  C61  1  0.46154000  0.11992000  0.92856000  1.0
  C  C62  1  0.35288000  0.49145000  0.29853000  1.0
  C  C63  1  0.64712000  0.50855000  0.70147000  1.0
  C  C64  1  0.15033000  0.50101000  0.23397000  1.0
  C  C65  1  0.84966000  0.49899000  0.76603000  1.0
  C  C66  1  0.06728000  0.41969000  0.18442000  1.0
  C  C67  1  0.93271000  0.58031000  0.81558000  1.0
  C  C68  1  0.16715000  0.32850000  0.20521000  1.0
  C  C69  1  0.83284000  0.67150000  0.79479000  1.0
  C  C70  1  0.09235000  0.25219000  0.15725000  1.0
  C  C71  1  0.90764000  0.74781000  0.84275000  1.0
  C  C72  1  0.91651000  0.26824000  0.08710000  1.0
  C  C73  1  0.08348000  0.73176000  0.91290000  1.0
  C  C74  1  0.81362000  0.35814000  0.06471000  1.0
  C  C75  1  0.18638000  0.64186000  0.93529000  1.0
  C  C76  1  0.88917000  0.43325000  0.11444000  1.0
  C  C77  1  0.11083000  0.56675000  0.88556000  1.0
  C  C78  1  0.20013000  0.15478000  0.17976000  1.0
  C  C79  1  0.79987000  0.84522000  0.82024000  1.0
  C  C80  1  0.62679000  0.37397000  0.98905000  1.0
  C  C81  1  0.37322000  0.62603000  0.01095000  1.0
  C  C82  1  0.91927000  0.32105000  0.44785000  1.0
  C  C83  1  0.08073000  0.67896000  0.55214000  1.0
  C  C84  1  0.84723000  0.22020000  0.42323000  1.0
  C  C85  1  0.15278000  0.77979000  0.57677000  1.0
  N  N86  1  0.43132000  0.56538000  0.34258000  1.0
  N  N87  1  0.56868000  0.43462000  0.65742000  1.0
  N  N88  1  0.02324000  0.58529000  0.21689000  1.0
  N  N89  1  0.97676000  0.41470000  0.78311000  1.0
  O  O90  1  0.76812000  0.38520000  0.41365000  1.0
  O  O91  1  0.23188000  0.61480000  0.58635000  1.0
  O  O92  1  0.11529000  0.32488000  0.50142000  1.0
  O  O93  1  0.88472000  0.67512000  0.49858000  1.0
  F  F94  1  0.68299000  0.21744000  0.35342000  1.0
  F  F95  1  0.31702000  0.78255000  0.64658000  1.0
  F  F96  1  0.68877000  0.17934000  0.49197000  1.0
  F  F97  1  0.31123000  0.82066000  0.50803000  1.0
  F  F98  1  0.10051000  0.16586000  0.40440000  1.0
  F  F99  1  0.89950000  0.83414000  0.59560000  1.0
