# generated using pymatgen
data_Cu2H8C13N6
_symmetry_space_group_name_H-M   'P 1'
_cell_length_a   5.16686000
_cell_length_b   8.24135000
_cell_length_c   15.49100000
_cell_angle_alpha   89.99320000
_cell_angle_beta   89.98360000
_cell_angle_gamma   93.80590000
_symmetry_Int_Tables_number   1
_chemical_formula_structural   Cu2H8C13N6
_chemical_formula_sum   'Cu4 H16 C26 N12'
_cell_volume   658.18146903
_cell_formula_units_Z   2
loop_
 _symmetry_equiv_pos_site_id
 _symmetry_equiv_pos_as_xyz
  1  'x, y, z'
loop_
 _atom_site_type_symbol
 _atom_site_label
 _atom_site_symmetry_multiplicity
 _atom_site_fract_x
 _atom_site_fract_y
 _atom_site_fract_z
 _atom_site_occupancy
  Cu  Cu0  1  0.09608000  0.29625000  0.50040000  1.0
  Cu  Cu1  1  0.90593000  0.70682000  0.50033000  1.0
  Cu  Cu2  1  0.00096000  0.00106000  0.83737000  1.0
  Cu  Cu3  1  0.00117000  0.00066000  0.15651000  1.0
  H  H4  1  0.83964000  0.08707000  0.65644000  1.0
  H  H5  1  0.49987000  0.24539000  0.59227000  1.0
  H  H6  1  0.24797000  0.35241000  0.85082000  1.0
  H  H7  1  0.60574000  0.18843000  0.90580000  1.0
  H  H8  1  0.15933000  0.91284000  0.65694000  1.0
  H  H9  1  0.49760000  0.75378000  0.59245000  1.0
  H  H10  1  0.75166000  0.64717000  0.85075000  1.0
  H  H11  1  0.39453000  0.81148000  0.90605000  1.0
  H  H12  1  0.15948000  0.91419000  0.34297000  1.0
  H  H13  1  0.49703000  0.75548000  0.40781000  1.0
  H  H14  1  0.75021000  0.64565000  0.14982000  1.0
  H  H15  1  0.39422000  0.80952000  0.09425000  1.0
  H  H16  1  0.84039000  0.08559000  0.34358000  1.0
  H  H17  1  0.50136000  0.24366000  0.40809000  1.0
  H  H18  1  0.25067000  0.35372000  0.14985000  1.0
  H  H19  1  0.60713000  0.18989000  0.09462000  1.0
  C  C20  1  0.14414000  0.41512000  0.68612000  1.0
  C  C21  1  0.70570000  0.14700000  0.69809000  1.0
  C  C22  1  0.51319000  0.23559000  0.66229000  1.0
  C  C23  1  0.34287000  0.31253000  0.71685000  1.0
  C  C24  1  0.37525000  0.29342000  0.80641000  1.0
  C  C25  1  0.57450000  0.20454000  0.83680000  1.0
  C  C26  1  0.85462000  0.58447000  0.68604000  1.0
  C  C27  1  0.29346000  0.85282000  0.69846000  1.0
  C  C28  1  0.48520000  0.76381000  0.66247000  1.0
  C  C29  1  0.65592000  0.68700000  0.71688000  1.0
  C  C30  1  0.62404000  0.70613000  0.80646000  1.0
  C  C31  1  0.42534000  0.79522000  0.83704000  1.0
  C  C32  1  0.85474000  0.58441000  0.31458000  1.0
  C  C33  1  0.29321000  0.85372000  0.30147000  1.0
  C  C34  1  0.48481000  0.76471000  0.33775000  1.0
  C  C35  1  0.65562000  0.68698000  0.28366000  1.0
  C  C36  1  0.62316000  0.70516000  0.19406000  1.0
  C  C37  1  0.42492000  0.79439000  0.16331000  1.0
  C  C38  1  0.14506000  0.41510000  0.31456000  1.0
  C  C39  1  0.70698000  0.14595000  0.30193000  1.0
  C  C40  1  0.51459000  0.23464000  0.33803000  1.0
  C  C41  1  0.34424000  0.31241000  0.28380000  1.0
  C  C42  1  0.37734000  0.29424000  0.19423000  1.0
  C  C43  1  0.57601000  0.20512000  0.16366000  1.0
  C  C44  1  0.97162000  0.93028000  0.50010000  1.0
  C  C45  1  0.00134000  0.00155000  0.03597000  1.0
  N  N46  1  0.09132000  0.44365000  0.60161000  1.0
  N  N47  1  0.73965000  0.13111000  0.78410000  1.0
  N  N48  1  0.90864000  0.55640000  0.60152000  1.0
  N  N49  1  0.26020000  0.86891000  0.78445000  1.0
  N  N50  1  0.90886000  0.55631000  0.39910000  1.0
  N  N51  1  0.25973000  0.86918000  0.21549000  1.0
  N  N52  1  0.09179000  0.44373000  0.39905000  1.0
  N  N53  1  0.74112000  0.13056000  0.21594000  1.0
  N  N54  1  0.02988000  0.07170000  0.50009000  1.0
  N  N55  1  0.00137000  0.00183000  0.95981000  1.0
  N  N56  1  0.99897000  0.49962000  0.74004000  1.0
  N  N57  1  0.99958000  0.49958000  0.26066000  1.0
