# generated using pymatgen
data_AgH20C28S2N17O7
_symmetry_space_group_name_H-M   'P 1'
_cell_length_a   7.29289000
_cell_length_b   15.11130000
_cell_length_c   15.11120000
_cell_angle_alpha   80.61000000
_cell_angle_beta   79.85550000
_cell_angle_gamma   79.85610000
_symmetry_Int_Tables_number   1
_chemical_formula_structural   AgH20C28S2N17O7
_chemical_formula_sum   'Ag2 H40 C56 S4 N34 O14'
_cell_volume   1598.59778357
_cell_formula_units_Z   2
loop_
 _symmetry_equiv_pos_site_id
 _symmetry_equiv_pos_as_xyz
  1  'x, y, z'
loop_
 _atom_site_type_symbol
 _atom_site_label
 _atom_site_symmetry_multiplicity
 _atom_site_fract_x
 _atom_site_fract_y
 _atom_site_fract_z
 _atom_site_occupancy
  Ag  Ag0  1  0.24999000  0.72260000  0.27739000  1.0
  Ag  Ag1  1  0.75000000  0.27740000  0.72260000  1.0
  H  H2  1  0.98461000  0.96352000  0.71494000  1.0
  H  H3  1  0.51539000  0.28506000  0.03646000  1.0
  H  H4  1  0.01537000  0.03647000  0.28506000  1.0
  H  H5  1  0.48460000  0.71494000  0.96353000  1.0
  H  H6  1  0.02133000  0.96166000  0.87539000  1.0
  H  H7  1  0.47865000  0.12462000  0.03834000  1.0
  H  H8  1  0.97864000  0.03835000  0.12461000  1.0
  H  H9  1  0.52135000  0.87538000  0.96166000  1.0
  H  H10  1  0.95871000  0.67786000  0.93180000  1.0
  H  H11  1  0.54129000  0.06822000  0.32214000  1.0
  H  H12  1  0.04131000  0.32214000  0.06821000  1.0
  H  H13  1  0.45872000  0.93179000  0.67786000  1.0
  H  H14  1  0.93212000  0.67835000  0.76924000  1.0
  H  H15  1  0.56788000  0.23077000  0.32163000  1.0
  H  H16  1  0.06789000  0.32163000  0.23078000  1.0
  H  H17  1  0.43212000  0.76924000  0.67836000  1.0
  H  H18  1  0.15192000  0.68148000  0.04514000  1.0
  H  H19  1  0.34810000  0.95487000  0.31853000  1.0
  H  H20  1  0.84810000  0.31854000  0.95486000  1.0
  H  H21  1  0.65193000  0.04513000  0.68147000  1.0
  H  H22  1  0.21751000  0.66950000  0.56666000  1.0
  H  H23  1  0.28249000  0.43334000  0.33049000  1.0
  H  H24  1  0.78251000  0.33049000  0.43335000  1.0
  H  H25  1  0.71751000  0.56666000  0.66950000  1.0
  H  H26  1  0.54007000  0.66816000  0.48637000  1.0
  H  H27  1  0.95993000  0.51362000  0.33184000  1.0
  H  H28  1  0.45995000  0.33184000  0.51363000  1.0
  H  H29  1  0.04006000  0.48637000  0.66816000  1.0
  H  H30  1  0.46484000  0.96156000  0.45785000  1.0
  H  H31  1  0.03517000  0.54215000  0.03844000  1.0
  H  H32  1  0.53516000  0.03844000  0.54216000  1.0
  H  H33  1  0.96482000  0.45786000  0.96156000  1.0
  H  H34  1  0.13920000  0.96412000  0.53896000  1.0
  H  H35  1  0.36080000  0.46104000  0.03588000  1.0
  H  H36  1  0.86079000  0.03587000  0.46104000  1.0
  H  H37  1  0.63921000  0.53898000  0.96412000  1.0
  H  H38  1  0.85103000  0.67637000  0.43740000  1.0
  H  H39  1  0.64896000  0.56259000  0.32362000  1.0
  H  H40  1  0.14899000  0.32362000  0.56260000  1.0
  H  H41  1  0.35103000  0.43741000  0.67638000  1.0
  C  C42  1  0.95488000  0.82058000  0.73386000  1.0
  C  C43  1  0.54512000  0.26614000  0.17941000  1.0
  C  C44  1  0.04512000  0.17941000  0.26614000  1.0
  C  C45  1  0.45488000  0.73386000  0.82059000  1.0
  C  C46  1  0.97989000  0.90080000  0.76213000  1.0
  C  C47  1  0.52010000  0.23788000  0.09918000  1.0
  C  C48  1  0.02011000  0.09919000  0.23788000  1.0
  C  C49  1  0.47987000  0.76212000  0.90081000  1.0
  C  C50  1  0.00095000  0.90018000  0.85193000  1.0
  C  C51  1  0.49906000  0.14808000  0.09981000  1.0
  C  C52  1  0.99904000  0.09982000  0.14807000  1.0
  C  C53  1  0.50094000  0.85192000  0.90019000  1.0
  C  C54  1  0.99514000  0.81914000  0.91152000  1.0
  C  C55  1  0.50485000  0.08849000  0.18085000  1.0
  C  C56  1  0.00485000  0.18086000  0.08848000  1.0
  C  C57  1  0.49515000  0.91151000  0.81915000  1.0
  C  C58  1  0.96803000  0.73936000  0.88359000  1.0
  C  C59  1  0.53197000  0.11641000  0.26063000  1.0
  C  C60  1  0.03197000  0.26064000  0.11641000  1.0
  C  C61  1  0.46802000  0.88359000  0.73937000  1.0
  C  C62  1  0.95061000  0.73975000  0.79333000  1.0
  C  C63  1  0.54940000  0.20668000  0.26024000  1.0
  C  C64  1  0.04940000  0.26024000  0.20668000  1.0
  C  C65  1  0.45061000  0.79332000  0.73975000  1.0
  C  C66  1  0.09078000  0.74852000  0.06191000  1.0
  C  C67  1  0.40923000  0.93810000  0.25149000  1.0
  C  C68  1  0.90923000  0.25150000  0.93809000  1.0
  C  C69  1  0.59079000  0.06190000  0.74851000  1.0
  C  C70  1  0.15936000  0.81727000  0.55916000  1.0
  C  C71  1  0.34064000  0.44085000  0.18272000  1.0
  C  C72  1  0.84064000  0.18272000  0.44085000  1.0
  C  C73  1  0.65935000  0.55915000  0.81728000  1.0
  C  C74  1  0.26946000  0.73408000  0.54400000  1.0
  C  C75  1  0.23053000  0.45599000  0.26592000  1.0
  C  C76  1  0.73055000  0.26592000  0.45599000  1.0
  C  C77  1  0.76945000  0.54400000  0.73408000  1.0
  C  C78  1  0.45268000  0.73300000  0.49737000  1.0
  C  C79  1  0.04731000  0.50263000  0.26700000  1.0
  C  C80  1  0.54733000  0.26700000  0.50263000  1.0
  C  C81  1  0.95267000  0.49737000  0.73300000  1.0
  C  C82  1  0.52139000  0.81516000  0.46781000  1.0
  C  C83  1  0.97861000  0.53219000  0.18483000  1.0
  C  C84  1  0.47862000  0.18484000  0.53220000  1.0
  C  C85  1  0.02139000  0.46781000  0.81516000  1.0
  C  C86  1  0.40977000  0.89840000  0.48261000  1.0
  C  C87  1  0.09023000  0.51739000  0.10159000  1.0
  C  C88  1  0.59022000  0.10159000  0.51739000  1.0
  C  C89  1  0.90978000  0.48262000  0.89840000  1.0
  C  C90  1  0.22723000  0.89959000  0.52844000  1.0
  C  C91  1  0.27276000  0.47156000  0.10040000  1.0
  C  C92  1  0.77276000  0.10040000  0.47156000  1.0
  C  C93  1  0.72724000  0.52845000  0.89959000  1.0
  C  C94  1  0.85434000  0.74794000  0.40986000  1.0
  C  C95  1  0.64566000  0.59013000  0.25205000  1.0
  C  C96  1  0.14567000  0.25206000  0.59014000  1.0
  C  C97  1  0.35433000  0.40986000  0.74794000  1.0
  S  S98  1  0.92680000  0.82103000  0.61923000  1.0
  S  S99  1  0.57320000  0.38077000  0.17896000  1.0
  S  S100  1  0.07321000  0.17895000  0.38077000  1.0
  S  S101  1  0.42678000  0.61924000  0.82103000  1.0
  N  N102  1  0.01835000  0.81762000  0.00290000  1.0
  N  N103  1  0.48165000  0.99711000  0.18238000  1.0
  N  N104  1  0.98165000  0.18240000  0.99711000  1.0
  N  N105  1  0.51836000  0.00289000  0.81762000  1.0
  N  N106  1  0.96411000  0.89242000  0.04617000  1.0
  N  N107  1  0.53589000  0.95383000  0.10759000  1.0
  N  N108  1  0.03589000  0.10760000  0.95383000  1.0
  N  N109  1  0.46412000  0.04617000  0.89241000  1.0
  N  N110  1  0.00134000  0.86802000  0.12806000  1.0
  N  N111  1  0.49867000  0.87195000  0.13200000  1.0
  N  N112  1  0.99866000  0.13200000  0.87194000  1.0
  N  N113  1  0.50135000  0.12805000  0.86801000  1.0
  N  N114  1  0.08057000  0.77862000  0.14025000  1.0
  N  N115  1  0.41944000  0.85976000  0.22139000  1.0
  N  N116  1  0.91944000  0.22140000  0.85975000  1.0
  N  N117  1  0.58058000  0.14024000  0.77861000  1.0
  N  N118  1  0.70809000  0.81611000  0.42081000  1.0
  N  N119  1  0.79191000  0.57918000  0.18388000  1.0
  N  N120  1  0.29192000  0.18389000  0.57919000  1.0
  N  N121  1  0.20808000  0.42082000  0.81611000  1.0
  N  N122  1  0.76787000  0.89589000  0.38037000  1.0
  N  N123  1  0.73214000  0.61963000  0.10410000  1.0
  N  N124  1  0.23213000  0.10411000  0.61964000  1.0
  N  N125  1  0.26786000  0.38038000  0.89589000  1.0
  N  N126  1  0.94272000  0.87626000  0.34622000  1.0
  N  N127  1  0.55729000  0.65378000  0.12373000  1.0
  N  N128  1  0.05728000  0.12374000  0.65378000  1.0
  N  N129  1  0.44271000  0.34622000  0.87626000  1.0
  N  N130  1  0.00082000  0.78474000  0.36320000  1.0
  N  N131  1  0.49919000  0.63680000  0.21525000  1.0
  N  N132  1  0.99919000  0.21526000  0.63680000  1.0
  N  N133  1  0.50080000  0.36320000  0.78474000  1.0
  N  N134  1  0.24999000  0.50944000  0.49056000  1.0
  N  N135  1  0.74999000  0.49056000  0.50943000  1.0
  O  O136  1  0.85684000  0.73857000  0.61315000  1.0
  O  O137  1  0.64316000  0.38685000  0.26142000  1.0
  O  O138  1  0.14318000  0.26141000  0.38685000  1.0
  O  O139  1  0.35683000  0.61315000  0.73858000  1.0
  O  O140  1  0.82154000  0.90907000  0.58967000  1.0
  O  O141  1  0.67846000  0.41033000  0.09092000  1.0
  O  O142  1  0.17846000  0.09091000  0.41032000  1.0
  O  O143  1  0.32152000  0.58968000  0.90907000  1.0
  O  O144  1  0.24997000  0.57387000  0.42613000  1.0
  O  O145  1  0.74999000  0.42613000  0.57386000  1.0
  O  O146  1  0.20890000  0.43363000  0.48023000  1.0
  O  O147  1  0.29109000  0.51977000  0.56637000  1.0
  O  O148  1  0.79108000  0.56637000  0.51977000  1.0
  O  O149  1  0.70890000  0.48023000  0.43363000  1.0
