# generated using pymatgen
data_CdH16C16S2N4O7
_symmetry_space_group_name_H-M   'P 1'
_cell_length_a   8.32763000
_cell_length_b   10.13130000
_cell_length_c   12.66440000
_cell_angle_alpha   100.94200000
_cell_angle_beta   99.30970000
_cell_angle_gamma   106.84200000
_symmetry_Int_Tables_number   1
_chemical_formula_structural   CdH16C16S2N4O7
_chemical_formula_sum   'Cd2 H32 C32 S4 N8 O14'
_cell_volume   976.99043509
_cell_formula_units_Z   2
loop_
 _symmetry_equiv_pos_site_id
 _symmetry_equiv_pos_as_xyz
  1  'x, y, z'
loop_
 _atom_site_type_symbol
 _atom_site_label
 _atom_site_symmetry_multiplicity
 _atom_site_fract_x
 _atom_site_fract_y
 _atom_site_fract_z
 _atom_site_occupancy
  Cd  Cd0  1  0.57194000  0.56121000  0.21991000  1.0
  Cd  Cd1  1  0.42807000  0.43879000  0.78009000  1.0
  H  H2  1  0.96736000  0.23569000  0.22475000  1.0
  H  H3  1  0.03264000  0.76431000  0.77524000  1.0
  H  H4  1  0.05375000  0.77146000  0.21663000  1.0
  H  H5  1  0.94626000  0.22855000  0.78337000  1.0
  H  H6  1  0.28663000  0.32157000  0.21407000  1.0
  H  H7  1  0.71337000  0.67843000  0.78593000  1.0
  H  H8  1  0.35575000  0.37544000  0.34744000  1.0
  H  H9  1  0.64424000  0.62456000  0.65256000  1.0
  H  H10  1  0.32525000  0.12300000  0.77225000  1.0
  H  H11  1  0.67475000  0.87700000  0.22775000  1.0
  H  H12  1  0.49425000  0.96925000  0.71183000  1.0
  H  H13  1  0.50576000  0.03076000  0.28816000  1.0
  H  H14  1  0.63936000  0.86696000  0.84249000  1.0
  H  H15  1  0.36064000  0.13304000  0.15751000  1.0
  H  H16  1  0.83732000  0.03201000  0.47626000  1.0
  H  H17  1  0.16267000  0.96799000  0.52374000  1.0
  H  H18  1  0.84894000  0.26521000  0.44501000  1.0
  H  H19  1  0.15105000  0.73479000  0.55500000  1.0
  H  H20  1  0.39743000  0.64438000  0.54160000  1.0
  H  H21  1  0.60257000  0.35562000  0.45841000  1.0
  H  H22  1  0.70837000  0.28180000  0.11960000  1.0
  H  H23  1  0.29163000  0.71821000  0.88040000  1.0
  H  H24  1  0.12928000  0.43359000  0.39950000  1.0
  H  H25  1  0.87072000  0.56640000  0.60050000  1.0
  H  H26  1  0.94279000  0.62295000  0.40264000  1.0
  H  H27  1  0.05722000  0.37705000  0.59736000  1.0
  H  H28  1  0.31471000  0.73900000  0.33613000  1.0
  H  H29  1  0.68530000  0.26099000  0.66387000  1.0
  H  H30  1  0.02154000  0.67589000  0.01417000  1.0
  H  H31  1  0.97847000  0.32412000  0.98584000  1.0
  H  H32  1  0.28494000  0.55686000  0.00237000  1.0
  H  H33  1  0.71507000  0.44315000  0.99763000  1.0
  C  C34  1  0.37727000  0.10889000  0.94057000  1.0
  C  C35  1  0.62273000  0.89111000  0.05943000  1.0
  C  C36  1  0.38639000  0.07672000  0.83119000  1.0
  C  C37  1  0.61361000  0.92328000  0.16881000  1.0
  C  C38  1  0.48201000  0.98921000  0.79697000  1.0
  C  C39  1  0.51799000  0.01079000  0.20303000  1.0
  C  C40  1  0.56331000  0.93158000  0.87018000  1.0
  C  C41  1  0.43669000  0.06842000  0.12982000  1.0
  C  C42  1  0.45225000  0.04552000  0.01851000  1.0
  C  C43  1  0.54775000  0.95448000  0.98148000  1.0
  C  C44  1  0.55648000  0.83601000  0.51263000  1.0
  C  C45  1  0.44351000  0.16398000  0.48736000  1.0
  C  C46  1  0.57321000  0.97587000  0.49832000  1.0
  C  C47  1  0.42677000  0.02413000  0.50167000  1.0
  C  C48  1  0.72564000  0.06666000  0.47908000  1.0
  C  C49  1  0.27435000  0.93334000  0.52092000  1.0
  C  C50  1  0.73333000  0.19879000  0.46284000  1.0
  C  C51  1  0.26666000  0.80121000  0.53716000  1.0
  C  C52  1  0.40712000  0.75087000  0.53210000  1.0
  C  C53  1  0.59287000  0.24913000  0.46790000  1.0
  C  C54  1  0.79644000  0.35023000  0.19564000  1.0
  C  C55  1  0.20356000  0.64978000  0.80436000  1.0
  C  C56  1  0.01607000  0.43251000  0.34289000  1.0
  C  C57  1  0.98393000  0.56749000  0.65711000  1.0
  C  C58  1  0.92253000  0.52389000  0.34385000  1.0
  C  C59  1  0.07748000  0.47611000  0.65615000  1.0
  C  C60  1  0.27411000  0.70581000  0.24698000  1.0
  C  C61  1  0.72590000  0.29419000  0.75302000  1.0
  C  C62  1  0.12241000  0.67020000  0.07702000  1.0
  C  C63  1  0.87760000  0.32981000  0.92299000  1.0
  C  C64  1  0.25188000  0.61242000  0.07275000  1.0
  C  C65  1  0.74813000  0.38758000  0.92725000  1.0
  S  S66  1  0.30176000  0.25439000  0.98531000  1.0
  S  S67  1  0.69825000  0.74561000  0.01470000  1.0
  S  S68  1  0.72476000  0.76250000  0.49658000  1.0
  S  S69  1  0.27523000  0.23750000  0.50342000  1.0
  N  N70  1  0.78645000  0.47160000  0.25193000  1.0
  N  N71  1  0.21355000  0.52841000  0.74807000  1.0
  N  N72  1  0.93428000  0.32387000  0.24843000  1.0
  N  N73  1  0.06572000  0.67613000  0.75157000  1.0
  N  N74  1  0.34628000  0.63593000  0.17915000  1.0
  N  N75  1  0.65373000  0.36407000  0.82085000  1.0
  N  N76  1  0.13870000  0.72793000  0.18739000  1.0
  N  N77  1  0.86131000  0.27208000  0.81262000  1.0
  O  O78  1  0.46078000  0.36794000  0.05257000  1.0
  O  O79  1  0.53922000  0.63207000  0.94743000  1.0
  O  O80  1  0.23367000  0.29022000  0.88302000  1.0
  O  O81  1  0.76633000  0.70978000  0.11699000  1.0
  O  O82  1  0.17178000  0.21452000  0.04977000  1.0
  O  O83  1  0.82822000  0.78548000  0.95023000  1.0
  O  O84  1  0.73323000  0.75328000  0.37907000  1.0
  O  O85  1  0.26677000  0.24672000  0.62093000  1.0
  O  O86  1  0.66527000  0.61940000  0.51706000  1.0
  O  O87  1  0.33471000  0.38059000  0.48294000  1.0
  O  O88  1  0.88353000  0.85762000  0.57431000  1.0
  O  O89  1  0.11645000  0.14238000  0.42569000  1.0
  O  O90  1  0.38789000  0.37215000  0.27507000  1.0
  O  O91  1  0.61210000  0.62785000  0.72493000  1.0
