# generated using pymatgen
data_Zn2H36C44N4O15
_symmetry_space_group_name_H-M   'P 1'
_cell_length_a   9.72645000
_cell_length_b   10.95040000
_cell_length_c   23.66630000
_cell_angle_alpha   90.63030000
_cell_angle_beta   90.39040000
_cell_angle_gamma   90.59870000
_symmetry_Int_Tables_number   1
_chemical_formula_structural   Zn2H36C44N4O15
_chemical_formula_sum   'Zn2 H36 C44 N4 O15'
_cell_volume   2520.31190593
_cell_formula_units_Z   1
loop_
 _symmetry_equiv_pos_site_id
 _symmetry_equiv_pos_as_xyz
  1  'x, y, z'
loop_
 _atom_site_type_symbol
 _atom_site_label
 _atom_site_symmetry_multiplicity
 _atom_site_fract_x
 _atom_site_fract_y
 _atom_site_fract_z
 _atom_site_occupancy
  Zn  Zn0  1  0.36498000  0.50759000  0.50331000  1.0
  Zn  Zn1  1  0.64477000  0.49906000  0.50423000  1.0
  H  H2  1  0.44035000  0.82060000  0.05209000  1.0
  H  H3  1  0.87517000  0.41873000  0.42921000  1.0
  H  H4  1  0.90540000  0.50272000  0.54664000  1.0
  H  H5  1  0.49054000  0.19941000  0.95481000  1.0
  H  H6  1  0.51315000  0.21050000  0.06154000  1.0
  H  H7  1  0.68810000  0.43289000  0.79797000  1.0
  H  H8  1  0.28907000  0.50876000  0.67287000  1.0
  H  H9  1  0.26132000  0.52632000  0.77777000  1.0
  H  H10  1  0.82765000  0.99942000  0.40509000  1.0
  H  H11  1  0.66135000  0.00026000  0.37251000  1.0
  H  H12  1  0.69847000  0.79036000  0.33333333  1.0
  H  H13  1  0.74854000  0.54213000  0.32005000  1.0
  H  H14  1  0.83617000  0.88860000  0.31277000  1.0
  H  H15  1  0.86011000  0.78295000  0.36873000  1.0
  H  H16  1  0.19462000  0.83989000  0.93238000  1.0
  H  H17  1  0.29755000  0.79245000  0.87334000  1.0
  H  H18  1  0.39581000  0.00303000  0.86551000  1.0
  H  H19  1  0.21386000  0.00518000  0.85929000  1.0
  H  H20  1  0.29425000  0.05303000  0.92361000  1.0
  H  H21  1  0.69160000  0.28508000  0.62923000  1.0
  H  H22  1  0.72058000  0.22040000  0.69748000  1.0
  H  H23  1  0.97152000  0.28039000  0.69116000  1.0
  H  H24  1  0.30884000  0.52828000  0.32809000  1.0
  H  H25  1  0.92113000  0.18168000  0.63417000  1.0
  H  H26  1  0.94137000  0.34143000  0.62292000  1.0
  H  H27  1  0.87613000  0.38554000  0.24546000  1.0
  H  H28  1  0.77853000  0.34685000  0.18421000  1.0
  H  H29  1  0.94213000  0.42045000  0.17753000  1.0
  H  H30  1  0.75873000  0.57422000  0.16263000  1.0
  H  H31  1  0.84883000  0.60869000  0.22563000  1.0
  H  H32  1  0.29681000  0.52548000  0.22175000  1.0
  H  H33  1  0.68076000  0.11936000  0.46836000  1.0
  H  H34  1  0.36604000  0.09120000  0.47350000  1.0
  H  H35  1  0.43123000  0.92239000  0.53098000  1.0
  H  H36  1  0.13102000  0.35827000  0.45320000  1.0
  H  H37  1  0.10405000  0.59314000  0.51228000  1.0
  C  C38  1  0.50289000  0.73827000  0.51189000  1.0
  C  C39  1  0.46015000  0.38039000  0.88406000  1.0
  C  C40  1  0.59982000  0.45111000  0.77090000  1.0
  C  C41  1  0.50902000  0.46727000  0.61300000  1.0
  C  C42  1  0.61527000  0.43978000  0.71234000  1.0
  C  C43  1  0.50193000  0.46288000  0.67631000  1.0
  C  C44  1  0.37550000  0.49231000  0.70118000  1.0
  C  C45  1  0.35996000  0.50262000  0.75933000  1.0
  C  C46  1  0.47393000  0.48288000  0.79387000  1.0
  C  C47  1  0.64629000  0.53875000  0.23872000  1.0
  C  C48  1  0.64984000  0.53853000  0.29787000  1.0
  C  C49  1  0.44703000  0.73263000  0.03031000  1.0
  C  C50  1  0.52977000  0.53364000  0.32994000  1.0
  C  C51  1  0.40159000  0.53070000  0.30260000  1.0
  C  C52  1  0.39532000  0.52955000  0.24397000  1.0
  C  C53  1  0.47174000  0.26879000  0.48249000  1.0
  C  C54  1  0.51640000  0.53241000  0.21273000  1.0
  C  C55  1  0.58319000  0.06900000  0.47031000  1.0
  C  C56  1  0.46748000  0.13454000  0.47460000  1.0
  C  C57  1  0.58928000  0.93590000  0.47128000  1.0
  C  C58  1  0.50598000  0.87163000  0.50642000  1.0
  C  C59  1  0.07923000  0.43715000  0.47218000  1.0
  C  C60  1  0.42898000  0.72902000  0.97072000  1.0
  C  C61  1  0.92801000  0.44528000  0.46866000  1.0
  C  C62  1  0.53702000  0.52815000  0.39321000  1.0
  C  C63  1  0.50833000  0.41011000  0.12636000  1.0
  C  C64  1  0.48652000  0.63796000  0.12334000  1.0
  C  C65  1  0.46939000  0.62844000  0.06101000  1.0
  C  C66  1  0.47382000  0.51322000  0.03316000  1.0
  C  C67  1  0.49277000  0.40494000  0.06409000  1.0
  C  C68  1  0.74041000  0.94116000  0.39101000  1.0
  C  C69  1  0.78637000  0.84487000  0.34895000  1.0
  C  C70  1  0.29001000  0.85721000  0.90872000  1.0
  C  C71  1  0.44372000  0.61698000  0.94116000  1.0
  C  C72  1  0.29964000  0.98723000  0.88837000  1.0
  C  C73  1  0.75646000  0.29010000  0.66746000  1.0
  C  C74  1  0.90639000  0.27253000  0.65318000  1.0
  C  C75  1  0.77839000  0.54149000  0.20564000  1.0
  C  C76  1  0.84795000  0.41618000  0.20288000  1.0
  C  C77  1  0.46136000  0.50816000  0.97312000  1.0
  C  C78  1  0.46867000  0.39199000  0.94623000  1.0
  C  C79  1  0.48582000  0.28632000  0.97762000  1.0
  C  C80  1  0.49819000  0.29228000  0.03649000  1.0
  C  C81  1  0.45890000  0.60940000  0.87905000  1.0
  N  N82  1  0.50415000  0.52700000  0.15184000  1.0
  N  N83  1  0.46156000  0.49108000  0.85460000  1.0
  N  N84  1  0.15487000  0.51844000  0.49648000  1.0
  N  N85  1  0.85378000  0.48206000  0.50964000  1.0
  O  O86  1  0.38451000  0.68933000  0.52033000  1.0
  O  O87  1  0.42376000  0.53716000  0.41965000  1.0
  O  O88  1  0.65483000  0.51324000  0.41582000  1.0
  O  O89  1  0.52492000  0.31868000  0.15522000  1.0
  O  O90  1  0.68460000  0.87797000  0.43921000  1.0
  O  O91  1  0.40357000  0.83972000  0.94847000  1.0
  O  O92  1  0.74430000  0.40902000  0.69422000  1.0
  O  O93  1  0.48614000  0.73568000  0.14933000  1.0
  O  O94  1  0.47341000  0.69892000  0.84855000  1.0
  O  O95  1  0.45594000  0.28148000  0.85893000  1.0
  O  O96  1  0.61567000  0.68060000  0.50800000  1.0
  O  O97  1  0.39442000  0.46282000  0.58638000  1.0
  O  O98  1  0.62652000  0.47890000  0.59023000  1.0
  O  O99  1  0.35623000  0.32338000  0.48211000  1.0
  O  O100  1  0.58896000  0.31983000  0.49023000  1.0
