# generated using pymatgen
data_Zn4H23C34N2ClO13
_symmetry_space_group_name_H-M   'P 1'
_cell_length_a   13.00520000
_cell_length_b   13.24060000
_cell_length_c   18.12630000
_cell_angle_alpha   68.91890000
_cell_angle_beta   71.80940000
_cell_angle_gamma   88.79830000
_symmetry_Int_Tables_number   1
_chemical_formula_structural   Zn4H23C34N2ClO13
_chemical_formula_sum   'Zn4 H23 C34 N2 Cl1 O13'
_cell_volume   2752.11607829
_cell_formula_units_Z   1
loop_
 _symmetry_equiv_pos_site_id
 _symmetry_equiv_pos_as_xyz
  1  'x, y, z'
loop_
 _atom_site_type_symbol
 _atom_site_label
 _atom_site_symmetry_multiplicity
 _atom_site_fract_x
 _atom_site_fract_y
 _atom_site_fract_z
 _atom_site_occupancy
  Zn  Zn0  1  0.43209000  0.43253000  0.43893000  1.0
  Zn  Zn1  1  0.56514000  0.38540000  0.56810000  1.0
  Zn  Zn2  1  0.39846000  0.55424000  0.57307000  1.0
  Zn  Zn3  1  0.59789000  0.62113000  0.40583000  1.0
  H  H4  1  0.72522000  0.73021000  0.87428000  1.0
  H  H5  1  0.41710000  0.23870000  0.83326000  1.0
  H  H6  1  0.37021000  0.23508000  0.10592000  1.0
  H  H7  1  0.77296000  0.75497000  0.98718000  1.0
  H  H8  1  0.49006000  0.46203000  0.19977000  1.0
  H  H9  1  0.61778000  0.63222000  0.82686000  1.0
  H  H10  1  0.43476000  0.35767000  0.15992000  1.0
  H  H11  1  0.46444000  0.60769000  0.73194000  1.0
  H  H12  1  0.45750000  0.76143000  0.77596000  1.0
  H  H13  1  0.42902000  0.66927000  0.88047000  1.0
  H  H14  1  0.33226000  0.67475000  0.82832000  1.0
  H  H15  1  0.37160000  0.18561000  0.98797000  1.0
  H  H16  1  0.81369000  0.78274000  0.08619000  1.0
  H  H17  1  0.90318000  0.64054000  0.16150000  1.0
  H  H18  1  0.77987000  0.59879000  0.24732000  1.0
  H  H19  1  0.85095000  0.72560000  0.21948000  1.0
  H  H20  1  0.88642000  0.44334000  0.57033000  1.0
  H  H21  1  0.11422000  0.49961000  0.43093000  1.0
  H  H22  1  0.05075000  0.44799000  0.62082000  1.0
  H  H23  1  0.44495000  0.10975000  0.43741000  1.0
  H  H24  1  0.42797000  0.87962000  0.57534000  1.0
  H  H25  1  0.47419000  0.03986000  0.61091000  1.0
  H  H26  1  0.48946000  0.95516000  0.38342000  1.0
  C  C27  1  0.77841000  0.51530000  0.46336000  1.0
  C  C28  1  0.44776000  0.38412000  0.09315000  1.0
  C  C29  1  0.41073000  0.31580000  0.06334000  1.0
  C  C30  1  0.22012000  0.47426000  0.53841000  1.0
  C  C31  1  0.42578000  0.34612000  0.97659000  1.0
  C  C32  1  0.47005000  0.45471000  0.92124000  1.0
  C  C33  1  0.40260000  0.26881000  0.94494000  1.0
  C  C34  1  0.42541000  0.29821000  0.86027000  1.0
  C  C35  1  0.46406000  0.49025000  0.83747000  1.0
  C  C36  1  0.10119000  0.46311000  0.55646000  1.0
  C  C37  1  0.05823000  0.47996000  0.49449000  1.0
  C  C38  1  0.69786000  0.66454000  0.11861000  1.0
  C  C39  1  0.89929000  0.51672000  0.44482000  1.0
  C  C40  1  0.94384000  0.47732000  0.50672000  1.0
  C  C41  1  0.46643000  0.89997000  0.44875000  1.0
  C  C42  1  0.47867000  0.21118000  0.53235000  1.0
  C  C43  1  0.44438000  0.93804000  0.51127000  1.0
  C  C44  1  0.46375000  0.09282000  0.55221000  1.0
  C  C45  1  0.44877000  0.05241000  0.49731000  1.0
  C  C46  1  0.47520000  0.78305000  0.46420000  1.0
  C  C47  1  0.46390000  0.43343000  0.71737000  1.0
  C  C48  1  0.57170000  0.56097000  0.27011000  1.0
  C  C49  1  0.55328000  0.52427000  0.15121000  1.0
  C  C50  1  0.61177000  0.58174000  0.17907000  1.0
  C  C51  1  0.45258000  0.40879000  0.80583000  1.0
  C  C52  1  0.70949000  0.69105000  0.03429000  1.0
  C  C53  1  0.41998000  0.67965000  0.82027000  1.0
  C  C54  1  0.82840000  0.66875000  0.19417000  1.0
  C  C55  1  0.56892000  0.54697000  0.06628000  1.0
  C  C56  1  0.64691000  0.63654000  0.00673000  1.0
  C  C57  1  0.51125000  0.48457000  0.03739000  1.0
  C  C58  1  0.52436000  0.51904000  0.95076000  1.0
  C  C59  1  0.60300000  0.60971000  0.89355000  1.0
  C  C60  1  0.66294000  0.66445000  0.91995000  1.0
  N  N61  1  0.47347000  0.59901000  0.78792000  1.0
  N  N62  1  0.76661000  0.72164000  0.13840000  1.0
  Cl  Cl63  1  0.97729000  0.57755000  0.34113000  1.0
  O  O64  1  0.50115000  0.49741000  0.49598000  1.0
  O  O65  1  0.49554000  0.35964000  0.68767000  1.0
  O  O66  1  0.60272000  0.63063000  0.29460000  1.0
  O  O67  1  0.44138000  0.52720000  0.67362000  1.0
  O  O68  1  0.50457000  0.47590000  0.31856000  1.0
  O  O69  1  0.43458000  0.27332000  0.48119000  1.0
  O  O70  1  0.55060000  0.76190000  0.40835000  1.0
  O  O71  1  0.72132000  0.43881000  0.53000000  1.0
  O  O72  1  0.25214000  0.49068000  0.59382000  1.0
  O  O73  1  0.74553000  0.59054000  0.41157000  1.0
  O  O74  1  0.28071000  0.46868000  0.46953000  1.0
  O  O75  1  0.53643000  0.24038000  0.56842000  1.0
  O  O76  1  0.40931000  0.71428000  0.53136000  1.0
