# generated using pymatgen
data_HgH3C4I2BrN2
_symmetry_space_group_name_H-M   'P 1'
_cell_length_a   4.43420000
_cell_length_b   14.07110000
_cell_length_c   15.74980000
_cell_angle_alpha   90.00080000
_cell_angle_beta   90.00100000
_cell_angle_gamma   86.91600000
_symmetry_Int_Tables_number   1
_chemical_formula_structural   HgH3C4I2BrN2
_chemical_formula_sum   'Hg4 H12 C16 I8 Br4 N8'
_cell_volume   981.27094551
_cell_formula_units_Z   4
loop_
 _symmetry_equiv_pos_site_id
 _symmetry_equiv_pos_as_xyz
  1  'x, y, z'
loop_
 _atom_site_type_symbol
 _atom_site_label
 _atom_site_symmetry_multiplicity
 _atom_site_fract_x
 _atom_site_fract_y
 _atom_site_fract_z
 _atom_site_occupancy
  Hg  Hg0  1  0.50727000  0.96801000  0.23730000  1.0
  Hg  Hg1  1  0.49274000  0.53198000  0.73731000  1.0
  Hg  Hg2  1  0.49271000  0.03198000  0.76269000  1.0
  Hg  Hg3  1  0.50727000  0.46802000  0.26269000  1.0
  H  H4  1  0.73217000  0.17949000  0.32361000  1.0
  H  H5  1  0.26785000  0.32051000  0.82361000  1.0
  H  H6  1  0.26785000  0.82051000  0.67639000  1.0
  H  H7  1  0.73216000  0.67950000  0.17639000  1.0
  H  H8  1  0.28357000  0.22455000  0.56626000  1.0
  H  H9  1  0.71642000  0.27545000  0.06626000  1.0
  H  H10  1  0.71644000  0.77544000  0.43374000  1.0
  H  H11  1  0.28358000  0.72456000  0.93374000  1.0
  H  H12  1  0.15075000  0.98373000  0.42137000  1.0
  H  H13  1  0.84927000  0.51627000  0.92139000  1.0
  H  H14  1  0.84927000  0.01627000  0.57862000  1.0
  H  H15  1  0.15074000  0.48373000  0.07862000  1.0
  C  C16  1  0.52607000  0.21594000  0.44604000  1.0
  C  C17  1  0.47392000  0.28406000  0.94604000  1.0
  C  C18  1  0.47392000  0.78405000  0.55396000  1.0
  C  C19  1  0.52607000  0.71596000  0.05396000  1.0
  C  C20  1  0.58130000  0.15919000  0.37458000  1.0
  C  C21  1  0.41869000  0.34082000  0.87458000  1.0
  C  C22  1  0.41869000  0.84081000  0.62543000  1.0
  C  C23  1  0.58132000  0.65920000  0.12543000  1.0
  C  C24  1  0.33246000  0.18375000  0.50845000  1.0
  C  C25  1  0.66752000  0.31625000  0.00846000  1.0
  C  C26  1  0.66756000  0.81625000  0.49154000  1.0
  C  C27  1  0.33246000  0.68375000  0.99155000  1.0
  C  C28  1  0.26159000  0.05085000  0.42872000  1.0
  C  C29  1  0.73840000  0.44915000  0.92873000  1.0
  C  C30  1  0.73841000  0.94914000  0.57126000  1.0
  C  C31  1  0.26159000  0.55086000  0.07126000  1.0
  I  I32  1  0.90805000  0.07178000  0.15264000  1.0
  I  I33  1  0.09191000  0.42824000  0.65263000  1.0
  I  I34  1  0.09192000  0.92823000  0.84736000  1.0
  I  I35  1  0.90809000  0.57176000  0.34737000  1.0
  I  I36  1  0.21684000  0.81478000  0.28662000  1.0
  I  I37  1  0.78317000  0.68522000  0.78663000  1.0
  I  I38  1  0.78316000  0.18521000  0.71337000  1.0
  I  I39  1  0.21683000  0.31478000  0.21337000  1.0
  Br  Br40  1  0.70474000  0.33417000  0.45698000  1.0
  Br  Br41  1  0.29521000  0.16584000  0.95697000  1.0
  Br  Br42  1  0.29525000  0.66582000  0.54303000  1.0
  Br  Br43  1  0.70474000  0.83418000  0.04304000  1.0
  N  N44  1  0.44792000  0.07631000  0.36671000  1.0
  N  N45  1  0.55210000  0.42369000  0.86672000  1.0
  N  N46  1  0.55210000  0.92368000  0.63328000  1.0
  N  N47  1  0.44791000  0.57632000  0.13329000  1.0
  N  N48  1  0.19978000  0.10096000  0.49934000  1.0
  N  N49  1  0.80022000  0.39904000  0.99935000  1.0
  N  N50  1  0.80024000  0.89903000  0.50066000  1.0
  N  N51  1  0.19979000  0.60097000  0.00066000  1.0
