# generated using pymatgen
data_ZnH22C24(N4O3)2
_symmetry_space_group_name_H-M   'P 1'
_cell_length_a   8.17559000
_cell_length_b   11.60900000
_cell_length_c   13.59270000
_cell_angle_alpha   110.27900000
_cell_angle_beta   90.00000000
_cell_angle_gamma   90.00000000
_symmetry_Int_Tables_number   1
_chemical_formula_structural   ZnH22C24(N4O3)2
_chemical_formula_sum   'Zn2 H44 C48 N16 O12'
_cell_volume   1210.12409154
_cell_formula_units_Z   2
loop_
 _symmetry_equiv_pos_site_id
 _symmetry_equiv_pos_as_xyz
  1  'x, y, z'
loop_
 _atom_site_type_symbol
 _atom_site_label
 _atom_site_symmetry_multiplicity
 _atom_site_fract_x
 _atom_site_fract_y
 _atom_site_fract_z
 _atom_site_occupancy
  Zn  Zn0  1  0.23071000  0.25000000  0.50000000  1.0
  Zn  Zn1  1  0.76929000  0.75000000  0.50000000  1.0
  H  H2  1  0.51765000  0.15513000  0.40371000  1.0
  H  H3  1  0.51765000  0.34487000  0.59629000  1.0
  H  H4  1  0.48235000  0.84487000  0.59629000  1.0
  H  H5  1  0.48234000  0.65513000  0.40371000  1.0
  H  H6  1  0.49648000  0.29863000  0.40589000  1.0
  H  H7  1  0.49648000  0.20137000  0.59411000  1.0
  H  H8  1  0.50352000  0.70137000  0.59411000  1.0
  H  H9  1  0.50352000  0.79863000  0.40589000  1.0
  H  H10  1  0.05351000  0.64997000  0.58860000  1.0
  H  H11  1  0.05351000  0.85003000  0.41140000  1.0
  H  H12  1  0.94649000  0.35003000  0.41140000  1.0
  H  H13  1  0.94649000  0.14997000  0.58860000  1.0
  H  H14  1  0.23918000  0.71712000  0.74443000  1.0
  H  H15  1  0.23918000  0.78289000  0.25557000  1.0
  H  H16  1  0.76082000  0.28289000  0.25558000  1.0
  H  H17  1  0.76082000  0.21712000  0.74442000  1.0
  H  H18  1  0.02271000  0.07756000  0.82788000  1.0
  H  H19  1  0.02271000  0.42244000  0.17212000  1.0
  H  H20  1  0.97728000  0.92245000  0.17212000  1.0
  H  H21  1  0.97729000  0.57755000  0.82788000  1.0
  H  H22  1  0.85242000  0.99605000  0.66497000  1.0
  H  H23  1  0.85242000  0.50394000  0.33502000  1.0
  H  H24  1  0.14757000  0.00395000  0.33503000  1.0
  H  H25  1  0.14758000  0.49605000  0.66497000  1.0
  H  H26  1  0.32165000  0.87193000  0.90818000  1.0
  H  H27  1  0.32165000  0.62807000  0.09181000  1.0
  H  H28  1  0.67836000  0.12807000  0.09182000  1.0
  H  H29  1  0.67835000  0.37193000  0.90818000  1.0
  H  H30  1  0.23223000  0.27334000  0.09220000  1.0
  H  H31  1  0.23223000  0.22666000  0.90781000  1.0
  H  H32  1  0.76777000  0.72667000  0.90781000  1.0
  H  H33  1  0.76777000  0.77334000  0.09220000  1.0
  H  H34  1  0.32732000  0.35038000  0.27741000  1.0
  H  H35  1  0.32732000  0.14962000  0.72259000  1.0
  H  H36  1  0.67268000  0.64962000  0.72259000  1.0
  H  H37  1  0.67268000  0.85038000  0.27742000  1.0
  H  H38  1  0.46011000  0.98202000  0.25181000  1.0
  H  H39  1  0.46011000  0.51798000  0.74819000  1.0
  H  H40  1  0.53989000  0.01798000  0.74819000  1.0
  H  H41  1  0.53989000  0.48202000  0.25181000  1.0
  H  H42  1  0.36323000  0.90429000  0.06875000  1.0
  H  H43  1  0.36323000  0.59571000  0.93125000  1.0
  H  H44  1  0.63677000  0.09571000  0.93125000  1.0
  H  H45  1  0.63677000  0.40429000  0.06875000  1.0
  C  C46  1  0.05358000  0.74428000  0.64265000  1.0
  C  C47  1  0.05358000  0.75572000  0.35735000  1.0
  C  C48  1  0.94643000  0.25572000  0.35735000  1.0
  C  C49  1  0.94642000  0.24428000  0.64264000  1.0
  C  C50  1  0.15429000  0.78216000  0.73033000  1.0
  C  C51  1  0.15429000  0.71784000  0.26967000  1.0
  C  C52  1  0.84571000  0.21784000  0.26968000  1.0
  C  C53  1  0.84571000  0.28216000  0.73032000  1.0
  C  C54  1  0.14339000  0.90327000  0.80070000  1.0
  C  C55  1  0.14340000  0.59673000  0.19930000  1.0
  C  C56  1  0.85661000  0.09673000  0.19930000  1.0
  C  C57  1  0.85661000  0.40327000  0.80070000  1.0
  C  C58  1  0.03468000  0.98268000  0.77569000  1.0
  C  C59  1  0.03468000  0.51732000  0.22431000  1.0
  C  C60  1  0.96532000  0.01732000  0.22431000  1.0
  C  C61  1  0.96532000  0.48268000  0.77569000  1.0
  C  C62  1  0.94046000  0.93804000  0.68586000  1.0
  C  C63  1  0.94046000  0.56196000  0.31414000  1.0
  C  C64  1  0.05954000  0.06196000  0.31414000  1.0
  C  C65  1  0.05954000  0.43804000  0.68585000  1.0
  C  C66  1  0.23705000  0.94128000  0.89828000  1.0
  C  C67  1  0.23706000  0.55872000  0.10172000  1.0
  C  C68  1  0.76294000  0.05872000  0.10172000  1.0
  C  C69  1  0.76295000  0.44128000  0.89828000  1.0
  C  C70  1  0.28956000  0.08373000  0.06689000  1.0
  C  C71  1  0.28956000  0.41627000  0.93311000  1.0
  C  C72  1  0.71043000  0.91627000  0.93311000  1.0
  C  C73  1  0.71044000  0.58373000  0.06689000  1.0
  C  C74  1  0.28374000  0.20987000  0.12734000  1.0
  C  C75  1  0.28374000  0.29013000  0.87266000  1.0
  C  C76  1  0.71625000  0.79013000  0.87266000  1.0
  C  C77  1  0.71626000  0.70987000  0.12734000  1.0
  C  C78  1  0.33900000  0.25326000  0.23026000  1.0
  C  C79  1  0.33900000  0.24674000  0.76974000  1.0
  C  C80  1  0.66100000  0.74674000  0.76974000  1.0
  C  C81  1  0.66100000  0.75326000  0.23026000  1.0
  C  C82  1  0.40038000  0.17120000  0.27661000  1.0
  C  C83  1  0.40037000  0.32880000  0.72339000  1.0
  C  C84  1  0.59962000  0.82880000  0.72339000  1.0
  C  C85  1  0.59962000  0.67120000  0.27661000  1.0
  C  C86  1  0.41234000  0.04573000  0.21590000  1.0
  C  C87  1  0.41234000  0.45427000  0.78411000  1.0
  C  C88  1  0.58766000  0.95427000  0.78410000  1.0
  C  C89  1  0.58766000  0.54573000  0.21589000  1.0
  C  C90  1  0.35758000  0.00264000  0.11278000  1.0
  C  C91  1  0.35758000  0.49736000  0.88722000  1.0
  C  C92  1  0.64242000  0.99736000  0.88721000  1.0
  C  C93  1  0.64242000  0.50264000  0.11278000  1.0
  N  N94  1  0.94632000  0.81998000  0.62087000  1.0
  N  N95  1  0.94632000  0.68002000  0.37913000  1.0
  N  N96  1  0.05368000  0.18002000  0.37913000  1.0
  N  N97  1  0.05368000  0.31998000  0.62087000  1.0
  N  N98  1  0.21629000  0.04846000  0.96804000  1.0
  N  N99  1  0.21629000  0.45154000  0.03196000  1.0
  N  N100  1  0.78371000  0.95154000  0.03196000  1.0
  N  N101  1  0.78371000  0.54846000  0.96804000  1.0
  N  N102  1  0.43965000  0.21401000  0.38464000  1.0
  N  N103  1  0.43965000  0.28599000  0.61537000  1.0
  N  N104  1  0.56035000  0.78599000  0.61537000  1.0
  N  N105  1  0.56035000  0.71401000  0.38463000  1.0
  N  N106  1  0.29622000  0.52216000  0.49598000  1.0
  N  N107  1  0.29622000  0.97784000  0.50402000  1.0
  N  N108  1  0.70378000  0.47784000  0.50403000  1.0
  N  N109  1  0.70378000  0.02216000  0.49597000  1.0
  O  O110  1  0.20691000  0.42573000  0.46959000  1.0
  O  O111  1  0.20691000  0.07427000  0.53041000  1.0
  O  O112  1  0.79310000  0.57427000  0.53041000  1.0
  O  O113  1  0.79309000  0.92573000  0.46958000  1.0
  O  O114  1  0.37515000  0.55403000  0.58148000  1.0
  O  O115  1  0.37515000  0.94597000  0.41852000  1.0
  O  O116  1  0.62485000  0.44598000  0.41852000  1.0
  O  O117  1  0.62485000  0.05402000  0.58148000  1.0
  O  O118  1  0.30059000  0.58429000  0.43668000  1.0
  O  O119  1  0.30059000  0.91571000  0.56332000  1.0
  O  O120  1  0.69941000  0.41571000  0.56332000  1.0
  O  O121  1  0.69941000  0.08429000  0.43668000  1.0
