# generated using pymatgen
data_CuH9C9(NO2)2
_symmetry_space_group_name_H-M   'P 1'
_cell_length_a   8.00899000
_cell_length_b   10.18230000
_cell_length_c   11.67210000
_cell_angle_alpha   98.26780000
_cell_angle_beta   89.99990000
_cell_angle_gamma   90.00000000
_symmetry_Int_Tables_number   1
_chemical_formula_structural   CuH9C9(NO2)2
_chemical_formula_sum   'Cu4 H36 C36 N8 O16'
_cell_volume   941.96614249
_cell_formula_units_Z   4
loop_
 _symmetry_equiv_pos_site_id
 _symmetry_equiv_pos_as_xyz
  1  'x, y, z'
loop_
 _atom_site_type_symbol
 _atom_site_label
 _atom_site_symmetry_multiplicity
 _atom_site_fract_x
 _atom_site_fract_y
 _atom_site_fract_z
 _atom_site_occupancy
  Cu  Cu0  1  0.43435000  0.55722000  0.77650000  1.0
  Cu  Cu1  1  0.06564000  0.05721000  0.77650000  1.0
  Cu  Cu2  1  0.56564000  0.44279000  0.22350000  1.0
  Cu  Cu3  1  0.93436000  0.94278000  0.22349000  1.0
  H  H4  1  0.15632000  0.64402000  0.85999000  1.0
  H  H5  1  0.34367000  0.14402000  0.85999000  1.0
  H  H6  1  0.84367000  0.35598000  0.14001000  1.0
  H  H7  1  0.65632000  0.85598000  0.14000000  1.0
  H  H8  1  0.15602000  0.37732000  0.91653000  1.0
  H  H9  1  0.34398000  0.87732000  0.91653000  1.0
  H  H10  1  0.84399000  0.62268000  0.08347000  1.0
  H  H11  1  0.65602000  0.12269000  0.08347000  1.0
  H  H12  1  0.00106000  0.45782000  0.84369000  1.0
  H  H13  1  0.49894000  0.95783000  0.84369000  1.0
  H  H14  1  0.99894000  0.54217000  0.15631000  1.0
  H  H15  1  0.50106000  0.04217000  0.15631000  1.0
  H  H16  1  0.28678000  0.50880000  0.04160000  1.0
  H  H17  1  0.21323000  0.00879000  0.04159000  1.0
  H  H18  1  0.71323000  0.49121000  0.95840000  1.0
  H  H19  1  0.78677000  0.99121000  0.95840000  1.0
  H  H20  1  0.19248000  0.66880000  0.04822000  1.0
  H  H21  1  0.30752000  0.16880000  0.04822000  1.0
  H  H22  1  0.80753000  0.33120000  0.95178000  1.0
  H  H23  1  0.69248000  0.83120000  0.95177000  1.0
  H  H24  1  0.95660000  0.87202000  0.57473000  1.0
  H  H25  1  0.54340000  0.37202000  0.57473000  1.0
  H  H26  1  0.04340000  0.12799000  0.42527000  1.0
  H  H27  1  0.45660000  0.62798000  0.42527000  1.0
  H  H28  1  0.71524000  0.83949000  0.44618000  1.0
  H  H29  1  0.78476000  0.33950000  0.44619000  1.0
  H  H30  1  0.28475000  0.16050000  0.55382000  1.0
  H  H31  1  0.21525000  0.66051000  0.55382000  1.0
  H  H32  1  0.48698000  0.17934000  0.65710000  1.0
  H  H33  1  0.01301000  0.67934000  0.65709000  1.0
  H  H34  1  0.51301000  0.82066000  0.34291000  1.0
  H  H35  1  0.98698000  0.32066000  0.34291000  1.0
  H  H36  1  0.73812000  0.19405000  0.77777000  1.0
  H  H37  1  0.76188000  0.69405000  0.77777000  1.0
  H  H38  1  0.26188000  0.80595000  0.22223000  1.0
  H  H39  1  0.23812000  0.30595000  0.22223000  1.0
  C  C40  1  0.13596000  0.44019000  0.84904000  1.0
  C  C41  1  0.36404000  0.94019000  0.84904000  1.0
  C  C42  1  0.86404000  0.55981000  0.15096000  1.0
  C  C43  1  0.63596000  0.05981000  0.15096000  1.0
  C  C44  1  0.19378000  0.36195000  0.73427000  1.0
  C  C45  1  0.30622000  0.86195000  0.73426000  1.0
  C  C46  1  0.80622000  0.63805000  0.26574000  1.0
  C  C47  1  0.69378000  0.13805000  0.26574000  1.0
  C  C48  1  0.28100000  0.59898000  0.00026000  1.0
  C  C49  1  0.21900000  0.09898000  0.00026000  1.0
  C  C50  1  0.71900000  0.40103000  0.99974000  1.0
  C  C51  1  0.78100000  0.90103000  0.99974000  1.0
  C  C52  1  0.45384000  0.66198000  0.01081000  1.0
  C  C53  1  0.04615000  0.16197000  0.01081000  1.0
  C  C54  1  0.54616000  0.33803000  0.98918000  1.0
  C  C55  1  0.95384000  0.83802000  0.98918000  1.0
  C  C56  1  0.84805000  0.93617000  0.59052000  1.0
  C  C57  1  0.65195000  0.43617000  0.59053000  1.0
  C  C58  1  0.15195000  0.06383000  0.40948000  1.0
  C  C59  1  0.34805000  0.56383000  0.40947000  1.0
  C  C60  1  0.70952000  0.91932000  0.51879000  1.0
  C  C61  1  0.79048000  0.41932000  0.51879000  1.0
  C  C62  1  0.29048000  0.08068000  0.48121000  1.0
  C  C63  1  0.20952000  0.58068000  0.48121000  1.0
  C  C64  1  0.57366000  0.00646000  0.53859000  1.0
  C  C65  1  0.92634000  0.50646000  0.53859000  1.0
  C  C66  1  0.42634000  0.99355000  0.46141000  1.0
  C  C67  1  0.07366000  0.49355000  0.46141000  1.0
  C  C68  1  0.58575000  0.10676000  0.63447000  1.0
  C  C69  1  0.91425000  0.60677000  0.63447000  1.0
  C  C70  1  0.41425000  0.89324000  0.36554000  1.0
  C  C71  1  0.08575000  0.39324000  0.36554000  1.0
  C  C72  1  0.72807000  0.11700000  0.70326000  1.0
  C  C73  1  0.77193000  0.61700000  0.70326000  1.0
  C  C74  1  0.27194000  0.88300000  0.29674000  1.0
  C  C75  1  0.22806000  0.38300000  0.29674000  1.0
  N  N76  1  0.22916000  0.56548000  0.87816000  1.0
  N  N77  1  0.27084000  0.06548000  0.87815000  1.0
  N  N78  1  0.77084000  0.43452000  0.12184000  1.0
  N  N79  1  0.72916000  0.93452000  0.12184000  1.0
  N  N80  1  0.85854000  0.03330000  0.68193000  1.0
  N  N81  1  0.64147000  0.53330000  0.68193000  1.0
  N  N82  1  0.14147000  0.96671000  0.31807000  1.0
  N  N83  1  0.35854000  0.46671000  0.31807000  1.0
  O  O84  1  0.31332000  0.41255000  0.68043000  1.0
  O  O85  1  0.18668000  0.91255000  0.68043000  1.0
  O  O86  1  0.68669000  0.58745000  0.31957000  1.0
  O  O87  1  0.81332000  0.08745000  0.31957000  1.0
  O  O88  1  0.12529000  0.25387000  0.69716000  1.0
  O  O89  1  0.37472000  0.75386000  0.69716000  1.0
  O  O90  1  0.87473000  0.74613000  0.30285000  1.0
  O  O91  1  0.62527000  0.24612000  0.30286000  1.0
  O  O92  1  0.54124000  0.65693000  0.91686000  1.0
  O  O93  1  0.95876000  0.15693000  0.91686000  1.0
  O  O94  1  0.45876000  0.34307000  0.08314000  1.0
  O  O95  1  0.04124000  0.84307000  0.08313000  1.0
  O  O96  1  0.50427000  0.71331000  0.10863000  1.0
  O  O97  1  0.99573000  0.21330000  0.10863000  1.0
  O  O98  1  0.49573000  0.28670000  0.89136000  1.0
  O  O99  1  0.00427000  0.78669000  0.89137000  1.0
