# generated using pymatgen
data_UH10C14(NO3)2
_symmetry_space_group_name_H-M   'P 1'
_cell_length_a   9.06505000
_cell_length_b   11.88590000
_cell_length_c   13.85800000
_cell_angle_alpha   108.92300000
_cell_angle_beta   90.00000000
_cell_angle_gamma   90.00000000
_symmetry_Int_Tables_number   1
_chemical_formula_structural   UH10C14(NO3)2
_chemical_formula_sum   'U4 H40 C56 N8 O24'
_cell_volume   1412.45111746
_cell_formula_units_Z   4
loop_
 _symmetry_equiv_pos_site_id
 _symmetry_equiv_pos_as_xyz
  1  'x, y, z'
loop_
 _atom_site_type_symbol
 _atom_site_label
 _atom_site_symmetry_multiplicity
 _atom_site_fract_x
 _atom_site_fract_y
 _atom_site_fract_z
 _atom_site_occupancy
  U  U0  1  0.41284000  0.06326000  0.72819000  1.0
  U  U1  1  0.91284000  0.43674000  0.77181000  1.0
  U  U2  1  0.58716000  0.93674000  0.27181000  1.0
  U  U3  1  0.08716000  0.56326000  0.22820000  1.0
  H  H4  1  0.17518000  0.61541000  0.58297000  1.0
  H  H5  1  0.67518000  0.88459000  0.91703000  1.0
  H  H6  1  0.82481000  0.38459000  0.41703000  1.0
  H  H7  1  0.32482000  0.11541000  0.08297000  1.0
  H  H8  1  0.35131000  0.53476000  0.43458000  1.0
  H  H9  1  0.85131000  0.96524000  0.06542000  1.0
  H  H10  1  0.64868000  0.46524000  0.56542000  1.0
  H  H11  1  0.14869000  0.03476000  0.93458000  1.0
  H  H12  1  0.03910000  0.85727000  0.56467000  1.0
  H  H13  1  0.53910000  0.64273000  0.93534000  1.0
  H  H14  1  0.96089000  0.14273000  0.43534000  1.0
  H  H15  1  0.46090000  0.35727000  0.06466000  1.0
  H  H16  1  0.99045000  0.07639000  0.61297000  1.0
  H  H17  1  0.49045000  0.42361000  0.88704000  1.0
  H  H18  1  0.00955000  0.92361000  0.38704000  1.0
  H  H19  1  0.50956000  0.57639000  0.11297000  1.0
  H  H20  1  0.68611000  0.69613000  0.39354000  1.0
  H  H21  1  0.18611000  0.80387000  0.10647000  1.0
  H  H22  1  0.31388000  0.30387000  0.60647000  1.0
  H  H23  1  0.81389000  0.19613000  0.89353000  1.0
  H  H24  1  0.53216000  0.61184000  0.32924000  1.0
  H  H25  1  0.03216000  0.88816000  0.17076000  1.0
  H  H26  1  0.46784000  0.38816000  0.67076000  1.0
  H  H27  1  0.96784000  0.11184000  0.82924000  1.0
  H  H28  1  0.65592000  0.54886000  0.39539000  1.0
  H  H29  1  0.15591000  0.95114000  0.10461000  1.0
  H  H30  1  0.34409000  0.45114000  0.60461000  1.0
  H  H31  1  0.84409000  0.04886000  0.89539000  1.0
  H  H32  1  0.89156000  0.63659000  0.48333000  1.0
  H  H33  1  0.39156000  0.86341000  0.01666000  1.0
  H  H34  1  0.10844000  0.36341000  0.51666000  1.0
  H  H35  1  0.60845000  0.13659000  0.98333000  1.0
  H  H36  1  0.74681000  0.63649000  0.57067000  1.0
  H  H37  1  0.24681000  0.86350000  0.92932000  1.0
  H  H38  1  0.25319000  0.36350000  0.42932000  1.0
  H  H39  1  0.75319000  0.13650000  0.07067000  1.0
  H  H40  1  0.92700000  0.68300000  0.61653000  1.0
  H  H41  1  0.42700000  0.81699000  0.88347000  1.0
  H  H42  1  0.07299000  0.31699000  0.38347000  1.0
  H  H43  1  0.57300000  0.18301000  0.11653000  1.0
  C  C44  1  0.29929000  0.77781000  0.64179000  1.0
  C  C45  1  0.79930000  0.72219000  0.85821000  1.0
  C  C46  1  0.70070000  0.22219000  0.35821000  1.0
  C  C47  1  0.20071000  0.27781000  0.14179000  1.0
  C  C48  1  0.27403000  0.66350000  0.57449000  1.0
  C  C49  1  0.77403000  0.83650000  0.92551000  1.0
  C  C50  1  0.72597000  0.33650000  0.42551000  1.0
  C  C51  1  0.22597000  0.16350000  0.07449000  1.0
  C  C52  1  0.37389000  0.61787000  0.49539000  1.0
  C  C53  1  0.87390000  0.88213000  0.00461000  1.0
  C  C54  1  0.62610000  0.38213000  0.50461000  1.0
  C  C55  1  0.12611000  0.11787000  0.99539000  1.0
  C  C56  1  0.50424000  0.67925000  0.48961000  1.0
  C  C57  1  0.00424000  0.82075000  0.01039000  1.0
  C  C58  1  0.49576000  0.32075000  0.51039000  1.0
  C  C59  1  0.99577000  0.17925000  0.98961000  1.0
  C  C60  1  0.52912000  0.78752000  0.56864000  1.0
  C  C61  1  0.02912000  0.71247000  0.93136000  1.0
  C  C62  1  0.47088000  0.21247000  0.43136000  1.0
  C  C63  1  0.97089000  0.28753000  0.06863000  1.0
  C  C64  1  0.66610000  0.85880000  0.58350000  1.0
  C  C65  1  0.16610000  0.64120000  0.91650000  1.0
  C  C66  1  0.33390000  0.14120000  0.41650000  1.0
  C  C67  1  0.83391000  0.35880000  0.08350000  1.0
  C  C68  1  0.81049000  0.81102000  0.57040000  1.0
  C  C69  1  0.31049000  0.68898000  0.92960000  1.0
  C  C70  1  0.18950000  0.18897000  0.42960000  1.0
  C  C71  1  0.68951000  0.31103000  0.07040000  1.0
  C  C72  1  0.92681000  0.89136000  0.57840000  1.0
  C  C73  1  0.42681000  0.60864000  0.92160000  1.0
  C  C74  1  0.07319000  0.10864000  0.42160000  1.0
  C  C75  1  0.57320000  0.39136000  0.07840000  1.0
  C  C76  1  0.90122000  0.01275000  0.60532000  1.0
  C  C77  1  0.40122000  0.48725000  0.89468000  1.0
  C  C78  1  0.09877000  0.98725000  0.39468000  1.0
  C  C79  1  0.59878000  0.51275000  0.10532000  1.0
  C  C80  1  0.75690000  0.05254000  0.62900000  1.0
  C  C81  1  0.25690000  0.44746000  0.87100000  1.0
  C  C82  1  0.24310000  0.94746000  0.37101000  1.0
  C  C83  1  0.74310000  0.55254000  0.12900000  1.0
  C  C84  1  0.19149000  0.84352000  0.72309000  1.0
  C  C85  1  0.69149000  0.65648000  0.77691000  1.0
  C  C86  1  0.80851000  0.15648000  0.27691000  1.0
  C  C87  1  0.30851000  0.34352000  0.22309000  1.0
  C  C88  1  0.60152000  0.63221000  0.39772000  1.0
  C  C89  1  0.10151000  0.86779000  0.10228000  1.0
  C  C90  1  0.39848000  0.36779000  0.60228000  1.0
  C  C91  1  0.89849000  0.13221000  0.89771000  1.0
  C  C92  1  0.84448000  0.68417000  0.55862000  1.0
  C  C93  1  0.34448000  0.81583000  0.94138000  1.0
  C  C94  1  0.15551000  0.31583000  0.44138000  1.0
  C  C95  1  0.65552000  0.18417000  0.05861000  1.0
  C  C96  1  0.71667000  0.18081000  0.67074000  1.0
  C  C97  1  0.21668000  0.31918000  0.82927000  1.0
  C  C98  1  0.28332000  0.81918000  0.32927000  1.0
  C  C99  1  0.78333000  0.68082000  0.17074000  1.0
  N  N100  1  0.42193000  0.83877000  0.63659000  1.0
  N  N101  1  0.92194000  0.66123000  0.86341000  1.0
  N  N102  1  0.57806000  0.16123000  0.36341000  1.0
  N  N103  1  0.07807000  0.33877000  0.13659000  1.0
  N  N104  1  0.64291000  0.97735000  0.61928000  1.0
  N  N105  1  0.14291000  0.52265000  0.88072000  1.0
  N  N106  1  0.35709000  0.02265000  0.38072000  1.0
  N  N107  1  0.85710000  0.47735000  0.11928000  1.0
  O  O108  1  0.22417000  0.95680000  0.76382000  1.0
  O  O109  1  0.72418000  0.54320000  0.73617000  1.0
  O  O110  1  0.77582000  0.04320000  0.23617000  1.0
  O  O111  1  0.27583000  0.45680000  0.26383000  1.0
  O  O112  1  0.08479000  0.79375000  0.74692000  1.0
  O  O113  1  0.58479000  0.70626000  0.75307000  1.0
  O  O114  1  0.91521000  0.20626000  0.25307000  1.0
  O  O115  1  0.41521000  0.29375000  0.24692000  1.0
  O  O116  1  0.81073000  0.25816000  0.66530000  1.0
  O  O117  1  0.31073000  0.24184000  0.83470000  1.0
  O  O118  1  0.18927000  0.74184000  0.33470000  1.0
  O  O119  1  0.68928000  0.75816000  0.16530000  1.0
  O  O120  1  0.58853000  0.20544000  0.70924000  1.0
  O  O121  1  0.08853000  0.29456000  0.79076000  1.0
  O  O122  1  0.41147000  0.79456000  0.29076000  1.0
  O  O123  1  0.91147000  0.70544000  0.20925000  1.0
  O  O124  1  0.51854000  0.04581000  0.83351000  1.0
  O  O125  1  0.01855000  0.45419000  0.66649000  1.0
  O  O126  1  0.48145000  0.95419000  0.16649000  1.0
  O  O127  1  0.98146000  0.54581000  0.33352000  1.0
  O  O128  1  0.31230000  0.07681000  0.61951000  1.0
  O  O129  1  0.81229000  0.42319000  0.88049000  1.0
  O  O130  1  0.68771000  0.92319000  0.38049000  1.0
  O  O131  1  0.18770000  0.57681000  0.11952000  1.0
