# generated using pymatgen
data_Co3H104C134(N4O)6
_symmetry_space_group_name_H-M   'P 1'
_cell_length_a   9.38279000
_cell_length_b   19.04650000
_cell_length_c   19.04390000
_cell_angle_alpha   117.36500000
_cell_angle_beta   99.44510000
_cell_angle_gamma   99.43890000
_symmetry_Int_Tables_number   1
_chemical_formula_structural   Co3H104C134(N4O)6
_chemical_formula_sum   'Co3 H104 C134 N24 O6'
_cell_volume   2867.99355407
_cell_formula_units_Z   1
loop_
 _symmetry_equiv_pos_site_id
 _symmetry_equiv_pos_as_xyz
  1  'x, y, z'
loop_
 _atom_site_type_symbol
 _atom_site_label
 _atom_site_symmetry_multiplicity
 _atom_site_fract_x
 _atom_site_fract_y
 _atom_site_fract_z
 _atom_site_occupancy
  Co  Co0  1  0.50000000  0.00000000  0.50000000  1.0
  Co  Co1  1  0.00000000  0.50000000  0.50000000  1.0
  Co  Co2  1  0.50000000  0.50000000  0.00000000  1.0
  H  H3  1  0.97921000  0.23090000  0.57208000  1.0
  H  H4  1  0.40723000  0.42799000  0.65905000  1.0
  H  H5  1  0.74837000  0.34096000  0.76886000  1.0
  H  H6  1  0.02079000  0.76909000  0.42792000  1.0
  H  H7  1  0.59276000  0.57201000  0.34095000  1.0
  H  H8  1  0.25164000  0.65904000  0.23114000  1.0
  H  H9  1  0.07710000  0.14465000  0.64081000  1.0
  H  H10  1  0.43654000  0.35917000  0.50407000  1.0
  H  H11  1  0.93229000  0.49596000  0.85504000  1.0
  H  H12  1  0.92290000  0.85535000  0.35919000  1.0
  H  H13  1  0.56346000  0.64082000  0.49593000  1.0
  H  H14  1  0.06771000  0.50404000  0.14495000  1.0
  H  H15  1  0.10715000  0.98445000  0.56690000  1.0
  H  H16  1  0.54067000  0.43305000  0.41767000  1.0
  H  H17  1  0.12249000  0.58219000  0.01519000  1.0
  H  H18  1  0.89285000  0.01555000  0.43311000  1.0
  H  H19  1  0.45934000  0.56695000  0.58233000  1.0
  H  H20  1  0.87751000  0.41781000  0.98481000  1.0
  H  H21  1  0.33787000  0.98881000  0.65582000  1.0
  H  H22  1  0.68249000  0.34414000  0.33312000  1.0
  H  H23  1  0.34893000  0.66682000  0.01103000  1.0
  H  H24  1  0.66213000  0.01119000  0.34418000  1.0
  H  H25  1  0.31751000  0.65586000  0.66688000  1.0
  H  H26  1  0.65108000  0.33318000  0.98897000  1.0
  H  H27  1  0.15491000  0.05157000  0.85321000  1.0
  H  H28  1  0.30227000  0.14684000  0.19832000  1.0
  H  H29  1  0.10353000  0.80172000  0.94859000  1.0
  H  H30  1  0.84509000  0.94843000  0.14679000  1.0
  H  H31  1  0.69772000  0.85316000  0.80168000  1.0
  H  H32  1  0.89648000  0.19828000  0.05141000  1.0
  H  H33  1  0.91574000  0.04931000  0.77187000  1.0
  H  H34  1  0.14441000  0.22810000  0.27745000  1.0
  H  H35  1  0.86654000  0.72263000  0.95072000  1.0
  H  H36  1  0.08426000  0.95069000  0.22813000  1.0
  H  H37  1  0.85558000  0.77190000  0.72254000  1.0
  H  H38  1  0.13347000  0.27737000  0.04928000  1.0
  H  H39  1  0.81832000  0.88403000  0.65403000  1.0
  H  H40  1  0.16453000  0.34588000  0.23006000  1.0
  H  H41  1  0.93446000  0.76974000  0.11587000  1.0
  H  H42  1  0.18169000  0.11597000  0.34597000  1.0
  H  H43  1  0.83547000  0.65412000  0.76994000  1.0
  H  H44  1  0.06554000  0.23026000  0.88412000  1.0
  H  H45  1  0.53509000  0.78775000  0.59951000  1.0
  H  H46  1  0.93598000  0.40059000  0.18834000  1.0
  H  H47  1  0.74767000  0.81163000  0.21231000  1.0
  H  H48  1  0.46491000  0.21226000  0.40050000  1.0
  H  H49  1  0.06402000  0.59941000  0.81166000  1.0
  H  H50  1  0.25234000  0.18837000  0.78769000  1.0
  H  H51  1  0.74957000  0.44276000  0.57049000  1.0
  H  H52  1  0.17873000  0.42963000  0.87247000  1.0
  H  H53  1  0.30636000  0.12743000  0.55701000  1.0
  H  H54  1  0.25043000  0.55724000  0.42951000  1.0
  H  H55  1  0.82127000  0.57037000  0.12753000  1.0
  H  H56  1  0.69364000  0.87257000  0.44299000  1.0
  H  H57  1  0.63705000  0.31806000  0.57702000  1.0
  H  H58  1  0.05950000  0.42317000  0.74129000  1.0
  H  H59  1  0.31838000  0.25869000  0.68167000  1.0
  H  H60  1  0.36296000  0.68193000  0.42298000  1.0
  H  H61  1  0.94050000  0.57683000  0.25871000  1.0
  H  H62  1  0.68163000  0.74132000  0.31833000  1.0
  H  H63  1  0.85312000  0.18215000  0.39510000  1.0
  H  H64  1  0.45779000  0.60456000  0.78690000  1.0
  H  H65  1  0.67079000  0.21298000  0.81759000  1.0
  H  H66  1  0.14688000  0.81785000  0.60490000  1.0
  H  H67  1  0.54220000  0.39543000  0.21309000  1.0
  H  H68  1  0.32920000  0.78702000  0.18241000  1.0
  H  H69  1  0.95906000  0.31276000  0.39708000  1.0
  H  H70  1  0.56187000  0.60256000  0.91551000  1.0
  H  H71  1  0.64629000  0.08435000  0.68701000  1.0
  H  H72  1  0.04093000  0.68724000  0.60292000  1.0
  H  H73  1  0.43813000  0.39744000  0.08449000  1.0
  H  H74  1  0.35371000  0.91565000  0.31298000  1.0
  H  H75  1  0.40998000  0.00003000  0.00009000  1.0
  H  H76  1  0.59002000  0.99997000  0.99991000  1.0
  H  H77  1  0.42648000  0.15837000  0.10344000  1.0
  H  H78  1  0.32286000  0.89665000  0.05503000  1.0
  H  H79  1  0.26789000  0.94515000  0.84171000  1.0
  H  H80  1  0.57352000  0.84163000  0.89656000  1.0
  H  H81  1  0.67714000  0.10335000  0.94498000  1.0
  H  H82  1  0.73212000  0.05485000  0.15830000  1.0
  H  H83  1  0.49313000  0.11679000  0.01441000  1.0
  H  H84  1  0.47859000  0.98560000  0.10240000  1.0
  H  H85  1  0.37633000  0.89776000  0.88323000  1.0
  H  H86  1  0.50687000  0.88321000  0.98559000  1.0
  H  H87  1  0.52141000  0.01441000  0.89760000  1.0
  H  H88  1  0.62367000  0.10224000  0.11677000  1.0
  H  H89  1  0.33679000  0.18382000  0.95543000  1.0
  H  H90  1  0.38158000  0.04465000  0.22857000  1.0
  H  H91  1  0.15323000  0.77165000  0.81620000  1.0
  H  H92  1  0.66320000  0.81618000  0.04457000  1.0
  H  H93  1  0.61842000  0.95535000  0.77144000  1.0
  H  H94  1  0.84677000  0.22835000  0.18380000  1.0
  H  H95  1  0.48017000  0.25339000  0.04758000  1.0
  H  H96  1  0.43283000  0.95247000  0.20585000  1.0
  H  H97  1  0.22709000  0.79431000  0.74669000  1.0
  H  H98  1  0.51983000  0.74661000  0.95242000  1.0
  H  H99  1  0.56718000  0.04753000  0.79415000  1.0
  H  H100  1  0.77291000  0.20569000  0.25331000  1.0
  H  H101  1  0.28913000  0.23170000  0.05030000  1.0
  H  H102  1  0.23909000  0.94984000  0.18166000  1.0
  H  H103  1  0.05754000  0.81854000  0.76827000  1.0
  H  H104  1  0.71086000  0.76830000  0.94970000  1.0
  H  H105  1  0.76091000  0.05017000  0.81834000  1.0
  H  H106  1  0.94245000  0.18146000  0.23173000  1.0
  C  C107  1  0.75872000  0.13591000  0.52768000  1.0
  C  C108  1  0.23106000  0.47234000  0.60833000  1.0
  C  C109  1  0.62267000  0.39163000  0.86386000  1.0
  C  C110  1  0.24129000  0.86409000  0.47232000  1.0
  C  C111  1  0.76893000  0.52766000  0.39166000  1.0
  C  C112  1  0.37733000  0.60838000  0.13613000  1.0
  C  C113  1  0.91618000  0.17611000  0.56928000  1.0
  C  C114  1  0.34699000  0.43076000  0.60702000  1.0
  C  C115  1  0.73996000  0.39298000  0.82363000  1.0
  C  C116  1  0.08382000  0.82389000  0.43072000  1.0
  C  C117  1  0.65300000  0.56924000  0.39298000  1.0
  C  C118  1  0.26004000  0.60703000  0.17637000  1.0
  C  C119  1  0.96574000  0.13249000  0.60353000  1.0
  C  C120  1  0.36240000  0.39646000  0.52915000  1.0
  C  C121  1  0.83307000  0.47085000  0.86720000  1.0
  C  C122  1  0.03426000  0.86751000  0.39647000  1.0
  C  C123  1  0.63760000  0.60353000  0.47085000  1.0
  C  C124  1  0.16693000  0.52915000  0.13280000  1.0
  C  C125  1  0.83870000  0.06576000  0.58299000  1.0
  C  C126  1  0.25594000  0.41699000  0.48288000  1.0
  C  C127  1  0.77275000  0.51709000  0.93396000  1.0
  C  C128  1  0.16130000  0.93424000  0.41701000  1.0
  C  C129  1  0.74406000  0.58301000  0.51712000  1.0
  C  C130  1  0.22725000  0.48291000  0.06604000  1.0
  C  C131  1  0.84416000  0.01031000  0.61152000  1.0
  C  C132  1  0.23299000  0.38848000  0.39890000  1.0
  C  C133  1  0.83373000  0.60105000  0.98946000  1.0
  C  C134  1  0.15585000  0.98969000  0.38848000  1.0
  C  C135  1  0.76701000  0.61152000  0.60110000  1.0
  C  C136  1  0.16627000  0.39895000  0.01053000  1.0
  C  C137  1  0.98946000  0.01577000  0.66176000  1.0
  C  C138  1  0.32810000  0.33823000  0.35409000  1.0
  C  C139  1  0.97357000  0.64584000  0.98401000  1.0
  C  C140  1  0.01054000  0.98424000  0.33824000  1.0
  C  C141  1  0.67190000  0.66177000  0.64591000  1.0
  C  C142  1  0.02643000  0.35416000  0.01599000  1.0
  C  C143  1  0.11261000  0.00006000  0.63011000  1.0
  C  C144  1  0.48290000  0.36986000  0.37002000  1.0
  C  C145  1  0.11240000  0.62986000  0.99968000  1.0
  C  C146  1  0.88739000  0.99995000  0.36989000  1.0
  C  C147  1  0.51710000  0.63014000  0.62997000  1.0
  C  C148  1  0.88760000  0.37014000  0.00032000  1.0
  C  C149  1  0.24230000  0.00257000  0.68034000  1.0
  C  C150  1  0.56242000  0.31964000  0.32230000  1.0
  C  C151  1  0.23964000  0.67762000  0.99728000  1.0
  C  C152  1  0.75770000  0.99743000  0.31966000  1.0
  C  C153  1  0.43758000  0.68035000  0.67770000  1.0
  C  C154  1  0.76036000  0.32238000  0.00272000  1.0
  C  C155  1  0.14111000  0.03705000  0.78940000  1.0
  C  C156  1  0.35225000  0.21064000  0.24765000  1.0
  C  C157  1  0.10416000  0.75235000  0.96300000  1.0
  C  C158  1  0.85889000  0.96296000  0.21060000  1.0
  C  C159  1  0.64775000  0.78936000  0.75235000  1.0
  C  C160  1  0.89585000  0.24765000  0.03700000  1.0
  C  C161  1  0.00707000  0.03556000  0.74387000  1.0
  C  C162  1  0.26370000  0.25615000  0.29173000  1.0
  C  C163  1  0.97153000  0.70827000  0.96439000  1.0
  C  C164  1  0.99293000  0.96444000  0.25613000  1.0
  C  C165  1  0.73630000  0.74385000  0.70827000  1.0
  C  C166  1  0.02847000  0.29173000  0.03561000  1.0
  C  C167  1  0.71626000  0.95074000  0.59660000  1.0
  C  C168  1  0.12006000  0.40347000  0.35426000  1.0
  C  C169  1  0.76557000  0.64568000  0.04920000  1.0
  C  C170  1  0.28374000  0.04927000  0.40340000  1.0
  C  C171  1  0.87994000  0.59653000  0.64574000  1.0
  C  C172  1  0.23443000  0.35431000  0.95080000  1.0
  C  C173  1  0.71924000  0.88886000  0.62013000  1.0
  C  C174  1  0.09952000  0.37992000  0.26883000  1.0
  C  C175  1  0.83059000  0.73106000  0.11112000  1.0
  C  C176  1  0.28076000  0.11115000  0.37987000  1.0
  C  C177  1  0.90048000  0.62008000  0.73117000  1.0
  C  C178  1  0.16941000  0.26894000  0.88887000  1.0
  C  C179  1  0.57627000  0.83986000  0.59210000  1.0
  C  C180  1  0.98464000  0.40802000  0.24788000  1.0
  C  C181  1  0.73671000  0.75208000  0.16021000  1.0
  C  C182  1  0.42373000  0.16014000  0.40791000  1.0
  C  C183  1  0.01536000  0.59198000  0.75212000  1.0
  C  C184  1  0.26329000  0.24792000  0.83979000  1.0
  C  C185  1  0.48543000  0.87134000  0.55087000  1.0
  C  C186  1  0.93499000  0.44926000  0.32057000  1.0
  C  C187  1  0.61436000  0.67944000  0.12879000  1.0
  C  C188  1  0.51457000  0.12866000  0.44913000  1.0
  C  C189  1  0.06501000  0.55074000  0.67943000  1.0
  C  C190  1  0.38564000  0.32056000  0.87121000  1.0
  C  C191  1  0.77059000  0.38398000  0.53270000  1.0
  C  C192  1  0.23752000  0.46735000  0.85142000  1.0
  C  C193  1  0.38620000  0.14851000  0.61580000  1.0
  C  C194  1  0.22941000  0.61602000  0.46730000  1.0
  C  C195  1  0.76247000  0.53264000  0.14858000  1.0
  C  C196  1  0.61380000  0.85150000  0.38420000  1.0
  C  C197  1  0.70798000  0.31460000  0.53616000  1.0
  C  C198  1  0.17137000  0.46393000  0.77861000  1.0
  C  C199  1  0.39288000  0.22135000  0.68516000  1.0
  C  C200  1  0.29203000  0.68540000  0.46384000  1.0
  C  C201  1  0.82863000  0.53607000  0.22139000  1.0
  C  C202  1  0.60713000  0.77865000  0.31484000  1.0
  C  C203  1  0.66772000  0.16457000  0.48739000  1.0
  C  C204  1  0.18003000  0.51254000  0.67720000  1.0
  C  C205  1  0.50285000  0.32277000  0.83520000  1.0
  C  C206  1  0.33228000  0.83543000  0.51261000  1.0
  C  C207  1  0.81996000  0.48745000  0.32280000  1.0
  C  C208  1  0.49715000  0.67724000  0.16479000  1.0
  C  C209  1  0.73672000  0.23997000  0.48654000  1.0
  C  C210  1  0.24977000  0.51342000  0.75349000  1.0
  C  C211  1  0.49633000  0.24646000  0.75979000  1.0
  C  C212  1  0.26328000  0.76003000  0.51346000  1.0
  C  C213  1  0.75022000  0.48657000  0.24651000  1.0
  C  C214  1  0.50367000  0.75354000  0.24021000  1.0
  C  C215  1  0.82910000  0.23903000  0.43562000  1.0
  C  C216  1  0.39318000  0.56417000  0.80336000  1.0
  C  C217  1  0.58983000  0.19656000  0.76072000  1.0
  C  C218  1  0.17090000  0.76097000  0.56438000  1.0
  C  C219  1  0.60682000  0.43583000  0.19664000  1.0
  C  C220  1  0.41017000  0.80344000  0.23928000  1.0
  C  C221  1  0.88763000  0.31148000  0.43641000  1.0
  C  C222  1  0.45099000  0.56336000  0.87500000  1.0
  C  C223  1  0.57597000  0.12488000  0.68829000  1.0
  C  C224  1  0.11237000  0.68852000  0.56358000  1.0
  C  C225  1  0.54901000  0.43663000  0.12499000  1.0
  C  C226  1  0.42403000  0.87512000  0.31171000  1.0
  C  C227  1  0.29182000  0.00005000  0.00008000  1.0
  C  C228  1  0.70818000  0.99995000  0.99992000  1.0
  C  C229  1  0.39816000  0.13694000  0.03713000  1.0
  C  C230  1  0.36094000  0.96295000  0.09990000  1.0
  C  C231  1  0.26117000  0.90027000  0.86313000  1.0
  C  C232  1  0.60184000  0.86306000  0.96287000  1.0
  C  C233  1  0.63906000  0.03705000  0.90010000  1.0
  C  C234  1  0.73884000  0.09973000  0.13688000  1.0
  C  C235  1  0.37350000  0.20530000  0.02142000  1.0
  C  C236  1  0.35223000  0.97868000  0.18401000  1.0
  C  C237  1  0.16834000  0.81617000  0.79474000  1.0
  C  C238  1  0.62649000  0.79470000  0.97858000  1.0
  C  C239  1  0.64778000  0.02133000  0.81599000  1.0
  C  C240  1  0.83166000  0.18383000  0.20526000  1.0
  N  N241  1  0.57136000  0.93986000  0.55451000  1.0
  N  N242  1  0.01724000  0.44560000  0.38546000  1.0
  N  N243  1  0.63161000  0.61454000  0.06018000  1.0
  N  N244  1  0.42864000  0.06014000  0.44549000  1.0
  N  N245  1  0.98276000  0.55440000  0.61454000  1.0
  N  N246  1  0.36839000  0.38546000  0.93982000  1.0
  N  N247  1  0.71192000  0.06819000  0.53608000  1.0
  N  N248  1  0.17597000  0.46391000  0.53218000  1.0
  N  N249  1  0.64360000  0.46777000  0.93159000  1.0
  N  N250  1  0.28809000  0.93181000  0.46392000  1.0
  N  N251  1  0.82403000  0.53608000  0.46782000  1.0
  N  N252  1  0.35640000  0.53223000  0.06840000  1.0
  N  N253  1  0.25824000  0.02029000  0.75857000  1.0
  N  N254  1  0.50019000  0.24145000  0.26174000  1.0
  N  N255  1  0.23799000  0.73823000  0.97972000  1.0
  N  N256  1  0.74176000  0.97971000  0.24143000  1.0
  N  N257  1  0.49981000  0.75855000  0.73826000  1.0
  N  N258  1  0.76201000  0.26177000  0.02029000  1.0
  N  N259  1  0.85968000  0.38302000  0.48393000  1.0
  N  N260  1  0.37548000  0.51598000  0.89913000  1.0
  N  N261  1  0.47639000  0.10076000  0.61675000  1.0
  N  N262  1  0.14032000  0.61698000  0.51607000  1.0
  N  N263  1  0.62452000  0.48402000  0.10087000  1.0
  N  N264  1  0.52361000  0.89925000  0.38324000  1.0
  O  O265  1  0.26501000  0.06783000  0.99430000  1.0
  O  O266  1  0.27069000  0.00584000  0.07365000  1.0
  O  O267  1  0.19721000  0.92651000  0.93230000  1.0
  O  O268  1  0.73499000  0.93217000  0.00570000  1.0
  O  O269  1  0.72931000  0.99416000  0.92635000  1.0
  O  O270  1  0.80279000  0.07349000  0.06770000  1.0
