# generated using pymatgen
data_CoH21C26(NO2)2
_symmetry_space_group_name_H-M   'P 1'
_cell_length_a   7.30548000
_cell_length_b   14.00140000
_cell_length_c   24.69587435
_cell_angle_alpha   74.71011677
_cell_angle_beta   89.99869310
_cell_angle_gamma   89.99930000
_symmetry_Int_Tables_number   1
_chemical_formula_structural   CoH21C26(NO2)2
_chemical_formula_sum   'Co4 H84 C104 N8 O16'
_cell_volume   2436.65297751
_cell_formula_units_Z   4
loop_
 _symmetry_equiv_pos_site_id
 _symmetry_equiv_pos_as_xyz
  1  'x, y, z'
loop_
 _atom_site_type_symbol
 _atom_site_label
 _atom_site_symmetry_multiplicity
 _atom_site_fract_x
 _atom_site_fract_y
 _atom_site_fract_z
 _atom_site_occupancy
  Co  Co0  1  0.61966000  0.95615000  0.48813000  1.0
  Co  Co1  1  0.61962000  0.54386000  0.01187000  1.0
  Co  Co2  1  0.38035000  0.04390000  0.51189000  1.0
  Co  Co3  1  0.38034000  0.45609000  0.98812000  1.0
  H  H4  1  0.05572000  0.95193000  0.61775000  1.0
  H  H5  1  0.05574000  0.54807000  0.88225000  1.0
  H  H6  1  0.94426000  0.04807000  0.38227000  1.0
  H  H7  1  0.94420000  0.45190000  0.11775000  1.0
  H  H8  1  0.20998000  0.95629000  0.70604000  1.0
  H  H9  1  0.20995000  0.54374000  0.79396000  1.0
  H  H10  1  0.79004000  0.04375000  0.29396000  1.0
  H  H11  1  0.79000000  0.45625000  0.20605000  1.0
  H  H12  1  0.72648000  0.08517000  0.75819000  1.0
  H  H13  1  0.72641000  0.41482000  0.74183000  1.0
  H  H14  1  0.27363000  0.91485000  0.24184000  1.0
  H  H15  1  0.27359000  0.58511000  0.25816000  1.0
  H  H16  1  0.57000000  0.07416000  0.67142000  1.0
  H  H17  1  0.57001000  0.42582000  0.82861000  1.0
  H  H18  1  0.43001000  0.92585000  0.32862000  1.0
  H  H19  1  0.42999000  0.57410000  0.17139000  1.0
  H  H20  1  0.17567000  0.17947000  0.74068000  1.0
  H  H21  1  0.17568000  0.32054000  0.75931000  1.0
  H  H22  1  0.82440000  0.82053000  0.25934000  1.0
  H  H23  1  0.82436000  0.67947000  0.24065000  1.0
  H  H24  1  0.34037000  0.08621000  0.74198000  1.0
  H  H25  1  0.34037000  0.41376000  0.75802000  1.0
  H  H26  1  0.65971000  0.91378000  0.25803000  1.0
  H  H27  1  0.65967000  0.58620000  0.24198000  1.0
  H  H28  1  0.31035000  0.13286000  0.80196000  1.0
  H  H29  1  0.31033000  0.36715000  0.69803000  1.0
  H  H30  1  0.68976000  0.86710000  0.19806000  1.0
  H  H31  1  0.68969000  0.63289000  0.30195000  1.0
  H  H32  1  0.84983000  0.02234000  0.84525000  1.0
  H  H33  1  0.84979000  0.47767000  0.65477000  1.0
  H  H34  1  0.15029000  0.97763000  0.15478000  1.0
  H  H35  1  0.15024000  0.52239000  0.34523000  1.0
  H  H36  1  0.91526000  0.14646000  0.81163000  1.0
  H  H37  1  0.91521000  0.35357000  0.68837000  1.0
  H  H38  1  0.08487000  0.85354000  0.18840000  1.0
  H  H39  1  0.08480000  0.64649000  0.31159000  1.0
  H  H40  1  0.04714000  0.07301000  0.86810000  1.0
  H  H41  1  0.04707000  0.42702000  0.63189000  1.0
  H  H42  1  0.95304000  0.92695000  0.13192000  1.0
  H  H43  1  0.95297000  0.57309000  0.36808000  1.0
  H  H44  1  0.90898000  0.85882000  0.82603000  1.0
  H  H45  1  0.90900000  0.64121000  0.67397000  1.0
  H  H46  1  0.09104000  0.14119000  0.17396000  1.0
  H  H47  1  0.09106000  0.35885000  0.32607000  1.0
  H  H48  1  0.02159000  0.70045000  0.88738000  1.0
  H  H49  1  0.02162000  0.79955000  0.61259000  1.0
  H  H50  1  0.97840000  0.29953000  0.11257000  1.0
  H  H51  1  0.97842000  0.20048000  0.38741000  1.0
  H  H52  1  0.55765000  0.82667000  0.88805000  1.0
  H  H53  1  0.55769000  0.67331000  0.61196000  1.0
  H  H54  1  0.44237000  0.17325000  0.11195000  1.0
  H  H55  1  0.44238000  0.32675000  0.38807000  1.0
  H  H56  1  0.44888000  0.98407000  0.82449000  1.0
  H  H57  1  0.44887000  0.51590000  0.67552000  1.0
  H  H58  1  0.55121000  0.01586000  0.17551000  1.0
  H  H59  1  0.55119000  0.48414000  0.32451000  1.0
  H  H60  1  0.00373000  0.82297000  0.51678000  1.0
  H  H61  1  0.00374000  0.67708000  0.98317000  1.0
  H  H62  1  0.99627000  0.17714000  0.48317000  1.0
  H  H63  1  0.99630000  0.32289000  0.01679000  1.0
  H  H64  1  0.64034000  0.85553000  0.38115000  1.0
  H  H65  1  0.64036000  0.64452000  0.11881000  1.0
  H  H66  1  0.35951000  0.14452000  0.61883000  1.0
  H  H67  1  0.35965000  0.35547000  0.88114000  1.0
  H  H68  1  0.91288000  0.72005000  0.37237000  1.0
  H  H69  1  0.91299000  0.77997000  0.12761000  1.0
  H  H70  1  0.08690000  0.27999000  0.62762000  1.0
  H  H71  1  0.08710000  0.22001000  0.87236000  1.0
  H  H72  1  0.29535000  0.73958000  0.38695000  1.0
  H  H73  1  0.29536000  0.76036000  0.11302000  1.0
  H  H74  1  0.70445000  0.26031000  0.61299000  1.0
  H  H75  1  0.70453000  0.23964000  0.88699000  1.0
  H  H76  1  0.53887000  0.61438000  0.41091000  1.0
  H  H77  1  0.53890000  0.88558000  0.08912000  1.0
  H  H78  1  0.46085000  0.38549000  0.58908000  1.0
  H  H79  1  0.46091000  0.11448000  0.91095000  1.0
  H  H80  1  0.27275000  0.48513000  0.56952000  1.0
  H  H81  1  0.27290000  0.01490000  0.93051000  1.0
  H  H82  1  0.72723000  0.51504000  0.43054000  1.0
  H  H83  1  0.72734000  0.98500000  0.06948000  1.0
  H  H84  1  0.02967000  0.60944000  0.54450000  1.0
  H  H85  1  0.02984000  0.89060000  0.95547000  1.0
  H  H86  1  0.97024000  0.39071000  0.45550000  1.0
  H  H87  1  0.97042000  0.10931000  0.04447000  1.0
  C  C88  1  0.70545000  0.00943000  0.58622000  1.0
  C  C89  1  0.70543000  0.49057000  0.91379000  1.0
  C  C90  1  0.29458000  0.99060000  0.41380000  1.0
  C  C91  1  0.29454000  0.50938000  0.08621000  1.0
  C  C92  1  0.80211000  0.01289000  0.63884000  1.0
  C  C93  1  0.80211000  0.48711000  0.86118000  1.0
  C  C94  1  0.19790000  0.98712000  0.36119000  1.0
  C  C95  1  0.19786000  0.51286000  0.13882000  1.0
  C  C96  1  0.98254000  0.97907000  0.64918000  1.0
  C  C97  1  0.98253000  0.52097000  0.85081000  1.0
  C  C98  1  0.01746000  0.02096000  0.35083000  1.0
  C  C99  1  0.01742000  0.47903000  0.14918000  1.0
  C  C100  1  0.06961000  0.98339000  0.69857000  1.0
  C  C101  1  0.06959000  0.51664000  0.80143000  1.0
  C  C102  1  0.93040000  0.01664000  0.30144000  1.0
  C  C103  1  0.93036000  0.48335000  0.19857000  1.0
  C  C104  1  0.98170000  0.02284000  0.73836000  1.0
  C  C105  1  0.98169000  0.47717000  0.76164000  1.0
  C  C106  1  0.01833000  0.97718000  0.26165000  1.0
  C  C107  1  0.01829000  0.52281000  0.23835000  1.0
  C  C108  1  0.80054000  0.05544000  0.72795000  1.0
  C  C109  1  0.80052000  0.44455000  0.77207000  1.0
  C  C110  1  0.19950000  0.94458000  0.27208000  1.0
  C  C111  1  0.19947000  0.55539000  0.22793000  1.0
  C  C112  1  0.71168000  0.05009000  0.67894000  1.0
  C  C113  1  0.71169000  0.44991000  0.82108000  1.0
  C  C114  1  0.28833000  0.94993000  0.32109000  1.0
  C  C115  1  0.28831000  0.55004000  0.17892000  1.0
  C  C116  1  0.23873000  0.11247000  0.76744000  1.0
  C  C117  1  0.23872000  0.38751000  0.73256000  1.0
  C  C118  1  0.76134000  0.88749000  0.23258000  1.0
  C  C119  1  0.76130000  0.61249000  0.26743000  1.0
  C  C120  1  0.08906000  0.03425000  0.78946000  1.0
  C  C121  1  0.08907000  0.46574000  0.71055000  1.0
  C  C122  1  0.91100000  0.96573000  0.21055000  1.0
  C  C123  1  0.91095000  0.53427000  0.28945000  1.0
  C  C124  1  0.96728000  0.07132000  0.83072000  1.0
  C  C125  1  0.96725000  0.42870000  0.66928000  1.0
  C  C126  1  0.03283000  0.92866000  0.16930000  1.0
  C  C127  1  0.03277000  0.57137000  0.33069000  1.0
  C  C128  1  0.16873000  0.93456000  0.82212000  1.0
  C  C129  1  0.16873000  0.56545000  0.67789000  1.0
  C  C130  1  0.83132000  0.06542000  0.17788000  1.0
  C  C131  1  0.83131000  0.43459000  0.32214000  1.0
  C  C132  1  0.05178000  0.85248000  0.83959000  1.0
  C  C133  1  0.05180000  0.64753000  0.66042000  1.0
  C  C134  1  0.94825000  0.14751000  0.16040000  1.0
  C  C135  1  0.94827000  0.35252000  0.33962000  1.0
  C  C136  1  0.11466000  0.76316000  0.87393000  1.0
  C  C137  1  0.11470000  0.73686000  0.62606000  1.0
  C  C138  1  0.88535000  0.23682000  0.12604000  1.0
  C  C139  1  0.88539000  0.26319000  0.37397000  1.0
  C  C140  1  0.29704000  0.75415000  0.89247000  1.0
  C  C141  1  0.29709000  0.74585000  0.60754000  1.0
  C  C142  1  0.70296000  0.24580000  0.10751000  1.0
  C  C143  1  0.70300000  0.25420000  0.39250000  1.0
  C  C144  1  0.41588000  0.83442000  0.87381000  1.0
  C  C145  1  0.41592000  0.66558000  0.62621000  1.0
  C  C146  1  0.58414000  0.16552000  0.12619000  1.0
  C  C147  1  0.58416000  0.33448000  0.37384000  1.0
  C  C148  1  0.35274000  0.92307000  0.83855000  1.0
  C  C149  1  0.35274000  0.57692000  0.66146000  1.0
  C  C150  1  0.64731000  0.07687000  0.16145000  1.0
  C  C151  1  0.64730000  0.42312000  0.33857000  1.0
  C  C152  1  0.36442000  0.66188000  0.93278000  1.0
  C  C153  1  0.36448000  0.83811000  0.56723000  1.0
  C  C154  1  0.63554000  0.33806000  0.06720000  1.0
  C  C155  1  0.63556000  0.16194000  0.43280000  1.0
  C  C156  1  0.93772000  0.81294000  0.47937000  1.0
  C  C157  1  0.93776000  0.68707000  0.02060000  1.0
  C  C158  1  0.06218000  0.18711000  0.52060000  1.0
  C  C159  1  0.06228000  0.31288000  0.97936000  1.0
  C  C160  1  0.75682000  0.82822000  0.40770000  1.0
  C  C161  1  0.75689000  0.67180000  0.09227000  1.0
  C  C162  1  0.24299000  0.17180000  0.59230000  1.0
  C  C163  1  0.24315000  0.32818000  0.90768000  1.0
  C  C164  1  0.88870000  0.76144000  0.40294000  1.0
  C  C165  1  0.88880000  0.73858000  0.09703000  1.0
  C  C166  1  0.11108000  0.23860000  0.59704000  1.0
  C  C167  1  0.11127000  0.26139000  0.90293000  1.0
  C  C168  1  0.14755000  0.68153000  0.46400000  1.0
  C  C169  1  0.14767000  0.81848000  0.03597000  1.0
  C  C170  1  0.85227000  0.31850000  0.53597000  1.0
  C  C171  1  0.85243000  0.18148000  0.96401000  1.0
  C  C172  1  0.29083000  0.68218000  0.42653000  1.0
  C  C173  1  0.29091000  0.81778000  0.07346000  1.0
  C  C174  1  0.70894000  0.31776000  0.57343000  1.0
  C  C175  1  0.70907000  0.18221000  0.92655000  1.0
  C  C176  1  0.42782000  0.61106000  0.44071000  1.0
  C  C177  1  0.42789000  0.88892000  0.05930000  1.0
  C  C178  1  0.57193000  0.38889000  0.55928000  1.0
  C  C179  1  0.57204000  0.11109000  0.94074000  1.0
  C  C180  1  0.42667000  0.53785000  0.49234000  1.0
  C  C181  1  0.42675000  0.96215000  0.00768000  1.0
  C  C182  1  0.57317000  0.46217000  0.50768000  1.0
  C  C183  1  0.57326000  0.03782000  0.99235000  1.0
  C  C184  1  0.28043000  0.53969000  0.52909000  1.0
  C  C185  1  0.28053000  0.96035000  0.97092000  1.0
  C  C186  1  0.71949000  0.46043000  0.47094000  1.0
  C  C187  1  0.71961000  0.03960000  0.02907000  1.0
  C  C188  1  0.14219000  0.61007000  0.51546000  1.0
  C  C189  1  0.14231000  0.88997000  0.98452000  1.0
  C  C190  1  0.85771000  0.39004000  0.48454000  1.0
  C  C191  1  0.85786000  0.10997000  0.01545000  1.0
  N  N192  1  0.78952000  0.86011000  0.45507000  1.0
  N  N193  1  0.78956000  0.63989000  0.04491000  1.0
  N  N194  1  0.21034000  0.13991000  0.54492000  1.0
  N  N195  1  0.21046000  0.36008000  0.95504000  1.0
  N  N196  1  0.00273000  0.75148000  0.44903000  1.0
  N  N197  1  0.00282000  0.74853000  0.05093000  1.0
  N  N198  1  0.99711000  0.24856000  0.55094000  1.0
  N  N199  1  0.99727000  0.25142000  0.94903000  1.0
  O  O200  1  0.78153000  0.96521000  0.55306000  1.0
  O  O201  1  0.78144000  0.53485000  0.94693000  1.0
  O  O202  1  0.21850000  0.03489000  0.44693000  1.0
  O  O203  1  0.21846000  0.46513000  0.05306000  1.0
  O  O204  1  0.54874000  0.05115000  0.57730000  1.0
  O  O205  1  0.54878000  0.44878000  0.92273000  1.0
  O  O206  1  0.45123000  0.94883000  0.42276000  1.0
  O  O207  1  0.45122000  0.55112000  0.07726000  1.0
  O  O208  1  0.27068000  0.58251000  0.93920000  1.0
  O  O209  1  0.27068000  0.91746000  0.56081000  1.0
  O  O210  1  0.72931000  0.41743000  0.06077000  1.0
  O  O211  1  0.72927000  0.08255000  0.43922000  1.0
  O  O212  1  0.51189000  0.66741000  0.95934000  1.0
  O  O213  1  0.51195000  0.83260000  0.54066000  1.0
  O  O214  1  0.48805000  0.33252000  0.04065000  1.0
  O  O215  1  0.48810000  0.16750000  0.45936000  1.0
