# generated using pymatgen
data_CuSiH16C20(N4F3)2
_symmetry_space_group_name_H-M   'P 1'
_cell_length_a   8.09540000
_cell_length_b   13.10180000
_cell_length_c   13.10170000
_cell_angle_alpha   89.69320000
_cell_angle_beta   85.71330000
_cell_angle_gamma   85.71300000
_symmetry_Int_Tables_number   1
_chemical_formula_structural   CuSiH16C20(N4F3)2
_chemical_formula_sum   'Cu1 Si1 H16 C20 N8 F6'
_cell_volume   1381.85817981
_cell_formula_units_Z   1
loop_
 _symmetry_equiv_pos_site_id
 _symmetry_equiv_pos_as_xyz
  1  'x, y, z'
loop_
 _atom_site_type_symbol
 _atom_site_label
 _atom_site_symmetry_multiplicity
 _atom_site_fract_x
 _atom_site_fract_y
 _atom_site_fract_z
 _atom_site_occupancy
  Cu  Cu0  1  0.50000000  0.50000000  0.50000000  1.0
  Si  Si1  1  0.00000000  0.50000000  0.49999000  1.0
  H  H2  1  0.26310000  0.49998000  0.33786000  1.0
  H  H3  1  0.27372000  0.49989000  0.14643000  1.0
  H  H4  1  0.80711000  0.50001000  0.14300000  1.0
  H  H5  1  0.77774000  0.50004000  0.33541000  1.0
  H  H6  1  0.19290000  0.49999000  0.85700000  1.0
  H  H7  1  0.72629000  0.50011000  0.85357000  1.0
  H  H8  1  0.73690000  0.50002000  0.66213000  1.0
  H  H9  1  0.22226000  0.49996000  0.66460000  1.0
  H  H10  1  0.26310000  0.33786000  0.49998000  1.0
  H  H11  1  0.27372000  0.14643000  0.49988000  1.0
  H  H12  1  0.80711000  0.14299000  0.50001000  1.0
  H  H13  1  0.77774000  0.33540000  0.50004000  1.0
  H  H14  1  0.19289000  0.85700000  0.49999000  1.0
  H  H15  1  0.72628000  0.85357000  0.50011000  1.0
  H  H16  1  0.73690000  0.66213000  0.50002000  1.0
  H  H17  1  0.22226000  0.66459000  0.49996000  1.0
  C  C18  1  0.38094000  0.49998000  0.29198000  1.0
  C  C19  1  0.38709000  0.49994000  0.18600000  1.0
  C  C20  1  0.54218000  0.49995000  0.13070000  1.0
  C  C21  1  0.68523000  0.49999000  0.18427000  1.0
  C  C22  1  0.66954000  0.50000000  0.29080000  1.0
  C  C23  1  0.31477000  0.50001000  0.81573000  1.0
  C  C24  1  0.45784000  0.50005000  0.86930000  1.0
  C  C25  1  0.61292000  0.50006000  0.81400000  1.0
  C  C26  1  0.61906000  0.50002000  0.70802000  1.0
  C  C27  1  0.33046000  0.50000000  0.70920000  1.0
  C  C28  1  0.38094000  0.29198000  0.49998000  1.0
  C  C29  1  0.38709000  0.18600000  0.49994000  1.0
  C  C30  1  0.54217000  0.13070000  0.49995000  1.0
  C  C31  1  0.68523000  0.18426000  0.49999000  1.0
  C  C32  1  0.66955000  0.29080000  0.50000000  1.0
  C  C33  1  0.31477000  0.81573000  0.50001000  1.0
  C  C34  1  0.45783000  0.86929000  0.50005000  1.0
  C  C35  1  0.61292000  0.81400000  0.50006000  1.0
  C  C36  1  0.61906000  0.70802000  0.50002000  1.0
  C  C37  1  0.33045000  0.70920000  0.50000000  1.0
  N  N38  1  0.51990000  0.49999000  0.34333000  1.0
  N  N39  1  0.56650000  0.49994000  0.02241000  1.0
  N  N40  1  0.43351000  0.50007000  0.97759000  1.0
  N  N41  1  0.48010000  0.50001000  0.65667000  1.0
  N  N42  1  0.51990000  0.34333000  0.49999000  1.0
  N  N43  1  0.56649000  0.02241000  0.49994000  1.0
  N  N44  1  0.43350000  0.97759000  0.50006000  1.0
  N  N45  1  0.48010000  0.65667000  0.50001000  1.0
  F  F46  1  0.21496000  0.50105000  0.50105000  1.0
  F  F47  1  0.78505000  0.49894000  0.49894000  1.0
  F  F48  1  0.00000000  0.59251000  0.40749000  1.0
  F  F49  1  0.00001000  0.40749000  0.59250000  1.0
  F  F50  1  0.02478000  0.40748000  0.40748000  1.0
  F  F51  1  0.97523000  0.59252000  0.59251000  1.0
