# generated using pymatgen
data_CdH8C6(BrN2)2
_symmetry_space_group_name_H-M   'P 1'
_cell_length_a   8.34779000
_cell_length_b   9.05971000
_cell_length_c   13.75970000
_cell_angle_alpha   90.00050000
_cell_angle_beta   90.00010000
_cell_angle_gamma   86.82580000
_symmetry_Int_Tables_number   1
_chemical_formula_structural   CdH8C6(BrN2)2
_chemical_formula_sum   'Cd4 H32 C24 Br8 N16'
_cell_volume   1039.02971966
_cell_formula_units_Z   4
loop_
 _symmetry_equiv_pos_site_id
 _symmetry_equiv_pos_as_xyz
  1  'x, y, z'
loop_
 _atom_site_type_symbol
 _atom_site_label
 _atom_site_symmetry_multiplicity
 _atom_site_fract_x
 _atom_site_fract_y
 _atom_site_fract_z
 _atom_site_occupancy
  Cd  Cd0  1  0.25061000  0.49761000  0.99797000  1.0
  Cd  Cd1  1  0.24938000  0.00238000  0.49797000  1.0
  Cd  Cd2  1  0.74938000  0.50238000  0.00203000  1.0
  Cd  Cd3  1  0.75062000  0.99762000  0.50203000  1.0
  H  H4  1  0.13026000  0.72655000  0.18639000  1.0
  H  H5  1  0.36976000  0.77344000  0.68640000  1.0
  H  H6  1  0.86975000  0.27345000  0.81361000  1.0
  H  H7  1  0.63025000  0.22655000  0.31361000  1.0
  H  H8  1  0.28315000  0.39705000  0.39077000  1.0
  H  H9  1  0.21685000  0.10295000  0.89077000  1.0
  H  H10  1  0.71685000  0.60295000  0.60923000  1.0
  H  H11  1  0.78314000  0.89706000  0.10923000  1.0
  H  H12  1  0.35007000  0.29693000  0.20262000  1.0
  H  H13  1  0.14993000  0.20307000  0.70262000  1.0
  H  H14  1  0.64993000  0.70308000  0.79737000  1.0
  H  H15  1  0.85006000  0.79693000  0.29737000  1.0
  H  H16  1  0.04431000  0.61151000  0.79352000  1.0
  H  H17  1  0.45569000  0.88850000  0.29352000  1.0
  H  H18  1  0.95570000  0.38849000  0.20649000  1.0
  H  H19  1  0.54430000  0.11150000  0.70649000  1.0
  H  H20  1  0.14856000  0.54428000  0.60512000  1.0
  H  H21  1  0.35144000  0.95573000  0.10512000  1.0
  H  H22  1  0.85144000  0.45573000  0.39488000  1.0
  H  H23  1  0.64857000  0.04427000  0.89488000  1.0
  H  H24  1  0.47924000  0.35291000  0.80992000  1.0
  H  H25  1  0.02076000  0.14709000  0.30992000  1.0
  H  H26  1  0.52076000  0.64708000  0.19008000  1.0
  H  H27  1  0.97924000  0.85291000  0.69008000  1.0
  H  H28  1  0.14914000  0.65682000  0.36688000  1.0
  H  H29  1  0.35086000  0.84318000  0.86688000  1.0
  H  H30  1  0.85086000  0.34319000  0.63312000  1.0
  H  H31  1  0.64914000  0.15682000  0.13312000  1.0
  H  H32  1  0.40709000  0.38154000  0.62909000  1.0
  H  H33  1  0.09291000  0.11846000  0.12909000  1.0
  H  H34  1  0.59291000  0.61846000  0.37091000  1.0
  H  H35  1  0.90709000  0.88154000  0.87090000  1.0
  C  C36  1  0.18285000  0.62382000  0.21543000  1.0
  C  C37  1  0.31717000  0.87618000  0.71544000  1.0
  C  C38  1  0.81716000  0.37619000  0.78457000  1.0
  C  C39  1  0.68284000  0.12382000  0.28456000  1.0
  C  C40  1  0.26205000  0.44944000  0.32073000  1.0
  C  C41  1  0.23795000  0.05056000  0.82073000  1.0
  C  C42  1  0.73795000  0.55056000  0.67927000  1.0
  C  C43  1  0.76204000  0.94944000  0.17927000  1.0
  C  C44  1  0.29383000  0.40063000  0.22772000  1.0
  C  C45  1  0.20618000  0.09936000  0.72772000  1.0
  C  C46  1  0.70617000  0.59937000  0.77228000  1.0
  C  C47  1  0.79382000  0.90064000  0.27228000  1.0
  C  C48  1  0.15005000  0.54790000  0.76838000  1.0
  C  C49  1  0.34995000  0.95211000  0.26838000  1.0
  C  C50  1  0.84996000  0.45210000  0.23163000  1.0
  C  C51  1  0.65005000  0.04789000  0.73162000  1.0
  C  C52  1  0.20004000  0.51484000  0.67530000  1.0
  C  C53  1  0.29996000  0.98517000  0.17530000  1.0
  C  C54  1  0.79996000  0.48516000  0.32470000  1.0
  C  C55  1  0.70004000  0.01483000  0.82469000  1.0
  C  C56  1  0.37573000  0.41531000  0.78060000  1.0
  C  C57  1  0.12427000  0.08469000  0.28060000  1.0
  C  C58  1  0.62427000  0.58469000  0.21940000  1.0
  C  C59  1  0.87574000  0.91530000  0.71940000  1.0
  Br  Br60  1  0.48976000  0.72134000  0.99229000  1.0
  Br  Br61  1  0.01024000  0.77866000  0.49228000  1.0
  Br  Br62  1  0.51024000  0.27866000  0.00772000  1.0
  Br  Br63  1  0.98976000  0.22134000  0.50772000  1.0
  Br  Br64  1  0.00520000  0.27934000  0.00606000  1.0
  Br  Br65  1  0.49481000  0.22065000  0.50607000  1.0
  Br  Br66  1  0.99481000  0.72065000  0.99393000  1.0
  Br  Br67  1  0.50519000  0.77935000  0.49394000  1.0
  N  N68  1  0.24352000  0.51027000  0.16287000  1.0
  N  N69  1  0.25650000  0.98972000  0.66287000  1.0
  N  N70  1  0.75648000  0.48974000  0.83713000  1.0
  N  N71  1  0.74351000  0.01027000  0.33713000  1.0
  N  N72  1  0.19406000  0.59081000  0.31108000  1.0
  N  N73  1  0.30595000  0.90919000  0.81109000  1.0
  N  N74  1  0.80594000  0.40920000  0.68891000  1.0
  N  N75  1  0.69405000  0.09081000  0.18891000  1.0
  N  N76  1  0.26059000  0.48505000  0.83324000  1.0
  N  N77  1  0.23940000  0.01495000  0.33324000  1.0
  N  N78  1  0.73941000  0.51495000  0.16676000  1.0
  N  N79  1  0.76059000  0.98504000  0.66676000  1.0
  N  N80  1  0.34294000  0.43234000  0.68497000  1.0
  N  N81  1  0.15706000  0.06767000  0.18498000  1.0
  N  N82  1  0.65706000  0.56767000  0.31502000  1.0
  N  N83  1  0.84294000  0.93233000  0.81502000  1.0
