# generated using pymatgen
data_ZnPH9C9O4
_symmetry_space_group_name_H-M   'P 1'
_cell_length_a   7.96189000
_cell_length_b   15.38630000
_cell_length_c   15.38550000
_cell_angle_alpha   117.07400000
_cell_angle_beta   99.94530000
_cell_angle_gamma   99.93260000
_symmetry_Int_Tables_number   1
_chemical_formula_structural   ZnPH9C9O4
_chemical_formula_sum   'Zn6 P6 H54 C54 O24'
_cell_volume   1583.83526050
_cell_formula_units_Z   6
loop_
 _symmetry_equiv_pos_site_id
 _symmetry_equiv_pos_as_xyz
  1  'x, y, z'
loop_
 _atom_site_type_symbol
 _atom_site_label
 _atom_site_symmetry_multiplicity
 _atom_site_fract_x
 _atom_site_fract_y
 _atom_site_fract_z
 _atom_site_occupancy
  Zn  Zn0  1  0.18691000  0.15032000  0.60325000  1.0
  Zn  Zn1  1  0.03673000  0.45288000  0.84965000  1.0
  Zn  Zn2  1  0.58409000  0.39682000  0.54721000  1.0
  Zn  Zn3  1  0.81310000  0.84968000  0.39675000  1.0
  Zn  Zn4  1  0.96327000  0.54711000  0.15035000  1.0
  Zn  Zn5  1  0.41590000  0.60318000  0.45279000  1.0
  P  P6  1  0.77790000  0.34604000  0.94694000  1.0
  P  P7  1  0.43220000  0.60106000  0.65398000  1.0
  P  P8  1  0.83068000  0.05316000  0.39916000  1.0
  P  P9  1  0.22209000  0.65396000  0.05306000  1.0
  P  P10  1  0.56780000  0.39894000  0.34603000  1.0
  P  P11  1  0.16933000  0.94684000  0.60084000  1.0
  H  H12  1  0.67556000  0.18937000  0.00181000  1.0
  H  H13  1  0.48710000  0.81265000  0.81027000  1.0
  H  H14  1  0.67392000  0.99794000  0.18770000  1.0
  H  H15  1  0.32444000  0.81063000  0.99819000  1.0
  H  H16  1  0.51291000  0.18736000  0.18973000  1.0
  H  H17  1  0.32608000  0.00206000  0.81229000  1.0
  H  H18  1  0.67281000  0.00708000  0.92128000  1.0
  H  H19  1  0.66637000  0.91450000  0.99269000  1.0
  H  H20  1  0.75091000  0.07836000  0.08568000  1.0
  H  H21  1  0.32719000  0.99292000  0.07872000  1.0
  H  H22  1  0.33364000  0.08551000  0.00731000  1.0
  H  H23  1  0.24909000  0.92164000  0.91431000  1.0
  H  H24  1  0.77597000  0.92943000  0.76730000  1.0
  H  H25  1  0.84640000  0.83814000  0.07072000  1.0
  H  H26  1  0.00730000  0.23270000  0.16188000  1.0
  H  H27  1  0.22406000  0.07058000  0.23270000  1.0
  H  H28  1  0.15361000  0.16187000  0.92929000  1.0
  H  H29  1  0.99270000  0.76731000  0.83812000  1.0
  H  H30  1  0.87673000  0.03367000  0.69016000  1.0
  H  H31  1  0.84266000  0.65671000  0.96677000  1.0
  H  H32  1  0.18521000  0.31027000  0.34327000  1.0
  H  H33  1  0.12328000  0.96633000  0.30984000  1.0
  H  H34  1  0.15734000  0.34330000  0.03324000  1.0
  H  H35  1  0.81478000  0.68973000  0.65673000  1.0
  H  H36  1  0.87304000  0.21378000  0.76719000  1.0
  H  H37  1  0.65931000  0.55359000  0.78653000  1.0
  H  H38  1  0.10541000  0.23334000  0.44663000  1.0
  H  H39  1  0.12697000  0.78622000  0.23281000  1.0
  H  H40  1  0.34069000  0.44642000  0.21348000  1.0
  H  H41  1  0.89459000  0.76667000  0.55337000  1.0
  H  H42  1  0.48469000  0.31832000  0.96913000  1.0
  H  H43  1  0.16646000  0.65061000  0.68177000  1.0
  H  H44  1  0.51530000  0.03120000  0.34912000  1.0
  H  H45  1  0.51530000  0.68168000  0.03087000  1.0
  H  H46  1  0.83353000  0.34938000  0.31823000  1.0
  H  H47  1  0.48470000  0.96880000  0.65088000  1.0
  H  H48  1  0.56362000  0.43511000  0.97304000  1.0
  H  H49  1  0.12885000  0.53794000  0.56487000  1.0
  H  H50  1  0.58998000  0.02700000  0.46189000  1.0
  H  H51  1  0.43637000  0.56489000  0.02696000  1.0
  H  H52  1  0.87115000  0.46205000  0.43513000  1.0
  H  H53  1  0.41004000  0.97300000  0.53811000  1.0
  H  H54  1  0.53281000  0.33023000  0.77967000  1.0
  H  H55  1  0.20284000  0.44900000  0.66921000  1.0
  H  H56  1  0.75316000  0.22036000  0.55062000  1.0
  H  H57  1  0.46718000  0.66977000  0.22033000  1.0
  H  H58  1  0.79715000  0.55100000  0.33079000  1.0
  H  H59  1  0.24685000  0.77964000  0.44938000  1.0
  H  H60  1  0.41897000  0.22179000  0.78066000  1.0
  H  H61  1  0.19790000  0.55828000  0.77798000  1.0
  H  H62  1  0.63826000  0.21960000  0.44129000  1.0
  H  H63  1  0.58104000  0.77821000  0.21933000  1.0
  H  H64  1  0.80209000  0.44172000  0.22202000  1.0
  H  H65  1  0.36175000  0.78040000  0.55871000  1.0
  C  C66  1  0.77451000  0.21349000  0.88957000  1.0
  C  C67  1  0.56150000  0.67628000  0.78652000  1.0
  C  C68  1  0.88479000  0.11058000  0.32400000  1.0
  C  C69  1  0.22549000  0.78650000  0.11042000  1.0
  C  C70  1  0.43850000  0.32372000  0.21348000  1.0
  C  C71  1  0.11521000  0.88942000  0.67599000  1.0
  C  C72  1  0.71788000  0.15488000  0.93289000  1.0
  C  C73  1  0.56364000  0.77824000  0.84497000  1.0
  C  C74  1  0.78483000  0.06701000  0.22203000  1.0
  C  C75  1  0.28212000  0.84512000  0.06711000  1.0
  C  C76  1  0.43635000  0.22176000  0.15504000  1.0
  C  C77  1  0.21517000  0.93298000  0.77796000  1.0
  C  C78  1  0.71711000  0.05293000  0.88809000  1.0
  C  C79  1  0.66464000  0.83542000  0.94696000  1.0
  C  C80  1  0.82847000  0.11172000  0.16474000  1.0
  C  C81  1  0.28289000  0.94707000  0.11191000  1.0
  C  C82  1  0.33536000  0.16458000  0.05304000  1.0
  C  C83  1  0.17154000  0.88828000  0.83525000  1.0
  C  C84  1  0.77464000  0.00881000  0.80102000  1.0
  C  C85  1  0.76585000  0.79246000  0.99130000  1.0
  C  C86  1  0.97259000  0.19899000  0.20759000  1.0
  C  C87  1  0.22538000  0.99119000  0.19898000  1.0
  C  C88  1  0.23414000  0.20754000  0.00870000  1.0
  C  C89  1  0.02741000  0.80101000  0.79240000  1.0
  C  C90  1  0.83067000  0.06688000  0.75764000  1.0
  C  C91  1  0.76367000  0.69098000  0.93341000  1.0
  C  C92  1  0.07205000  0.24263000  0.30908000  1.0
  C  C93  1  0.16933000  0.93312000  0.24237000  1.0
  C  C94  1  0.23632000  0.30903000  0.06660000  1.0
  C  C95  1  0.92795000  0.75737000  0.69091000  1.0
  C  C96  1  0.82945000  0.16861000  0.80126000  1.0
  C  C97  1  0.66100000  0.63285000  0.83159000  1.0
  C  C98  1  0.02767000  0.19907000  0.36737000  1.0
  C  C99  1  0.17056000  0.83139000  0.19874000  1.0
  C  C100  1  0.33900000  0.36716000  0.16842000  1.0
  C  C101  1  0.97232000  0.80093000  0.63262000  1.0
  C  C102  1  0.55154000  0.35324000  0.93123000  1.0
  C  C103  1  0.19864000  0.57787000  0.64675000  1.0
  C  C104  1  0.61999000  0.06895000  0.42199000  1.0
  C  C105  1  0.44846000  0.64675000  0.06877000  1.0
  C  C106  1  0.80136000  0.42212000  0.35325000  1.0
  C  C107  1  0.38002000  0.93105000  0.57801000  1.0
  C  C108  1  0.44999000  0.30534000  0.81934000  1.0
  C  C109  1  0.14510000  0.51362000  0.69442000  1.0
  C  C110  1  0.63057000  0.18083000  0.48611000  1.0
  C  C111  1  0.55001000  0.69466000  0.18066000  1.0
  C  C112  1  0.85490000  0.48637000  0.30558000  1.0
  C  C113  1  0.36944000  0.81917000  0.51389000  1.0
  C  C114  1  0.27909000  0.33230000  0.79918000  1.0
  C  C115  1  0.94718000  0.46669000  0.66756000  1.0
  C  C116  1  0.47995000  0.20102000  0.53331000  1.0
  C  C117  1  0.72091000  0.66770000  0.20082000  1.0
  C  C118  1  0.05281000  0.53331000  0.33244000  1.0
  C  C119  1  0.52007000  0.79898000  0.46670000  1.0
  O  O120  1  0.87533000  0.39783000  0.06098000  1.0
  O  O121  1  0.47727000  0.66335000  0.60215000  1.0
  O  O122  1  0.81390000  0.93912000  0.33690000  1.0
  O  O123  1  0.12466000  0.60216000  0.93902000  1.0
  O  O124  1  0.52272000  0.33665000  0.39786000  1.0
  O  O125  1  0.18609000  0.06087000  0.66310000  1.0
  O  O126  1  0.85405000  0.38969000  0.88639000  1.0
  O  O127  1  0.46501000  0.49695000  0.61027000  1.0
  O  O128  1  0.96729000  0.11358000  0.50340000  1.0
  O  O129  1  0.14595000  0.61031000  0.11361000  1.0
  O  O130  1  0.53499000  0.50305000  0.38975000  1.0
  O  O131  1  0.03272000  0.88642000  0.49659000  1.0
  O  O132  1  0.25352000  0.40933000  0.87044000  1.0
  O  O133  1  0.84455000  0.46087000  0.59045000  1.0
  O  O134  1  0.38300000  0.12971000  0.53902000  1.0
  O  O135  1  0.74648000  0.59067000  0.12956000  1.0
  O  O136  1  0.15544000  0.53913000  0.40955000  1.0
  O  O137  1  0.61703000  0.87028000  0.46099000  1.0
  O  O138  1  0.16731000  0.27955000  0.71069000  1.0
  O  O139  1  0.88801000  0.43107000  0.72035000  1.0
  O  O140  1  0.45688000  0.28954000  0.56919000  1.0
  O  O141  1  0.83269000  0.72045000  0.28931000  1.0
  O  O142  1  0.11198000  0.56892000  0.27965000  1.0
  O  O143  1  0.54312000  0.71046000  0.43081000  1.0
