# generated using pymatgen
data_ZnH11C10NO7
_symmetry_space_group_name_H-M   'P 1'
_cell_length_a   6.81752000
_cell_length_b   9.69229000
_cell_length_c   10.39830000
_cell_angle_alpha   69.29500000
_cell_angle_beta   90.00050000
_cell_angle_gamma   90.00010000
_symmetry_Int_Tables_number   1
_chemical_formula_structural   ZnH11C10NO7
_chemical_formula_sum   'Zn2 H22 C20 N2 O14'
_cell_volume   642.71531543
_cell_formula_units_Z   2
loop_
 _symmetry_equiv_pos_site_id
 _symmetry_equiv_pos_as_xyz
  1  'x, y, z'
loop_
 _atom_site_type_symbol
 _atom_site_label
 _atom_site_symmetry_multiplicity
 _atom_site_fract_x
 _atom_site_fract_y
 _atom_site_fract_z
 _atom_site_occupancy
  Zn  Zn0  1  0.25000000  0.57215000  0.35854000  1.0
  Zn  Zn1  1  0.75000000  0.42785000  0.64146000  1.0
  H  H2  1  0.25000000  0.82849000  0.98085000  1.0
  H  H3  1  0.75000000  0.17151000  0.01915000  1.0
  H  H4  1  0.25000000  0.72035000  0.81517000  1.0
  H  H5  1  0.75001000  0.27965000  0.18483000  1.0
  H  H6  1  0.25000000  0.19608000  0.69560000  1.0
  H  H7  1  0.74998000  0.80391000  0.30440000  1.0
  H  H8  1  0.25000000  0.99901000  0.38821000  1.0
  H  H9  1  0.75000000  0.00098000  0.61179000  1.0
  H  H10  1  0.92722000  0.52762000  0.26456000  1.0
  H  H11  1  0.42721000  0.47238000  0.73544000  1.0
  H  H12  1  0.07278000  0.47238000  0.73545000  1.0
  H  H13  1  0.57279000  0.52762000  0.26455000  1.0
  H  H14  1  0.94268000  0.69959000  0.18775000  1.0
  H  H15  1  0.44268000  0.30041000  0.81225000  1.0
  H  H16  1  0.05731000  0.30041000  0.81225000  1.0
  H  H17  1  0.55731000  0.69959000  0.18775000  1.0
  H  H18  1  0.25000000  0.86583000  0.17835000  1.0
  H  H19  1  0.75004000  0.13418000  0.82165000  1.0
  H  H20  1  0.12167000  0.03089000  0.16476000  1.0
  H  H21  1  0.62168000  0.96913000  0.83523000  1.0
  H  H22  1  0.87832000  0.96909000  0.83524000  1.0
  H  H23  1  0.37831000  0.03090000  0.16477000  1.0
  C  C24  1  0.25000000  0.26447000  0.42538000  1.0
  C  C25  1  0.75000000  0.73553000  0.57462000  1.0
  C  C26  1  0.25000000  0.11159000  0.53302000  1.0
  C  C27  1  0.75000000  0.88841000  0.46698000  1.0
  C  C28  1  0.25000000  0.71093000  0.56141000  1.0
  C  C29  1  0.75000000  0.28907000  0.43859000  1.0
  C  C30  1  0.25000000  0.84641000  0.59858000  1.0
  C  C31  1  0.75001000  0.15359000  0.40142000  1.0
  C  C32  1  0.24999000  0.83093000  0.73742000  1.0
  C  C33  1  0.75000000  0.16907000  0.26257000  1.0
  C  C34  1  0.25000000  0.95657000  0.77416000  1.0
  C  C35  1  0.74999000  0.04343000  0.22584000  1.0
  C  C36  1  0.25000000  0.03991000  0.97578000  1.0
  C  C37  1  0.75000000  0.96009000  0.02422000  1.0
  C  C38  1  0.25000000  0.09665000  0.67136000  1.0
  C  C39  1  0.74999000  0.90335000  0.32864000  1.0
  C  C40  1  0.25000000  0.98669000  0.49616000  1.0
  C  C41  1  0.75000000  0.01331000  0.50384000  1.0
  C  C42  1  0.24999000  0.98580000  0.12963000  1.0
  C  C43  1  0.75001000  0.01421000  0.87036000  1.0
  N  N44  1  0.25000000  0.93571000  0.91610000  1.0
  N  N45  1  0.75000000  0.06429000  0.08390000  1.0
  O  O46  1  0.25000000  0.36954000  0.47795000  1.0
  O  O47  1  0.75000000  0.63046000  0.52206000  1.0
  O  O48  1  0.25000000  0.28318000  0.30112000  1.0
  O  O49  1  0.74999000  0.71681000  0.69888000  1.0
  O  O50  1  0.25000000  0.58507000  0.65625000  1.0
  O  O51  1  0.75001000  0.41493000  0.34375000  1.0
  O  O52  1  0.25000000  0.17592000  0.90788000  1.0
  O  O53  1  0.75000000  0.82408000  0.09212000  1.0
  O  O54  1  0.25000000  0.73196000  0.43234000  1.0
  O  O55  1  0.75000000  0.26804000  0.56766000  1.0
  O  O56  1  0.02356000  0.60969000  0.22389000  1.0
  O  O57  1  0.52356000  0.39031000  0.77611000  1.0
  O  O58  1  0.97643000  0.39031000  0.77612000  1.0
  O  O59  1  0.47644000  0.60968000  0.22389000  1.0
