# generated using pymatgen
data_ZnH7C13SNO6
_symmetry_space_group_name_H-M   'P 1'
_cell_length_a   6.87072000
_cell_length_b   12.60870000
_cell_length_c   34.72910000
_cell_angle_alpha   89.87140000
_cell_angle_beta   85.57280000
_cell_angle_gamma   89.85490000
_symmetry_Int_Tables_number   1
_chemical_formula_structural   ZnH7C13SNO6
_chemical_formula_sum   'Zn4 H28 C52 S4 N4 O24'
_cell_volume   2999.61836699
_cell_formula_units_Z   4
loop_
 _symmetry_equiv_pos_site_id
 _symmetry_equiv_pos_as_xyz
  1  'x, y, z'
loop_
 _atom_site_type_symbol
 _atom_site_label
 _atom_site_symmetry_multiplicity
 _atom_site_fract_x
 _atom_site_fract_y
 _atom_site_fract_z
 _atom_site_occupancy
  Zn  Zn0  1  0.64313000  0.01928000  0.49753000  1.0
  Zn  Zn1  1  0.25729000  0.99691000  0.50397000  1.0
  Zn  Zn2  1  0.26586000  0.02134000  0.00249000  1.0
  Zn  Zn3  1  0.65180000  0.99765000  0.99622000  1.0
  H  H4  1  0.68040000  0.03714000  0.11517000  1.0
  H  H5  1  0.69192000  0.03618000  0.18620000  1.0
  H  H6  1  0.07453000  0.96850000  0.19774000  1.0
  H  H7  1  0.83390000  0.96756000  0.30231000  1.0
  H  H8  1  0.21590000  0.03516000  0.31392000  1.0
  H  H9  1  0.22772000  0.03575000  0.38494000  1.0
  H  H10  1  0.22935000  0.99480000  0.25389000  1.0
  H  H11  1  0.67857000  0.99419000  0.24616000  1.0
  H  H12  1  0.66184000  0.96203000  0.87954000  1.0
  H  H13  1  0.68347000  0.96014000  0.80812000  1.0
  H  H14  1  0.06896000  0.03555000  0.81151000  1.0
  H  H15  1  0.84107000  0.03612000  0.68839000  1.0
  H  H16  1  0.22775000  0.95939000  0.69217000  1.0
  H  H17  1  0.24852000  0.96106000  0.62074000  1.0
  H  H18  1  0.23116000  0.00372000  0.75156000  1.0
  H  H19  1  0.67973000  0.00431000  0.74852000  1.0
  H  H20  1  0.02064000  0.96374000  0.09522000  1.0
  H  H21  1  0.91058000  0.93956000  0.14150000  1.0
  H  H22  1  0.88831000  0.96163000  0.40480000  1.0
  H  H23  1  0.99815000  0.93785000  0.35850000  1.0
  H  H24  1  0.00256000  0.04988000  0.91547000  1.0
  H  H25  1  0.89933000  0.07144000  0.87171000  1.0
  H  H26  1  0.90638000  0.04970000  0.58437000  1.0
  H  H27  1  0.00969000  0.07180000  0.62804000  1.0
  H  H28  1  0.69004000  0.77373000  0.47943000  1.0
  H  H29  1  0.00245000  0.22215000  0.52355000  1.0
  H  H30  1  0.21922000  0.77550000  0.02079000  1.0
  H  H31  1  0.90686000  0.22257000  0.97649000  1.0
  C  C32  1  0.33787000  0.20507000  0.50150000  1.0
  C  C33  1  0.52262000  0.00217000  0.42675000  1.0
  C  C34  1  0.36031000  0.79725000  0.50197000  1.0
  C  C35  1  0.54436000  0.00601000  0.57164000  1.0
  C  C36  1  0.57129000  0.20607000  0.99848000  1.0
  C  C37  1  0.38610000  0.00362000  0.07332000  1.0
  C  C38  1  0.54904000  0.79828000  0.99833000  1.0
  C  C39  1  0.36527000  0.00722000  0.92844000  1.0
  C  C40  1  0.37592000  0.00196000  0.11557000  1.0
  C  C41  1  0.54960000  0.01969000  0.13379000  1.0
  C  C42  1  0.55600000  0.01823000  0.17337000  1.0
  C  C43  1  0.38252000  0.99854000  0.19723000  1.0
  C  C44  1  0.20930000  0.98244000  0.17964000  1.0
  C  C45  1  0.19942000  0.98342000  0.13911000  1.0
  C  C46  1  0.37612000  0.99690000  0.23926000  1.0
  C  C47  1  0.53189000  0.99654000  0.26084000  1.0
  C  C48  1  0.69908000  0.98135000  0.32043000  1.0
  C  C49  1  0.52563000  0.99765000  0.30286000  1.0
  C  C50  1  0.35204000  0.01713000  0.32675000  1.0
  C  C51  1  0.35859000  0.01834000  0.36631000  1.0
  C  C52  1  0.53257000  0.00054000  0.38451000  1.0
  C  C53  1  0.70909000  0.98202000  0.36095000  1.0
  C  C54  1  0.35853000  0.00327000  0.88650000  1.0
  C  C55  1  0.53430000  0.98099000  0.86402000  1.0
  C  C56  1  0.54600000  0.98012000  0.82425000  1.0
  C  C57  1  0.37608000  0.00110000  0.80462000  1.0
  C  C58  1  0.20076000  0.02068000  0.82642000  1.0
  C  C59  1  0.18565000  0.02276000  0.86724000  1.0
  C  C60  1  0.37569000  0.00132000  0.76272000  1.0
  C  C61  1  0.53525000  0.00144000  0.73736000  1.0
  C  C62  1  0.70939000  0.02083000  0.67356000  1.0
  C  C63  1  0.53457000  0.00099000  0.69546000  1.0
  C  C64  1  0.36479000  0.97953000  0.67595000  1.0
  C  C65  1  0.37606000  0.98019000  0.63617000  1.0
  C  C66  1  0.55137000  0.00254000  0.61358000  1.0
  C  C67  1  0.72408000  0.02259000  0.63274000  1.0
  C  C68  1  0.50395000  0.60969000  0.48766000  1.0
  C  C69  1  0.17399000  0.39125000  0.51393000  1.0
  C  C70  1  0.35612000  0.68100000  0.50082000  1.0
  C  C71  1  0.32422000  0.32087000  0.50119000  1.0
  C  C72  1  0.24117000  0.49706000  0.50882000  1.0
  C  C73  1  0.43382000  0.50467000  0.49239000  1.0
  C  C74  1  0.40517000  0.61092000  0.01254000  1.0
  C  C75  1  0.73526000  0.39195000  0.98624000  1.0
  C  C76  1  0.55311000  0.68200000  0.99945000  1.0
  C  C77  1  0.58493000  0.32180000  0.99888000  1.0
  C  C78  1  0.66810000  0.49787000  0.99142000  1.0
  C  C79  1  0.47531000  0.50575000  0.00779000  1.0
  C  C80  1  0.70639000  0.62371000  0.46939000  1.0
  C  C81  1  0.97392000  0.37326000  0.53242000  1.0
  C  C82  1  0.20252000  0.62533000  0.03072000  1.0
  C  C83  1  0.93534000  0.37375000  0.96773000  1.0
  S  S84  1  0.14006000  0.61949000  0.51815000  1.0
  S  S85  1  0.53833000  0.38349000  0.48338000  1.0
  S  S86  1  0.76926000  0.62016000  0.98216000  1.0
  S  S87  1  0.37068000  0.38472000  0.01666000  1.0
  N  N88  1  0.02461000  0.96752000  0.12433000  1.0
  N  N89  1  0.88412000  0.96582000  0.37570000  1.0
  N  N90  1  0.00918000  0.04210000  0.88635000  1.0
  N  N91  1  0.90009000  0.04217000  0.61351000  1.0
  O  O92  1  0.50700000  0.16509000  0.49587000  1.0
  O  O93  1  0.17989000  0.14753000  0.50700000  1.0
  O  O94  1  0.35676000  0.00408000  0.44606000  1.0
  O  O95  1  0.68792000  0.00203000  0.44329000  1.0
  O  O96  1  0.19565000  0.84672000  0.50726000  1.0
  O  O97  1  0.52417000  0.84595000  0.49797000  1.0
  O  O98  1  0.70860000  0.01300000  0.54977000  1.0
  O  O99  1  0.37946000  0.00301000  0.55708000  1.0
  O  O100  1  0.40205000  0.16654000  0.00400000  1.0
  O  O101  1  0.72924000  0.14815000  0.99301000  1.0
  O  O102  1  0.55208000  0.00532000  0.05406000  1.0
  O  O103  1  0.22093000  0.00373000  0.05674000  1.0
  O  O104  1  0.71372000  0.84734000  0.99300000  1.0
  O  O105  1  0.38529000  0.84745000  0.00238000  1.0
  O  O106  1  0.20083000  0.01444000  0.95026000  1.0
  O  O107  1  0.53008000  0.00449000  0.94305000  1.0
  O  O108  1  0.78420000  0.72054000  0.46649000  1.0
  O  O109  1  0.79776000  0.54498000  0.45732000  1.0
  O  O110  1  0.90416000  0.27399000  0.53538000  1.0
  O  O111  1  0.87590000  0.44922000  0.54466000  1.0
  O  O112  1  0.12475000  0.72234000  0.03361000  1.0
  O  O113  1  0.11094000  0.54671000  0.04272000  1.0
  O  O114  1  0.00520000  0.27433000  0.96473000  1.0
  O  O115  1  0.03329000  0.44966000  0.95552000  1.0
