# generated using pymatgen
data_Cd3H38C30S2(N3O5)4
_symmetry_space_group_name_H-M   'P 1'
_cell_length_a   9.21591000
_cell_length_b   9.57002000
_cell_length_c   13.66260000
_cell_angle_alpha   84.98440000
_cell_angle_beta   83.42980000
_cell_angle_gamma   68.28220000
_symmetry_Int_Tables_number   1
_chemical_formula_structural   Cd3H38C30S2(N3O5)4
_chemical_formula_sum   'Cd3 H38 C30 S2 N12 O20'
_cell_volume   1110.77948044
_cell_formula_units_Z   1
loop_
 _symmetry_equiv_pos_site_id
 _symmetry_equiv_pos_as_xyz
  1  'x, y, z'
loop_
 _atom_site_type_symbol
 _atom_site_label
 _atom_site_symmetry_multiplicity
 _atom_site_fract_x
 _atom_site_fract_y
 _atom_site_fract_z
 _atom_site_occupancy
  Cd  Cd0  1  0.00000000  0.00000000  0.00000000  1.0
  Cd  Cd1  1  0.52225000  0.18848000  0.50273000  1.0
  Cd  Cd2  1  0.47774000  0.81152000  0.49727000  1.0
  H  H3  1  0.19528000  0.09328000  0.16064000  1.0
  H  H4  1  0.80472000  0.90672000  0.83936000  1.0
  H  H5  1  0.42535000  0.76529000  0.95170000  1.0
  H  H6  1  0.57466000  0.23470000  0.04830000  1.0
  H  H7  1  0.73474000  0.82566000  0.07057000  1.0
  H  H8  1  0.26527000  0.17432000  0.92943000  1.0
  H  H9  1  0.70243000  0.69846000  0.99676000  1.0
  H  H10  1  0.29757000  0.30153000  0.00324000  1.0
  H  H11  1  0.82966000  0.56712000  0.14489000  1.0
  H  H12  1  0.17034000  0.43287000  0.85512000  1.0
  H  H13  1  0.67404000  0.68714000  0.22419000  1.0
  H  H14  1  0.32596000  0.31285000  0.77581000  1.0
  H  H15  1  0.48329000  0.59471000  0.15981000  1.0
  H  H16  1  0.51671000  0.40528000  0.84018000  1.0
  H  H17  1  0.63529000  0.47704000  0.07930000  1.0
  H  H18  1  0.36471000  0.52295000  0.92070000  1.0
  H  H19  1  0.43399000  0.48528000  0.32762000  1.0
  H  H20  1  0.56601000  0.51472000  0.67238000  1.0
  H  H21  1  0.84944000  0.10104000  0.32705000  1.0
  H  H22  1  0.15056000  0.89896000  0.67295000  1.0
  H  H23  1  0.67130000  0.77005000  0.72896000  1.0
  H  H24  1  0.32869000  0.22995000  0.27105000  1.0
  H  H25  1  0.07543000  0.35635000  0.71871000  1.0
  H  H26  1  0.92457000  0.64365000  0.28129000  1.0
  H  H27  1  0.04622000  0.71314000  0.49936000  1.0
  H  H28  1  0.95377000  0.28688000  0.50064000  1.0
  H  H29  1  0.70348000  0.35380000  0.55634000  1.0
  H  H30  1  0.29651000  0.64621000  0.44366000  1.0
  H  H31  1  0.77819000  0.17530000  0.57522000  1.0
  H  H32  1  0.22180000  0.82471000  0.42477000  1.0
  H  H33  1  0.94353000  0.32073000  0.00577000  1.0
  H  H34  1  0.05648000  0.67927000  0.99423000  1.0
  H  H35  1  0.90255000  0.25994000  0.11619000  1.0
  H  H36  1  0.09746000  0.74006000  0.88381000  1.0
  H  H37  1  0.86752000  0.89512000  0.19294000  1.0
  H  H38  1  0.13249000  0.10488000  0.80706000  1.0
  H  H39  1  0.05301000  0.81511000  0.17837000  1.0
  H  H40  1  0.94700000  0.18489000  0.82163000  1.0
  C  C41  1  0.28497000  0.00424000  0.12004000  1.0
  C  C42  1  0.71503000  0.99576000  0.87996000  1.0
  C  C43  1  0.39596000  0.83986000  0.01234000  1.0
  C  C44  1  0.60404000  0.16014000  0.98767000  1.0
  C  C45  1  0.66922000  0.75129000  0.06797000  1.0
  C  C46  1  0.33078000  0.24870000  0.93203000  1.0
  C  C47  1  0.70319000  0.63290000  0.15308000  1.0
  C  C48  1  0.29681000  0.36709000  0.84693000  1.0
  C  C49  1  0.60987000  0.53143000  0.15009000  1.0
  C  C50  1  0.39014000  0.46856000  0.84991000  1.0
  C  C51  1  0.54872000  0.40169000  0.30850000  1.0
  C  C52  1  0.45128000  0.59831000  0.69150000  1.0
  C  C53  1  0.76095000  0.20771000  0.30584000  1.0
  C  C54  1  0.23905000  0.79229000  0.69416000  1.0
  C  C55  1  0.85067000  0.75573000  0.60888000  1.0
  C  C56  1  0.14932000  0.24428000  0.39112000  1.0
  C  C57  1  0.78569000  0.70171000  0.69484000  1.0
  C  C58  1  0.21431000  0.29830000  0.30517000  1.0
  C  C59  1  0.86887000  0.55947000  0.73533000  1.0
  C  C60  1  0.13112000  0.44053000  0.26467000  1.0
  C  C61  1  0.01294000  0.46993000  0.69004000  1.0
  C  C62  1  0.98705000  0.53008000  0.30995000  1.0
  C  C63  1  0.08004000  0.52509000  0.60611000  1.0
  C  C64  1  0.91995000  0.47493000  0.39389000  1.0
  C  C65  1  0.99846000  0.66907000  0.56615000  1.0
  C  C66  1  0.00153000  0.33094000  0.43386000  1.0
  C  C67  1  0.76033000  0.90500000  0.56112000  1.0
  C  C68  1  0.23966000  0.09501000  0.43889000  1.0
  C  C69  1  0.23649000  0.42719000  0.56009000  1.0
  C  C70  1  0.76350000  0.57283000  0.43991000  1.0
  S  S71  1  0.79293000  0.48565000  0.84509000  1.0
  S  S72  1  0.20708000  0.51434000  0.15491000  1.0
  N  N73  1  0.25569000  0.94041000  0.04218000  1.0
  N  N74  1  0.74432000  0.05958000  0.95782000  1.0
  N  N75  1  0.50299000  0.84518000  0.06963000  1.0
  N  N76  1  0.49702000  0.15481000  0.93037000  1.0
  N  N77  1  0.43406000  0.94925000  0.13921000  1.0
  N  N78  1  0.56595000  0.05075000  0.86079000  1.0
  N  N79  1  0.64228000  0.41315000  0.22827000  1.0
  N  N80  1  0.35772000  0.58685000  0.77173000  1.0
  N  N81  1  0.77809000  0.29042000  0.22521000  1.0
  N  N82  1  0.22191000  0.70957000  0.77480000  1.0
  N  N83  1  0.62051000  0.27250000  0.35918000  1.0
  N  N84  1  0.37949000  0.72750000  0.64082000  1.0
  O  O85  1  0.60826000  0.94931000  0.57534000  1.0
  O  O86  1  0.39173000  0.05070000  0.42467000  1.0
  O  O87  1  0.83110000  0.98053000  0.51126000  1.0
  O  O88  1  0.16889000  0.01947000  0.48874000  1.0
  O  O89  1  0.30364000  0.47693000  0.48662000  1.0
  O  O90  1  0.69635000  0.52309000  0.51338000  1.0
  O  O91  1  0.29660000  0.29319000  0.59813000  1.0
  O  O92  1  0.70339000  0.70683000  0.40186000  1.0
  O  O93  1  0.78720000  0.34116000  0.81850000  1.0
  O  O94  1  0.21282000  0.65883000  0.18150000  1.0
  O  O95  1  0.90713000  0.46344000  0.91791000  1.0
  O  O96  1  0.09287000  0.53655000  0.08209000  1.0
  O  O97  1  0.63787000  0.59708000  0.87227000  1.0
  O  O98  1  0.36213000  0.40290000  0.12773000  1.0
  O  O99  1  0.68464000  0.26443000  0.59118000  1.0
  O  O100  1  0.31536000  0.73558000  0.40881000  1.0
  O  O101  1  0.97008000  0.23154000  0.05313000  1.0
  O  O102  1  0.02992000  0.76846000  0.94687000  1.0
  O  O103  1  0.96289000  0.91339000  0.16944000  1.0
  O  O104  1  0.03712000  0.08661000  0.83055000  1.0
