# generated using pymatgen
data_MnCuH16(C3N4)4
_symmetry_space_group_name_H-M   'P 1'
_cell_length_a   7.07915000
_cell_length_b   7.67627000
_cell_length_c   10.49370000
_cell_angle_alpha   97.47320000
_cell_angle_beta   102.61200000
_cell_angle_gamma   115.91500000
_symmetry_Int_Tables_number   1
_chemical_formula_structural   MnCuH16(C3N4)4
_chemical_formula_sum   'Mn1 Cu1 H16 C12 N16'
_cell_volume   483.72740321
_cell_formula_units_Z   1
loop_
 _symmetry_equiv_pos_site_id
 _symmetry_equiv_pos_as_xyz
  1  'x, y, z'
loop_
 _atom_site_type_symbol
 _atom_site_label
 _atom_site_symmetry_multiplicity
 _atom_site_fract_x
 _atom_site_fract_y
 _atom_site_fract_z
 _atom_site_occupancy
  Mn  Mn0  1  0.00000000  0.50000000  0.00000000  1.0
  Cu  Cu1  1  0.50000000  0.50000000  0.50000000  1.0
  H  H2  1  0.18387000  0.37780000  0.28042000  1.0
  H  H3  1  0.81613000  0.62220000  0.71958000  1.0
  H  H4  1  0.10736000  0.21413000  0.37159000  1.0
  H  H5  1  0.89265000  0.78587000  0.62841000  1.0
  H  H6  1  0.74694000  0.36014000  0.43764000  1.0
  H  H7  1  0.25306000  0.63985000  0.56236000  1.0
  H  H8  1  0.81665000  0.57488000  0.39729000  1.0
  H  H9  1  0.18335000  0.42512000  0.60271000  1.0
  H  H10  1  0.19549000  0.10104000  0.15960000  1.0
  H  H11  1  0.80451000  0.89896000  0.84040000  1.0
  H  H12  1  0.32320000  0.07247000  0.31436000  1.0
  H  H13  1  0.67680000  0.92753000  0.68564000  1.0
  H  H14  1  0.52126000  0.43532000  0.19745000  1.0
  H  H15  1  0.47874000  0.56468000  0.80255000  1.0
  H  H16  1  0.60728000  0.25177000  0.20107000  1.0
  H  H17  1  0.39272000  0.74823000  0.79893000  1.0
  C  C18  1  0.39239000  0.74348000  0.29527000  1.0
  C  C19  1  0.60761000  0.25652000  0.70473000  1.0
  C  C20  1  0.72689000  0.00936000  0.43353000  1.0
  C  C21  1  0.27311000  0.99064000  0.56647000  1.0
  C  C22  1  0.78341000  0.06554000  0.08681000  1.0
  C  C23  1  0.21659000  0.93446000  0.91319000  1.0
  C  C24  1  0.76552000  0.75858000  0.08548000  1.0
  C  C25  1  0.23448000  0.24143000  0.91452000  1.0
  C  C26  1  0.31244000  0.18365000  0.26136000  1.0
  C  C27  1  0.68756000  0.81635000  0.73865000  1.0
  C  C28  1  0.53703000  0.32925000  0.25405000  1.0
  C  C29  1  0.46297000  0.67075000  0.74595000  1.0
  N  N30  1  0.22560000  0.64238000  0.20677000  1.0
  N  N31  1  0.77439000  0.35761000  0.79323000  1.0
  N  N32  1  0.56419000  0.82898000  0.40152000  1.0
  N  N33  1  0.43580000  0.17102000  0.59848000  1.0
  N  N34  1  0.88199000  0.17162000  0.47521000  1.0
  N  N35  1  0.11800000  0.82837000  0.52479000  1.0
  N  N36  1  0.82465000  0.21930000  0.05828000  1.0
  N  N37  1  0.17535000  0.78071000  0.94172000  1.0
  N  N38  1  0.73373000  0.90569000  0.12979000  1.0
  N  N39  1  0.26628000  0.09432000  0.87021000  1.0
  N  N40  1  0.78813000  0.61762000  0.05268000  1.0
  N  N41  1  0.21187000  0.38239000  0.94731000  1.0
  N  N42  1  0.23693000  0.30087000  0.33925000  1.0
  N  N43  1  0.76307000  0.69913000  0.66075000  1.0
  N  N44  1  0.68296000  0.44334000  0.39367000  1.0
  N  N45  1  0.31704000  0.55666000  0.60633000  1.0
