# generated using pymatgen
data_H10PbC12(BrN2)2
_symmetry_space_group_name_H-M   'P 1'
_cell_length_a   4.20014000
_cell_length_b   9.20286000
_cell_length_c   10.75430000
_cell_angle_alpha   109.63500000
_cell_angle_beta   95.17470000
_cell_angle_gamma   91.30080000
_symmetry_Int_Tables_number   1
_chemical_formula_structural   H10PbC12(BrN2)2
_chemical_formula_sum   'H10 Pb1 C12 Br2 N4'
_cell_volume   389.29902845
_cell_formula_units_Z   1
loop_
 _symmetry_equiv_pos_site_id
 _symmetry_equiv_pos_as_xyz
  1  'x, y, z'
loop_
 _atom_site_type_symbol
 _atom_site_label
 _atom_site_symmetry_multiplicity
 _atom_site_fract_x
 _atom_site_fract_y
 _atom_site_fract_z
 _atom_site_occupancy
  H  H0  1  0.37052000  0.00028000  0.30800000  1.0
  H  H1  1  0.62907000  0.99981000  0.69201000  1.0
  H  H2  1  0.49327000  0.82881000  0.44466000  1.0
  H  H3  1  0.50648000  0.17130000  0.55540000  1.0
  H  H4  1  0.84321000  0.47882000  0.16116000  1.0
  H  H5  1  0.15702000  0.52113000  0.83884000  1.0
  H  H6  1  0.75032000  0.66317000  0.03572000  1.0
  H  H7  1  0.24947000  0.33679000  0.96435000  1.0
  H  H8  1  0.09236000  0.42457000  0.35513000  1.0
  H  H9  1  0.90771000  0.57550000  0.64495000  1.0
  Pb  Pb10  1  0.00018000  0.99999000  0.99989000  1.0
  C  C11  1  0.25805000  0.88387000  0.27990000  1.0
  C  C12  1  0.74160000  0.11617000  0.72012000  1.0
  C  C13  1  0.32610000  0.78944000  0.35495000  1.0
  C  C14  1  0.67367000  0.21060000  0.64509000  1.0
  C  C15  1  0.17894000  0.63965000  0.31256000  1.0
  C  C16  1  0.82112000  0.36031000  0.68742000  1.0
  C  C17  1  0.96539000  0.59340000  0.19645000  1.0
  C  C18  1  0.03473000  0.40658000  0.80356000  1.0
  C  C19  1  0.91310000  0.69526000  0.12710000  1.0
  C  C20  1  0.08676000  0.30471000  0.87292000  1.0
  C  C21  1  0.24561000  0.53115000  0.38286000  1.0
  C  C22  1  0.75457000  0.46886000  0.61714000  1.0
  Br  Br23  1  0.45389000  0.78510000  0.83519000  1.0
  Br  Br24  1  0.54677000  0.21481000  0.16476000  1.0
  N  N25  1  0.05647000  0.83773000  0.16730000  1.0
  N  N26  1  0.94321000  0.16227000  0.83268000  1.0
  N  N27  1  0.48630000  0.55882000  0.47320000  1.0
  N  N28  1  0.51412000  0.44112000  0.52668000  1.0
