# generated using pymatgen
data_ZnFe2H32C35S(NO)4
_symmetry_space_group_name_H-M   'P 1'
_cell_length_a   11.74230000
_cell_length_b   12.62450000
_cell_length_c   13.53150000
_cell_angle_alpha   72.00600000
_cell_angle_beta   89.79940000
_cell_angle_gamma   69.77490000
_symmetry_Int_Tables_number   1
_chemical_formula_structural   ZnFe2H32C35S(NO)4
_chemical_formula_sum   'Zn2 Fe4 H64 C70 S2 N8 O8'
_cell_volume   1778.14320807
_cell_formula_units_Z   2
loop_
 _symmetry_equiv_pos_site_id
 _symmetry_equiv_pos_as_xyz
  1  'x, y, z'
loop_
 _atom_site_type_symbol
 _atom_site_label
 _atom_site_symmetry_multiplicity
 _atom_site_fract_x
 _atom_site_fract_y
 _atom_site_fract_z
 _atom_site_occupancy
  Zn  Zn0  1  0.12631000  0.92667000  0.70313000  1.0
  Zn  Zn1  1  0.87369000  0.07333000  0.29687000  1.0
  Fe  Fe2  1  0.17898000  0.36360000  0.67198000  1.0
  Fe  Fe3  1  0.82101000  0.63640000  0.32802000  1.0
  Fe  Fe4  1  0.70018000  0.82365000  0.74383000  1.0
  Fe  Fe5  1  0.29983000  0.17636000  0.25617000  1.0
  H  H6  1  0.27611000  0.85585000  0.13036000  1.0
  H  H7  1  0.72390000  0.14414000  0.86963000  1.0
  H  H8  1  0.10938000  0.23315000  0.85497000  1.0
  H  H9  1  0.89062000  0.76686000  0.14503000  1.0
  H  H10  1  0.30899000  0.29136000  0.86963000  1.0
  H  H11  1  0.69101000  0.70866000  0.13037000  1.0
  H  H12  1  0.25950000  0.51675000  0.73844000  1.0
  H  H13  1  0.74049000  0.48327000  0.26155000  1.0
  H  H14  1  0.02693000  0.59989000  0.64478000  1.0
  H  H15  1  0.97307000  0.40012000  0.35522000  1.0
  H  H16  1  0.93417000  0.42401000  0.71823000  1.0
  H  H17  1  0.06582000  0.57601000  0.28178000  1.0
  H  H18  1  0.04502000  0.32230000  0.52546000  1.0
  H  H19  1  0.95497000  0.67769000  0.47455000  1.0
  H  H20  1  0.13264000  0.50059000  0.45814000  1.0
  H  H21  1  0.86735000  0.49940000  0.54185000  1.0
  H  H22  1  0.36094000  0.42316000  0.55886000  1.0
  H  H23  1  0.63905000  0.57684000  0.44113000  1.0
  H  H24  1  0.41351000  0.19522000  0.68767000  1.0
  H  H25  1  0.58648000  0.80478000  0.31234000  1.0
  H  H26  1  0.52270000  0.73040000  0.83132000  1.0
  H  H27  1  0.47730000  0.26961000  0.16869000  1.0
  H  H28  1  0.69706000  0.60342000  0.73674000  1.0
  H  H29  1  0.30295000  0.39658000  0.26327000  1.0
  H  H30  1  0.91273000  0.61586000  0.79162000  1.0
  H  H31  1  0.08728000  0.38413000  0.20839000  1.0
  H  H32  1  0.87139000  0.75280000  0.91757000  1.0
  H  H33  1  0.12862000  0.24720000  0.08244000  1.0
  H  H34  1  0.63067000  0.82359000  0.94170000  1.0
  H  H35  1  0.36934000  0.17641000  0.05830000  1.0
  H  H36  1  0.62944000  0.05241000  0.75998000  1.0
  H  H37  1  0.37057000  0.94758000  0.24003000  1.0
  H  H38  1  0.46656000  0.99656000  0.66567000  1.0
  H  H39  1  0.53345000  0.00344000  0.33434000  1.0
  H  H40  1  0.58703000  0.87119000  0.54112000  1.0
  H  H41  1  0.41297000  0.12882000  0.45889000  1.0
  H  H42  1  0.82507000  0.84607000  0.56341000  1.0
  H  H43  1  0.17493000  0.15393000  0.43659000  1.0
  H  H44  1  0.30062000  0.87991000  0.88676000  1.0
  H  H45  1  0.69940000  0.12007000  0.11324000  1.0
  H  H46  1  0.32940000  0.53597000  0.10442000  1.0
  H  H47  1  0.67059000  0.46403000  0.89557000  1.0
  H  H48  1  0.17981000  0.52806000  0.97732000  1.0
  H  H49  1  0.82018000  0.47195000  0.02267000  1.0
  H  H50  1  0.09341000  0.70348000  0.81163000  1.0
  H  H51  1  0.90659000  0.29653000  0.18836000  1.0
  H  H52  1  0.47874000  0.63709000  0.12798000  1.0
  H  H53  1  0.52126000  0.36290000  0.87202000  1.0
  H  H54  1  0.45382000  0.78452000  0.04155000  1.0
  H  H55  1  0.54619000  0.21547000  0.95844000  1.0
  H  H56  1  0.22695000  0.61541000  0.41991000  1.0
  H  H57  1  0.77305000  0.38459000  0.58009000  1.0
  H  H58  1  0.09519000  0.74982000  0.39765000  1.0
  H  H59  1  0.90481000  0.25018000  0.60234000  1.0
  H  H60  1  0.39340000  0.83861000  0.68013000  1.0
  H  H61  1  0.60660000  0.16138000  0.31986000  1.0
  H  H62  1  0.53260000  0.71526000  0.58273000  1.0
  H  H63  1  0.46740000  0.28474000  0.41727000  1.0
  H  H64  1  0.43864000  0.65664000  0.45138000  1.0
  H  H65  1  0.56135000  0.34335000  0.54863000  1.0
  H  H66  1  0.08519000  0.84113000  0.52986000  1.0
  H  H67  1  0.91480000  0.15887000  0.47013000  1.0
  H  H68  1  0.18135000  0.85224000  0.25968000  1.0
  H  H69  1  0.81867000  0.14776000  0.74032000  1.0
  C  C70  1  0.11702000  0.31903000  0.81465000  1.0
  C  C71  1  0.88297000  0.68098000  0.18535000  1.0
  C  C72  1  0.22274000  0.34963000  0.82209000  1.0
  C  C73  1  0.77726000  0.65038000  0.17791000  1.0
  C  C74  1  0.19621000  0.46938000  0.75301000  1.0
  C  C75  1  0.80378000  0.53063000  0.24699000  1.0
  C  C76  1  0.07378000  0.51267000  0.70262000  1.0
  C  C77  1  0.92622000  0.48734000  0.29738000  1.0
  C  C78  1  0.02485000  0.41953000  0.74088000  1.0
  C  C79  1  0.97514000  0.58048000  0.25912000  1.0
  C  C80  1  0.13453000  0.31913000  0.54912000  1.0
  C  C81  1  0.86546000  0.68086000  0.45088000  1.0
  C  C82  1  0.18195000  0.41254000  0.51351000  1.0
  C  C83  1  0.81804000  0.58746000  0.48649000  1.0
  C  C84  1  0.30262000  0.37104000  0.56664000  1.0
  C  C85  1  0.69737000  0.62896000  0.43336000  1.0
  C  C86  1  0.33017000  0.25123000  0.63532000  1.0
  C  C87  1  0.66982000  0.74877000  0.36468000  1.0
  C  C88  1  0.22603000  0.21829000  0.62425000  1.0
  C  C89  1  0.77395000  0.78172000  0.37575000  1.0
  C  C90  1  0.21290000  0.10278000  0.67875000  1.0
  C  C91  1  0.78709000  0.89722000  0.32125000  1.0
  C  C92  1  0.61921000  0.71709000  0.83830000  1.0
  C  C93  1  0.38079000  0.28292000  0.16171000  1.0
  C  C94  1  0.71141000  0.65038000  0.78795000  1.0
  C  C95  1  0.28859000  0.34962000  0.21205000  1.0
  C  C96  1  0.82562000  0.65669000  0.81729000  1.0
  C  C97  1  0.17438000  0.34331000  0.18272000  1.0
  C  C98  1  0.80400000  0.72788000  0.88483000  1.0
  C  C99  1  0.19601000  0.27213000  0.11517000  1.0
  C  C100  1  0.67651000  0.76525000  0.89775000  1.0
  C  C101  1  0.32349000  0.23475000  0.10225000  1.0
  C  C102  1  0.64844000  0.00310000  0.70498000  1.0
  C  C103  1  0.35157000  0.99689000  0.29502000  1.0
  C  C104  1  0.56243000  0.97457000  0.65353000  1.0
  C  C105  1  0.43758000  0.02543000  0.34647000  1.0
  C  C106  1  0.62668000  0.90669000  0.58962000  1.0
  C  C107  1  0.37332000  0.09331000  0.41039000  1.0
  C  C108  1  0.75208000  0.89299000  0.60098000  1.0
  C  C109  1  0.24792000  0.10701000  0.39902000  1.0
  C  C110  1  0.76639000  0.95278000  0.67242000  1.0
  C  C111  1  0.23362000  0.04721000  0.32759000  1.0
  C  C112  1  0.88422000  0.95256000  0.70962000  1.0
  C  C113  1  0.11578000  0.04743000  0.29038000  1.0
  C  C114  1  0.27584000  0.80057000  0.91245000  1.0
  C  C115  1  0.72418000  0.19942000  0.08755000  1.0
  C  C116  1  0.32612000  0.70917000  0.00726000  1.0
  C  C117  1  0.67388000  0.29083000  0.99274000  1.0
  C  C118  1  0.29155000  0.60917000  0.03109000  1.0
  C  C119  1  0.70844000  0.39083000  0.96890000  1.0
  C  C120  1  0.20772000  0.60506000  0.96095000  1.0
  C  C121  1  0.79228000  0.39493000  0.03904000  1.0
  C  C122  1  0.15999000  0.70125000  0.86900000  1.0
  C  C123  1  0.84001000  0.29875000  0.13099000  1.0
  C  C124  1  0.40866000  0.72353000  0.08360000  1.0
  C  C125  1  0.59135000  0.27645000  0.91640000  1.0
  C  C126  1  0.31881000  0.70075000  0.25228000  1.0
  C  C127  1  0.68119000  0.29924000  0.74772000  1.0
  C  C128  1  0.19512000  0.71294000  0.39997000  1.0
  C  C129  1  0.80488000  0.28705000  0.60002000  1.0
  C  C130  1  0.35774000  0.80898000  0.62359000  1.0
  C  C131  1  0.64226000  0.19102000  0.37641000  1.0
  C  C132  1  0.43394000  0.74195000  0.56851000  1.0
  C  C133  1  0.56606000  0.25804000  0.43150000  1.0
  C  C134  1  0.38194000  0.70937000  0.49598000  1.0
  C  C135  1  0.61805000  0.29062000  0.50402000  1.0
  C  C136  1  0.25469000  0.74437000  0.47997000  1.0
  C  C137  1  0.74531000  0.25562000  0.52003000  1.0
  C  C138  1  0.18477000  0.81083000  0.53875000  1.0
  C  C139  1  0.81523000  0.18918000  0.46125000  1.0
  S  S140  1  0.40551000  0.55428000  0.30598000  1.0
  S  S141  1  0.59450000  0.44571000  0.69402000  1.0
  N  N142  1  0.19424000  0.79690000  0.84519000  1.0
  N  N143  1  0.80578000  0.20310000  0.15480000  1.0
  N  N144  1  0.33987000  0.77156000  0.15970000  1.0
  N  N145  1  0.66014000  0.22843000  0.84030000  1.0
  N  N146  1  0.22523000  0.76036000  0.29555000  1.0
  N  N147  1  0.77477000  0.23963000  0.70445000  1.0
  N  N148  1  0.23540000  0.84198000  0.60934000  1.0
  N  N149  1  0.76460000  0.15802000  0.39066000  1.0
  O  O150  1  0.10978000  0.09483000  0.65348000  1.0
  O  O151  1  0.89021000  0.90517000  0.34652000  1.0
  O  O152  1  0.29847000  0.01781000  0.74158000  1.0
  O  O153  1  0.70150000  0.98220000  0.25842000  1.0
  O  O154  1  0.97625000  0.90435000  0.66453000  1.0
  O  O155  1  0.02376000  0.09564000  0.33548000  1.0
  O  O156  1  0.89310000  0.99772000  0.77940000  1.0
  O  O157  1  0.10690000  0.00227000  0.22060000  1.0
