# generated using pymatgen
data_ZnH6C6(N2O)2
_symmetry_space_group_name_H-M   'P 1'
_cell_length_a   12.11910000
_cell_length_b   12.11900000
_cell_length_c   12.11910000
_cell_angle_alpha   96.19960000
_cell_angle_beta   96.19950000
_cell_angle_gamma   96.19930000
_symmetry_Int_Tables_number   1
_chemical_formula_structural   ZnH6C6(N2O)2
_chemical_formula_sum   'Zn6 H36 C36 N24 O12'
_cell_volume   1746.25200823
_cell_formula_units_Z   6
loop_
 _symmetry_equiv_pos_site_id
 _symmetry_equiv_pos_as_xyz
  1  'x, y, z'
loop_
 _atom_site_type_symbol
 _atom_site_label
 _atom_site_symmetry_multiplicity
 _atom_site_fract_x
 _atom_site_fract_y
 _atom_site_fract_z
 _atom_site_occupancy
  Zn  Zn0  1  0.95302000  0.67391000  0.23913000  1.0
  Zn  Zn1  1  0.67391000  0.23913000  0.95303000  1.0
  Zn  Zn2  1  0.23913000  0.95302000  0.67391000  1.0
  Zn  Zn3  1  0.04698000  0.32609000  0.76087000  1.0
  Zn  Zn4  1  0.32609000  0.76087000  0.04698000  1.0
  Zn  Zn5  1  0.76087000  0.04698000  0.32609000  1.0
  H  H6  1  0.87702000  0.79170000  0.49056000  1.0
  H  H7  1  0.79170000  0.49056000  0.87702000  1.0
  H  H8  1  0.49056000  0.87702000  0.79170000  1.0
  H  H9  1  0.12298000  0.20830000  0.50944000  1.0
  H  H10  1  0.20830000  0.50944000  0.12298000  1.0
  H  H11  1  0.50944000  0.12298000  0.20830000  1.0
  H  H12  1  0.93217000  0.92371000  0.56601000  1.0
  H  H13  1  0.92371000  0.56601000  0.93217000  1.0
  H  H14  1  0.56602000  0.93217000  0.92371000  1.0
  H  H15  1  0.06783000  0.07629000  0.43399000  1.0
  H  H16  1  0.07629000  0.43398000  0.06783000  1.0
  H  H17  1  0.43398000  0.06783000  0.07629000  1.0
  H  H18  1  0.96764000  0.79925000  0.61819000  1.0
  H  H19  1  0.79925000  0.61819000  0.96764000  1.0
  H  H20  1  0.61819000  0.96764000  0.79925000  1.0
  H  H21  1  0.03236000  0.20075000  0.38181000  1.0
  H  H22  1  0.20075000  0.38181000  0.03236000  1.0
  H  H23  1  0.38181000  0.03236000  0.20075000  1.0
  H  H24  1  0.37417000  0.86699000  0.30768000  1.0
  H  H25  1  0.86700000  0.30768000  0.37417000  1.0
  H  H26  1  0.30768000  0.37417000  0.86700000  1.0
  H  H27  1  0.62583000  0.13301000  0.69232000  1.0
  H  H28  1  0.13300000  0.69231000  0.62583000  1.0
  H  H29  1  0.69232000  0.62583000  0.13301000  1.0
  H  H30  1  0.48887000  0.94326000  0.40302000  1.0
  H  H31  1  0.94326000  0.40302000  0.48886000  1.0
  H  H32  1  0.40302000  0.48887000  0.94326000  1.0
  H  H33  1  0.51113000  0.05674000  0.59697000  1.0
  H  H34  1  0.05674000  0.59697000  0.51113000  1.0
  H  H35  1  0.59698000  0.51113000  0.05674000  1.0
  H  H36  1  0.10304000  0.69422000  0.08396000  1.0
  H  H37  1  0.69422000  0.08395000  0.10304000  1.0
  H  H38  1  0.08396000  0.10304000  0.69422000  1.0
  H  H39  1  0.89696000  0.30578000  0.91604000  1.0
  H  H40  1  0.30578000  0.91604000  0.89696000  1.0
  H  H41  1  0.91604000  0.89696000  0.30578000  1.0
  C  C42  1  0.04911000  0.84011000  0.47707000  1.0
  C  C43  1  0.84011000  0.47707000  0.04911000  1.0
  C  C44  1  0.47707000  0.04911000  0.84011000  1.0
  C  C45  1  0.95089000  0.15989000  0.52293000  1.0
  C  C46  1  0.15989000  0.52293000  0.95089000  1.0
  C  C47  1  0.52293000  0.95089000  0.15989000  1.0
  C  C48  1  0.95103000  0.83838000  0.54138000  1.0
  C  C49  1  0.83837000  0.54138000  0.95103000  1.0
  C  C50  1  0.54138000  0.95103000  0.83837000  1.0
  C  C51  1  0.04897000  0.16163000  0.45862000  1.0
  C  C52  1  0.16163000  0.45862000  0.04897000  1.0
  C  C53  1  0.45862000  0.04897000  0.16163000  1.0
  C  C54  1  0.33823000  0.91651000  0.46337000  1.0
  C  C55  1  0.91651000  0.46338000  0.33822000  1.0
  C  C56  1  0.46337000  0.33823000  0.91651000  1.0
  C  C57  1  0.66177000  0.08350000  0.53664000  1.0
  C  C58  1  0.08349000  0.53664000  0.66177000  1.0
  C  C59  1  0.53664000  0.66177000  0.08349000  1.0
  C  C60  1  0.21952000  0.87283000  0.43514000  1.0
  C  C61  1  0.87284000  0.43514000  0.21952000  1.0
  C  C62  1  0.43514000  0.21952000  0.87284000  1.0
  C  C63  1  0.78048000  0.12717000  0.56485000  1.0
  C  C64  1  0.12716000  0.56485000  0.78048000  1.0
  C  C65  1  0.56486000  0.78048000  0.12716000  1.0
  C  C66  1  0.15172000  0.81748000  0.34037000  1.0
  C  C67  1  0.81748000  0.34037000  0.15171000  1.0
  C  C68  1  0.34037000  0.15171000  0.81748000  1.0
  C  C69  1  0.84828000  0.18253000  0.65963000  1.0
  C  C70  1  0.18252000  0.65963000  0.84829000  1.0
  C  C71  1  0.65963000  0.84829000  0.18252000  1.0
  C  C72  1  0.17216000  0.77777000  0.22595000  1.0
  C  C73  1  0.77777000  0.22595000  0.17216000  1.0
  C  C74  1  0.22595000  0.17216000  0.77777000  1.0
  C  C75  1  0.82783000  0.22223000  0.77404000  1.0
  C  C76  1  0.22223000  0.77404000  0.82783000  1.0
  C  C77  1  0.77405000  0.82783000  0.22223000  1.0
  N  N78  1  0.04486000  0.79731000  0.36846000  1.0
  N  N79  1  0.79731000  0.36846000  0.04486000  1.0
  N  N80  1  0.36846000  0.04486000  0.79731000  1.0
  N  N81  1  0.95514000  0.20269000  0.63153000  1.0
  N  N82  1  0.20269000  0.63153000  0.95514000  1.0
  N  N83  1  0.63153000  0.95514000  0.20269000  1.0
  N  N84  1  0.15335000  0.88634000  0.51960000  1.0
  N  N85  1  0.88634000  0.51959000  0.15335000  1.0
  N  N86  1  0.51959000  0.15335000  0.88634000  1.0
  N  N87  1  0.84665000  0.11367000  0.48040000  1.0
  N  N88  1  0.11366000  0.48040000  0.84665000  1.0
  N  N89  1  0.48041000  0.84665000  0.11366000  1.0
  N  N90  1  0.40755000  0.90570000  0.38611000  1.0
  N  N91  1  0.90570000  0.38611000  0.40755000  1.0
  N  N92  1  0.38611000  0.40754000  0.90570000  1.0
  N  N93  1  0.59246000  0.09430000  0.61388000  1.0
  N  N94  1  0.09430000  0.61387000  0.59247000  1.0
  N  N95  1  0.61388000  0.59246000  0.09430000  1.0
  N  N96  1  0.08543000  0.72092000  0.16235000  1.0
  N  N97  1  0.72092000  0.16235000  0.08543000  1.0
  N  N98  1  0.16235000  0.08543000  0.72092000  1.0
  N  N99  1  0.91458000  0.27909000  0.83765000  1.0
  N  N100  1  0.27909000  0.83765000  0.91458000  1.0
  N  N101  1  0.83765000  0.91458000  0.27909000  1.0
  O  O102  1  0.37050000  0.96402000  0.56268000  1.0
  O  O103  1  0.96402000  0.56268000  0.37049000  1.0
  O  O104  1  0.56268000  0.37049000  0.96403000  1.0
  O  O105  1  0.62950000  0.03598000  0.43731000  1.0
  O  O106  1  0.03597000  0.43730000  0.62951000  1.0
  O  O107  1  0.43731000  0.62950000  0.03597000  1.0
  O  O108  1  0.27132000  0.80086000  0.19729000  1.0
  O  O109  1  0.80087000  0.19729000  0.27132000  1.0
  O  O110  1  0.19729000  0.27132000  0.80086000  1.0
  O  O111  1  0.72869000  0.19914000  0.80271000  1.0
  O  O112  1  0.19914000  0.80271000  0.72869000  1.0
  O  O113  1  0.80271000  0.72869000  0.19914000  1.0
