# generated using pymatgen
data_CuH22C22(N4O)4
_symmetry_space_group_name_H-M   'P 1'
_cell_length_a   7.03622000
_cell_length_b   7.62419000
_cell_length_c   12.84984806
_cell_angle_alpha   87.24316031
_cell_angle_beta   74.28607352
_cell_angle_gamma   83.27050000
_symmetry_Int_Tables_number   1
_chemical_formula_structural   CuH22C22(N4O)4
_chemical_formula_sum   'Cu1 H22 C22 N16 O4'
_cell_volume   658.90472317
_cell_formula_units_Z   1
loop_
 _symmetry_equiv_pos_site_id
 _symmetry_equiv_pos_as_xyz
  1  'x, y, z'
loop_
 _atom_site_type_symbol
 _atom_site_label
 _atom_site_symmetry_multiplicity
 _atom_site_fract_x
 _atom_site_fract_y
 _atom_site_fract_z
 _atom_site_occupancy
  Cu  Cu0  1  0.00000000  0.50001000  0.50000000  1.0
  H  H1  1  0.55586000  0.83041000  0.04950000  1.0
  H  H2  1  0.44414000  0.16958000  0.95050000  1.0
  H  H3  1  0.41358000  0.84871000  0.95486000  1.0
  H  H4  1  0.58642000  0.15127000  0.04514000  1.0
  H  H5  1  0.05375000  0.61857000  0.26931000  1.0
  H  H6  1  0.94627000  0.38144000  0.73068000  1.0
  H  H7  1  0.68684000  0.57505000  0.12085000  1.0
  H  H8  1  0.31316000  0.42494000  0.87914000  1.0
  H  H9  1  0.73459000  0.45414000  0.29885000  1.0
  H  H10  1  0.26539000  0.54586000  0.70116000  1.0
  H  H11  1  0.43334000  0.41882000  0.45238000  1.0
  H  H12  1  0.56665000  0.58120000  0.54762000  1.0
  H  H13  1  0.10200000  0.41212000  0.09984000  1.0
  H  H14  1  0.89800000  0.58787000  0.90016000  1.0
  H  H15  1  0.94254000  0.28778000  0.05922000  1.0
  H  H16  1  0.05746000  0.71221000  0.94078000  1.0
  H  H17  1  0.34444000  0.12016000  0.33969000  1.0
  H  H18  1  0.65555000  0.87985000  0.66032000  1.0
  H  H19  1  0.40097000  0.95391000  0.23877000  1.0
  H  H20  1  0.59903000  0.04609000  0.76124000  1.0
  H  H21  1  0.15598000  0.98542000  0.32987000  1.0
  H  H22  1  0.84402000  0.01458000  0.67014000  1.0
  C  C23  1  0.18561000  0.80664000  0.56131000  1.0
  C  C24  1  0.81440000  0.19338000  0.43869000  1.0
  C  C25  1  0.23414000  0.10070000  0.56738000  1.0
  C  C26  1  0.76586000  0.89931000  0.43262000  1.0
  C  C27  1  0.20693000  0.58124000  0.27149000  1.0
  C  C28  1  0.79307000  0.41877000  0.72851000  1.0
  C  C29  1  0.36634000  0.60417000  0.18121000  1.0
  C  C30  1  0.63367000  0.39583000  0.81878000  1.0
  C  C31  1  0.55989000  0.55926000  0.18995000  1.0
  C  C32  1  0.44011000  0.44073000  0.81005000  1.0
  C  C33  1  0.58724000  0.49135000  0.28787000  1.0
  C  C34  1  0.41275000  0.50865000  0.71213000  1.0
  C  C35  1  0.42139000  0.47288000  0.37414000  1.0
  C  C36  1  0.57860000  0.52713000  0.62586000  1.0
  C  C37  1  0.32397000  0.67590000  0.07881000  1.0
  C  C38  1  0.67602000  0.32409000  0.92119000  1.0
  C  C39  1  0.86395000  0.97948000  0.14272000  1.0
  C  C40  1  0.13605000  0.02050000  0.85728000  1.0
  C  C41  1  0.08597000  0.16036000  0.16643000  1.0
  C  C42  1  0.91404000  0.83963000  0.83357000  1.0
  C  C43  1  0.28515000  0.05043000  0.28513000  1.0
  C  C44  1  0.71485000  0.94957000  0.71487000  1.0
  N  N45  1  0.10522000  0.67648000  0.56994000  1.0
  N  N46  1  0.89477000  0.32353000  0.43006000  1.0
  N  N47  1  0.29310000  0.93322000  0.55448000  1.0
  N  N48  1  0.70691000  0.06680000  0.44552000  1.0
  N  N49  1  0.19736000  0.25519000  0.57629000  1.0
  N  N50  1  0.80264000  0.74484000  0.42371000  1.0
  N  N51  1  0.23520000  0.51852000  0.36596000  1.0
  N  N52  1  0.76480000  0.48149000  0.63404000  1.0
  N  N53  1  0.44926000  0.78418000  0.01985000  1.0
  N  N54  1  0.55074000  0.21582000  0.98015000  1.0
  N  N55  1  0.73190000  0.94237000  0.11043000  1.0
  N  N56  1  0.26810000  0.05763000  0.88957000  1.0
  N  N57  1  0.00867000  0.00742000  0.18225000  1.0
  N  N58  1  0.99133000  0.99256000  0.81775000  1.0
  N  N59  1  0.03326000  0.29794000  0.10889000  1.0
  N  N60  1  0.96674000  0.70205000  0.89111000  1.0
  O  O61  1  0.17743000  0.63197000  0.05143000  1.0
  O  O62  1  0.82258000  0.36802000  0.94857000  1.0
  O  O63  1  0.23000000  0.18524000  0.21198000  1.0
  O  O64  1  0.77000000  0.81476000  0.78802000  1.0
