# generated using pymatgen
data_Cu3H22C48N6(ClO2)6
_symmetry_space_group_name_H-M   'P 1'
_cell_length_a   9.14412000
_cell_length_b   10.30390000
_cell_length_c   13.08900000
_cell_angle_alpha   91.63130000
_cell_angle_beta   96.60630000
_cell_angle_gamma   111.32700000
_symmetry_Int_Tables_number   1
_chemical_formula_structural   Cu3H22C48N6(ClO2)6
_chemical_formula_sum   'Cu3 H22 C48 N6 Cl6 O12'
_cell_volume   1137.86728797
_cell_formula_units_Z   1
loop_
 _symmetry_equiv_pos_site_id
 _symmetry_equiv_pos_as_xyz
  1  'x, y, z'
loop_
 _atom_site_type_symbol
 _atom_site_label
 _atom_site_symmetry_multiplicity
 _atom_site_fract_x
 _atom_site_fract_y
 _atom_site_fract_z
 _atom_site_occupancy
  Cu  Cu0  1  0.99999000  0.99999000  0.00000000  1.0
  Cu  Cu1  1  0.71812000  0.74092000  0.79050000  1.0
  Cu  Cu2  1  0.28191000  0.25911000  0.20949000  1.0
  H  H3  1  0.55110000  0.88267000  0.92591000  1.0
  H  H4  1  0.44889000  0.11734000  0.07409000  1.0
  H  H5  1  0.33655000  0.98029000  0.88809000  1.0
  H  H6  1  0.66343000  0.01972000  0.11191000  1.0
  H  H7  1  0.23525000  0.99041000  0.70343000  1.0
  H  H8  1  0.76473000  0.00960000  0.29657000  1.0
  H  H9  1  0.33843000  0.89134000  0.56380000  1.0
  H  H10  1  0.66157000  0.10867000  0.43620000  1.0
  H  H11  1  0.42674000  0.76927000  0.45301000  1.0
  H  H12  1  0.57325000  0.23073000  0.54698000  1.0
  H  H13  1  0.57917000  0.66984000  0.35155000  1.0
  H  H14  1  0.42083000  0.33016000  0.64844000  1.0
  H  H15  1  0.80933000  0.62042000  0.43994000  1.0
  H  H16  1  0.19068000  0.37958000  0.56005000  1.0
  H  H17  1  0.02404000  0.60798000  0.54277000  1.0
  H  H18  1  0.97597000  0.39202000  0.45723000  1.0
  H  H19  1  0.20214000  0.53875000  0.67307000  1.0
  H  H20  1  0.79788000  0.46125000  0.32693000  1.0
  H  H21  1  0.17076000  0.55490000  0.85965000  1.0
  H  H22  1  0.82927000  0.44510000  0.14035000  1.0
  H  H23  1  0.97121000  0.64998000  0.91123000  1.0
  H  H24  1  0.02881000  0.35002000  0.08877000  1.0
  C  C25  1  0.84964000  0.14280000  0.88725000  1.0
  C  C26  1  0.15035000  0.85720000  0.11275000  1.0
  C  C27  1  0.91340000  0.07331000  0.81037000  1.0
  C  C28  1  0.08660000  0.92671000  0.18963000  1.0
  C  C29  1  0.90407000  0.10360000  0.70755000  1.0
  C  C30  1  0.09594000  0.89641000  0.29245000  1.0
  C  C31  1  0.83021000  0.19681000  0.67081000  1.0
  C  C32  1  0.16978000  0.80319000  0.32918000  1.0
  C  C33  1  0.75729000  0.26391000  0.74948000  1.0
  C  C34  1  0.24270000  0.73608000  0.25052000  1.0
  C  C35  1  0.77541000  0.23279000  0.85509000  1.0
  C  C36  1  0.22459000  0.76721000  0.14491000  1.0
  C  C37  1  0.49888000  0.48093000  0.10847000  1.0
  C  C38  1  0.50111000  0.51905000  0.89156000  1.0
  C  C39  1  0.62609000  0.62272000  0.97269000  1.0
  C  C40  1  0.37391000  0.37726000  0.02733000  1.0
  C  C41  1  0.61844000  0.59855000  0.07603000  1.0
  C  C42  1  0.38156000  0.40143000  0.92399000  1.0
  C  C43  1  0.50130000  0.88820000  0.84711000  1.0
  C  C44  1  0.49869000  0.11181000  0.15290000  1.0
  C  C45  1  0.38376000  0.94352000  0.82544000  1.0
  C  C46  1  0.61623000  0.05650000  0.17456000  1.0
  C  C47  1  0.32698000  0.94770000  0.72266000  1.0
  C  C48  1  0.67301000  0.05231000  0.27733000  1.0
  C  C49  1  0.38584000  0.89409000  0.64454000  1.0
  C  C50  1  0.61416000  0.10592000  0.35546000  1.0
  C  C51  1  0.50249000  0.83919000  0.67169000  1.0
  C  C52  1  0.49751000  0.16082000  0.32831000  1.0
  C  C53  1  0.57461000  0.77812000  0.59769000  1.0
  C  C54  1  0.42539000  0.22189000  0.40231000  1.0
  C  C55  1  0.52959000  0.75152000  0.49114000  1.0
  C  C56  1  0.47040000  0.24848000  0.50885000  1.0
  C  C57  1  0.61453000  0.69346000  0.43449000  1.0
  C  C58  1  0.38546000  0.30654000  0.56550000  1.0
  C  C59  1  0.74097000  0.66322000  0.48372000  1.0
  C  C60  1  0.25902000  0.33678000  0.51626000  1.0
  C  C61  1  0.77688000  0.68732000  0.59090000  1.0
  C  C62  1  0.22313000  0.31267000  0.40909000  1.0
  C  C63  1  0.89619000  0.65315000  0.65868000  1.0
  C  C64  1  0.10381000  0.34684000  0.34132000  1.0
  C  C65  1  0.01074000  0.60937000  0.62436000  1.0
  C  C66  1  0.98927000  0.39062000  0.37564000  1.0
  C  C67  1  0.11087000  0.57313000  0.69684000  1.0
  C  C68  1  0.88914000  0.42686000  0.30316000  1.0
  C  C69  1  0.09566000  0.58327000  0.80107000  1.0
  C  C70  1  0.90435000  0.41673000  0.19894000  1.0
  C  C71  1  0.98337000  0.63396000  0.83054000  1.0
  C  C72  1  0.01664000  0.36604000  0.16946000  1.0
  N  N73  1  0.55965000  0.83862000  0.77239000  1.0
  N  N74  1  0.44034000  0.16138000  0.22761000  1.0
  N  N75  1  0.69344000  0.74349000  0.64302000  1.0
  N  N76  1  0.30656000  0.25651000  0.35697000  1.0
  N  N77  1  0.88653000  0.66752000  0.76107000  1.0
  N  N78  1  0.11348000  0.33248000  0.23893000  1.0
  Cl  Cl79  1  0.69770000  0.30816000  0.94332000  1.0
  Cl  Cl80  1  0.30230000  0.69184000  0.05669000  1.0
  Cl  Cl81  1  0.98963000  0.03394000  0.62067000  1.0
  Cl  Cl82  1  0.01039000  0.96610000  0.37932000  1.0
  Cl  Cl83  1  0.75086000  0.71533000  0.17034000  1.0
  Cl  Cl84  1  0.24914000  0.28465000  0.82968000  1.0
  O  O85  1  0.86757000  0.10998000  0.98157000  1.0
  O  O86  1  0.13244000  0.89003000  0.01843000  1.0
  O  O87  1  0.97521000  0.98711000  0.84800000  1.0
  O  O88  1  0.02482000  0.01292000  0.15200000  1.0
  O  O89  1  0.68877000  0.34147000  0.71667000  1.0
  O  O90  1  0.31121000  0.65852000  0.28332000  1.0
  O  O91  1  0.82015000  0.22855000  0.57967000  1.0
  O  O92  1  0.17984000  0.77145000  0.42034000  1.0
  O  O93  1  0.73125000  0.72912000  0.94042000  1.0
  O  O94  1  0.26875000  0.27087000  0.05960000  1.0
  O  O95  1  0.49098000  0.45660000  0.20134000  1.0
  O  O96  1  0.50898000  0.54335000  0.79865000  1.0
