# generated using pymatgen
data_KH13C5SO9
_symmetry_space_group_name_H-M   'P 1'
_cell_length_a   4.96627000
_cell_length_b   8.93317000
_cell_length_c   23.35360000
_cell_angle_alpha   90.00000000
_cell_angle_beta   90.00000000
_cell_angle_gamma   90.00000000
_symmetry_Int_Tables_number   1
_chemical_formula_structural   KH13C5SO9
_chemical_formula_sum   'K4 H52 C20 S4 O36'
_cell_volume   1036.07158533
_cell_formula_units_Z   4
loop_
 _symmetry_equiv_pos_site_id
 _symmetry_equiv_pos_as_xyz
  1  'x, y, z'
loop_
 _atom_site_type_symbol
 _atom_site_label
 _atom_site_symmetry_multiplicity
 _atom_site_fract_x
 _atom_site_fract_y
 _atom_site_fract_z
 _atom_site_occupancy
  K  K0  1  0.33693000  0.00000000  0.50000000  1.0
  K  K1  1  0.66305000  0.50000000  0.00000000  1.0
  K  K2  1  0.29991000  0.50001000  0.50000000  1.0
  K  K3  1  0.70010000  0.00000000  0.00000000  1.0
  H  H4  1  0.47892000  0.23896000  0.63903000  1.0
  H  H5  1  0.47893000  0.76104000  0.36097000  1.0
  H  H6  1  0.52107000  0.73896000  0.86097000  1.0
  H  H7  1  0.52108000  0.26104000  0.13903000  1.0
  H  H8  1  0.94987000  0.20191000  0.68073000  1.0
  H  H9  1  0.94988000  0.79808000  0.31927000  1.0
  H  H10  1  0.05012000  0.70192000  0.81927000  1.0
  H  H11  1  0.05013000  0.29808000  0.18073000  1.0
  H  H12  1  0.54761000  0.42243000  0.73193000  1.0
  H  H13  1  0.54763000  0.57757000  0.26807000  1.0
  H  H14  1  0.45238000  0.92243000  0.76807000  1.0
  H  H15  1  0.45239000  0.07757000  0.23193000  1.0
  H  H16  1  0.98227000  0.44620000  0.78224000  1.0
  H  H17  1  0.98228000  0.55379000  0.21776000  1.0
  H  H18  1  0.01772000  0.94621000  0.71776000  1.0
  H  H19  1  0.01772000  0.05380000  0.28224000  1.0
  H  H20  1  0.54630000  0.26587000  0.84534000  1.0
  H  H21  1  0.54632000  0.73412000  0.15466000  1.0
  H  H22  1  0.45369000  0.76587000  0.65466000  1.0
  H  H23  1  0.45369000  0.23413000  0.34534000  1.0
  H  H24  1  0.55689000  0.46302000  0.83518000  1.0
  H  H25  1  0.55690000  0.53697000  0.16482000  1.0
  H  H26  1  0.44310000  0.96302000  0.66482000  1.0
  H  H27  1  0.44311000  0.03698000  0.33518000  1.0
  H  H28  1  0.70318000  0.52525000  0.60477000  1.0
  H  H29  1  0.70319000  0.47475000  0.39523000  1.0
  H  H30  1  0.29681000  0.02526000  0.89523000  1.0
  H  H31  1  0.29683000  0.97475000  0.10477000  1.0
  H  H32  1  0.15642000  0.41870000  0.64381000  1.0
  H  H33  1  0.15642000  0.58129000  0.35619000  1.0
  H  H34  1  0.84358000  0.91871000  0.85619000  1.0
  H  H35  1  0.84359000  0.08129000  0.14382000  1.0
  H  H36  1  0.35358000  0.20997000  0.75775000  1.0
  H  H37  1  0.35360000  0.79003000  0.24225000  1.0
  H  H38  1  0.64641000  0.70997000  0.74225000  1.0
  H  H39  1  0.64642000  0.29004000  0.25775000  1.0
  H  H40  1  0.97168000  0.12789000  0.80176000  1.0
  H  H41  1  0.97171000  0.87210000  0.19824000  1.0
  H  H42  1  0.02830000  0.62790000  0.69824000  1.0
  H  H43  1  0.02832000  0.37211000  0.30176000  1.0
  H  H44  1  0.97448000  0.44732000  0.89221000  1.0
  H  H45  1  0.97449000  0.55268000  0.10779000  1.0
  H  H46  1  0.02551000  0.94732000  0.60779000  1.0
  H  H47  1  0.02551000  0.05268000  0.39221000  1.0
  H  H48  1  0.00492000  0.71265000  0.59159000  1.0
  H  H49  1  0.00492000  0.28735000  0.40841000  1.0
  H  H50  1  0.99507000  0.21265000  0.90841000  1.0
  H  H51  1  0.99509000  0.78735000  0.09159000  1.0
  H  H52  1  0.81731000  0.67389000  0.53964000  1.0
  H  H53  1  0.81732000  0.32611000  0.46036000  1.0
  H  H54  1  0.18268000  0.17389000  0.96036000  1.0
  H  H55  1  0.18269000  0.82610000  0.03964000  1.0
  C  C56  1  0.64898000  0.31284000  0.62866000  1.0
  C  C57  1  0.64898000  0.68716000  0.37133000  1.0
  C  C58  1  0.35101000  0.81284000  0.87133000  1.0
  C  C59  1  0.35102000  0.18716000  0.12867000  1.0
  C  C60  1  0.84586000  0.31117000  0.67960000  1.0
  C  C61  1  0.84587000  0.68883000  0.32040000  1.0
  C  C62  1  0.15413000  0.81117000  0.82040000  1.0
  C  C63  1  0.15414000  0.18883000  0.17960000  1.0
  C  C64  1  0.68164000  0.32406000  0.73506000  1.0
  C  C65  1  0.68165000  0.67594000  0.26494000  1.0
  C  C66  1  0.31835000  0.82406000  0.76494000  1.0
  C  C67  1  0.31836000  0.17595000  0.23507000  1.0
  C  C68  1  0.86100000  0.34418000  0.78809000  1.0
  C  C69  1  0.86102000  0.65581000  0.21191000  1.0
  C  C70  1  0.13899000  0.84419000  0.71191000  1.0
  C  C71  1  0.13899000  0.15581000  0.28809000  1.0
  C  C72  1  0.68209000  0.36230000  0.84084000  1.0
  C  C73  1  0.68209000  0.63769000  0.15916000  1.0
  C  C74  1  0.31791000  0.86231000  0.65916000  1.0
  C  C75  1  0.31791000  0.13769000  0.34084000  1.0
  S  S76  1  0.80293000  0.21543000  0.56767000  1.0
  S  S77  1  0.80293000  0.78458000  0.43233000  1.0
  S  S78  1  0.19709000  0.71541000  0.93233000  1.0
  S  S79  1  0.19709000  0.28459000  0.06767000  1.0
  O  O80  1  0.54931000  0.45400000  0.61452000  1.0
  O  O81  1  0.54931000  0.54600000  0.38547000  1.0
  O  O82  1  0.45069000  0.95400000  0.88547000  1.0
  O  O83  1  0.45070000  0.04600000  0.11453000  1.0
  O  O84  1  0.03802000  0.42992000  0.67721000  1.0
  O  O85  1  0.03803000  0.57007000  0.32279000  1.0
  O  O86  1  0.96197000  0.92993000  0.82279000  1.0
  O  O87  1  0.96199000  0.07007000  0.17721000  1.0
  O  O88  1  0.52861000  0.18890000  0.73861000  1.0
  O  O89  1  0.52862000  0.81110000  0.26139000  1.0
  O  O90  1  0.47138000  0.68890000  0.76139000  1.0
  O  O91  1  0.47138000  0.31111000  0.23861000  1.0
  O  O92  1  0.05517000  0.22653000  0.79433000  1.0
  O  O93  1  0.05519000  0.77346000  0.20567000  1.0
  O  O94  1  0.94481000  0.72654000  0.70567000  1.0
  O  O95  1  0.94482000  0.27346000  0.29433000  1.0
  O  O96  1  0.83015000  0.37022000  0.89350000  1.0
  O  O97  1  0.83017000  0.62977000  0.10650000  1.0
  O  O98  1  0.16983000  0.87022000  0.60650000  1.0
  O  O99  1  0.16984000  0.12978000  0.39350000  1.0
  O  O100  1  0.08778000  0.25895000  0.56362000  1.0
  O  O101  1  0.08778000  0.74105000  0.43638000  1.0
  O  O102  1  0.91220000  0.75895000  0.93638000  1.0
  O  O103  1  0.91221000  0.24105000  0.06362000  1.0
  O  O104  1  0.64579000  0.25881000  0.51628000  1.0
  O  O105  1  0.64579000  0.74119000  0.48372000  1.0
  O  O106  1  0.35420000  0.75881000  0.98372000  1.0
  O  O107  1  0.35420000  0.24119000  0.01628000  1.0
  O  O108  1  0.76792000  0.05408000  0.58041000  1.0
  O  O109  1  0.76791000  0.94591000  0.41959000  1.0
  O  O110  1  0.23208000  0.55409000  0.91959000  1.0
  O  O111  1  0.23209000  0.44591000  0.08041000  1.0
  O  O112  1  0.91581000  0.62617000  0.57189000  1.0
  O  O113  1  0.91581000  0.37384000  0.42811000  1.0
  O  O114  1  0.08419000  0.12616000  0.92811000  1.0
  O  O115  1  0.08420000  0.87383000  0.07189000  1.0
