# generated using pymatgen
data_VCuPH8C10(NO3)2
_symmetry_space_group_name_H-M   'P 1'
_cell_length_a   5.52454000
_cell_length_b   10.18220000
_cell_length_c   11.63300000
_cell_angle_alpha   72.96540000
_cell_angle_beta   80.01310000
_cell_angle_gamma   87.49560000
_symmetry_Int_Tables_number   1
_chemical_formula_structural   VCuPH8C10(NO3)2
_chemical_formula_sum   'V2 Cu2 P2 H16 C20 N4 O12'
_cell_volume   616.17220413
_cell_formula_units_Z   2
loop_
 _symmetry_equiv_pos_site_id
 _symmetry_equiv_pos_as_xyz
  1  'x, y, z'
loop_
 _atom_site_type_symbol
 _atom_site_label
 _atom_site_symmetry_multiplicity
 _atom_site_fract_x
 _atom_site_fract_y
 _atom_site_fract_z
 _atom_site_occupancy
  V  V0  1  0.37329000  0.70444000  0.74862000  1.0
  V  V1  1  0.62669000  0.29557000  0.25140000  1.0
  Cu  Cu2  1  0.83032000  0.61902000  0.16511000  1.0
  Cu  Cu3  1  0.16969000  0.38098000  0.83489000  1.0
  P  P4  1  0.83518000  0.61232000  0.88746000  1.0
  P  P5  1  0.16481000  0.38768000  0.11255000  1.0
  H  H6  1  0.11642000  0.05966000  0.15870000  1.0
  H  H7  1  0.88359000  0.94034000  0.84130000  1.0
  H  H8  1  0.66518000  0.93094000  0.42926000  1.0
  H  H9  1  0.33481000  0.06905000  0.57073000  1.0
  H  H10  1  0.11586000  0.91360000  0.01440000  1.0
  H  H11  1  0.88415000  0.08640000  0.98561000  1.0
  H  H12  1  0.42296000  0.72567000  0.02042000  1.0
  H  H13  1  0.57705000  0.27434000  0.97957000  1.0
  H  H14  1  0.97959000  0.83283000  0.56148000  1.0
  H  H15  1  0.02041000  0.16717000  0.43852000  1.0
  H  H16  1  0.41481000  0.00388000  0.30325000  1.0
  H  H17  1  0.58522000  0.99612000  0.69674000  1.0
  H  H18  1  0.24434000  0.64057000  0.52100000  1.0
  H  H19  1  0.75566000  0.35942000  0.47900000  1.0
  H  H20  1  0.18534000  0.55276000  0.34501000  1.0
  H  H21  1  0.81465000  0.44723000  0.65499000  1.0
  C  C22  1  0.24419000  0.97496000  0.15819000  1.0
  C  C23  1  0.75581000  0.02504000  0.84181000  1.0
  C  C24  1  0.78017000  0.84606000  0.41433000  1.0
  C  C25  1  0.21983000  0.15394000  0.58568000  1.0
  C  C26  1  0.57630000  0.83692000  0.23742000  1.0
  C  C27  1  0.42371000  0.16308000  0.76258000  1.0
  C  C28  1  0.24439000  0.89612000  0.07832000  1.0
  C  C29  1  0.75562000  0.10387000  0.92167000  1.0
  C  C30  1  0.41458000  0.79103000  0.07990000  1.0
  C  C31  1  0.58543000  0.20898000  0.92009000  1.0
  C  C32  1  0.75595000  0.79069000  0.32048000  1.0
  C  C33  1  0.24405000  0.20931000  0.67952000  1.0
  C  C34  1  0.95621000  0.79156000  0.48759000  1.0
  C  C35  1  0.04379000  0.20843000  0.51241000  1.0
  C  C36  1  0.41094000  0.94440000  0.23951000  1.0
  C  C37  1  0.58907000  0.05559000  0.76049000  1.0
  C  C38  1  0.10524000  0.68488000  0.46496000  1.0
  C  C39  1  0.89476000  0.31513000  0.53504000  1.0
  C  C40  1  0.07263000  0.63452000  0.36916000  1.0
  C  C41  1  0.92738000  0.36548000  0.63084000  1.0
  N  N42  1  0.57778000  0.76417000  0.15637000  1.0
  N  N43  1  0.42222000  0.23583000  0.84362000  1.0
  N  N44  1  0.90105000  0.68594000  0.30008000  1.0
  N  N45  1  0.09896000  0.31406000  0.69992000  1.0
  O  O46  1  0.07376000  0.70610000  0.85037000  1.0
  O  O47  1  0.92622000  0.29390000  0.14965000  1.0
  O  O48  1  0.74896000  0.57305000  0.02475000  1.0
  O  O49  1  0.25103000  0.42693000  0.97525000  1.0
  O  O50  1  0.63647000  0.71110000  0.82489000  1.0
  O  O51  1  0.36353000  0.28890000  0.17511000  1.0
  O  O52  1  0.87072000  0.49076000  0.83457000  1.0
  O  O53  1  0.12929000  0.50925000  0.16543000  1.0
  O  O54  1  0.38798000  0.56947000  0.69749000  1.0
  O  O55  1  0.61198000  0.43054000  0.30252000  1.0
  O  O56  1  0.38526000  0.84307000  0.63320000  1.0
  O  O57  1  0.61473000  0.15695000  0.36681000  1.0
