# generated using pymatgen
data_Zn2H20C28S(NO4)2
_symmetry_space_group_name_H-M   'P 1'
_cell_length_a   9.34109000
_cell_length_b   9.48850000
_cell_length_c   17.93350000
_cell_angle_alpha   82.73480000
_cell_angle_beta   89.02140000
_cell_angle_gamma   70.28090000
_symmetry_Int_Tables_number   1
_chemical_formula_structural   Zn2H20C28S(NO4)2
_chemical_formula_sum   'Zn4 H40 C56 S2 N4 O16'
_cell_volume   1483.71699803
_cell_formula_units_Z   2
loop_
 _symmetry_equiv_pos_site_id
 _symmetry_equiv_pos_as_xyz
  1  'x, y, z'
loop_
 _atom_site_type_symbol
 _atom_site_label
 _atom_site_symmetry_multiplicity
 _atom_site_fract_x
 _atom_site_fract_y
 _atom_site_fract_z
 _atom_site_occupancy
  Zn  Zn0  1  0.19590000  0.90363000  0.14152000  1.0
  Zn  Zn1  1  0.80411000  0.09636000  0.85848000  1.0
  Zn  Zn2  1  0.89755000  0.91050000  0.03418000  1.0
  Zn  Zn3  1  0.10245000  0.08950000  0.96582000  1.0
  H  H4  1  0.06675000  0.97014000  0.28793000  1.0
  H  H5  1  0.93325000  0.02987000  0.71207000  1.0
  H  H6  1  0.94178000  0.85312000  0.38825000  1.0
  H  H7  1  0.05820000  0.14688000  0.61174000  1.0
  H  H8  1  0.06682000  0.45642000  0.27188000  1.0
  H  H9  1  0.93319000  0.54357000  0.72813000  1.0
  H  H10  1  0.19020000  0.59033000  0.17754000  1.0
  H  H11  1  0.80981000  0.40966000  0.82247000  1.0
  H  H12  1  0.91570000  0.45683000  0.38121000  1.0
  H  H13  1  0.08429000  0.54318000  0.61879000  1.0
  H  H14  1  0.82884000  0.74475000  0.45902000  1.0
  H  H15  1  0.17116000  0.25525000  0.54098000  1.0
  H  H16  1  0.69822000  0.76103000  0.56716000  1.0
  H  H17  1  0.30178000  0.23898000  0.43284000  1.0
  H  H18  1  0.56027000  0.66407000  0.66699000  1.0
  H  H19  1  0.43972000  0.33594000  0.33301000  1.0
  H  H20  1  0.63568000  0.26370000  0.55897000  1.0
  H  H21  1  0.36431000  0.73630000  0.44103000  1.0
  H  H22  1  0.77581000  0.35943000  0.46010000  1.0
  H  H23  1  0.22419000  0.64056000  0.53990000  1.0
  H  H24  1  0.45298000  0.49289000  0.71935000  1.0
  H  H25  1  0.54702000  0.50711000  0.28065000  1.0
  H  H26  1  0.51858000  0.19035000  0.65631000  1.0
  H  H27  1  0.48140000  0.80967000  0.34368000  1.0
  H  H28  1  0.30696000  0.45473000  0.80068000  1.0
  H  H29  1  0.69303000  0.54528000  0.19932000  1.0
  H  H30  1  0.15388000  0.37238000  0.89862000  1.0
  H  H31  1  0.84611000  0.62761000  0.10139000  1.0
  H  H32  1  0.25792000  0.95151000  0.82802000  1.0
  H  H33  1  0.74209000  0.04848000  0.17198000  1.0
  H  H34  1  0.41800000  0.01422000  0.72562000  1.0
  H  H35  1  0.58201000  0.98578000  0.27438000  1.0
  H  H36  1  0.58777000  0.53324000  0.06568000  1.0
  H  H37  1  0.41223000  0.46676000  0.93432000  1.0
  H  H38  1  0.90743000  0.53704000  0.89050000  1.0
  H  H39  1  0.09257000  0.46296000  0.10950000  1.0
  H  H40  1  0.50544000  0.92502000  0.90077000  1.0
  H  H41  1  0.49456000  0.07498000  0.09923000  1.0
  H  H42  1  0.95320000  0.12610000  0.08541000  1.0
  H  H43  1  0.04681000  0.87390000  0.91459000  1.0
  C  C44  1  0.06453000  0.85599000  0.28737000  1.0
  C  C45  1  0.93547000  0.14401000  0.71262000  1.0
  C  C46  1  0.99466000  0.78946000  0.34271000  1.0
  C  C47  1  0.00533000  0.21054000  0.65728000  1.0
  C  C48  1  0.98943000  0.64359000  0.33867000  1.0
  C  C49  1  0.01057000  0.35641000  0.66133000  1.0
  C  C50  1  0.06446000  0.56998000  0.27838000  1.0
  C  C51  1  0.93554000  0.43002000  0.72162000  1.0
  C  C52  1  0.13331000  0.64356000  0.22536000  1.0
  C  C53  1  0.86670000  0.35644000  0.77464000  1.0
  C  C54  1  0.91006000  0.56955000  0.39175000  1.0
  C  C55  1  0.08993000  0.43046000  0.60825000  1.0
  C  C56  1  0.83109000  0.63191000  0.45035000  1.0
  C  C57  1  0.16891000  0.36809000  0.54965000  1.0
  C  C58  1  0.74810000  0.56832000  0.50587000  1.0
  C  C59  1  0.25191000  0.43168000  0.49413000  1.0
  C  C60  1  0.68327000  0.65239000  0.56480000  1.0
  C  C61  1  0.31673000  0.34761000  0.43519000  1.0
  C  C62  1  0.60419000  0.59829000  0.62087000  1.0
  C  C63  1  0.39581000  0.40171000  0.37913000  1.0
  C  C64  1  0.58553000  0.45713000  0.62064000  1.0
  C  C65  1  0.41446000  0.54288000  0.37936000  1.0
  C  C66  1  0.65007000  0.37245000  0.56140000  1.0
  C  C67  1  0.34993000  0.62756000  0.43860000  1.0
  C  C68  1  0.72902000  0.42662000  0.50546000  1.0
  C  C69  1  0.27097000  0.57339000  0.49454000  1.0
  C  C70  1  0.49928000  0.40943000  0.68052000  1.0
  C  C71  1  0.50071000  0.59058000  0.31948000  1.0
  C  C72  1  0.47041000  0.27794000  0.69271000  1.0
  C  C73  1  0.52958000  0.72207000  0.30729000  1.0
  C  C74  1  0.37705000  0.24128000  0.75263000  1.0
  C  C75  1  0.62294000  0.75872000  0.24737000  1.0
  C  C76  1  0.30089000  0.34159000  0.80339000  1.0
  C  C77  1  0.69910000  0.65841000  0.19661000  1.0
  C  C78  1  0.21449000  0.29710000  0.85883000  1.0
  C  C79  1  0.78551000  0.70289000  0.14117000  1.0
  C  C80  1  0.27081000  0.06251000  0.81901000  1.0
  C  C81  1  0.72919000  0.93748000  0.18098000  1.0
  C  C82  1  0.35847000  0.09885000  0.76158000  1.0
  C  C83  1  0.64153000  0.90115000  0.23842000  1.0
  C  C84  1  0.53209000  0.73830000  0.98731000  1.0
  C  C85  1  0.46791000  0.26170000  0.01269000  1.0
  C  C86  1  0.62169000  0.59088000  0.01577000  1.0
  C  C87  1  0.37831000  0.40912000  0.98423000  1.0
  C  C88  1  0.75676000  0.51800000  0.98085000  1.0
  C  C89  1  0.24324000  0.48199000  0.01914000  1.0
  C  C90  1  0.80041000  0.59199000  0.91648000  1.0
  C  C91  1  0.19959000  0.40801000  0.08352000  1.0
  C  C92  1  0.70731000  0.73566000  0.88628000  1.0
  C  C93  1  0.29269000  0.26434000  0.11372000  1.0
  C  C94  1  0.57494000  0.81026000  0.92211000  1.0
  C  C95  1  0.42506000  0.18974000  0.07788000  1.0
  C  C96  1  0.39295000  0.82452000  0.02592000  1.0
  C  C97  1  0.60705000  0.17548000  0.97409000  1.0
  C  C98  1  0.85654000  0.36057000  0.01090000  1.0
  C  C99  1  0.14347000  0.63944000  0.98910000  1.0
  S  S100  1  0.75167000  0.82005000  0.79806000  1.0
  S  S101  1  0.24834000  0.17994000  0.20194000  1.0
  N  N102  1  0.13138000  0.78530000  0.22857000  1.0
  N  N103  1  0.86862000  0.21470000  0.77143000  1.0
  N  N104  1  0.19953000  0.15958000  0.86754000  1.0
  N  N105  1  0.80047000  0.84041000  0.13246000  1.0
  O  O106  1  0.32242000  0.95976000  0.99745000  1.0
  O  O107  1  0.67758000  0.04024000  0.00255000  1.0
  O  O108  1  0.35548000  0.76020000  0.08678000  1.0
  O  O109  1  0.64453000  0.23980000  0.91322000  1.0
  O  O110  1  0.97086000  0.30393000  0.96953000  1.0
  O  O111  1  0.02915000  0.69608000  0.03047000  1.0
  O  O112  1  0.82430000  0.29607000  0.07135000  1.0
  O  O113  1  0.17570000  0.70392000  0.92865000  1.0
  O  O114  1  0.70047000  0.98632000  0.80493000  1.0
  O  O115  1  0.29954000  0.01367000  0.19507000  1.0
  O  O116  1  0.65617000  0.79333000  0.74169000  1.0
  O  O117  1  0.34382000  0.20667000  0.25831000  1.0
  O  O118  1  0.91528000  0.75588000  0.78857000  1.0
  O  O119  1  0.08473000  0.24411000  0.21143000  1.0
  O  O120  1  0.02393000  0.02387000  0.07424000  1.0
  O  O121  1  0.97608000  0.97613000  0.92576000  1.0
