# generated using pymatgen
data_Zn4H12C38O17
_symmetry_space_group_name_H-M   'P 1'
_cell_length_a   20.95940000
_cell_length_b   20.96050000
_cell_length_c   20.96150000
_cell_angle_alpha   103.31600000
_cell_angle_beta   112.53900000
_cell_angle_gamma   112.52100000
_symmetry_Int_Tables_number   1
_chemical_formula_structural   Zn4H12C38O17
_chemical_formula_sum   'Zn8 H24 C76 O34'
_cell_volume   7047.51288487
_cell_formula_units_Z   2
loop_
 _symmetry_equiv_pos_site_id
 _symmetry_equiv_pos_as_xyz
  1  'x, y, z'
loop_
 _atom_site_type_symbol
 _atom_site_label
 _atom_site_symmetry_multiplicity
 _atom_site_fract_x
 _atom_site_fract_y
 _atom_site_fract_z
 _atom_site_occupancy
  Zn  Zn0  1  0.56985000  0.27513000  0.70685000  1.0
  Zn  Zn1  1  0.56881000  0.86284000  0.29411000  1.0
  Zn  Zn2  1  0.56883000  0.29411000  0.86284000  1.0
  Zn  Zn3  1  0.43118000  0.70590000  0.13716000  1.0
  Zn  Zn4  1  0.43119000  0.13717000  0.70590000  1.0
  Zn  Zn5  1  0.43016000  0.72488000  0.29315000  1.0
  Zn  Zn6  1  0.43015000  0.29315000  0.72484000  1.0
  Zn  Zn7  1  0.56986000  0.70685000  0.27515000  1.0
  H  H8  1  0.43872000  0.53352000  0.66906000  1.0
  H  H9  1  0.43018000  0.45147000  0.24026000  1.0
  H  H10  1  0.42958000  0.23998000  0.45145000  1.0
  H  H11  1  0.57047000  0.76005000  0.54855000  1.0
  H  H12  1  0.56964000  0.54852000  0.75964000  1.0
  H  H13  1  0.58977000  0.53404000  0.87898000  1.0
  H  H14  1  0.41020000  0.46610000  0.12101000  1.0
  H  H15  1  0.40991000  0.12084000  0.46622000  1.0
  H  H16  1  0.56094000  0.46614000  0.33073000  1.0
  H  H17  1  0.59011000  0.87919000  0.53378000  1.0
  H  H18  1  0.35278000  0.49400000  0.82057000  1.0
  H  H19  1  0.64704000  0.50572000  0.17935000  1.0
  H  H20  1  0.64655000  0.17921000  0.50522000  1.0
  H  H21  1  0.35347000  0.82078000  0.49480000  1.0
  H  H22  1  0.56010000  0.33040000  0.46573000  1.0
  H  H23  1  0.46692000  0.59531000  0.97151000  1.0
  H  H24  1  0.53304000  0.40466000  0.02848000  1.0
  H  H25  1  0.53281000  0.02839000  0.40454000  1.0
  H  H26  1  0.46719000  0.97161000  0.59547000  1.0
  H  H27  1  0.43996000  0.66962000  0.53428000  1.0
  H  H28  1  0.21107000  0.48768000  0.66767000  1.0
  H  H29  1  0.78851000  0.51163000  0.33211000  1.0
  H  H30  1  0.78754000  0.33183000  0.51056000  1.0
  H  H31  1  0.21250000  0.66814000  0.48946000  1.0
  C  C32  1  0.50000000  0.14048000  0.85953000  1.0
  C  C33  1  0.47795000  0.46366000  0.22719000  1.0
  C  C34  1  0.49779000  0.60977000  0.11018000  1.0
  C  C35  1  0.49778000  0.11017000  0.60977000  1.0
  C  C36  1  0.50223000  0.88984000  0.39024000  1.0
  C  C37  1  0.50220000  0.39022000  0.88982000  1.0
  C  C38  1  0.28038000  0.13999000  0.64014000  1.0
  C  C39  1  0.71962000  0.86001000  0.35987000  1.0
  C  C40  1  0.71963000  0.35986000  0.86001000  1.0
  C  C41  1  0.28038000  0.64015000  0.13999000  1.0
  C  C42  1  0.47736000  0.22693000  0.46352000  1.0
  C  C43  1  0.80689000  0.40366000  0.90381000  1.0
  C  C44  1  0.19313000  0.59636000  0.09619000  1.0
  C  C45  1  0.19313000  0.09620000  0.59635000  1.0
  C  C46  1  0.80689000  0.90381000  0.40367000  1.0
  C  C47  1  0.52269000  0.77309000  0.53649000  1.0
  C  C48  1  0.88128000  0.44078000  0.94087000  1.0
  C  C49  1  0.11872000  0.55923000  0.05913000  1.0
  C  C50  1  0.11872000  0.05913000  0.55922000  1.0
  C  C51  1  0.88128000  0.94087000  0.44079000  1.0
  C  C52  1  0.96259000  0.48134000  0.98137000  1.0
  C  C53  1  0.52187000  0.53625000  0.77270000  1.0
  C  C54  1  0.03742000  0.51867000  0.01863000  1.0
  C  C55  1  0.03742000  0.01864000  0.51867000  1.0
  C  C56  1  0.96259000  0.98138000  0.48135000  1.0
  C  C57  1  0.50000000  0.40313000  0.59687000  1.0
  C  C58  1  0.50000000  0.59687000  0.40312000  1.0
  C  C59  1  0.50000000  0.44045000  0.55955000  1.0
  C  C60  1  0.50000000  0.55956000  0.44044000  1.0
  C  C61  1  0.31241000  0.50499000  0.68439000  1.0
  C  C62  1  0.68724000  0.49452000  0.31542000  1.0
  C  C63  1  0.68636000  0.31513000  0.49377000  1.0
  C  C64  1  0.31370000  0.68487000  0.50627000  1.0
  C  C65  1  0.53312000  0.52801000  0.83967000  1.0
  C  C66  1  0.46677000  0.47200000  0.16028000  1.0
  C  C67  1  0.46637000  0.16009000  0.47195000  1.0
  C  C68  1  0.50000000  0.85953000  0.14047000  1.0
  C  C69  1  0.53366000  0.83993000  0.52806000  1.0
  C  C70  1  0.47237000  0.51234000  0.85757000  1.0
  C  C71  1  0.52752000  0.48758000  0.14238000  1.0
  C  C72  1  0.52715000  0.14223000  0.48740000  1.0
  C  C73  1  0.47287000  0.85777000  0.51261000  1.0
  C  C74  1  0.40069000  0.50639000  0.80779000  1.0
  C  C75  1  0.59912000  0.49337000  0.19212000  1.0
  C  C76  1  0.59860000  0.19194000  0.49299000  1.0
  C  C77  1  0.40142000  0.80805000  0.50703000  1.0
  C  C78  1  0.38894000  0.51376000  0.74004000  1.0
  C  C79  1  0.61079000  0.48591000  0.25981000  1.0
  C  C80  1  0.61010000  0.25957000  0.48545000  1.0
  C  C81  1  0.38994000  0.74043000  0.51457000  1.0
  C  C82  1  0.44964000  0.52852000  0.72235000  1.0
  C  C83  1  0.50000000  0.48123000  0.51877000  1.0
  C  C84  1  0.55009000  0.47122000  0.27749000  1.0
  C  C85  1  0.54937000  0.27721000  0.47088000  1.0
  C  C86  1  0.45068000  0.72280000  0.52913000  1.0
  C  C87  1  0.48031000  0.55238000  0.98300000  1.0
  C  C88  1  0.51966000  0.44759000  0.01698000  1.0
  C  C89  1  0.51954000  0.01694000  0.44752000  1.0
  C  C90  1  0.49999000  0.51877000  0.48122000  1.0
  C  C91  1  0.48046000  0.98306000  0.55248000  1.0
  C  C92  1  0.49625000  0.55008000  0.05342000  1.0
  C  C93  1  0.50372000  0.44990000  0.94658000  1.0
  C  C94  1  0.50378000  0.94660000  0.44993000  1.0
  C  C95  1  0.49623000  0.05340000  0.55007000  1.0
  C  C96  1  0.51555000  0.49644000  0.07121000  1.0
  C  C97  1  0.48440000  0.50353000  0.92876000  1.0
  C  C98  1  0.48461000  0.92885000  0.50365000  1.0
  C  C99  1  0.51540000  0.07115000  0.49636000  1.0
  C  C100  1  0.50001000  0.35932000  0.64069000  1.0
  C  C101  1  0.50000000  0.64069000  0.35931000  1.0
  C  C102  1  0.50000000  0.09678000  0.90323000  1.0
  C  C103  1  0.50000000  0.90323000  0.09676000  1.0
  C  C104  1  0.50000000  0.05949000  0.94051000  1.0
  C  C105  1  0.50000000  0.94051000  0.05948000  1.0
  C  C106  1  0.50000000  0.01875000  0.98125000  1.0
  C  C107  1  0.50000000  0.98125000  0.01875000  1.0
  O  O108  1  0.50001000  0.24990000  0.75009000  1.0
  O  O109  1  0.45184000  0.78674000  0.10172000  1.0
  O  O110  1  0.45183000  0.10171000  0.78674000  1.0
  O  O111  1  0.54816000  0.89829000  0.21326000  1.0
  O  O112  1  0.55171000  0.33859000  0.65399000  1.0
  O  O113  1  0.44830000  0.66142000  0.34602000  1.0
  O  O114  1  0.44830000  0.34602000  0.66140000  1.0
  O  O115  1  0.55170000  0.65398000  0.33859000  1.0
  O  O116  1  0.50000000  0.75010000  0.24991000  1.0
  O  O117  1  0.44705000  0.08243000  0.62993000  1.0
  O  O118  1  0.55295000  0.91758000  0.37007000  1.0
  O  O119  1  0.55297000  0.37008000  0.91758000  1.0
  O  O120  1  0.44703000  0.62991000  0.08242000  1.0
  O  O121  1  0.44915000  0.36292000  0.81898000  1.0
  O  O122  1  0.55086000  0.63709000  0.18101000  1.0
  O  O123  1  0.55084000  0.18100000  0.63706000  1.0
  O  O124  1  0.44917000  0.81901000  0.36294000  1.0
  O  O125  1  0.31479000  0.10164000  0.65190000  1.0
  O  O126  1  0.68521000  0.89837000  0.34810000  1.0
  O  O127  1  0.68522000  0.34809000  0.89836000  1.0
  O  O128  1  0.31479000  0.65193000  0.10164000  1.0
  O  O129  1  0.31401000  0.21256000  0.66254000  1.0
  O  O130  1  0.68599000  0.78744000  0.33747000  1.0
  O  O131  1  0.68599000  0.33745000  0.78743000  1.0
  O  O132  1  0.31402000  0.66256000  0.21257000  1.0
  O  O133  1  0.54816000  0.21326000  0.89828000  1.0
  O  O134  1  0.29731000  0.50796000  0.62316000  1.0
  O  O135  1  0.25846000  0.49266000  0.70856000  1.0
  O  O136  1  0.70229000  0.49151000  0.37662000  1.0
  O  O137  1  0.74117000  0.50674000  0.29124000  1.0
  O  O138  1  0.70125000  0.37627000  0.49064000  1.0
  O  O139  1  0.74033000  0.29099000  0.50584000  1.0
  O  O140  1  0.29884000  0.62375000  0.50944000  1.0
  O  O141  1  0.25971000  0.70898000  0.49417000  1.0
