# generated using pymatgen
data_CaH10C3N2(ClO2)2
_symmetry_space_group_name_H-M   'P 1'
_cell_length_a   5.73268000
_cell_length_b   7.96562000
_cell_length_c   11.46780000
_cell_angle_alpha   71.48910000
_cell_angle_beta   80.34210000
_cell_angle_gamma   86.69510000
_symmetry_Int_Tables_number   1
_chemical_formula_structural   CaH10C3N2(ClO2)2
_chemical_formula_sum   'Ca2 H20 C6 N4 Cl4 O8'
_cell_volume   489.53331785
_cell_formula_units_Z   2
loop_
 _symmetry_equiv_pos_site_id
 _symmetry_equiv_pos_as_xyz
  1  'x, y, z'
loop_
 _atom_site_type_symbol
 _atom_site_label
 _atom_site_symmetry_multiplicity
 _atom_site_fract_x
 _atom_site_fract_y
 _atom_site_fract_z
 _atom_site_occupancy
  Ca  Ca0  1  0.50000000  0.00000000  0.50000000  1.0
  Ca  Ca1  1  0.00000000  0.50000000  0.00000000  1.0
  H  H2  1  0.35953000  0.96191000  0.91072000  1.0
  H  H3  1  0.64047000  0.03809000  0.08928000  1.0
  H  H4  1  0.15902000  0.13295000  0.92826000  1.0
  H  H5  1  0.84098000  0.86705000  0.07174000  1.0
  H  H6  1  0.55544000  0.45193000  0.77505000  1.0
  H  H7  1  0.44457000  0.54807000  0.22494000  1.0
  H  H8  1  0.66012000  0.38174000  0.64417000  1.0
  H  H9  1  0.33987000  0.61826000  0.35583000  1.0
  H  H10  1  0.04141000  0.19361000  0.41320000  1.0
  H  H11  1  0.95859000  0.80639000  0.58680000  1.0
  H  H12  1  0.20827000  0.15586000  0.30008000  1.0
  H  H13  1  0.79174000  0.84414000  0.69992000  1.0
  H  H14  1  0.17214000  0.34941000  0.63871000  1.0
  H  H15  1  0.82786000  0.65059000  0.36129000  1.0
  H  H16  1  0.96571000  0.19736000  0.63499000  1.0
  H  H17  1  0.03429000  0.80264000  0.36501000  1.0
  H  H18  1  0.29677000  0.66139000  0.74995000  1.0
  H  H19  1  0.70323000  0.33861000  0.25005000  1.0
  H  H20  1  0.44510000  0.67687000  0.85120000  1.0
  H  H21  1  0.55491000  0.32313000  0.14880000  1.0
  C  C22  1  0.87370000  0.32164000  0.77817000  1.0
  C  C23  1  0.12631000  0.67835000  0.22184000  1.0
  C  C24  1  0.21050000  0.09056000  0.75874000  1.0
  C  C25  1  0.78950000  0.90944000  0.24126000  1.0
  C  C26  1  0.05262000  0.24047000  0.69888000  1.0
  C  C27  1  0.94738000  0.75953000  0.30111000  1.0
  N  N28  1  0.67899000  0.38509000  0.73051000  1.0
  N  N29  1  0.32100000  0.61491000  0.26948000  1.0
  N  N30  1  0.23890000  0.05640000  0.87648000  1.0
  N  N31  1  0.76110000  0.94360000  0.12352000  1.0
  Cl  Cl32  1  0.28982000  0.67560000  0.55342000  1.0
  Cl  Cl33  1  0.71018000  0.32440000  0.44658000  1.0
  Cl  Cl34  1  0.27573000  0.21490000  0.10460000  1.0
  Cl  Cl35  1  0.72428000  0.78510000  0.89540000  1.0
  O  O36  1  0.91018000  0.33320000  0.88104000  1.0
  O  O37  1  0.08981000  0.66679000  0.11896000  1.0
  O  O38  1  0.19051000  0.13404000  0.39103000  1.0
  O  O39  1  0.80949000  0.86596000  0.60897000  1.0
  O  O40  1  0.31787000  0.00345000  0.69157000  1.0
  O  O41  1  0.68213000  0.99655000  0.30843000  1.0
  O  O42  1  0.32360000  0.60420000  0.83681000  1.0
  O  O43  1  0.67640000  0.39580000  0.16318000  1.0
