# generated using pymatgen
data_CuH8C4(NO3)2
_symmetry_space_group_name_H-M   'P 1'
_cell_length_a   7.82941000
_cell_length_b   7.87751000
_cell_length_c   7.97376000
_cell_angle_alpha   65.42300000
_cell_angle_beta   90.00120000
_cell_angle_gamma   89.99970000
_symmetry_Int_Tables_number   1
_chemical_formula_structural   CuH8C4(NO3)2
_chemical_formula_sum   'Cu2 H16 C8 N4 O12'
_cell_volume   447.23688011
_cell_formula_units_Z   2
loop_
 _symmetry_equiv_pos_site_id
 _symmetry_equiv_pos_as_xyz
  1  'x, y, z'
loop_
 _atom_site_type_symbol
 _atom_site_label
 _atom_site_symmetry_multiplicity
 _atom_site_fract_x
 _atom_site_fract_y
 _atom_site_fract_z
 _atom_site_occupancy
  Cu  Cu0  1  0.00000000  0.50000000  0.50000000  1.0
  Cu  Cu1  1  0.50000000  0.50000000  0.00000000  1.0
  H  H2  1  0.03217000  0.84040000  0.63768000  1.0
  H  H3  1  0.53216000  0.15962000  0.86232000  1.0
  H  H4  1  0.96783000  0.15960000  0.36232000  1.0
  H  H5  1  0.46784000  0.84038000  0.13767000  1.0
  H  H6  1  0.13476000  0.76387000  0.85766000  1.0
  H  H7  1  0.63478000  0.23615000  0.64233000  1.0
  H  H8  1  0.86524000  0.23613000  0.14234000  1.0
  H  H9  1  0.36522000  0.76383000  0.35768000  1.0
  H  H10  1  0.18459000  0.06718000  0.82043000  1.0
  H  H11  1  0.68460000  0.93280000  0.67956000  1.0
  H  H12  1  0.81541000  0.93283000  0.17956000  1.0
  H  H13  1  0.31540000  0.06718000  0.32046000  1.0
  H  H14  1  0.22678000  0.40423000  0.82055000  1.0
  H  H15  1  0.72678000  0.59579000  0.67944000  1.0
  H  H16  1  0.77322000  0.59578000  0.17945000  1.0
  H  H17  1  0.27322000  0.40422000  0.32056000  1.0
  C  C18  1  0.12117000  0.04629000  0.70643000  1.0
  C  C19  1  0.62117000  0.95369000  0.79358000  1.0
  C  C20  1  0.87884000  0.95371000  0.29357000  1.0
  C  C21  1  0.37883000  0.04630000  0.20643000  1.0
  C  C22  1  0.29725000  0.51196000  0.70618000  1.0
  C  C23  1  0.79723000  0.48803000  0.79382000  1.0
  C  C24  1  0.70275000  0.48804000  0.29382000  1.0
  C  C25  1  0.20277000  0.51198000  0.20618000  1.0
  N  N26  1  0.08927000  0.86957000  0.73954000  1.0
  N  N27  1  0.58927000  0.13044000  0.76045000  1.0
  N  N28  1  0.91074000  0.13044000  0.26046000  1.0
  N  N29  1  0.41074000  0.86954000  0.23956000  1.0
  O  O30  1  0.23535000  0.57248000  0.54393000  1.0
  O  O31  1  0.73533000  0.42749000  0.95607000  1.0
  O  O32  1  0.76465000  0.42752000  0.45607000  1.0
  O  O33  1  0.26466000  0.57252000  0.04393000  1.0
  O  O34  1  0.08386000  0.18323000  0.55887000  1.0
  O  O35  1  0.58383000  0.81677000  0.94112000  1.0
  O  O36  1  0.91614000  0.81678000  0.44112000  1.0
  O  O37  1  0.41616000  0.18323000  0.05889000  1.0
  O  O38  1  0.43682000  0.57383000  0.73936000  1.0
  O  O39  1  0.93681000  0.42617000  0.76066000  1.0
  O  O40  1  0.56319000  0.42617000  0.26064000  1.0
  O  O41  1  0.06318000  0.57383000  0.23934000  1.0
