# generated using pymatgen
data_Cd2CuH8C12N10Cl3
_symmetry_space_group_name_H-M   'P 1'
_cell_length_a   6.62004000
_cell_length_b   14.95700000
_cell_length_c   17.95130000
_cell_angle_alpha   90.00000000
_cell_angle_beta   90.00020000
_cell_angle_gamma   89.99990000
_symmetry_Int_Tables_number   1
_chemical_formula_structural   Cd2CuH8C12N10Cl3
_chemical_formula_sum   'Cd8 Cu4 H32 C48 N40 Cl12'
_cell_volume   1777.46481283
_cell_formula_units_Z   4
loop_
 _symmetry_equiv_pos_site_id
 _symmetry_equiv_pos_as_xyz
  1  'x, y, z'
loop_
 _atom_site_type_symbol
 _atom_site_label
 _atom_site_symmetry_multiplicity
 _atom_site_fract_x
 _atom_site_fract_y
 _atom_site_fract_z
 _atom_site_occupancy
  Cd  Cd0  1  0.75982000  0.61671000  0.29778000  1.0
  Cd  Cd1  1  0.24018000  0.11671000  0.70222000  1.0
  Cd  Cd2  1  0.24018000  0.88329000  0.79778000  1.0
  Cd  Cd3  1  0.75982000  0.38329000  0.20222000  1.0
  Cd  Cd4  1  0.24018000  0.38329000  0.70222000  1.0
  Cd  Cd5  1  0.75982000  0.88329000  0.29778000  1.0
  Cd  Cd6  1  0.75982000  0.11671000  0.20222000  1.0
  Cd  Cd7  1  0.24018000  0.61671000  0.79778000  1.0
  Cu  Cu8  1  0.32218000  0.75000000  0.19881000  1.0
  Cu  Cu9  1  0.67782000  0.25000000  0.80119000  1.0
  Cu  Cu10  1  0.67782000  0.75000000  0.69881000  1.0
  Cu  Cu11  1  0.32218000  0.25000000  0.30119000  1.0
  H  H12  1  0.91836000  0.61954000  0.12316000  1.0
  H  H13  1  0.08164000  0.11954000  0.87684000  1.0
  H  H14  1  0.08165000  0.88046000  0.62316000  1.0
  H  H15  1  0.91836000  0.38046000  0.37684000  1.0
  H  H16  1  0.08163000  0.38046000  0.87684000  1.0
  H  H17  1  0.91836000  0.88046000  0.12316000  1.0
  H  H18  1  0.91836000  0.11954000  0.37684000  1.0
  H  H19  1  0.08165000  0.61954000  0.62316000  1.0
  H  H20  1  0.67836000  0.64872000  0.01694000  1.0
  H  H21  1  0.32164000  0.14872000  0.98306000  1.0
  H  H22  1  0.32164000  0.85129000  0.51694000  1.0
  H  H23  1  0.67836000  0.35128000  0.48306000  1.0
  H  H24  1  0.32164000  0.35128000  0.98306000  1.0
  H  H25  1  0.67836000  0.85128000  0.01694000  1.0
  H  H26  1  0.67836000  0.14872000  0.48306000  1.0
  H  H27  1  0.32164000  0.64872000  0.51694000  1.0
  H  H28  1  0.81159000  0.65129000  0.88684000  1.0
  H  H29  1  0.18841000  0.15129000  0.11316000  1.0
  H  H30  1  0.18841000  0.84871000  0.38685000  1.0
  H  H31  1  0.81159000  0.34871000  0.61316000  1.0
  H  H32  1  0.18841000  0.34870000  0.11316000  1.0
  H  H33  1  0.81159000  0.84871000  0.88684000  1.0
  H  H34  1  0.81159000  0.15129000  0.61316000  1.0
  H  H35  1  0.18841000  0.65130000  0.38684000  1.0
  H  H36  1  0.39433000  0.60011000  0.96044000  1.0
  H  H37  1  0.60567000  0.10011000  0.03956000  1.0
  H  H38  1  0.60567000  0.89989000  0.46045000  1.0
  H  H39  1  0.39434000  0.39989000  0.53955000  1.0
  H  H40  1  0.60566000  0.39989000  0.03956000  1.0
  H  H41  1  0.39434000  0.89989000  0.96044000  1.0
  H  H42  1  0.39433000  0.10011000  0.53955000  1.0
  H  H43  1  0.60567000  0.60011000  0.46045000  1.0
  C  C44  1  0.32809000  0.58322000  0.10497000  1.0
  C  C45  1  0.67192000  0.08322000  0.89503000  1.0
  C  C46  1  0.67192000  0.91678000  0.60497000  1.0
  C  C47  1  0.32808000  0.41678000  0.39503000  1.0
  C  C48  1  0.67191000  0.41678000  0.89503000  1.0
  C  C49  1  0.32809000  0.91678000  0.10497000  1.0
  C  C50  1  0.32808000  0.08322000  0.39503000  1.0
  C  C51  1  0.67192000  0.58322000  0.60497000  1.0
  C  C52  1  0.17528000  0.60818000  0.04952000  1.0
  C  C53  1  0.82472000  0.10818000  0.95048000  1.0
  C  C54  1  0.82472000  0.89182000  0.54952000  1.0
  C  C55  1  0.17528000  0.39182000  0.45048000  1.0
  C  C56  1  0.82471000  0.39182000  0.95048000  1.0
  C  C57  1  0.17528000  0.89182000  0.04952000  1.0
  C  C58  1  0.17528000  0.10818000  0.45048000  1.0
  C  C59  1  0.82472000  0.60818000  0.54952000  1.0
  C  C60  1  0.97097000  0.62254000  0.06575000  1.0
  C  C61  1  0.02903000  0.12254000  0.93424000  1.0
  C  C62  1  0.02903000  0.87746000  0.56576000  1.0
  C  C63  1  0.97097000  0.37746000  0.43425000  1.0
  C  C64  1  0.02902000  0.37746000  0.93425000  1.0
  C  C65  1  0.97097000  0.87746000  0.06575000  1.0
  C  C66  1  0.97097000  0.12254000  0.43425000  1.0
  C  C67  1  0.02903000  0.62254000  0.56575000  1.0
  C  C68  1  0.83873000  0.63841000  0.00692000  1.0
  C  C69  1  0.16127000  0.13841000  0.99308000  1.0
  C  C70  1  0.16127000  0.86159000  0.50693000  1.0
  C  C71  1  0.83874000  0.36159000  0.49308000  1.0
  C  C72  1  0.16126000  0.36159000  0.99308000  1.0
  C  C73  1  0.83873000  0.86159000  0.00692000  1.0
  C  C74  1  0.83873000  0.13841000  0.49308000  1.0
  C  C75  1  0.16127000  0.63841000  0.50692000  1.0
  C  C76  1  0.91173000  0.63995000  0.93411000  1.0
  C  C77  1  0.08827000  0.13995000  0.06588000  1.0
  C  C78  1  0.08827000  0.86005000  0.43412000  1.0
  C  C79  1  0.91173000  0.36005000  0.56589000  1.0
  C  C80  1  0.08827000  0.36005000  0.06589000  1.0
  C  C81  1  0.91173000  0.86005000  0.93411000  1.0
  C  C82  1  0.91173000  0.13995000  0.56589000  1.0
  C  C83  1  0.08827000  0.63995000  0.43411000  1.0
  C  C84  1  0.23703000  0.61220000  0.97517000  1.0
  C  C85  1  0.76297000  0.11221000  0.02482000  1.0
  C  C86  1  0.76297000  0.88779000  0.47518000  1.0
  C  C87  1  0.23703000  0.38780000  0.52482000  1.0
  C  C88  1  0.76297000  0.38779000  0.02482000  1.0
  C  C89  1  0.23703000  0.88780000  0.97517000  1.0
  C  C90  1  0.23702000  0.11220000  0.52482000  1.0
  C  C91  1  0.76297000  0.61221000  0.47518000  1.0
  N  N92  1  0.39612000  0.63322000  0.16260000  1.0
  N  N93  1  0.60388000  0.13322000  0.83740000  1.0
  N  N94  1  0.60388000  0.86678000  0.66260000  1.0
  N  N95  1  0.39612000  0.36678000  0.33740000  1.0
  N  N96  1  0.60388000  0.36678000  0.83740000  1.0
  N  N97  1  0.39612000  0.86678000  0.16260000  1.0
  N  N98  1  0.39612000  0.13322000  0.33740000  1.0
  N  N99  1  0.60388000  0.63322000  0.66260000  1.0
  N  N100  1  0.54504000  0.58493000  0.19342000  1.0
  N  N101  1  0.45496000  0.08493000  0.80658000  1.0
  N  N102  1  0.45496000  0.91507000  0.69342000  1.0
  N  N103  1  0.54504000  0.41507000  0.30658000  1.0
  N  N104  1  0.45496000  0.41507000  0.80658000  1.0
  N  N105  1  0.54504000  0.91507000  0.19342000  1.0
  N  N106  1  0.54504000  0.08493000  0.30658000  1.0
  N  N107  1  0.45496000  0.58493000  0.69342000  1.0
  N  N108  1  0.43126000  0.50595000  0.10075000  1.0
  N  N109  1  0.56874000  0.00595000  0.89925000  1.0
  N  N110  1  0.56874000  0.99405000  0.60075000  1.0
  N  N111  1  0.43126000  0.49405000  0.39925000  1.0
  N  N112  1  0.56874000  0.49405000  0.89925000  1.0
  N  N113  1  0.43126000  0.99405000  0.10075000  1.0
  N  N114  1  0.43126000  0.00595000  0.39925000  1.0
  N  N115  1  0.56875000  0.50595000  0.60075000  1.0
  N  N116  1  0.56366000  0.50908000  0.15642000  1.0
  N  N117  1  0.43634000  0.00908000  0.84358000  1.0
  N  N118  1  0.43634000  0.99092000  0.65642000  1.0
  N  N119  1  0.56366000  0.49092000  0.34358000  1.0
  N  N120  1  0.43634000  0.49092000  0.84358000  1.0
  N  N121  1  0.56366000  0.99092000  0.15642000  1.0
  N  N122  1  0.56366000  0.00908000  0.34358000  1.0
  N  N123  1  0.43634000  0.50908000  0.65642000  1.0
  N  N124  1  0.10859000  0.62780000  0.91875000  1.0
  N  N125  1  0.89141000  0.12781000  0.08125000  1.0
  N  N126  1  0.89141000  0.87219000  0.41876000  1.0
  N  N127  1  0.10860000  0.37220000  0.58125000  1.0
  N  N128  1  0.89141000  0.37219000  0.08125000  1.0
  N  N129  1  0.10859000  0.87220000  0.91875000  1.0
  N  N130  1  0.10859000  0.12780000  0.58125000  1.0
  N  N131  1  0.89141000  0.62781000  0.41875000  1.0
  Cl  Cl132  1  0.97641000  0.75000000  0.23833000  1.0
  Cl  Cl133  1  0.02358000  0.25000000  0.76167000  1.0
  Cl  Cl134  1  0.02358000  0.75000000  0.73833000  1.0
  Cl  Cl135  1  0.97642000  0.25000000  0.26167000  1.0
  Cl  Cl136  1  0.49663000  0.75000000  0.32710000  1.0
  Cl  Cl137  1  0.50337000  0.25000000  0.67289000  1.0
  Cl  Cl138  1  0.50337000  0.75000000  0.82710000  1.0
  Cl  Cl139  1  0.49663000  0.25000000  0.17290000  1.0
  Cl  Cl140  1  0.02285000  0.50000000  0.25000000  1.0
  Cl  Cl141  1  0.97715000  0.00000000  0.75000000  1.0
  Cl  Cl142  1  0.97715000  0.50000000  0.75000000  1.0
  Cl  Cl143  1  0.02285000  0.00000000  0.25000000  1.0
