# generated using pymatgen
data_CdH9C13NCl2
_symmetry_space_group_name_H-M   'P 1'
_cell_length_a   7.09889000
_cell_length_b   10.05270000
_cell_length_c   10.08764399
_cell_angle_alpha   60.11357694
_cell_angle_beta   72.89371145
_cell_angle_gamma   90.00140000
_symmetry_Int_Tables_number   1
_chemical_formula_structural   CdH9C13NCl2
_chemical_formula_sum   'Cd2 H18 C26 N2 Cl4'
_cell_volume   587.13033628
_cell_formula_units_Z   2
loop_
 _symmetry_equiv_pos_site_id
 _symmetry_equiv_pos_as_xyz
  1  'x, y, z'
loop_
 _atom_site_type_symbol
 _atom_site_label
 _atom_site_symmetry_multiplicity
 _atom_site_fract_x
 _atom_site_fract_y
 _atom_site_fract_z
 _atom_site_occupancy
  Cd  Cd0  1  0.25000000  0.07207000  0.00000000  1.0
  Cd  Cd1  1  0.75000000  0.92793000  0.00000000  1.0
  H  H2  1  0.00298000  0.05468000  0.26818000  1.0
  H  H3  1  0.49702000  0.32287000  0.73183000  1.0
  H  H4  1  0.99702000  0.94531000  0.73182000  1.0
  H  H5  1  0.50299000  0.67713000  0.26818000  1.0
  H  H6  1  0.79387000  0.05473000  0.51115000  1.0
  H  H7  1  0.70613000  0.56590000  0.48885000  1.0
  H  H8  1  0.20613000  0.94527000  0.48885000  1.0
  H  H9  1  0.29387000  0.43411000  0.51115000  1.0
  H  H10  1  0.00931000  0.54512000  0.28124000  1.0
  H  H11  1  0.49071000  0.82639000  0.71873000  1.0
  H  H12  1  0.99068000  0.45487000  0.71877000  1.0
  H  H13  1  0.50928000  0.17361000  0.28127000  1.0
  H  H14  1  0.79726000  0.29406000  0.52288000  1.0
  H  H15  1  0.70275000  0.81697000  0.47710000  1.0
  H  H16  1  0.20274000  0.70593000  0.47712000  1.0
  H  H17  1  0.29724000  0.18304000  0.52290000  1.0
  H  H18  1  0.25001000  0.68879000  0.99999000  1.0
  H  H19  1  0.74998000  0.31121000  0.00001000  1.0
  C  C20  1  0.13216000  0.30118000  0.13257000  1.0
  C  C21  1  0.36785000  0.43376000  0.86742000  1.0
  C  C22  1  0.86784000  0.69882000  0.86743000  1.0
  C  C23  1  0.63215000  0.56623000  0.13258000  1.0
  C  C24  1  0.00676000  0.16201000  0.27065000  1.0
  C  C25  1  0.49324000  0.43268000  0.72934000  1.0
  C  C26  1  0.99324000  0.83799000  0.72935000  1.0
  C  C27  1  0.50676000  0.56733000  0.27065000  1.0
  C  C28  1  0.13015000  0.44240000  0.13738000  1.0
  C  C29  1  0.36986000  0.57980000  0.86261000  1.0
  C  C30  1  0.86984000  0.55758000  0.86263000  1.0
  C  C31  1  0.63013000  0.42021000  0.13739000  1.0
  C  C32  1  0.88958000  0.16213000  0.40608000  1.0
  C  C33  1  0.61043000  0.56823000  0.59391000  1.0
  C  C34  1  0.11042000  0.83786000  0.59393000  1.0
  C  C35  1  0.38958000  0.43178000  0.40609000  1.0
  C  C36  1  0.00721000  0.43706000  0.28051000  1.0
  C  C37  1  0.49281000  0.71759000  0.71947000  1.0
  C  C38  1  0.99279000  0.56292000  0.71949000  1.0
  C  C39  1  0.50719000  0.28242000  0.28053000  1.0
  C  C40  1  0.89060000  0.29984000  0.41244000  1.0
  C  C41  1  0.60942000  0.71229000  0.58754000  1.0
  C  C42  1  0.10940000  0.70016000  0.58756000  1.0
  C  C43  1  0.39058000  0.28771000  0.41246000  1.0
  C  C44  1  0.25002000  0.58013000  0.99999000  1.0
  C  C45  1  0.74998000  0.41987000  0.00001000  1.0
  N  N46  1  0.25000000  0.30006000  0.99999000  1.0
  N  N47  1  0.75000000  0.69995000  0.00000000  1.0
  Cl  Cl48  1  0.51910000  0.02320000  0.80869000  1.0
  Cl  Cl49  1  0.98089000  0.83189000  0.19131000  1.0
  Cl  Cl50  1  0.48090000  0.97681000  0.19130000  1.0
  Cl  Cl51  1  0.01911000  0.16812000  0.80868000  1.0
