# generated using pymatgen
data_MnH15C19N3O4
_symmetry_space_group_name_H-M   'P 1'
_cell_length_a   11.99370000
_cell_length_b   11.99850000
_cell_length_c   16.17020000
_cell_angle_alpha   102.94900000
_cell_angle_beta   111.14300000
_cell_angle_gamma   102.20100000
_symmetry_Int_Tables_number   1
_chemical_formula_structural   MnH15C19N3O4
_chemical_formula_sum   'Mn4 H60 C76 N12 O16'
_cell_volume   2002.91316043
_cell_formula_units_Z   4
loop_
 _symmetry_equiv_pos_site_id
 _symmetry_equiv_pos_as_xyz
  1  'x, y, z'
loop_
 _atom_site_type_symbol
 _atom_site_label
 _atom_site_symmetry_multiplicity
 _atom_site_fract_x
 _atom_site_fract_y
 _atom_site_fract_z
 _atom_site_occupancy
  Mn  Mn0  1  0.61747000  0.61762000  0.45180000  1.0
  Mn  Mn1  1  0.66575000  0.16562000  0.04824000  1.0
  Mn  Mn2  1  0.38253000  0.38237000  0.54820000  1.0
  Mn  Mn3  1  0.33425000  0.83438000  0.95176000  1.0
  H  H4  1  0.04097000  0.18139000  0.46921000  1.0
  H  H5  1  0.21218000  0.57167000  0.03066000  1.0
  H  H6  1  0.95903000  0.81861000  0.53079000  1.0
  H  H7  1  0.78782000  0.42833000  0.96934000  1.0
  H  H8  1  0.90410000  0.99158000  0.46978000  1.0
  H  H9  1  0.02159000  0.43431000  0.03018000  1.0
  H  H10  1  0.09591000  0.00842000  0.53022000  1.0
  H  H11  1  0.97841000  0.56569000  0.96982000  1.0
  H  H12  1  0.55521000  0.80456000  0.22219000  1.0
  H  H13  1  0.08220000  0.33294000  0.27775000  1.0
  H  H14  1  0.44479000  0.19544000  0.77781000  1.0
  H  H15  1  0.91779000  0.66706000  0.72225000  1.0
  H  H16  1  0.77152000  0.15934000  0.25828000  1.0
  H  H17  1  0.40095000  0.51304000  0.24148000  1.0
  H  H18  1  0.22848000  0.84066000  0.74172000  1.0
  H  H19  1  0.59905000  0.48696000  0.75852000  1.0
  H  H20  1  0.53917000  0.95015000  0.68553000  1.0
  H  H21  1  0.76417000  0.85313000  0.81446000  1.0
  H  H22  1  0.46082000  0.04985000  0.31446000  1.0
  H  H23  1  0.23584000  0.14687000  0.18554000  1.0
  H  H24  1  0.96006000  0.26820000  0.31951000  1.0
  H  H25  1  0.44856000  0.64048000  0.18042000  1.0
  H  H26  1  0.03994000  0.73180000  0.68049000  1.0
  H  H27  1  0.55144000  0.35952000  0.81958000  1.0
  H  H28  1  0.07513000  0.35185000  0.43453000  1.0
  H  H29  1  0.41735000  0.64047000  0.06534000  1.0
  H  H30  1  0.92487000  0.64815000  0.56547000  1.0
  H  H31  1  0.58266000  0.35953000  0.93466000  1.0
  H  H32  1  0.79015000  0.59397000  0.34199000  1.0
  H  H33  1  0.75200000  0.44790000  0.15825000  1.0
  H  H34  1  0.20985000  0.40603000  0.65801000  1.0
  H  H35  1  0.24800000  0.55210000  0.84175000  1.0
  H  H36  1  0.82200000  0.27620000  0.48585000  1.0
  H  H37  1  0.29031000  0.33634000  0.01386000  1.0
  H  H38  1  0.17800000  0.72380000  0.51415000  1.0
  H  H39  1  0.70969000  0.66366000  0.98614000  1.0
  H  H40  1  0.93345000  0.47583000  0.32250000  1.0
  H  H41  1  0.65346000  0.61073000  0.17775000  1.0
  H  H42  1  0.06655000  0.52417000  0.67750000  1.0
  H  H43  1  0.34655000  0.38927000  0.82225000  1.0
  H  H44  1  0.67952000  0.39863000  0.49548000  1.0
  H  H45  1  0.40309000  0.18419000  0.00429000  1.0
  H  H46  1  0.32048000  0.60137000  0.50452000  1.0
  H  H47  1  0.59691000  0.81581000  0.99570000  1.0
  H  H48  1  0.39445000  0.70963000  0.35525000  1.0
  H  H49  1  0.85445000  0.03923000  0.14485000  1.0
  H  H50  1  0.60555000  0.29037000  0.64475000  1.0
  H  H51  1  0.14555000  0.96077000  0.85515000  1.0
  H  H52  1  0.27997000  0.85105000  0.39432000  1.0
  H  H53  1  0.95686000  0.88577000  0.10578000  1.0
  H  H54  1  0.72003000  0.14895000  0.60568000  1.0
  H  H55  1  0.04314000  0.11423000  0.89422000  1.0
  H  H56  1  0.64274000  0.80337000  0.63391000  1.0
  H  H57  1  0.66922000  0.00847000  0.86612000  1.0
  H  H58  1  0.35725000  0.19663000  0.36609000  1.0
  H  H59  1  0.33078000  0.99153000  0.13388000  1.0
  H  H60  1  0.35413000  0.97409000  0.56353000  1.0
  H  H61  1  0.91043000  0.79045000  0.93654000  1.0
  H  H62  1  0.64587000  0.02591000  0.43646000  1.0
  H  H63  1  0.08957000  0.20955000  0.06346000  1.0
  C  C64  1  0.73020000  0.88657000  0.34871000  1.0
  C  C65  1  0.03770000  0.38144000  0.15122000  1.0
  C  C66  1  0.26980000  0.11343000  0.65129000  1.0
  C  C67  1  0.96230000  0.61856000  0.84878000  1.0
  C  C68  1  0.65690000  0.98100000  0.23124000  1.0
  C  C69  1  0.24964000  0.42557000  0.26864000  1.0
  C  C70  1  0.34310000  0.01900000  0.76876000  1.0
  C  C71  1  0.75036000  0.57443000  0.73136000  1.0
  C  C72  1  0.83750000  0.98834000  0.40160000  1.0
  C  C73  1  0.08660000  0.43585000  0.09831000  1.0
  C  C74  1  0.16250000  0.01166000  0.59840000  1.0
  C  C75  1  0.91340000  0.56415000  0.90169000  1.0
  C  C76  1  0.85634000  0.08884000  0.37055000  1.0
  C  C77  1  0.21817000  0.48568000  0.12929000  1.0
  C  C78  1  0.14366000  0.91116000  0.62945000  1.0
  C  C79  1  0.78183000  0.51432000  0.87071000  1.0
  C  C80  1  0.70642000  0.78582000  0.38710000  1.0
  C  C81  1  0.89853000  0.31933000  0.11288000  1.0
  C  C82  1  0.29358000  0.21418000  0.61290000  1.0
  C  C83  1  0.10147000  0.68067000  0.88712000  1.0
  C  C84  1  0.63966000  0.88233000  0.26290000  1.0
  C  C85  1  0.11928000  0.37668000  0.23703000  1.0
  C  C86  1  0.36034000  0.11767000  0.73710000  1.0
  C  C87  1  0.88072000  0.62332000  0.76297000  1.0
  C  C88  1  0.76311000  0.08371000  0.28474000  1.0
  C  C89  1  0.29885000  0.47822000  0.21509000  1.0
  C  C90  1  0.23689000  0.91629000  0.71526000  1.0
  C  C91  1  0.70115000  0.52178000  0.78491000  1.0
  C  C92  1  0.50446000  0.89850000  0.61161000  1.0
  C  C93  1  0.78667000  0.89258000  0.88842000  1.0
  C  C94  1  0.49554000  0.10150000  0.38839000  1.0
  C  C95  1  0.21333000  0.10742000  0.11158000  1.0
  C  C96  1  0.97636000  0.29409000  0.39392000  1.0
  C  C97  1  0.40016000  0.58238000  0.10600000  1.0
  C  C98  1  0.02364000  0.70591000  0.60608000  1.0
  C  C99  1  0.59984000  0.41762000  0.89400000  1.0
  C  C100  1  0.56084000  0.97775000  0.13949000  1.0
  C  C101  1  0.33820000  0.42140000  0.36042000  1.0
  C  C102  1  0.43916000  0.02225000  0.86051000  1.0
  C  C103  1  0.66180000  0.57860000  0.63958000  1.0
  C  C104  1  0.89022000  0.36664000  0.40385000  1.0
  C  C105  1  0.46283000  0.48636000  0.09612000  1.0
  C  C106  1  0.10978000  0.63336000  0.59615000  1.0
  C  C107  1  0.53717000  0.51364000  0.90388000  1.0
  C  C108  1  0.79964000  0.52209000  0.37231000  1.0
  C  C109  1  0.64980000  0.42718000  0.12781000  1.0
  C  C110  1  0.20036000  0.47791000  0.62769000  1.0
  C  C111  1  0.35020000  0.57282000  0.87220000  1.0
  C  C112  1  0.81723000  0.34575000  0.45278000  1.0
  C  C113  1  0.39296000  0.36454000  0.04710000  1.0
  C  C114  1  0.18277000  0.65425000  0.54722000  1.0
  C  C115  1  0.60704000  0.63546000  0.95290000  1.0
  C  C116  1  0.87980000  0.45707000  0.36253000  1.0
  C  C117  1  0.59460000  0.51714000  0.13758000  1.0
  C  C118  1  0.12020000  0.54293000  0.63747000  1.0
  C  C119  1  0.40541000  0.48286000  0.86242000  1.0
  C  C120  1  0.73810000  0.41370000  0.45829000  1.0
  C  C121  1  0.45537000  0.27988000  0.04161000  1.0
  C  C122  1  0.26190000  0.58630000  0.54171000  1.0
  C  C123  1  0.54464000  0.72012000  0.95839000  1.0
  C  C124  1  0.42293000  0.76445000  0.42761000  1.0
  C  C125  1  0.83680000  0.99524000  0.07247000  1.0
  C  C126  1  0.57707000  0.23555000  0.57239000  1.0
  C  C127  1  0.16321000  0.00476000  0.92753000  1.0
  C  C128  1  0.35995000  0.84336000  0.44984000  1.0
  C  C129  1  0.89351000  0.91007000  0.05025000  1.0
  C  C130  1  0.64005000  0.15664000  0.55016000  1.0
  C  C131  1  0.10649000  0.08993000  0.94975000  1.0
  C  C132  1  0.56205000  0.81750000  0.58364000  1.0
  C  C133  1  0.73368000  0.97814000  0.91641000  1.0
  C  C134  1  0.43795000  0.18250000  0.41636000  1.0
  C  C135  1  0.26632000  0.02186000  0.08360000  1.0
  C  C136  1  0.40139000  0.91182000  0.54358000  1.0
  C  C137  1  0.86816000  0.85770000  0.95650000  1.0
  C  C138  1  0.59861000  0.08818000  0.45642000  1.0
  C  C139  1  0.13184000  0.14230000  0.04350000  1.0
  N  N140  1  0.72910000  0.50134000  0.41929000  1.0
  N  N141  1  0.58202000  0.30977000  0.08074000  1.0
  N  N142  1  0.27089000  0.49866000  0.58071000  1.0
  N  N143  1  0.41798000  0.69023000  0.91926000  1.0
  N  N144  1  0.95983000  0.19055000  0.42489000  1.0
  N  N145  1  0.26562000  0.53483000  0.07497000  1.0
  N  N146  1  0.04017000  0.80945000  0.57511000  1.0
  N  N147  1  0.73438000  0.46517000  0.92503000  1.0
  N  N148  1  0.52224000  0.75117000  0.49324000  1.0
  N  N149  1  0.75784000  0.02886000  0.00681000  1.0
  N  N150  1  0.47775000  0.24883000  0.50676000  1.0
  N  N151  1  0.24216000  0.97114000  0.99319000  1.0
  O  O152  1  0.60486000  0.69531000  0.33799000  1.0
  O  O153  1  0.85714000  0.26688000  0.16201000  1.0
  O  O154  1  0.39514000  0.30469000  0.66201000  1.0
  O  O155  1  0.14287000  0.73312000  0.83799000  1.0
  O  O156  1  0.78327000  0.79271000  0.46828000  1.0
  O  O157  1  0.82421000  0.31507000  0.03174000  1.0
  O  O158  1  0.21673000  0.20729000  0.53172000  1.0
  O  O159  1  0.17579000  0.68493000  0.96826000  1.0
  O  O160  1  0.57918000  0.06873000  0.11207000  1.0
  O  O161  1  0.45659000  0.46741000  0.38788000  1.0
  O  O162  1  0.42082000  0.93127000  0.88793000  1.0
  O  O163  1  0.54340000  0.53259000  0.61212000  1.0
  O  O164  1  0.46368000  0.88320000  0.09399000  1.0
  O  O165  1  0.28919000  0.36965000  0.40592000  1.0
  O  O166  1  0.53632000  0.11680000  0.90601000  1.0
  O  O167  1  0.71081000  0.63035000  0.59408000  1.0
