# generated using pymatgen
data_ZnH11C19N3O5
_symmetry_space_group_name_H-M   'P 1'
_cell_length_a   15.89950000
_cell_length_b   16.13100000
_cell_length_c   17.24970000
_cell_angle_alpha   88.98870000
_cell_angle_beta   87.67510000
_cell_angle_gamma   87.98680000
_symmetry_Int_Tables_number   1
_chemical_formula_structural   ZnH11C19N3O5
_chemical_formula_sum   'Zn2 H22 C38 N6 O10'
_cell_volume   4417.16062687
_cell_formula_units_Z   2
loop_
 _symmetry_equiv_pos_site_id
 _symmetry_equiv_pos_as_xyz
  1  'x, y, z'
loop_
 _atom_site_type_symbol
 _atom_site_label
 _atom_site_symmetry_multiplicity
 _atom_site_fract_x
 _atom_site_fract_y
 _atom_site_fract_z
 _atom_site_occupancy
  Zn  Zn0  1  0.41269000  0.50810000  0.49780000  1.0
  Zn  Zn1  1  0.58763000  0.49533000  0.50186000  1.0
  H  H2  1  0.57211000  0.05325000  0.61147000  1.0
  H  H3  1  0.42782000  0.95004000  0.38871000  1.0
  H  H4  1  0.86988000  0.41160000  0.62122000  1.0
  H  H5  1  0.13006000  0.58920000  0.37768000  1.0
  H  H6  1  0.71151000  0.41830000  0.60954000  1.0
  H  H7  1  0.28836000  0.58439000  0.38974000  1.0
  H  H8  1  0.43378000  0.94673000  0.62013000  1.0
  H  H9  1  0.56618000  0.05661000  0.38010000  1.0
  H  H10  1  0.64856000  0.95437000  0.49154000  1.0
  H  H11  1  0.35142000  0.04893000  0.50868000  1.0
  H  H12  1  0.38539000  0.51913000  0.25215000  1.0
  H  H13  1  0.61249000  0.45111000  0.74632000  1.0
  H  H14  1  0.38904000  0.50543000  0.10679000  1.0
  H  H15  1  0.60669000  0.44308000  0.89240000  1.0
  H  H16  1  0.34071000  0.49954000  0.89418000  1.0
  H  H17  1  0.65627000  0.45682000  0.10737000  1.0
  H  H18  1  0.34665000  0.50725000  0.74759000  1.0
  H  H19  1  0.65239000  0.47109000  0.25319000  1.0
  H  H20  1  0.27119000  0.44043000  0.59113000  1.0
  H  H21  1  0.72976000  0.56243000  0.40835000  1.0
  H  H22  1  0.04499000  0.43820000  0.58671000  1.0
  H  H23  1  0.95597000  0.56218000  0.41222000  1.0
  C  C24  1  0.48538000  0.48954000  0.65201000  1.0
  C  C25  1  0.51481000  0.50354000  0.34746000  1.0
  C  C26  1  0.55339000  0.46151000  0.77952000  1.0
  C  C27  1  0.44424000  0.50550000  0.21958000  1.0
  C  C28  1  0.55048000  0.45708000  0.85990000  1.0
  C  C29  1  0.44592000  0.49768000  0.13967000  1.0
  C  C30  1  0.47338000  0.47257000  0.90111000  1.0
  C  C31  1  0.52303000  0.47969000  0.09937000  1.0
  C  C32  1  0.39956000  0.48879000  0.86057000  1.0
  C  C33  1  0.59752000  0.47044000  0.14027000  1.0
  C  C34  1  0.40301000  0.49311000  0.77989000  1.0
  C  C35  1  0.59530000  0.47849000  0.22052000  1.0
  C  C36  1  0.76304000  0.52986000  0.45449000  1.0
  C  C37  1  0.23765000  0.47246000  0.54484000  1.0
  C  C38  1  0.85149000  0.53006000  0.45560000  1.0
  C  C39  1  0.14927000  0.47119000  0.54343000  1.0
  C  C40  1  0.89126000  0.48621000  0.51739000  1.0
  C  C41  1  0.10923000  0.51460000  0.48156000  1.0
  C  C42  1  0.84033000  0.44530000  0.57368000  1.0
  C  C43  1  0.15987000  0.55594000  0.42534000  1.0
  C  C44  1  0.75398000  0.44848000  0.56764000  1.0
  C  C45  1  0.24618000  0.55378000  0.43159000  1.0
  C  C46  1  0.49519000  0.33965000  0.49729000  1.0
  C  C47  1  0.50487000  0.66344000  0.50227000  1.0
  C  C48  1  0.46297000  0.97212000  0.56679000  1.0
  C  C49  1  0.53700000  0.03114000  0.43340000  1.0
  C  C50  1  0.54031000  0.02932000  0.56195000  1.0
  C  C51  1  0.45964000  0.97393000  0.43824000  1.0
  C  C52  1  0.49234000  0.25027000  0.49828000  1.0
  C  C53  1  0.50773000  0.75287000  0.50153000  1.0
  C  C54  1  0.41738000  0.02728000  0.50484000  1.0
  C  C55  1  0.58257000  0.97595000  0.49536000  1.0
  C  C56  1  0.49449000  0.08693000  0.50002000  1.0
  C  C57  1  0.50545000  0.91628000  0.50015000  1.0
  C  C58  1  0.49194000  0.17470000  0.49933000  1.0
  C  C59  1  0.50805000  0.82848000  0.50068000  1.0
  C  C60  1  0.48015000  0.48076000  0.73876000  1.0
  C  C61  1  0.51861000  0.49607000  0.26083000  1.0
  N  N62  1  0.46381000  0.47575000  0.98276000  1.0
  N  N63  1  0.53239000  0.47203000  0.01799000  1.0
  N  N64  1  0.71692000  0.49029000  0.50866000  1.0
  N  N65  1  0.28345000  0.51255000  0.49081000  1.0
  N  N66  1  0.97767000  0.48116000  0.52568000  1.0
  N  N67  1  0.02284000  0.51919000  0.47323000  1.0
  O  O68  1  0.41637000  0.49896000  0.61729000  1.0
  O  O69  1  0.58425000  0.49958000  0.38197000  1.0
  O  O70  1  0.55890000  0.48757000  0.61957000  1.0
  O  O71  1  0.44180000  0.51244000  0.38023000  1.0
  O  O72  1  0.42491000  0.38007000  0.49581000  1.0
  O  O73  1  0.57514000  0.62288000  0.50310000  1.0
  O  O74  1  0.56817000  0.36993000  0.49810000  1.0
  O  O75  1  0.43185000  0.63318000  0.50195000  1.0
  O  O76  1  0.10662000  0.43014000  0.59944000  1.0
  O  O77  1  0.89436000  0.57070000  0.39947000  1.0
