# generated using pymatgen
data_Cr2Ag2H32C20N8O7
_symmetry_space_group_name_H-M   'P 1'
_cell_length_a   8.64095000
_cell_length_b   10.80688436
_cell_length_c   17.43714495
_cell_angle_alpha   71.98170028
_cell_angle_beta   89.81504831
_cell_angle_gamma   66.48793126
_symmetry_Int_Tables_number   1
_chemical_formula_structural   Cr2Ag2H32C20N8O7
_chemical_formula_sum   'Cr4 Ag4 H64 C40 N16 O14'
_cell_volume   1406.34808830
_cell_formula_units_Z   2
loop_
 _symmetry_equiv_pos_site_id
 _symmetry_equiv_pos_as_xyz
  1  'x, y, z'
loop_
 _atom_site_type_symbol
 _atom_site_label
 _atom_site_symmetry_multiplicity
 _atom_site_fract_x
 _atom_site_fract_y
 _atom_site_fract_z
 _atom_site_occupancy
  Cr  Cr0  1  0.59597000  0.11560000  0.66289000  1.0
  Cr  Cr1  1  0.71158000  0.88440000  0.83725000  1.0
  Cr  Cr2  1  0.40403000  0.88439000  0.33712000  1.0
  Cr  Cr3  1  0.28843000  0.11560000  0.16275000  1.0
  Ag  Ag4  1  0.68049000  0.87488000  0.52530000  1.0
  Ag  Ag5  1  0.55536000  0.12512000  0.97468000  1.0
  Ag  Ag6  1  0.31951000  0.12512000  0.47470000  1.0
  Ag  Ag7  1  0.44464000  0.87488000  0.02532000  1.0
  H  H8  1  0.87026000  0.78040000  0.40757000  1.0
  H  H9  1  0.65071000  0.21977000  0.09277000  1.0
  H  H10  1  0.12974000  0.21960000  0.59243000  1.0
  H  H11  1  0.34929000  0.78023000  0.90723000  1.0
  H  H12  1  0.02093000  0.81685000  0.34428000  1.0
  H  H13  1  0.83776000  0.18301000  0.15555000  1.0
  H  H14  1  0.97906000  0.18316000  0.65572000  1.0
  H  H15  1  0.16224000  0.81699000  0.84445000  1.0
  H  H16  1  0.79989000  0.89590000  0.30586000  1.0
  H  H17  1  0.69542000  0.10395000  0.19446000  1.0
  H  H18  1  0.20011000  0.10410000  0.69414000  1.0
  H  H19  1  0.30458000  0.89605000  0.80554000  1.0
  H  H20  1  0.60311000  0.58696000  0.46859000  1.0
  H  H21  1  0.18960000  0.41276000  0.03143000  1.0
  H  H22  1  0.39689000  0.41304000  0.53141000  1.0
  H  H23  1  0.81040000  0.58724000  0.96857000  1.0
  H  H24  1  0.75770000  0.42643000  0.53922000  1.0
  H  H25  1  0.18432000  0.57329000  0.96055000  1.0
  H  H26  1  0.24230000  0.57357000  0.46078000  1.0
  H  H27  1  0.81569000  0.42671000  0.03945000  1.0
  H  H28  1  0.80019000  0.58233000  0.50112000  1.0
  H  H29  1  0.38215000  0.41759000  0.99850000  1.0
  H  H30  1  0.19981000  0.41766000  0.49889000  1.0
  H  H31  1  0.61785000  0.58241000  0.00150000  1.0
  H  H32  1  0.77521000  0.40986000  0.37336000  1.0
  H  H33  1  0.18428000  0.59050000  0.12651000  1.0
  H  H34  1  0.22479000  0.59014000  0.62664000  1.0
  H  H35  1  0.81572000  0.40950000  0.87349000  1.0
  H  H36  1  0.99420000  0.32116000  0.36480000  1.0
  H  H37  1  0.31382000  0.68002000  0.13471000  1.0
  H  H38  1  0.00580000  0.67884000  0.63520000  1.0
  H  H39  1  0.68618000  0.31998000  0.86529000  1.0
  H  H40  1  0.92795000  0.31110000  0.46220000  1.0
  H  H41  1  0.23894000  0.68938000  0.03746000  1.0
  H  H42  1  0.07205000  0.68890000  0.53780000  1.0
  H  H43  1  0.76106000  0.31062000  0.96254000  1.0
  H  H44  1  0.49518000  0.60830000  0.82645000  1.0
  H  H45  1  0.10404000  0.39142000  0.67384000  1.0
  H  H46  1  0.50481000  0.39171000  0.17355000  1.0
  H  H47  1  0.89596000  0.60858000  0.32616000  1.0
  H  H48  1  0.43388000  0.48249000  0.80364000  1.0
  H  H49  1  0.91740000  0.51675000  0.69729000  1.0
  H  H50  1  0.56612000  0.51751000  0.19636000  1.0
  H  H51  1  0.08260000  0.48325000  0.30271000  1.0
  H  H52  1  0.29765000  0.66759000  0.76624000  1.0
  H  H53  1  0.96601000  0.33152000  0.73463000  1.0
  H  H54  1  0.70234000  0.33241000  0.23376000  1.0
  H  H55  1  0.03399000  0.66848000  0.26537000  1.0
  H  H56  1  0.74613000  0.15204000  0.51138000  1.0
  H  H57  1  0.89815000  0.84830000  0.98844000  1.0
  H  H58  1  0.25387000  0.84796000  0.48862000  1.0
  H  H59  1  0.10185000  0.15170000  0.01156000  1.0
  H  H60  1  0.99583000  0.10940000  0.30519000  1.0
  H  H61  1  0.10349000  0.89104000  0.19439000  1.0
  H  H62  1  0.00417000  0.89060000  0.69481000  1.0
  H  H63  1  0.89651000  0.10896000  0.80561000  1.0
  H  H64  1  0.54462000  0.79778000  0.69031000  1.0
  H  H65  1  0.34272000  0.20197000  0.80955000  1.0
  H  H66  1  0.45538000  0.20222000  0.30969000  1.0
  H  H67  1  0.65728000  0.79804000  0.19044000  1.0
  H  H68  1  0.55108000  0.41930000  0.66513000  1.0
  H  H69  1  0.97142000  0.57994000  0.83534000  1.0
  H  H70  1  0.44892000  0.58070000  0.33487000  1.0
  H  H71  1  0.02858000  0.42006000  0.16466000  1.0
  C  C72  1  0.89165000  0.86353000  0.35953000  1.0
  C  C73  1  0.75482000  0.13650000  0.14056000  1.0
  C  C74  1  0.10834000  0.13648000  0.64047000  1.0
  C  C75  1  0.24518000  0.86350000  0.85944000  1.0
  C  C76  1  0.70196000  0.54357000  0.52115000  1.0
  C  C77  1  0.24543000  0.45615000  0.97870000  1.0
  C  C78  1  0.29804000  0.45643000  0.47885000  1.0
  C  C79  1  0.75457000  0.54385000  0.02130000  1.0
  C  C80  1  0.89321000  0.31295000  0.40127000  1.0
  C  C81  1  0.20530000  0.68765000  0.09837000  1.0
  C  C82  1  0.10678000  0.68705000  0.59873000  1.0
  C  C83  1  0.79471000  0.31235000  0.90163000  1.0
  C  C84  1  0.43165000  0.58955000  0.77955000  1.0
  C  C85  1  0.02198000  0.40978000  0.72107000  1.0
  C  C86  1  0.56835000  0.41045000  0.22045000  1.0
  C  C87  1  0.97802000  0.59022000  0.27893000  1.0
  C  C88  1  0.62976000  0.58840000  0.59070000  1.0
  C  C89  1  0.21847000  0.41109000  0.90934000  1.0
  C  C90  1  0.37024000  0.41160000  0.40930000  1.0
  C  C91  1  0.78153000  0.58891000  0.09066000  1.0
  C  C92  1  0.51442000  0.60463000  0.70456000  1.0
  C  C93  1  0.11979000  0.39469000  0.79578000  1.0
  C  C94  1  0.48558000  0.39538000  0.29543000  1.0
  C  C95  1  0.88021000  0.60531000  0.20422000  1.0
  C  C96  1  0.92317000  0.09650000  0.35555000  1.0
  C  C97  1  0.01839000  0.90384000  0.14415000  1.0
  C  C98  1  0.07683000  0.90350000  0.64445000  1.0
  C  C99  1  0.98161000  0.09616000  0.85585000  1.0
  C  C100  1  0.86925000  0.98606000  0.38705000  1.0
  C  C101  1  0.85451000  0.01412000  0.11281000  1.0
  C  C102  1  0.13075000  0.01394000  0.61295000  1.0
  C  C103  1  0.14549000  0.98589000  0.88718000  1.0
  C  C104  1  0.56299000  0.51913000  0.65534000  1.0
  C  C105  1  0.08288000  0.48024000  0.84496000  1.0
  C  C106  1  0.43700000  0.48088000  0.34465000  1.0
  C  C107  1  0.91712000  0.51976000  0.15504000  1.0
  C  C108  1  0.87235000  0.18155000  0.40488000  1.0
  C  C109  1  0.05299000  0.81886000  0.09477000  1.0
  C  C110  1  0.12765000  0.81845000  0.59512000  1.0
  C  C111  1  0.94701000  0.18114000  0.90523000  1.0
  N  N112  1  0.79268000  0.12214000  0.46189000  1.0
  N  N113  1  0.91455000  0.87823000  0.03787000  1.0
  N  N114  1  0.20732000  0.87786000  0.53811000  1.0
  N  N115  1  0.08545000  0.12177000  0.96213000  1.0
  N  N116  1  0.79015000  0.00321000  0.45225000  1.0
  N  N117  1  0.79310000  0.99706000  0.04764000  1.0
  N  N118  1  0.20985000  0.99679000  0.54775000  1.0
  N  N119  1  0.20690000  0.00294000  0.95236000  1.0
  N  N120  1  0.55191000  0.71780000  0.66903000  1.0
  N  N121  1  0.27007000  0.28166000  0.83108000  1.0
  N  N122  1  0.44809000  0.28220000  0.33097000  1.0
  N  N123  1  0.72992000  0.71834000  0.16892000  1.0
  N  N124  1  0.62265000  0.70983000  0.60021000  1.0
  N  N125  1  0.33263000  0.28976000  0.89972000  1.0
  N  N126  1  0.37735000  0.29017000  0.39979000  1.0
  N  N127  1  0.66737000  0.71024000  0.10028000  1.0
  O  O128  1  0.75257000  0.00044000  0.74995000  1.0
  O  O129  1  0.24743000  0.99956000  0.25005000  1.0
  O  O130  1  0.68102000  0.20316000  0.59571000  1.0
  O  O131  1  0.88389000  0.79742000  0.90393000  1.0
  O  O132  1  0.31898000  0.79684000  0.40429000  1.0
  O  O133  1  0.11611000  0.20256000  0.09608000  1.0
  O  O134  1  0.53694000  0.01719000  0.62613000  1.0
  O  O135  1  0.55426000  0.98198000  0.87461000  1.0
  O  O136  1  0.46306000  0.98280000  0.37388000  1.0
  O  O137  1  0.44574000  0.01801000  0.12540000  1.0
  O  O138  1  0.43449000  0.22599000  0.69065000  1.0
  O  O139  1  0.66104000  0.77363000  0.80970000  1.0
  O  O140  1  0.56552000  0.77401000  0.30935000  1.0
  O  O141  1  0.33896000  0.22637000  0.19030000  1.0
