# generated using pymatgen
data_SrH10C4S2N2O5
_symmetry_space_group_name_H-M   'P 1'
_cell_length_a   8.84391000
_cell_length_b   9.93142000
_cell_length_c   12.54840000
_cell_angle_alpha   89.99990000
_cell_angle_beta   82.07300000
_cell_angle_gamma   89.99990000
_symmetry_Int_Tables_number   1
_chemical_formula_structural   SrH10C4S2N2O5
_chemical_formula_sum   'Sr4 H40 C16 S8 N8 O20'
_cell_volume   1091.62682324
_cell_formula_units_Z   4
loop_
 _symmetry_equiv_pos_site_id
 _symmetry_equiv_pos_as_xyz
  1  'x, y, z'
loop_
 _atom_site_type_symbol
 _atom_site_label
 _atom_site_symmetry_multiplicity
 _atom_site_fract_x
 _atom_site_fract_y
 _atom_site_fract_z
 _atom_site_occupancy
  Sr  Sr0  1  0.32244000  0.99116000  0.41727000  1.0
  Sr  Sr1  1  0.17755000  0.49116000  0.08273000  1.0
  Sr  Sr2  1  0.67756000  0.00884000  0.58273000  1.0
  Sr  Sr3  1  0.82244000  0.50884000  0.91727000  1.0
  H  H4  1  0.17665000  0.72384000  0.52944000  1.0
  H  H5  1  0.32335000  0.22384000  0.97056000  1.0
  H  H6  1  0.82335000  0.27616000  0.47056000  1.0
  H  H7  1  0.67665000  0.77616000  0.02944000  1.0
  H  H8  1  0.15191000  0.83427000  0.61918000  1.0
  H  H9  1  0.34809000  0.33427000  0.88082000  1.0
  H  H10  1  0.84809000  0.16573000  0.38082000  1.0
  H  H11  1  0.65191000  0.66573000  0.11918000  1.0
  H  H12  1  0.65903000  0.86982000  0.36344000  1.0
  H  H13  1  0.84097000  0.36982000  0.13656000  1.0
  H  H14  1  0.34097000  0.13019000  0.63656000  1.0
  H  H15  1  0.15903000  0.63018000  0.86344000  1.0
  H  H16  1  0.67199000  0.02419000  0.32818000  1.0
  H  H17  1  0.82801000  0.52419000  0.17182000  1.0
  H  H18  1  0.32801000  0.97581000  0.67182000  1.0
  H  H19  1  0.17199000  0.47581000  0.82818000  1.0
  H  H20  1  0.17585000  0.28142000  0.49162000  1.0
  H  H21  1  0.32415000  0.78142000  0.00838000  1.0
  H  H22  1  0.82415000  0.71858000  0.50838000  1.0
  H  H23  1  0.67585000  0.21858000  0.99162000  1.0
  H  H24  1  0.04446000  0.18361000  0.46742000  1.0
  H  H25  1  0.45554000  0.68360000  0.03258000  1.0
  H  H26  1  0.95554000  0.81640000  0.53258000  1.0
  H  H27  1  0.54446000  0.31639000  0.96742000  1.0
  H  H28  1  0.51203000  0.15642000  0.21945000  1.0
  H  H29  1  0.98796000  0.65642000  0.28055000  1.0
  H  H30  1  0.48796000  0.84358000  0.78055000  1.0
  H  H31  1  0.01204000  0.34358000  0.71945000  1.0
  H  H32  1  0.41537000  0.05345000  0.16686000  1.0
  H  H33  1  0.08462000  0.55345000  0.33314000  1.0
  H  H34  1  0.58462000  0.94654000  0.83314000  1.0
  H  H35  1  0.91538000  0.44654000  0.66686000  1.0
  H  H36  1  0.26304000  0.72588000  0.28397000  1.0
  H  H37  1  0.23696000  0.22588000  0.21603000  1.0
  H  H38  1  0.73696000  0.27412000  0.71604000  1.0
  H  H39  1  0.76304000  0.77412000  0.78397000  1.0
  H  H40  1  0.44139000  0.72797000  0.28558000  1.0
  H  H41  1  0.05862000  0.22796000  0.21442000  1.0
  H  H42  1  0.55861000  0.27203000  0.71442000  1.0
  H  H43  1  0.94139000  0.77203000  0.78558000  1.0
  C  C44  1  0.69427000  0.53199000  0.36910000  1.0
  C  C45  1  0.80573000  0.03198000  0.13091000  1.0
  C  C46  1  0.30573000  0.46802000  0.63090000  1.0
  C  C47  1  0.19427000  0.96802000  0.86909000  1.0
  C  C48  1  0.57337000  0.44444000  0.35144000  1.0
  C  C49  1  0.92663000  0.94444000  0.14856000  1.0
  C  C50  1  0.42663000  0.55557000  0.64857000  1.0
  C  C51  1  0.07338000  0.05556000  0.85143000  1.0
  C  C52  1  0.53697000  0.32813000  0.41350000  1.0
  C  C53  1  0.96302000  0.82812000  0.08650000  1.0
  C  C54  1  0.46302000  0.67188000  0.58649000  1.0
  C  C55  1  0.03698000  0.17187000  0.91350000  1.0
  C  C56  1  0.48582000  0.46424000  0.26727000  1.0
  C  C57  1  0.01417000  0.96424000  0.23273000  1.0
  C  C58  1  0.51419000  0.53576000  0.73273000  1.0
  C  C59  1  0.98581000  0.03576000  0.76727000  1.0
  S  S60  1  0.72676000  0.67263000  0.28601000  1.0
  S  S61  1  0.77324000  0.17263000  0.21399000  1.0
  S  S62  1  0.27324000  0.32737000  0.71399000  1.0
  S  S63  1  0.22676000  0.82737000  0.78601000  1.0
  S  S64  1  0.80874000  0.49820000  0.46418000  1.0
  S  S65  1  0.69127000  0.99820000  0.03582000  1.0
  S  S66  1  0.19126000  0.50180000  0.53582000  1.0
  S  S67  1  0.30874000  0.00180000  0.96418000  1.0
  N  N68  1  0.50390000  0.22785000  0.46020000  1.0
  N  N69  1  0.99610000  0.72784000  0.03980000  1.0
  N  N70  1  0.49610000  0.77215000  0.53980000  1.0
  N  N71  1  0.00391000  0.27215000  0.96020000  1.0
  N  N72  1  0.41179000  0.47550000  0.19716000  1.0
  N  N73  1  0.08821000  0.97550000  0.30284000  1.0
  N  N74  1  0.58821000  0.52450000  0.80285000  1.0
  N  N75  1  0.91179000  0.02450000  0.69715000  1.0
  O  O76  1  0.14724000  0.82050000  0.54132000  1.0
  O  O77  1  0.35276000  0.32049000  0.95868000  1.0
  O  O78  1  0.85276000  0.17951000  0.45868000  1.0
  O  O79  1  0.64724000  0.67950000  0.04132000  1.0
  O  O80  1  0.62103000  0.96153000  0.38357000  1.0
  O  O81  1  0.87896000  0.46153000  0.11643000  1.0
  O  O82  1  0.37896000  0.03848000  0.61643000  1.0
  O  O83  1  0.12104000  0.53848000  0.88357000  1.0
  O  O84  1  0.15607000  0.18800000  0.47064000  1.0
  O  O85  1  0.34393000  0.68800000  0.02936000  1.0
  O  O86  1  0.84393000  0.81200000  0.52936000  1.0
  O  O87  1  0.65607000  0.31200000  0.97064000  1.0
  O  O88  1  0.40783000  0.11664000  0.22732000  1.0
  O  O89  1  0.09216000  0.61664000  0.27268000  1.0
  O  O90  1  0.59216000  0.88336000  0.77268000  1.0
  O  O91  1  0.90784000  0.38336000  0.72732000  1.0
  O  O92  1  0.34900000  0.78295000  0.29916000  1.0
  O  O93  1  0.15100000  0.28295000  0.20084000  1.0
  O  O94  1  0.65100000  0.21705000  0.70084000  1.0
  O  O95  1  0.84900000  0.71705000  0.79916000  1.0
