# generated using pymatgen
data_K2CaH32C28(S2O13)2
_symmetry_space_group_name_H-M   'P 1'
_cell_length_a   8.08444000
_cell_length_b   9.87815000
_cell_length_c   12.70600000
_cell_angle_alpha   98.44770000
_cell_angle_beta   97.67330000
_cell_angle_gamma   105.05100000
_symmetry_Int_Tables_number   1
_chemical_formula_structural   K2CaH32C28(S2O13)2
_chemical_formula_sum   'K2 Ca1 H32 C28 S4 O26'
_cell_volume   953.47031043
_cell_formula_units_Z   1
loop_
 _symmetry_equiv_pos_site_id
 _symmetry_equiv_pos_as_xyz
  1  'x, y, z'
loop_
 _atom_site_type_symbol
 _atom_site_label
 _atom_site_symmetry_multiplicity
 _atom_site_fract_x
 _atom_site_fract_y
 _atom_site_fract_z
 _atom_site_occupancy
  K  K0  1  0.31422000  0.04055000  0.40815000  1.0
  K  K1  1  0.68578000  0.95945000  0.59184000  1.0
  Ca  Ca2  1  0.00000000  0.50000000  0.50000000  1.0
  H  H3  1  0.51809000  0.69564000  0.78725000  1.0
  H  H4  1  0.48191000  0.30436000  0.21276000  1.0
  H  H5  1  0.64362000  0.76475000  0.06561000  1.0
  H  H6  1  0.35638000  0.23525000  0.93439000  1.0
  H  H7  1  0.62621000  0.77937000  0.25973000  1.0
  H  H8  1  0.37379000  0.22063000  0.74027000  1.0
  H  H9  1  0.10024000  0.50155000  0.17666000  1.0
  H  H10  1  0.89976000  0.49845000  0.82334000  1.0
  H  H11  1  0.12118000  0.48507000  0.97988000  1.0
  H  H12  1  0.87882000  0.51493000  0.02012000  1.0
  H  H13  1  0.98252000  0.82505000  0.22660000  1.0
  H  H14  1  0.01749000  0.17495000  0.77340000  1.0
  H  H15  1  0.21873000  0.47512000  0.69660000  1.0
  H  H16  1  0.78127000  0.52488000  0.30340000  1.0
  H  H17  1  0.30114000  0.40698000  0.60273000  1.0
  H  H18  1  0.69886000  0.59302000  0.39727000  1.0
  H  H19  1  0.47416000  0.38237000  0.37112000  1.0
  H  H20  1  0.52584000  0.61763000  0.62888000  1.0
  H  H21  1  0.60405000  0.28752000  0.35826000  1.0
  H  H22  1  0.39595000  0.71248000  0.64174000  1.0
  H  H23  1  0.90452000  0.90149000  0.36716000  1.0
  H  H24  1  0.09549000  0.09851000  0.63284000  1.0
  H  H25  1  0.92666000  0.74627000  0.36493000  1.0
  H  H26  1  0.07335000  0.25373000  0.63507000  1.0
  H  H27  1  0.84693000  0.75213000  0.95385000  1.0
  H  H28  1  0.15307000  0.24787000  0.04614000  1.0
  H  H29  1  0.84420000  0.73911000  0.75693000  1.0
  H  H30  1  0.15579000  0.26089000  0.24306000  1.0
  H  H31  1  0.38617000  0.98222000  0.82301000  1.0
  H  H32  1  0.61383000  0.01777000  0.17699000  1.0
  H  H33  1  0.38285000  0.00079000  0.02197000  1.0
  H  H34  1  0.61715000  0.99921000  0.97803000  1.0
  C  C35  1  0.38065000  0.62557000  0.01064000  1.0
  C  C36  1  0.61935000  0.37442000  0.98936000  1.0
  C  C37  1  0.52467000  0.70704000  0.08928000  1.0
  C  C38  1  0.47533000  0.29296000  0.91072000  1.0
  C  C39  1  0.51586000  0.71421000  0.19845000  1.0
  C  C40  1  0.48414000  0.28579000  0.80155000  1.0
  C  C41  1  0.36304000  0.63948000  0.22889000  1.0
  C  C42  1  0.63696000  0.36052000  0.77111000  1.0
  C  C43  1  0.21877000  0.55783000  0.15157000  1.0
  C  C44  1  0.78123000  0.44217000  0.84844000  1.0
  C  C45  1  0.22941000  0.55031000  0.04245000  1.0
  C  C46  1  0.77059000  0.44969000  0.95755000  1.0
  C  C47  1  0.38092000  0.61913000  0.89287000  1.0
  C  C48  1  0.61908000  0.38086000  0.10713000  1.0
  C  C49  1  0.11796000  0.87425000  0.99962000  1.0
  C  C50  1  0.88204000  0.12575000  0.00038000  1.0
  C  C51  1  0.96510000  0.80149000  0.92556000  1.0
  C  C52  1  0.03490000  0.19851000  0.07444000  1.0
  C  C53  1  0.96300000  0.79353000  0.81514000  1.0
  C  C54  1  0.03699000  0.20647000  0.18486000  1.0
  C  C55  1  0.11491000  0.85747000  0.77908000  1.0
  C  C56  1  0.88509000  0.14253000  0.22092000  1.0
  C  C57  1  0.26865000  0.93148000  0.85197000  1.0
  C  C58  1  0.73135000  0.06853000  0.14803000  1.0
  C  C59  1  0.26810000  0.94056000  0.96228000  1.0
  C  C60  1  0.73189000  0.05944000  0.03772000  1.0
  C  C61  1  0.12441000  0.88381000  0.11850000  1.0
  C  C62  1  0.87559000  0.11619000  0.88149000  1.0
  S  S63  1  0.35980000  0.64580000  0.36923000  1.0
  S  S64  1  0.64020000  0.35420000  0.63077000  1.0
  S  S65  1  0.10925000  0.83978000  0.63729000  1.0
  S  S66  1  0.89075000  0.16022000  0.36271000  1.0
  O  O67  1  0.18173000  0.56555000  0.37630000  1.0
  O  O68  1  0.81827000  0.43445000  0.62370000  1.0
  O  O69  1  0.48718000  0.57177000  0.40780000  1.0
  O  O70  1  0.51282000  0.42823000  0.59220000  1.0
  O  O71  1  0.41168000  0.79618000  0.42125000  1.0
  O  O72  1  0.58832000  0.20382000  0.57875000  1.0
  O  O73  1  0.25052000  0.54941000  0.82433000  1.0
  O  O74  1  0.74948000  0.45059000  0.17567000  1.0
  O  O75  1  0.52777000  0.69476000  0.86962000  1.0
  O  O76  1  0.47223000  0.30524000  0.13038000  1.0
  O  O77  1  0.22095000  0.97425000  0.61846000  1.0
  O  O78  1  0.77905000  0.02576000  0.38154000  1.0
  O  O79  1  0.18229000  0.71825000  0.60735000  1.0
  O  O80  1  0.81772000  0.28175000  0.39265000  1.0
  O  O81  1  0.92647000  0.80433000  0.58628000  1.0
  O  O82  1  0.07353000  0.19567000  0.41371000  1.0
  O  O83  1  0.25657000  0.94991000  0.18593000  1.0
  O  O84  1  0.74344000  0.05009000  0.81407000  1.0
  O  O85  1  0.97487000  0.81401000  0.14335000  1.0
  O  O86  1  0.02514000  0.18599000  0.85665000  1.0
  O  O87  1  0.18871000  0.41839000  0.62057000  1.0
  O  O88  1  0.81130000  0.58161000  0.37943000  1.0
  O  O89  1  0.48442000  0.29162000  0.33165000  1.0
  O  O90  1  0.51558000  0.70838000  0.66835000  1.0
  O  O91  1  0.98037000  0.84134000  0.34706000  1.0
  O  O92  1  0.01964000  0.15866000  0.65294000  1.0
