# generated using pymatgen
data_CdH8C16N10O
_symmetry_space_group_name_H-M   'P 1'
_cell_length_a   8.03092000
_cell_length_b   14.81410000
_cell_length_c   15.45000000
_cell_angle_alpha   90.00000000
_cell_angle_beta   97.07430000
_cell_angle_gamma   90.00000000
_symmetry_Int_Tables_number   1
_chemical_formula_structural   CdH8C16N10O
_chemical_formula_sum   'Cd4 H32 C64 N40 O4'
_cell_volume   1824.10672389
_cell_formula_units_Z   4
loop_
 _symmetry_equiv_pos_site_id
 _symmetry_equiv_pos_as_xyz
  1  'x, y, z'
loop_
 _atom_site_type_symbol
 _atom_site_label
 _atom_site_symmetry_multiplicity
 _atom_site_fract_x
 _atom_site_fract_y
 _atom_site_fract_z
 _atom_site_occupancy
  Cd  Cd0  1  0.50000000  0.50000000  0.00000000  1.0
  Cd  Cd1  1  0.00000000  0.00000000  0.50000000  1.0
  Cd  Cd2  1  0.99999000  0.00001000  0.00000000  1.0
  Cd  Cd3  1  0.50000000  0.50000000  0.50000000  1.0
  H  H4  1  0.64371000  0.59610000  0.17748000  1.0
  H  H5  1  0.85629000  0.09609000  0.32252000  1.0
  H  H6  1  0.35629000  0.40390000  0.82252000  1.0
  H  H7  1  0.14371000  0.90390000  0.67748000  1.0
  H  H8  1  0.89231000  0.68157000  0.24932000  1.0
  H  H9  1  0.60768000  0.18157000  0.25068000  1.0
  H  H10  1  0.10769000  0.31842000  0.75068000  1.0
  H  H11  1  0.39231000  0.81843000  0.74932000  1.0
  H  H12  1  0.08124000  0.68496000  0.99885000  1.0
  H  H13  1  0.41877000  0.18496000  0.50116000  1.0
  H  H14  1  0.91877000  0.31505000  0.00116000  1.0
  H  H15  1  0.58125000  0.81504000  0.49885000  1.0
  H  H16  1  0.82394000  0.60191000  0.93769000  1.0
  H  H17  1  0.67607000  0.10191000  0.56232000  1.0
  H  H18  1  0.17607000  0.39809000  0.06232000  1.0
  H  H19  1  0.32395000  0.89808000  0.43768000  1.0
  H  H20  1  0.87766000  0.97553000  0.19429000  1.0
  H  H21  1  0.62234000  0.47553000  0.30570000  1.0
  H  H22  1  0.12234000  0.02447000  0.80570000  1.0
  H  H23  1  0.37767000  0.52447000  0.69429000  1.0
  H  H24  1  0.63593000  0.90960000  0.26073000  1.0
  H  H25  1  0.86408000  0.40959000  0.23927000  1.0
  H  H26  1  0.36408000  0.09041000  0.73927000  1.0
  H  H27  1  0.13593000  0.59040000  0.76073000  1.0
  H  H28  1  0.49814000  0.76880000  0.01692000  1.0
  H  H29  1  0.00186000  0.26879000  0.48307000  1.0
  H  H30  1  0.50186000  0.23120000  0.98307000  1.0
  H  H31  1  0.99813000  0.73120000  0.51692000  1.0
  H  H32  1  0.74327000  0.84204000  0.96040000  1.0
  H  H33  1  0.75674000  0.34204000  0.53960000  1.0
  H  H34  1  0.25674000  0.15796000  0.03960000  1.0
  H  H35  1  0.24326000  0.65796000  0.46040000  1.0
  C  C36  1  0.74449000  0.61729000  0.14069000  1.0
  C  C37  1  0.75550000  0.11729000  0.35931000  1.0
  C  C38  1  0.25550000  0.38272000  0.85931000  1.0
  C  C39  1  0.24450000  0.88271000  0.64069000  1.0
  C  C40  1  0.88230000  0.66470000  0.18031000  1.0
  C  C41  1  0.61770000  0.16469000  0.31970000  1.0
  C  C42  1  0.11770000  0.33530000  0.81970000  1.0
  C  C43  1  0.38230000  0.83530000  0.68031000  1.0
  C  C44  1  0.00749000  0.69004000  0.12945000  1.0
  C  C45  1  0.49251000  0.19004000  0.37056000  1.0
  C  C46  1  0.99251000  0.30996000  0.87056000  1.0
  C  C47  1  0.50749000  0.80996000  0.62945000  1.0
  C  C48  1  0.98701000  0.66736000  0.04066000  1.0
  C  C49  1  0.51300000  0.16736000  0.45935000  1.0
  C  C50  1  0.01300000  0.33264000  0.95935000  1.0
  C  C51  1  0.48701000  0.83264000  0.54066000  1.0
  C  C52  1  0.84432000  0.62018000  0.00654000  1.0
  C  C53  1  0.65569000  0.12018000  0.49347000  1.0
  C  C54  1  0.15569000  0.37982000  0.99347000  1.0
  C  C55  1  0.34432000  0.87981000  0.50654000  1.0
  C  C56  1  0.15638000  0.73680000  0.16916000  1.0
  C  C57  1  0.34363000  0.23680000  0.33085000  1.0
  C  C58  1  0.84363000  0.26320000  0.83085000  1.0
  C  C59  1  0.65638000  0.76320000  0.66916000  1.0
  C  C60  1  0.39835000  0.79874000  0.17620000  1.0
  C  C61  1  0.10165000  0.29874000  0.32380000  1.0
  C  C62  1  0.60165000  0.20126000  0.82380000  1.0
  C  C63  1  0.89836000  0.70126000  0.67620000  1.0
  C  C64  1  0.79006000  0.92935000  0.15734000  1.0
  C  C65  1  0.70994000  0.42935000  0.34265000  1.0
  C  C66  1  0.20993000  0.07065000  0.84265000  1.0
  C  C67  1  0.29007000  0.57065000  0.65734000  1.0
  C  C68  1  0.65629000  0.89249000  0.19434000  1.0
  C  C69  1  0.84372000  0.39248000  0.30565000  1.0
  C  C70  1  0.34371000  0.10752000  0.80565000  1.0
  C  C71  1  0.15629000  0.60751000  0.69434000  1.0
  C  C72  1  0.54615000  0.83478000  0.14317000  1.0
  C  C73  1  0.95385000  0.33478000  0.35683000  1.0
  C  C74  1  0.45385000  0.16522000  0.85683000  1.0
  C  C75  1  0.04615000  0.66522000  0.64317000  1.0
  C  C76  1  0.57831000  0.81474000  0.05807000  1.0
  C  C77  1  0.92170000  0.31473000  0.44193000  1.0
  C  C78  1  0.42169000  0.18526000  0.94193000  1.0
  C  C79  1  0.07831000  0.68526000  0.55807000  1.0
  C  C80  1  0.71481000  0.85497000  0.02656000  1.0
  C  C81  1  0.78519000  0.35497000  0.47344000  1.0
  C  C82  1  0.28519000  0.14503000  0.97344000  1.0
  C  C83  1  0.21481000  0.64503000  0.52656000  1.0
  C  C84  1  0.28876000  0.53010000  0.18009000  1.0
  C  C85  1  0.21123000  0.03010000  0.31991000  1.0
  C  C86  1  0.71123000  0.46990000  0.81991000  1.0
  C  C87  1  0.78877000  0.96990000  0.68009000  1.0
  C  C88  1  0.24565000  0.49762000  0.32086000  1.0
  C  C89  1  0.25435000  0.99764000  0.17914000  1.0
  C  C90  1  0.75435000  0.50237000  0.67914000  1.0
  C  C91  1  0.74565000  0.00238000  0.82086000  1.0
  C  C92  1  0.68566000  0.30946000  0.10527000  1.0
  C  C93  1  0.81432000  0.80946000  0.39474000  1.0
  C  C94  1  0.31432000  0.69055000  0.89474000  1.0
  C  C95  1  0.18568000  0.19054000  0.60527000  1.0
  C  C96  1  0.84353000  0.17832000  0.10477000  1.0
  C  C97  1  0.65645000  0.67831000  0.39523000  1.0
  C  C98  1  0.15644000  0.82169000  0.89524000  1.0
  C  C99  1  0.34354000  0.32168000  0.60477000  1.0
  N  N100  1  0.72542000  0.59475000  0.05561000  1.0
  N  N101  1  0.77458000  0.09474000  0.44439000  1.0
  N  N102  1  0.27458000  0.40526000  0.94439000  1.0
  N  N103  1  0.22542000  0.90525000  0.55561000  1.0
  N  N104  1  0.81793000  0.91224000  0.07481000  1.0
  N  N105  1  0.68208000  0.41224000  0.42518000  1.0
  N  N106  1  0.18207000  0.08776000  0.92518000  1.0
  N  N107  1  0.31793000  0.58776000  0.57481000  1.0
  N  N108  1  0.19690000  0.76216000  0.25063000  1.0
  N  N109  1  0.30310000  0.26216000  0.24938000  1.0
  N  N110  1  0.80310000  0.23784000  0.74938000  1.0
  N  N111  1  0.69690000  0.73783000  0.75063000  1.0
  N  N112  1  0.35380000  0.80193000  0.25524000  1.0
  N  N113  1  0.14621000  0.30192000  0.24476000  1.0
  N  N114  1  0.64620000  0.19807000  0.74476000  1.0
  N  N115  1  0.85380000  0.69807000  0.75524000  1.0
  N  N116  1  0.35990000  0.53980000  0.11826000  1.0
  N  N117  1  0.14010000  0.03978000  0.38174000  1.0
  N  N118  1  0.64009000  0.46021000  0.88174000  1.0
  N  N119  1  0.85991000  0.96020000  0.61826000  1.0
  N  N120  1  0.19727000  0.52593000  0.24293000  1.0
  N  N121  1  0.30272000  0.02593000  0.25707000  1.0
  N  N122  1  0.80272000  0.47406000  0.75707000  1.0
  N  N123  1  0.69729000  0.97407000  0.74292000  1.0
  N  N124  1  0.27411000  0.47124000  0.39341000  1.0
  N  N125  1  0.22589000  0.97127000  0.10658000  1.0
  N  N126  1  0.72590000  0.52874000  0.60659000  1.0
  N  N127  1  0.77410000  0.02875000  0.89341000  1.0
  N  N128  1  0.63308000  0.38203000  0.08584000  1.0
  N  N129  1  0.86691000  0.88202000  0.41416000  1.0
  N  N130  1  0.36692000  0.61798000  0.91416000  1.0
  N  N131  1  0.13309000  0.11797000  0.58584000  1.0
  N  N132  1  0.73292000  0.23017000  0.13330000  1.0
  N  N133  1  0.76705000  0.73017000  0.36671000  1.0
  N  N134  1  0.26705000  0.76983000  0.86671000  1.0
  N  N135  1  0.23293000  0.26983000  0.63330000  1.0
  N  N136  1  0.94239000  0.12537000  0.08541000  1.0
  N  N137  1  0.55758000  0.62536000  0.41459000  1.0
  N  N138  1  0.05756000  0.87464000  0.91459000  1.0
  N  N139  1  0.44241000  0.37463000  0.58541000  1.0
  O  O140  1  0.27932000  0.75752000  0.11862000  1.0
  O  O141  1  0.22068000  0.25752000  0.38139000  1.0
  O  O142  1  0.72068000  0.24248000  0.88139000  1.0
  O  O143  1  0.77932000  0.74247000  0.61862000  1.0
