# generated using pymatgen
data_CdH22C20(NO)4
_symmetry_space_group_name_H-M   'P 1'
_cell_length_a   9.17293000
_cell_length_b   10.07630000
_cell_length_c   14.46590000
_cell_angle_alpha   107.25600000
_cell_angle_beta   91.27890000
_cell_angle_gamma   116.21100000
_symmetry_Int_Tables_number   1
_chemical_formula_structural   CdH22C20(NO)4
_chemical_formula_sum   'Cd2 H44 C40 N8 O8'
_cell_volume   1127.09460563
_cell_formula_units_Z   2
loop_
 _symmetry_equiv_pos_site_id
 _symmetry_equiv_pos_as_xyz
  1  'x, y, z'
loop_
 _atom_site_type_symbol
 _atom_site_label
 _atom_site_symmetry_multiplicity
 _atom_site_fract_x
 _atom_site_fract_y
 _atom_site_fract_z
 _atom_site_occupancy
  Cd  Cd0  1  0.82441000  0.43997000  0.10373000  1.0
  Cd  Cd1  1  0.17559000  0.56003000  0.89627000  1.0
  H  H2  1  0.82764000  0.23603000  0.37399000  1.0
  H  H3  1  0.17236000  0.76397000  0.62601000  1.0
  H  H4  1  0.10671000  0.73578000  0.44856000  1.0
  H  H5  1  0.89329000  0.26422000  0.55144000  1.0
  H  H6  1  0.93934000  0.18503000  0.12983000  1.0
  H  H7  1  0.06065000  0.81497000  0.87017000  1.0
  H  H8  1  0.11527000  0.07832000  0.85956000  1.0
  H  H9  1  0.88473000  0.92167000  0.14044000  1.0
  H  H10  1  0.51543000  0.28630000  0.23173000  1.0
  H  H11  1  0.48458000  0.71370000  0.76827000  1.0
  H  H12  1  0.57639000  0.62539000  0.10169000  1.0
  H  H13  1  0.42361000  0.37461000  0.89831000  1.0
  H  H14  1  0.29655000  0.56118000  0.19045000  1.0
  H  H15  1  0.70344000  0.43882000  0.80954000  1.0
  H  H16  1  0.22436000  0.22824000  0.28084000  1.0
  H  H17  1  0.77564000  0.77176000  0.71915000  1.0
  H  H18  1  0.13985000  0.34977000  0.26660000  1.0
  H  H19  1  0.86015000  0.65023000  0.73339000  1.0
  H  H20  1  0.22010000  0.41381000  0.44169000  1.0
  H  H21  1  0.77990000  0.58619000  0.55831000  1.0
  H  H22  1  0.35149000  0.57521000  0.40817000  1.0
  H  H23  1  0.64850000  0.42479000  0.59183000  1.0
  H  H24  1  0.57285000  0.48860000  0.40529000  1.0
  H  H25  1  0.42715000  0.51140000  0.59471000  1.0
  H  H26  1  0.43791000  0.32662000  0.43779000  1.0
  H  H27  1  0.56209000  0.67338000  0.56221000  1.0
  H  H28  1  0.82485000  0.24554000  0.85947000  1.0
  H  H29  1  0.17515000  0.75446000  0.14053000  1.0
  H  H30  1  0.42527000  0.14836000  0.01372000  1.0
  H  H31  1  0.57473000  0.85164000  0.98628000  1.0
  H  H32  1  0.31961000  0.92318000  0.82493000  1.0
  H  H33  1  0.68039000  0.07682000  0.17508000  1.0
  H  H34  1  0.47505000  0.85987000  0.69107000  1.0
  H  H35  1  0.52495000  0.14013000  0.30893000  1.0
  H  H36  1  0.69111000  0.98484000  0.70652000  1.0
  H  H37  1  0.30889000  0.01516000  0.29348000  1.0
  H  H38  1  0.63518000  0.18137000  0.66300000  1.0
  H  H39  1  0.36482000  0.81864000  0.33700000  1.0
  H  H40  1  0.42039000  0.06487000  0.65426000  1.0
  H  H41  1  0.57961000  0.93513000  0.34574000  1.0
  H  H42  1  0.64234000  0.96769000  0.52434000  1.0
  H  H43  1  0.35766000  0.03231000  0.47567000  1.0
  H  H44  1  0.43145000  0.84272000  0.51830000  1.0
  H  H45  1  0.56855000  0.15728000  0.48170000  1.0
  C  C46  1  0.92673000  0.46888000  0.29567000  1.0
  C  C47  1  0.07327000  0.53112000  0.70433000  1.0
  C  C48  1  0.96313000  0.48460000  0.40138000  1.0
  C  C49  1  0.03688000  0.51540000  0.59862000  1.0
  C  C50  1  0.90225000  0.35125000  0.43005000  1.0
  C  C51  1  0.09775000  0.64875000  0.56995000  1.0
  C  C52  1  0.06102000  0.63356000  0.47226000  1.0
  C  C53  1  0.93898000  0.36644000  0.52774000  1.0
  C  C54  1  0.06488000  0.30231000  0.98775000  1.0
  C  C55  1  0.93512000  0.69769000  0.01225000  1.0
  C  C56  1  0.03159000  0.14618000  0.99453000  1.0
  C  C57  1  0.96841000  0.85382000  0.00547000  1.0
  C  C58  1  0.96654000  0.10331000  0.07396000  1.0
  C  C59  1  0.03345000  0.89668000  0.92604000  1.0
  C  C60  1  0.06466000  0.04203000  0.92054000  1.0
  C  C61  1  0.93533000  0.95796000  0.07945000  1.0
  C  C62  1  0.49545000  0.37011000  0.20792000  1.0
  C  C63  1  0.50455000  0.62989000  0.79208000  1.0
  C  C64  1  0.52287000  0.54646000  0.14274000  1.0
  C  C65  1  0.47713000  0.45354000  0.85726000  1.0
  C  C66  1  0.38694000  0.51893000  0.18775000  1.0
  C  C67  1  0.61306000  0.48107000  0.81225000  1.0
  C  C68  1  0.25395000  0.35096000  0.29222000  1.0
  C  C69  1  0.74605000  0.64904000  0.70778000  1.0
  C  C70  1  0.32100000  0.45333000  0.40051000  1.0
  C  C71  1  0.67900000  0.54667000  0.59949000  1.0
  C  C72  1  0.47026000  0.44922000  0.44561000  1.0
  C  C73  1  0.52974000  0.55078000  0.55439000  1.0
  C  C74  1  0.70339000  0.19061000  0.87821000  1.0
  C  C75  1  0.29661000  0.80939000  0.12179000  1.0
  C  C76  1  0.49265000  0.13626000  0.95394000  1.0
  C  C77  1  0.50736000  0.86374000  0.04606000  1.0
  C  C78  1  0.43708000  0.02623000  0.86090000  1.0
  C  C79  1  0.56293000  0.97378000  0.13911000  1.0
  C  C80  1  0.57090000  0.98320000  0.71172000  1.0
  C  C81  1  0.42910000  0.01680000  0.28829000  1.0
  C  C82  1  0.53622000  0.05916000  0.64302000  1.0
  C  C83  1  0.46378000  0.94084000  0.35699000  1.0
  C  C84  1  0.52348000  0.96713000  0.53567000  1.0
  C  C85  1  0.47652000  0.03288000  0.46433000  1.0
  N  N86  1  0.58940000  0.45303000  0.15623000  1.0
  N  N87  1  0.41061000  0.54697000  0.84377000  1.0
  N  N88  1  0.37075000  0.40618000  0.22848000  1.0
  N  N89  1  0.62924000  0.59382000  0.77152000  1.0
  N  N90  1  0.65852000  0.23742000  0.96389000  1.0
  N  N91  1  0.34149000  0.76258000  0.03612000  1.0
  N  N92  1  0.57245000  0.06187000  0.81428000  1.0
  N  N93  1  0.42755000  0.93813000  0.18572000  1.0
  O  O94  1  0.81945000  0.33365000  0.23607000  1.0
  O  O95  1  0.18055000  0.66635000  0.76393000  1.0
  O  O96  1  0.00232000  0.58858000  0.27023000  1.0
  O  O97  1  0.99768000  0.41143000  0.72977000  1.0
  O  O98  1  0.05019000  0.40243000  0.05919000  1.0
  O  O99  1  0.94982000  0.59757000  0.94081000  1.0
  O  O100  1  0.10718000  0.32356000  0.90766000  1.0
  O  O101  1  0.89282000  0.67644000  0.09234000  1.0
