# generated using pymatgen
data_Zr3H13C13NO16
_symmetry_space_group_name_H-M   'P 1'
_cell_length_a   14.67640000
_cell_length_b   20.04680000
_cell_length_c   20.20761831
_cell_angle_alpha   87.84243096
_cell_angle_beta   69.69384954
_cell_angle_gamma   84.61720000
_symmetry_Int_Tables_number   1
_chemical_formula_structural   Zr3H13C13NO16
_chemical_formula_sum   'Zr12 H52 C52 N4 O64'
_cell_volume   5551.21480071
_cell_formula_units_Z   4
loop_
 _symmetry_equiv_pos_site_id
 _symmetry_equiv_pos_as_xyz
  1  'x, y, z'
loop_
 _atom_site_type_symbol
 _atom_site_label
 _atom_site_symmetry_multiplicity
 _atom_site_fract_x
 _atom_site_fract_y
 _atom_site_fract_z
 _atom_site_occupancy
  Zr  Zr0  1  0.61460000  0.57120000  0.54081000  1.0
  Zr  Zr1  1  0.30570000  0.45151000  0.62549000  1.0
  Zr  Zr2  1  0.48446000  0.48635000  0.69600000  1.0
  Zr  Zr3  1  0.43287000  0.53943000  0.47113000  1.0
  Zr  Zr4  1  0.55691000  0.40452000  0.53131000  1.0
  Zr  Zr5  1  0.35861000  0.62134000  0.63659000  1.0
  Zr  Zr6  1  0.17440000  0.07126000  0.11478000  1.0
  Zr  Zr7  1  0.52419000  0.98762000  0.01809000  1.0
  Zr  Zr8  1  0.39698000  0.13724000  0.09529000  1.0
  Zr  Zr9  1  0.30245000  0.91994000  0.03298000  1.0
  Zr  Zr10  1  0.36159000  0.07724000  0.94313000  1.0
  Zr  Zr11  1  0.34449000  0.97884000  0.18535000  1.0
  H  H12  1  0.88317000  0.68719000  0.28065000  1.0
  H  H13  1  0.00963000  0.77020000  0.19170000  1.0
  H  H14  1  0.89378000  0.37358000  0.81993000  1.0
  H  H15  1  0.73463000  0.31415000  0.90515000  1.0
  H  H16  1  0.63557000  0.49633000  0.41954000  1.0
  H  H17  1  0.42224000  0.36157000  0.67695000  1.0
  H  H18  1  0.24574000  0.57429000  0.56339000  1.0
  H  H19  1  0.51534000  0.62853000  0.68084000  1.0
  H  H20  1  0.59738000  0.29104000  0.58489000  1.0
  H  H21  1  0.43572000  0.56348000  0.82196000  1.0
  H  H22  1  0.26054000  0.65876000  0.76734000  1.0
  H  H23  1  0.65246000  0.36646000  0.39374000  1.0
  H  H24  1  0.53455000  0.42487000  0.39124000  1.0
  H  H25  1  0.38621000  0.66698000  0.42306000  1.0
  H  H26  1  0.22545000  0.70464000  0.60081000  1.0
  H  H27  1  0.51769000  0.29308000  0.49201000  1.0
  H  H28  1  0.29049000  0.34141000  0.55223000  1.0
  H  H29  1  0.66794000  0.68458000  0.57668000  1.0
  H  H30  1  0.41565000  0.74427000  0.58518000  1.0
  H  H31  1  0.53548000  0.48653000  0.33355000  1.0
  H  H32  1  0.39011000  0.32254000  0.56978000  1.0
  H  H33  1  0.51075000  0.40789000  0.80382000  1.0
  H  H34  1  0.70196000  0.31855000  0.56454000  1.0
  H  H35  1  0.32277000  0.66726000  0.50765000  1.0
  H  H36  1  0.36795000  0.59539000  0.77606000  1.0
  H  H37  1  0.51940000  0.70571000  0.58441000  1.0
  H  H38  1  0.25107000  0.40792000  0.18957000  1.0
  H  H39  1  0.26551000  0.49329000  0.28699000  1.0
  H  H40  1  0.79398000  0.79565000  0.89746000  1.0
  H  H41  1  0.97000000  0.72491000  0.83160000  1.0
  H  H42  1  0.18646000  0.01341000  0.98397000  1.0
  H  H43  1  0.53915000  0.11684000  0.95050000  1.0
  H  H44  1  0.44723000  0.87153000  0.08948000  1.0
  H  H45  1  0.25226000  0.10822000  0.22806000  1.0
  H  H46  1  0.34522000  0.21832000  0.91433000  1.0
  H  H47  1  0.47824000  0.20534000  0.17487000  1.0
  H  H48  1  0.41482000  0.00195000  0.28448000  1.0
  H  H49  1  0.38202000  0.00701000  0.82803000  1.0
  H  H50  1  0.21676000  0.88681000  0.94196000  1.0
  H  H51  1  0.21042000  0.82556000  0.11781000  1.0
  H  H52  1  0.36466000  0.84149000  0.21840000  1.0
  H  H53  1  0.49886000  0.11909000  0.82897000  1.0
  H  H54  1  0.70908000  0.01046000  0.93062000  1.0
  H  H55  1  0.04354000  0.09597000  0.24444000  1.0
  H  H56  1  0.19980000  0.99789000  0.31087000  1.0
  H  H57  1  0.31017000  0.95982000  0.89084000  1.0
  H  H58  1  0.67894000  0.94634000  0.89956000  1.0
  H  H59  1  0.49725000  0.23611000  0.02205000  1.0
  H  H60  1  0.40566000  0.21160000  0.96871000  1.0
  H  H61  1  0.29397000  0.85153000  0.16861000  1.0
  H  H62  1  0.36531000  0.23033000  0.19528000  1.0
  H  H63  1  0.13927000  0.01290000  0.25580000  1.0
  C  C64  1  0.77309000  0.74887000  0.24967000  1.0
  C  C65  1  0.86694000  0.72873000  0.24941000  1.0
  C  C66  1  0.93169000  0.77071000  0.20334000  1.0
  C  C67  1  0.87789000  0.81805000  0.17611000  1.0
  C  C68  1  0.97605000  0.29389000  0.85837000  1.0
  C  C69  1  0.89265000  0.32983000  0.85337000  1.0
  C  C70  1  0.81045000  0.29936000  0.89786000  1.0
  C  C71  1  0.84178000  0.24394000  0.93087000  1.0
  C  C72  1  0.78228000  0.44974000  0.46425000  1.0
  C  C73  1  0.60508000  0.62864000  0.38528000  1.0
  C  C74  1  0.67475000  0.56298000  0.68414000  1.0
  C  C75  1  0.25046000  0.34218000  0.74915000  1.0
  C  C76  1  0.13822000  0.56929000  0.69512000  1.0
  C  C77  1  0.22887000  0.47803000  0.49345000  1.0
  C  C78  1  0.10944000  0.39116000  0.26933000  1.0
  C  C79  1  0.19673000  0.42167000  0.24033000  1.0
  C  C80  1  0.20374000  0.46607000  0.28978000  1.0
  C  C81  1  0.12103000  0.46294000  0.35015000  1.0
  C  C82  1  0.73912000  0.72728000  0.84089000  1.0
  C  C83  1  0.81018000  0.75431000  0.86091000  1.0
  C  C84  1  0.89968000  0.71835000  0.82748000  1.0
  C  C85  1  0.88443000  0.66886000  0.78654000  1.0
  C  C86  1  0.14144000  0.14518000  0.97795000  1.0
  C  C87  1  0.06267000  0.94857000  0.09182000  1.0
  C  C88  1  0.17287000  0.22230000  0.16875000  1.0
  C  C89  1  0.64114000  0.11901000  0.03964000  1.0
  C  C90  1  0.57632000  0.91212000  0.14551000  1.0
  C  C91  1  0.51691000  0.84445000  0.94736000  1.0
  C  C92  1  0.64153000  0.75229000  0.86586000  1.0
  C  C93  1  0.57603000  0.79222000  0.90122000  1.0
  C  C94  1  0.11925000  0.28258000  0.20467000  1.0
  C  C95  1  0.09196000  0.33333333  0.24071000  1.0
  C  C96  1  0.88265000  0.43152000  0.41993000  1.0
  C  C97  1  0.96498000  0.41906000  0.37803000  1.0
  C  C98  1  0.11901000  0.47690000  0.41739000  1.0
  C  C99  1  0.15228000  0.48360000  0.46429000  1.0
  C  C100  1  0.71796000  0.60066000  0.72438000  1.0
  C  C101  1  0.74605000  0.63628000  0.75946000  1.0
  C  C102  1  0.03696000  0.59204000  0.72251000  1.0
  C  C103  1  0.95599000  0.62131000  0.74776000  1.0
  C  C104  1  0.00489000  0.20308000  0.93193000  1.0
  C  C105  1  0.06943000  0.17541000  0.95028000  1.0
  C  C106  1  0.78435000  0.19626000  0.97418000  1.0
  C  C107  1  0.72340000  0.15900000  0.00900000  1.0
  C  C108  1  0.07432000  0.30472000  0.82529000  1.0
  C  C109  1  0.15720000  0.31923000  0.79259000  1.0
  C  C110  1  0.97501000  0.91454000  0.10961000  1.0
  C  C111  1  0.91510000  0.87455000  0.13784000  1.0
  C  C112  1  0.70746000  0.83878000  0.18751000  1.0
  C  C113  1  0.64805000  0.87268000  0.16821000  1.0
  C  C114  1  0.64410000  0.67642000  0.33064000  1.0
  C  C115  1  0.69134000  0.71627000  0.28815000  1.0
  N  N116  1  0.77963000  0.80416000  0.20380000  1.0
  N  N117  1  0.94435000  0.24078000  0.90659000  1.0
  N  N118  1  0.05905000  0.41969000  0.33627000  1.0
  N  N119  1  0.78513000  0.67407000  0.79471000  1.0
  O  O120  1  0.62790000  0.67243000  0.55029000  1.0
  O  O121  1  0.75993000  0.51075000  0.48313000  1.0
  O  O122  1  0.70110000  0.57415000  0.61811000  1.0
  O  O123  1  0.52764000  0.60184000  0.38685000  1.0
  O  O124  1  0.61056000  0.52453000  0.72020000  1.0
  O  O125  1  0.65263000  0.61635000  0.42665000  1.0
  O  O126  1  0.72453000  0.40287000  0.47872000  1.0
  O  O127  1  0.58032000  0.47902000  0.59339000  1.0
  O  O128  1  0.58584000  0.49980000  0.46597000  1.0
  O  O129  1  0.50190000  0.59412000  0.65377000  1.0
  O  O130  1  0.47431000  0.59334000  0.53906000  1.0
  O  O131  1  0.34512000  0.63982000  0.46051000  1.0
  O  O132  1  0.63316000  0.32781000  0.59246000  1.0
  O  O133  1  0.42663000  0.45240000  0.53034000  1.0
  O  O134  1  0.44150000  0.40082000  0.64498000  1.0
  O  O135  1  0.36025000  0.51987000  0.67267000  1.0
  O  O136  1  0.30557000  0.55641000  0.57025000  1.0
  O  O137  1  0.49263000  0.41362000  0.76222000  1.0
  O  O138  1  0.32972000  0.30982000  0.74184000  1.0
  O  O139  1  0.23876000  0.40020000  0.71985000  1.0
  O  O140  1  0.44688000  0.71611000  0.61300000  1.0
  O  O141  1  0.16194000  0.50860000  0.67661000  1.0
  O  O142  1  0.40075000  0.55120000  0.79195000  1.0
  O  O143  1  0.33010000  0.65100000  0.74140000  1.0
  O  O144  1  0.29567000  0.69470000  0.58050000  1.0
  O  O145  1  0.19513000  0.61508000  0.69191000  1.0
  O  O146  1  0.31734000  0.34172000  0.58997000  1.0
  O  O147  1  0.49364000  0.46690000  0.37686000  1.0
  O  O148  1  0.21986000  0.44674000  0.55111000  1.0
  O  O149  1  0.30435000  0.50588000  0.45403000  1.0
  O  O150  1  0.58392000  0.37434000  0.42235000  1.0
  O  O151  1  0.50022000  0.30758000  0.54074000  1.0
  O  O152  1  0.08323000  0.05720000  0.21935000  1.0
  O  O153  1  0.10990000  0.12913000  0.04285000  1.0
  O  O154  1  0.12596000  0.17612000  0.15857000  1.0
  O  O155  1  0.13992000  0.90866000  0.06715000  1.0
  O  O156  1  0.26530000  0.22176000  0.15190000  1.0
  O  O157  1  0.05720000  0.01045000  0.10434000  1.0
  O  O158  1  0.22942000  0.13730000  0.93516000  1.0
  O  O159  1  0.30319000  0.11463000  0.05000000  1.0
  O  O160  1  0.23355000  0.01927000  0.00663000  1.0
  O  O161  1  0.28071000  0.08831000  0.18155000  1.0
  O  O162  1  0.25288000  0.98346000  0.12348000  1.0
  O  O163  1  0.27703000  0.83742000  0.10579000  1.0
  O  O164  1  0.39670000  0.19130000  0.92547000  1.0
  O  O165  1  0.41272000  0.98622000  0.97980000  1.0
  O  O166  1  0.48844000  0.09213000  0.98341000  1.0
  O  O167  1  0.44628000  0.03725000  0.10886000  1.0
  O  O168  1  0.42094000  0.91695000  0.08473000  1.0
  O  O169  1  0.42995000  0.22542000  0.03560000  1.0
  O  O170  1  0.56232000  0.15048000  0.07946000  1.0
  O  O171  1  0.65056000  0.05795000  0.02130000  1.0
  O  O172  1  0.19060000  0.98128000  0.26913000  1.0
  O  O173  1  0.60517000  0.93179000  0.08107000  1.0
  O  O174  1  0.41212000  0.19105000  0.19162000  1.0
  O  O175  1  0.35406000  0.01251000  0.27574000  1.0
  O  O176  1  0.31130000  0.87033000  0.21198000  1.0
  O  O177  1  0.49124000  0.92288000  0.19100000  1.0
  O  O178  1  0.65986000  0.99290000  0.91484000  1.0
  O  O179  1  0.28074000  0.89913000  0.93825000  1.0
  O  O180  1  0.56836000  0.88891000  0.95871000  1.0
  O  O181  1  0.42598000  0.84262000  0.97344000  1.0
  O  O182  1  0.32405000  0.00776000  0.87052000  1.0
  O  O183  1  0.46525000  0.07908000  0.84603000  1.0
