# generated using pymatgen
data_CdH6C8SN3ClO3
_symmetry_space_group_name_H-M   'P 1'
_cell_length_a   6.64062000
_cell_length_b   7.78553000
_cell_length_c   10.49260000
_cell_angle_alpha   90.00000000
_cell_angle_beta   99.70040000
_cell_angle_gamma   90.00000000
_symmetry_Int_Tables_number   1
_chemical_formula_structural   CdH6C8SN3ClO3
_chemical_formula_sum   'Cd2 H12 C16 S2 N6 Cl2 O6'
_cell_volume   534.71909759
_cell_formula_units_Z   2
loop_
 _symmetry_equiv_pos_site_id
 _symmetry_equiv_pos_as_xyz
  1  'x, y, z'
loop_
 _atom_site_type_symbol
 _atom_site_label
 _atom_site_symmetry_multiplicity
 _atom_site_fract_x
 _atom_site_fract_y
 _atom_site_fract_z
 _atom_site_occupancy
  Cd  Cd0  1  0.98704000  0.59913000  0.00644000  1.0
  Cd  Cd1  1  0.01296000  0.09913000  0.99356000  1.0
  H  H2  1  0.18199000  0.92446000  0.46832000  1.0
  H  H3  1  0.81801000  0.42446000  0.53168000  1.0
  H  H4  1  0.73732000  0.77303000  0.70145000  1.0
  H  H5  1  0.26268000  0.27303000  0.29855000  1.0
  H  H6  1  0.46999000  0.76114000  0.50561000  1.0
  H  H7  1  0.53001000  0.26114000  0.49439000  1.0
  H  H8  1  0.91124000  0.91446000  0.26978000  1.0
  H  H9  1  0.08876000  0.41446000  0.73022000  1.0
  H  H10  1  0.49346000  0.11046000  0.21767000  1.0
  H  H11  1  0.50654000  0.61045000  0.78233000  1.0
  H  H12  1  0.43255000  0.57015000  0.24743000  1.0
  H  H13  1  0.56745000  0.07015000  0.75257000  1.0
  C  C14  1  0.97514000  0.84641000  0.59520000  1.0
  C  C15  1  0.02486000  0.34641000  0.40480000  1.0
  C  C16  1  0.02614000  0.88724000  0.47501000  1.0
  C  C17  1  0.97386000  0.38724000  0.52499000  1.0
  C  C18  1  0.77594000  0.80037000  0.60680000  1.0
  C  C19  1  0.22406000  0.30038000  0.39320000  1.0
  C  C20  1  0.62621000  0.79444000  0.49692000  1.0
  C  C21  1  0.37379000  0.29444000  0.50308000  1.0
  C  C22  1  0.67799000  0.83708000  0.37731000  1.0
  C  C23  1  0.32201000  0.33708000  0.62269000  1.0
  C  C24  1  0.87644000  0.88238000  0.36452000  1.0
  C  C25  1  0.12356000  0.38238000  0.63548000  1.0
  C  C26  1  0.43195000  0.98104000  0.20236000  1.0
  C  C27  1  0.56805000  0.48104000  0.79764000  1.0
  C  C28  1  0.39858000  0.70288000  0.21911000  1.0
  C  C29  1  0.60142000  0.20288000  0.78089000  1.0
  S  S30  1  0.16158000  0.85629000  0.73906000  1.0
  S  S31  1  0.83842000  0.35629000  0.26094000  1.0
  N  N32  1  0.51684000  0.83925000  0.26732000  1.0
  N  N33  1  0.48316000  0.33925000  0.73268000  1.0
  N  N34  1  0.26776000  0.93363000  0.12076000  1.0
  N  N35  1  0.73224000  0.43363000  0.87924000  1.0
  N  N36  1  0.24776000  0.75891000  0.13092000  1.0
  N  N37  1  0.75224000  0.25891000  0.86908000  1.0
  Cl  Cl38  1  0.25673000  0.35699000  0.01702000  1.0
  Cl  Cl39  1  0.74327000  0.85699000  0.98298000  1.0
  O  O40  1  0.36101000  0.84871000  0.69773000  1.0
  O  O41  1  0.63899000  0.34871000  0.30227000  1.0
  O  O42  1  0.12090000  0.70693000  0.81693000  1.0
  O  O43  1  0.87910000  0.20693000  0.18307000  1.0
  O  O44  1  0.12494000  0.02246000  0.79928000  1.0
  O  O45  1  0.87506000  0.52246000  0.20072000  1.0
