# generated using pymatgen
data_BaH18C10SN2O9
_symmetry_space_group_name_H-M   'P 1'
_cell_length_a   6.69243000
_cell_length_b   10.75020000
_cell_length_c   13.12906429
_cell_angle_alpha   93.89566361
_cell_angle_beta   104.63188637
_cell_angle_gamma   106.49280000
_symmetry_Int_Tables_number   1
_chemical_formula_structural   BaH18C10SN2O9
_chemical_formula_sum   'Ba2 H36 C20 S2 N4 O18'
_cell_volume   866.34769740
_cell_formula_units_Z   2
loop_
 _symmetry_equiv_pos_site_id
 _symmetry_equiv_pos_as_xyz
  1  'x, y, z'
loop_
 _atom_site_type_symbol
 _atom_site_label
 _atom_site_symmetry_multiplicity
 _atom_site_fract_x
 _atom_site_fract_y
 _atom_site_fract_z
 _atom_site_occupancy
  Ba  Ba0  1  0.10451000  0.68266000  0.77324000  1.0
  Ba  Ba1  1  0.89548000  0.31734000  0.22675000  1.0
  H  H2  1  0.56113000  0.93726000  0.46060000  1.0
  H  H3  1  0.43889000  0.06274000  0.53940000  1.0
  H  H4  1  0.58439000  0.13271000  0.36994000  1.0
  H  H5  1  0.41562000  0.86729000  0.63006000  1.0
  H  H6  1  0.23755000  0.68699000  0.15831000  1.0
  H  H7  1  0.76247000  0.31301000  0.84169000  1.0
  H  H8  1  0.16201000  0.20381000  0.97401000  1.0
  H  H9  1  0.83799000  0.79618000  0.02600000  1.0
  H  H10  1  0.20418000  0.27740000  0.86069000  1.0
  H  H11  1  0.79582000  0.72260000  0.13932000  1.0
  H  H12  1  0.41144000  0.22551000  0.94306000  1.0
  H  H13  1  0.58855000  0.77449000  0.05694000  1.0
  H  H14  1  0.01078000  0.96355000  0.67907000  1.0
  H  H15  1  0.98924000  0.03646000  0.32094000  1.0
  H  H16  1  0.18699000  0.12713000  0.69276000  1.0
  H  H17  1  0.81302000  0.87287000  0.30724000  1.0
  H  H18  1  0.92448000  0.10230000  0.70635000  1.0
  H  H19  1  0.07552000  0.89770000  0.29365000  1.0
  H  H20  1  0.30795000  0.06150000  0.03704000  1.0
  H  H21  1  0.69205000  0.93850000  0.96296000  1.0
  H  H22  1  0.57937000  0.63620000  0.73264000  1.0
  H  H23  1  0.42062000  0.36380000  0.26735000  1.0
  H  H24  1  0.67029000  0.76406000  0.81423000  1.0
  H  H25  1  0.32969000  0.23593000  0.18576000  1.0
  H  H26  1  0.83336000  0.71868000  0.52143000  1.0
  H  H27  1  0.16663000  0.28132000  0.47858000  1.0
  H  H28  1  0.07175000  0.73255000  0.52206000  1.0
  H  H29  1  0.92824000  0.26747000  0.47794000  1.0
  H  H30  1  0.31701000  0.60913000  0.57850000  1.0
  H  H31  1  0.68298000  0.39087000  0.42149000  1.0
  H  H32  1  0.33968000  0.48257000  0.62686000  1.0
  H  H33  1  0.66031000  0.51743000  0.37314000  1.0
  H  H34  1  0.52182000  0.58985000  0.87094000  1.0
  H  H35  1  0.47818000  0.41015000  0.12906000  1.0
  H  H36  1  0.41720000  0.57970000  0.96575000  1.0
  H  H37  1  0.58279000  0.42030000  0.03424000  1.0
  C  C38  1  0.39382000  0.79991000  0.31516000  1.0
  C  C39  1  0.60620000  0.20009000  0.68485000  1.0
  C  C40  1  0.49550000  0.92615000  0.37452000  1.0
  C  C41  1  0.50450000  0.07385000  0.62548000  1.0
  C  C42  1  0.51144000  0.03500000  0.32336000  1.0
  C  C43  1  0.48857000  0.96500000  0.67664000  1.0
  C  C44  1  0.43383000  0.02398000  0.21067000  1.0
  C  C45  1  0.56618000  0.97602000  0.78933000  1.0
  C  C46  1  0.33526000  0.89378000  0.15154000  1.0
  C  C47  1  0.66475000  0.10622000  0.84846000  1.0
  C  C48  1  0.31652000  0.78440000  0.20508000  1.0
  C  C49  1  0.68350000  0.21560000  0.79492000  1.0
  C  C50  1  0.24746000  0.86600000  0.03417000  1.0
  C  C51  1  0.75254000  0.13401000  0.96583000  1.0
  C  C52  1  0.14819000  0.06851000  0.83997000  1.0
  C  C53  1  0.85181000  0.93149000  0.16003000  1.0
  C  C54  1  0.23452000  0.20092000  0.90779000  1.0
  C  C55  1  0.76549000  0.79907000  0.09222000  1.0
  C  C56  1  0.06197000  0.06290000  0.72289000  1.0
  C  C57  1  0.93805000  0.93710000  0.27712000  1.0
  S  S58  1  0.36909000  0.66309000  0.38258000  1.0
  S  S59  1  0.63090000  0.33691000  0.61742000  1.0
  N  N60  1  0.23382000  0.97202000  0.98584000  1.0
  N  N61  1  0.76619000  0.02798000  0.01416000  1.0
  N  N62  1  0.14954000  0.95977000  0.87742000  1.0
  N  N63  1  0.85047000  0.04024000  0.12259000  1.0
  O  O64  1  0.29397000  0.69579000  0.47474000  1.0
  O  O65  1  0.70600000  0.30421000  0.52525000  1.0
  O  O66  1  0.58921000  0.64917000  0.41899000  1.0
  O  O67  1  0.41077000  0.35082000  0.58102000  1.0
  O  O68  1  0.21512000  0.54974000  0.30679000  1.0
  O  O69  1  0.78488000  0.45026000  0.69320000  1.0
  O  O70  1  0.45792000  0.13003000  0.16449000  1.0
  O  O71  1  0.54207000  0.86996000  0.83551000  1.0
  O  O72  1  0.18733000  0.75126000  0.98422000  1.0
  O  O73  1  0.81267000  0.24873000  0.01579000  1.0
  O  O74  1  0.70269000  0.68057000  0.79765000  1.0
  O  O75  1  0.29731000  0.31943000  0.20235000  1.0
  O  O76  1  0.98347000  0.74546000  0.56897000  1.0
  O  O77  1  0.01652000  0.25455000  0.43103000  1.0
  O  O78  1  0.32428000  0.56980000  0.64525000  1.0
  O  O79  1  0.67572000  0.43021000  0.35474000  1.0
  O  O80  1  0.38559000  0.54904000  0.89012000  1.0
  O  O81  1  0.61440000  0.45095000  0.10987000  1.0
