# generated using pymatgen
data_CdH12C22S2(N7O)2
_symmetry_space_group_name_H-M   'P 1'
_cell_length_a   5.63871000
_cell_length_b   8.56291000
_cell_length_c   13.32302938
_cell_angle_alpha   108.28475265
_cell_angle_beta   94.86185366
_cell_angle_gamma   93.28150000
_symmetry_Int_Tables_number   1
_chemical_formula_structural   CdH12C22S2(N7O)2
_chemical_formula_sum   'Cd1 H12 C22 S2 N14 O2'
_cell_volume   606.21420528
_cell_formula_units_Z   1
loop_
 _symmetry_equiv_pos_site_id
 _symmetry_equiv_pos_as_xyz
  1  'x, y, z'
loop_
 _atom_site_type_symbol
 _atom_site_label
 _atom_site_symmetry_multiplicity
 _atom_site_fract_x
 _atom_site_fract_y
 _atom_site_fract_z
 _atom_site_occupancy
  Cd  Cd0  1  0.50000000  0.00001000  0.00000000  1.0
  H  H1  1  0.71804000  0.88063000  0.19259000  1.0
  H  H2  1  0.28197000  0.11938000  0.80741000  1.0
  H  H3  1  0.68547000  0.90303000  0.38537000  1.0
  H  H4  1  0.31453000  0.09697000  0.61463000  1.0
  H  H5  1  0.14834000  0.16941000  0.19710000  1.0
  H  H6  1  0.85166000  0.83059000  0.80290000  1.0
  H  H7  1  0.50357000  0.49326000  0.61439000  1.0
  H  H8  1  0.49644000  0.50673000  0.38560000  1.0
  H  H9  1  0.62787000  0.46310000  0.91946000  1.0
  H  H10  1  0.37213000  0.53691000  0.08054000  1.0
  H  H11  1  0.97687000  0.29773000  0.86593000  1.0
  H  H12  1  0.02313000  0.70227000  0.13407000  1.0
  C  C13  1  0.58352000  0.94985000  0.23725000  1.0
  C  C14  1  0.41648000  0.05015000  0.76275000  1.0
  C  C15  1  0.56466000  0.96282000  0.34351000  1.0
  C  C16  1  0.43534000  0.03718000  0.65649000  1.0
  C  C17  1  0.25236000  0.12083000  0.34508000  1.0
  C  C18  1  0.74764000  0.87916000  0.65491000  1.0
  C  C19  1  0.26952000  0.10939000  0.23844000  1.0
  C  C20  1  0.73048000  0.89060000  0.76155000  1.0
  C  C21  1  0.07165000  0.21435000  0.40328000  1.0
  C  C22  1  0.92835000  0.78564000  0.59672000  1.0
  C  C23  1  0.87123000  0.31613000  0.53413000  1.0
  C  C24  1  0.12876000  0.68387000  0.46587000  1.0
  C  C25  1  0.80304000  0.35497000  0.64156000  1.0
  C  C26  1  0.19696000  0.64502000  0.35844000  1.0
  C  C27  1  0.60897000  0.44909000  0.67114000  1.0
  C  C28  1  0.39103000  0.55090000  0.32885000  1.0
  C  C29  1  0.67730000  0.43280000  0.83850000  1.0
  C  C30  1  0.32271000  0.56720000  0.16150000  1.0
  C  C31  1  0.87141000  0.34018000  0.80874000  1.0
  C  C32  1  0.12859000  0.65983000  0.19127000  1.0
  C  C33  1  0.97996000  0.79306000  0.97652000  1.0
  C  C34  1  0.02002000  0.20695000  0.02349000  1.0
  S  S35  1  0.20771000  0.71366000  0.91868000  1.0
  S  S36  1  0.79229000  0.28635000  0.08133000  1.0
  N  N37  1  0.43583000  0.02332000  0.18518000  1.0
  N  N38  1  0.56418000  0.97668000  0.81482000  1.0
  N  N39  1  0.39953000  0.04794000  0.39779000  1.0
  N  N40  1  0.60046000  0.95205000  0.60221000  1.0
  N  N41  1  0.91132000  0.29789000  0.37056000  1.0
  N  N42  1  0.08868000  0.70211000  0.62944000  1.0
  N  N43  1  0.78158000  0.36396000  0.45532000  1.0
  N  N44  1  0.21841000  0.63604000  0.54468000  1.0
  N  N45  1  0.93520000  0.29960000  0.71024000  1.0
  N  N46  1  0.06480000  0.70040000  0.28976000  1.0
  N  N47  1  0.54675000  0.48811000  0.77015000  1.0
  N  N48  1  0.45325000  0.51189000  0.22985000  1.0
  N  N49  1  0.80948000  0.84576000  0.01771000  1.0
  N  N50  1  0.19054000  0.15423000  0.98229000  1.0
  O  O51  1  0.05620000  0.22054000  0.50641000  1.0
  O  O52  1  0.94379000  0.77945000  0.49358000  1.0
