# generated using pymatgen
data_Zn4C24S4N4Cl4O21
_symmetry_space_group_name_H-M   'P 1'
_cell_length_a   19.46560000
_cell_length_b   19.50030000
_cell_length_c   33.05880000
_cell_angle_alpha   79.34600000
_cell_angle_beta   79.44830000
_cell_angle_gamma   64.04010000
_symmetry_Int_Tables_number   1
_chemical_formula_structural   Zn4C24S4N4Cl4O21
_chemical_formula_sum   'Zn16 C96 S16 N16 Cl16 O84'
_cell_volume   11013.57694436
_cell_formula_units_Z   4
loop_
 _symmetry_equiv_pos_site_id
 _symmetry_equiv_pos_as_xyz
  1  'x, y, z'
loop_
 _atom_site_type_symbol
 _atom_site_label
 _atom_site_symmetry_multiplicity
 _atom_site_fract_x
 _atom_site_fract_y
 _atom_site_fract_z
 _atom_site_occupancy
  Zn  Zn0  1  0.59759000  0.94107000  0.52503000  1.0
  Zn  Zn1  1  0.51231000  0.01778000  0.44020000  1.0
  Zn  Zn2  1  0.44170000  0.93691000  0.51766000  1.0
  Zn  Zn3  1  0.45015000  0.10074000  0.52021000  1.0
  Zn  Zn4  1  0.64844000  0.30271000  0.73117000  1.0
  Zn  Zn5  1  0.81638000  0.30382000  0.73555000  1.0
  Zn  Zn6  1  0.73028000  0.23486000  0.81134000  1.0
  Zn  Zn7  1  0.80536000  0.15269000  0.72613000  1.0
  Zn  Zn8  1  0.23140000  0.73713000  0.31156000  1.0
  Zn  Zn9  1  0.30626000  0.65160000  0.22750000  1.0
  Zn  Zn10  1  0.14893000  0.80207000  0.23103000  1.0
  Zn  Zn11  1  0.31657000  0.80420000  0.23547000  1.0
  Zn  Zn12  1  0.94184000  0.43627000  0.01739000  1.0
  Zn  Zn13  1  0.94845000  0.60003000  0.02148000  1.0
  Zn  Zn14  1  0.09707000  0.44169000  0.02479000  1.0
  Zn  Zn15  1  0.00865000  0.52058000  0.94025000  1.0
  C  C16  1  0.67828000  0.93672000  0.44146000  1.0
  C  C17  1  0.42974000  0.93178000  0.43396000  1.0
  C  C18  1  0.56002000  0.81415000  0.56335000  1.0
  C  C19  1  0.32192000  0.06225000  0.55986000  1.0
  C  C20  1  0.57167000  0.06602000  0.56830000  1.0
  C  C21  1  0.44147000  0.18328000  0.43806000  1.0
  C  C22  1  0.69204000  0.42713000  0.69222000  1.0
  C  C23  1  0.81708000  0.31555000  0.82025000  1.0
  C  C24  1  0.56413000  0.30995000  0.81287000  1.0
  C  C25  1  0.80885000  0.07022000  0.80930000  1.0
  C  C26  1  0.68104000  0.18414000  0.68165000  1.0
  C  C27  1  0.93558000  0.18645000  0.68935000  1.0
  C  C28  1  0.31010000  0.57129000  0.31060000  1.0
  C  C29  1  0.18317000  0.68210000  0.18171000  1.0
  C  C30  1  0.06551000  0.80911000  0.31305000  1.0
  C  C31  1  0.19156000  0.92723000  0.19227000  1.0
  C  C32  1  0.31794000  0.81833000  0.31952000  1.0
  C  C33  1  0.43566000  0.68649000  0.18947000  1.0
  C  C34  1  0.82186000  0.56013000  0.06027000  1.0
  C  C35  1  0.07119000  0.56753000  0.06758000  1.0
  C  C36  1  0.06066000  0.31419000  0.06318000  1.0
  C  C37  1  0.17584000  0.43995000  0.94047000  1.0
  C  C38  1  0.92938000  0.43072000  0.93368000  1.0
  C  C39  1  0.93629000  0.68488000  0.93936000  1.0
  C  C40  1  0.59953000  0.09593000  0.59782000  1.0
  C  C41  1  0.65276000  0.15361000  0.65269000  1.0
  C  C42  1  0.55185000  0.16686000  0.61313000  1.0
  C  C43  1  0.69882000  0.08065000  0.63918000  1.0
  C  C44  1  0.57980000  0.19716000  0.63857000  1.0
  C  C45  1  0.67381000  0.05401000  0.61035000  1.0
  C  C46  1  0.40116000  0.90243000  0.40456000  1.0
  C  C47  1  0.34633000  0.84780000  0.34894000  1.0
  C  C48  1  0.35931000  0.85737000  0.41975000  1.0
  C  C49  1  0.38493000  0.89570000  0.33382000  1.0
  C  C50  1  0.33519000  0.82745000  0.39209000  1.0
  C  C51  1  0.41541000  0.91977000  0.36119000  1.0
  C  C52  1  0.54741000  0.68803000  0.59962000  1.0
  C  C53  1  0.70940000  0.54765000  0.65057000  1.0
  C  C54  1  0.58521000  0.73599000  0.58639000  1.0
  C  C55  1  0.67078000  0.50065000  0.66457000  1.0
  C  C56  1  0.66332000  0.61756000  0.62837000  1.0
  C  C57  1  0.59133000  0.62084000  0.62450000  1.0
  C  C58  1  0.42089000  0.27655000  0.36888000  1.0
  C  C59  1  0.32135000  0.47837000  0.37959000  1.0
  C  C60  1  0.41319000  0.25811000  0.41174000  1.0
  C  C61  1  0.33033000  0.49639000  0.33676000  1.0
  C  C62  1  0.35730000  0.39825000  0.39161000  1.0
  C  C63  1  0.39047000  0.35687000  0.35728000  1.0
  C  C64  1  0.77060000  0.92733000  0.37238000  1.0
  C  C65  1  0.97308000  0.82850000  0.38242000  1.0
  C  C66  1  0.75310000  0.91729000  0.41522000  1.0
  C  C67  1  0.99085000  0.83689000  0.33954000  1.0
  C  C68  1  0.89277000  0.85837000  0.39428000  1.0
  C  C69  1  0.85073000  0.89195000  0.36014000  1.0
  C  C70  1  0.19978000  0.16001000  0.60016000  1.0
  C  C71  1  0.05310000  0.09368000  0.64421000  1.0
  C  C72  1  0.24399000  0.09138000  0.58318000  1.0
  C  C73  1  0.00926000  0.16168000  0.66189000  1.0
  C  C74  1  0.12408000  0.09170000  0.62332000  1.0
  C  C75  1  0.13159000  0.15981000  0.62406000  1.0
  C  C76  1  0.84531000  0.34563000  0.84948000  1.0
  C  C77  1  0.90082000  0.40069000  0.90457000  1.0
  C  C78  1  0.83149000  0.32856000  0.89280000  1.0
  C  C79  1  0.91778000  0.41455000  0.86123000  1.0
  C  C80  1  0.85592000  0.35891000  0.92009000  1.0
  C  C81  1  0.88691000  0.39072000  0.83398000  1.0
  C  C82  1  0.47098000  0.33020000  0.88208000  1.0
  C  C83  1  0.26877000  0.43009000  0.87137000  1.0
  C  C84  1  0.48929000  0.33851000  0.83923000  1.0
  C  C85  1  0.25073000  0.42029000  0.91418000  1.0
  C  C86  1  0.34899000  0.39443000  0.85940000  1.0
  C  C87  1  0.39056000  0.36068000  0.89371000  1.0
  C  C88  1  0.87876000  0.92030000  0.82109000  1.0
  C  C89  1  0.87593000  0.83513000  0.92735000  1.0
  C  C90  1  0.83932000  0.99346000  0.83357000  1.0
  C  C91  1  0.91421000  0.76170000  0.91506000  1.0
  C  C92  1  0.85999000  0.89276000  0.89302000  1.0
  C  C93  1  0.88926000  0.86210000  0.85510000  1.0
  C  C94  1  0.15484000  0.65303000  0.15194000  1.0
  C  C95  1  0.10027000  0.59740000  0.09653000  1.0
  C  C96  1  0.08173000  0.69726000  0.13802000  1.0
  C  C97  1  0.17505000  0.55533000  0.10838000  1.0
  C  C98  1  0.05302000  0.66793000  0.11238000  1.0
  C  C99  1  0.20065000  0.58073000  0.13752000  1.0
  C  C100  1  0.55229000  0.59341000  0.14401000  1.0
  C  C101  1  0.69972000  0.65853000  0.09979000  1.0
  C  C102  1  0.50885000  0.66160000  0.16159000  1.0
  C  C103  1  0.74368000  0.58962000  0.08311000  1.0
  C  C104  1  0.63123000  0.65896000  0.12355000  1.0
  C  C105  1  0.62331000  0.59100000  0.12296000  1.0
  C  C106  1  0.20931000  0.04766000  0.15064000  1.0
  C  C107  1  0.04775000  0.18831000  0.09946000  1.0
  C  C108  1  0.17043000  0.00085000  0.16464000  1.0
  C  C109  1  0.08581000  0.23606000  0.08622000  1.0
  C  C110  1  0.09138000  0.12113000  0.12443000  1.0
  C  C111  1  0.16345000  0.11759000  0.12835000  1.0
  S  S112  1  0.67529000  0.69767000  0.60351000  1.0
  S  S113  1  0.57893000  0.54109000  0.64953000  1.0
  S  S114  1  0.36689000  0.33920000  0.43765000  1.0
  S  S115  1  0.38093000  0.41544000  0.31114000  1.0
  S  S116  1  0.83473000  0.86662000  0.44054000  1.0
  S  S117  1  0.90908000  0.88324000  0.31395000  1.0
  S  S118  1  0.20125000  0.02743000  0.59556000  1.0
  S  S119  1  0.05420000  0.22381000  0.65191000  1.0
  S  S120  1  0.40792000  0.38536000  0.81339000  1.0
  S  S121  1  0.33199000  0.36925000  0.93978000  1.0
  S  S122  1  0.81693000  0.99122000  0.88690000  1.0
  S  S123  1  0.93239000  0.76355000  0.86154000  1.0
  S  S124  1  0.55410000  0.72340000  0.15129000  1.0
  S  S125  1  0.70033000  0.52621000  0.09544000  1.0
  S  S126  1  0.07864000  0.04156000  0.14952000  1.0
  S  S127  1  0.17580000  0.19748000  0.10349000  1.0
  N  N128  1  0.47422000  0.69715000  0.58896000  1.0
  N  N129  1  0.78885000  0.53068000  0.65428000  1.0
  N  N130  1  0.44999000  0.22516000  0.33675000  1.0
  N  N131  1  0.27710000  0.53060000  0.41059000  1.0
  N  N132  1  0.71816000  0.97219000  0.34141000  1.0
  N  N133  1  0.02512000  0.79925000  0.41437000  1.0
  N  N134  1  0.21432000  0.22865000  0.59389000  1.0
  N  N135  1  0.03234000  0.03091000  0.64256000  1.0
  N  N136  1  0.52281000  0.29976000  0.91408000  1.0
  N  N137  1  0.21678000  0.47448000  0.84015000  1.0
  N  N138  1  0.91214000  0.90011000  0.77941000  1.0
  N  N139  1  0.85696000  0.85748000  0.96914000  1.0
  N  N140  1  0.53129000  0.53072000  0.14283000  1.0
  N  N141  1  0.71470000  0.72698000  0.09325000  1.0
  N  N142  1  0.28878000  0.03067000  0.15433000  1.0
  N  N143  1  0.97453000  0.19760000  0.08872000  1.0
  Cl  Cl144  1  0.45806000  0.21713000  0.60282000  1.0
  Cl  Cl145  1  0.78465000  0.02082000  0.65783000  1.0
  Cl  Cl146  1  0.52364000  0.28925000  0.65014000  1.0
  Cl  Cl147  1  0.73739000  0.97098000  0.59006000  1.0
  Cl  Cl148  1  0.33386000  0.83899000  0.47170000  1.0
  Cl  Cl149  1  0.39356000  0.92872000  0.28210000  1.0
  Cl  Cl150  1  0.29467000  0.76425000  0.41232000  1.0
  Cl  Cl151  1  0.47164000  0.96777000  0.33993000  1.0
  Cl  Cl152  1  0.78719000  0.26896000  0.91395000  1.0
  Cl  Cl153  1  0.97863000  0.45761000  0.84007000  1.0
  Cl  Cl154  1  0.82735000  0.34534000  0.97204000  1.0
  Cl  Cl155  1  0.89882000  0.42094000  0.78205000  1.0
  Cl  Cl156  1  0.02601000  0.78914000  0.15001000  1.0
  Cl  Cl157  1  0.23847000  0.47358000  0.08681000  1.0
  Cl  Cl158  1  0.95929000  0.71899000  0.10236000  1.0
  Cl  Cl159  1  0.28707000  0.52004000  0.15532000  1.0
  O  O160  1  0.50071000  0.99913000  0.50099000  1.0
  O  O161  1  0.68123000  0.93593000  0.47996000  1.0
  O  O162  1  0.43216000  0.99704000  0.42300000  1.0
  O  O163  1  0.48853000  0.85434000  0.56196000  1.0
  O  O164  1  0.62015000  0.94937000  0.42412000  1.0
  O  O165  1  0.61459000  0.83445000  0.54785000  1.0
  O  O166  1  0.44959000  0.88986000  0.46800000  1.0
  O  O167  1  0.33816000  0.00405000  0.54118000  1.0
  O  O168  1  0.53128000  0.11516000  0.54114000  1.0
  O  O169  1  0.36515000  0.09474000  0.56154000  1.0
  O  O170  1  0.59049000  0.99401000  0.57241000  1.0
  O  O171  1  0.49398000  0.12557000  0.42197000  1.0
  O  O172  1  0.41049000  0.18512000  0.47579000  1.0
  O  O173  1  0.74976000  0.24938000  0.75083000  1.0
  O  O174  1  0.65037000  0.39148000  0.69181000  1.0
  O  O175  1  0.86026000  0.29516000  0.78668000  1.0
  O  O176  1  0.62113000  0.25530000  0.82861000  1.0
  O  O177  1  0.74612000  0.40815000  0.71413000  1.0
  O  O178  1  0.56299000  0.34268000  0.77549000  1.0
  O  O179  1  0.75226000  0.31212000  0.83104000  1.0
  O  O180  1  0.79186000  0.12619000  0.82994000  1.0
  O  O181  1  0.75292000  0.16698000  0.67750000  1.0
  O  O182  1  0.79998000  0.07388000  0.77175000  1.0
  O  O183  1  0.63142000  0.22497000  0.70843000  1.0
  O  O184  1  0.90257000  0.25845000  0.69297000  1.0
  O  O185  1  0.91283000  0.13552000  0.70752000  1.0
  O  O186  1  0.25016000  0.74937000  0.25077000  1.0
  O  O187  1  0.29905000  0.62904000  0.32765000  1.0
  O  O188  1  0.25530000  0.66308000  0.17862000  1.0
  O  O189  1  0.06368000  0.84103000  0.27548000  1.0
  O  O190  1  0.30866000  0.56883000  0.27229000  1.0
  O  O191  1  0.12318000  0.75582000  0.32896000  1.0
  O  O192  1  0.13322000  0.72354000  0.20816000  1.0
  O  O193  1  0.15000000  0.89150000  0.19174000  1.0
  O  O194  1  0.36097000  0.79814000  0.28589000  1.0
  O  O195  1  0.24551000  0.90830000  0.21422000  1.0
  O  O196  1  0.25292000  0.81530000  0.33027000  1.0
  O  O197  1  0.41380000  0.63541000  0.20844000  1.0
  O  O198  1  0.40235000  0.75863000  0.19263000  1.0
  O  O199  1  0.00007000  0.49932000  0.00077000  1.0
  O  O200  1  0.83798000  0.50296000  0.04076000  1.0
  O  O201  1  0.02926000  0.61659000  0.04096000  1.0
  O  O202  1  0.11501000  0.33487000  0.04779000  1.0
  O  O203  1  0.86556000  0.59137000  0.06321000  1.0
  O  O204  1  0.98914000  0.35413000  0.06167000  1.0
  O  O205  1  0.09031000  0.49541000  0.07175000  1.0
  O  O206  1  0.17957000  0.43722000  0.97908000  1.0
  O  O207  1  0.93122000  0.49609000  0.92236000  1.0
  O  O208  1  0.11726000  0.45462000  0.92306000  1.0
  O  O209  1  0.94946000  0.38913000  0.96776000  1.0
  O  O210  1  0.90429000  0.68048000  0.97621000  1.0
  O  O211  1  0.98519000  0.62895000  0.91975000  1.0
  O  O212  1  0.44275000  0.65987000  0.61371000  1.0
  O  O213  1  0.45009000  0.73677000  0.55664000  1.0
  O  O214  1  0.80226000  0.58822000  0.65251000  1.0
  O  O215  1  0.83701000  0.46331000  0.65709000  1.0
  O  O216  1  0.47305000  0.25226000  0.30257000  1.0
  O  O217  1  0.44681000  0.16226000  0.34423000  1.0
  O  O218  1  0.29701000  0.50674000  0.44616000  1.0
  O  O219  1  0.22272000  0.59152000  0.40064000  1.0
  O  O220  1  0.74188000  0.95279000  0.30577000  1.0
  O  O221  1  0.65744000  0.02661000  0.35140000  1.0
  O  O222  1  0.99849000  0.77589000  0.44861000  1.0
  O  O223  1  0.08800000  0.80262000  0.40668000  1.0
  O  O224  1  0.18342000  0.27122000  0.62198000  1.0
  O  O225  1  0.25231000  0.24178000  0.56169000  1.0
  O  O226  1  0.08812000  0.96815000  0.63701000  1.0
  O  O227  1  0.96399000  0.04379000  0.64460000  1.0
  O  O228  1  0.49538000  0.27739000  0.94836000  1.0
  O  O229  1  0.58682000  0.30074000  0.90640000  1.0
  O  O230  1  0.24075000  0.45428000  0.80469000  1.0
  O  O231  1  0.15605000  0.52925000  0.84976000  1.0
  O  O232  1  0.92136000  0.83519000  0.77336000  1.0
  O  O233  1  0.93148000  0.94528000  0.75407000  1.0
  O  O234  1  0.80335000  0.92233000  0.97279000  1.0
  O  O235  1  0.89573000  0.81464000  0.99674000  1.0
  O  O236  1  0.58684000  0.46802000  0.13671000  1.0
  O  O237  1  0.46280000  0.54325000  0.14593000  1.0
  O  O238  1  0.68347000  0.77014000  0.12105000  1.0
  O  O239  1  0.75326000  0.73931000  0.06111000  1.0
  O  O240  1  0.30237000  0.08829000  0.15191000  1.0
  O  O241  1  0.33681000  0.96330000  0.15773000  1.0
  O  O242  1  0.94255000  0.16099000  0.11362000  1.0
  O  O243  1  0.95089000  0.23667000  0.05618000  1.0
