# generated using pymatgen
data_CdH16C12N2O9
_symmetry_space_group_name_H-M   'P 1'
_cell_length_a   4.98731000
_cell_length_b   4.98732000
_cell_length_c   30.41970000
_cell_angle_alpha   90.00080000
_cell_angle_beta   90.00060000
_cell_angle_gamma   88.01370000
_symmetry_Int_Tables_number   1
_chemical_formula_structural   CdH16C12N2O9
_chemical_formula_sum   'Cd2 H32 C24 N4 O18'
_cell_volume   756.18402433
_cell_formula_units_Z   2
loop_
 _symmetry_equiv_pos_site_id
 _symmetry_equiv_pos_as_xyz
  1  'x, y, z'
loop_
 _atom_site_type_symbol
 _atom_site_label
 _atom_site_symmetry_multiplicity
 _atom_site_fract_x
 _atom_site_fract_y
 _atom_site_fract_z
 _atom_site_occupancy
  Cd  Cd0  1  0.75582000  0.24421000  0.25000000  1.0
  Cd  Cd1  1  0.24418000  0.75582000  0.75000000  1.0
  H  H2  1  0.31502000  0.08268000  0.30673000  1.0
  H  H3  1  0.68499000  0.91733000  0.80673000  1.0
  H  H4  1  0.91734000  0.68502000  0.19327000  1.0
  H  H5  1  0.08265000  0.31501000  0.69327000  1.0
  H  H6  1  0.60272000  0.90948000  0.32019000  1.0
  H  H7  1  0.39728000  0.09053000  0.82019000  1.0
  H  H8  1  0.09054000  0.39730000  0.17981000  1.0
  H  H9  1  0.90944000  0.60271000  0.67981000  1.0
  H  H10  1  0.44652000  0.72928000  0.26734000  1.0
  H  H11  1  0.55348000  0.27073000  0.76734000  1.0
  H  H12  1  0.27073000  0.55351000  0.23267000  1.0
  H  H13  1  0.72926000  0.44651000  0.73266000  1.0
  H  H14  1  0.19758000  0.24715000  0.38484000  1.0
  H  H15  1  0.80249000  0.75287000  0.88484000  1.0
  H  H16  1  0.75283000  0.80246000  0.11517000  1.0
  H  H17  1  0.24712000  0.19746000  0.61515000  1.0
  H  H18  1  0.44234000  0.42173000  0.35496000  1.0
  H  H19  1  0.55768000  0.57831000  0.85496000  1.0
  H  H20  1  0.57827000  0.55770000  0.14504000  1.0
  H  H21  1  0.42164000  0.44227000  0.64503000  1.0
  H  H22  1  0.42535000  0.09739000  0.44037000  1.0
  H  H23  1  0.57467000  0.90260000  0.94036000  1.0
  H  H24  1  0.90260000  0.57468000  0.05964000  1.0
  H  H25  1  0.09736000  0.42533000  0.55963000  1.0
  H  H26  1  0.42974000  0.42976000  0.50000000  1.0
  H  H27  1  0.57027000  0.57029000  0.00000000  1.0
  H  H28  1  0.73975000  0.73971000  0.50000000  1.0
  H  H29  1  0.26027000  0.26027000  1.00000000  1.0
  H  H30  1  0.43374000  0.69593000  0.41240000  1.0
  H  H31  1  0.56628000  0.30409000  0.91240000  1.0
  H  H32  1  0.30405000  0.56628000  0.08760000  1.0
  H  H33  1  0.69591000  0.43370000  0.58760000  1.0
  C  C34  1  0.03913000  0.47065000  0.33139000  1.0
  C  C35  1  0.96088000  0.52932000  0.83139000  1.0
  C  C36  1  0.52933000  0.96090000  0.16861000  1.0
  C  C37  1  0.47065000  0.03910000  0.66861000  1.0
  C  C38  1  0.24012000  0.44042000  0.36921000  1.0
  C  C39  1  0.75991000  0.55960000  0.86921000  1.0
  C  C40  1  0.55956000  0.75991000  0.13079000  1.0
  C  C41  1  0.44039000  0.24004000  0.63078000  1.0
  C  C42  1  0.03164000  0.70715000  0.42810000  1.0
  C  C43  1  0.96840000  0.29286000  0.92811000  1.0
  C  C44  1  0.29281000  0.96841000  0.07190000  1.0
  C  C45  1  0.70714000  0.03160000  0.57189000  1.0
  C  C46  1  0.07148000  0.90125000  0.46494000  1.0
  C  C47  1  0.92857000  0.09877000  0.96495000  1.0
  C  C48  1  0.09874000  0.92855000  0.03506000  1.0
  C  C49  1  0.90123000  0.07144000  0.53505000  1.0
  C  C50  1  0.27320000  0.09046000  0.46603000  1.0
  C  C51  1  0.72681000  0.90957000  0.96603000  1.0
  C  C52  1  0.90955000  0.72680000  0.03397000  1.0
  C  C53  1  0.09045000  0.27316000  0.53397000  1.0
  C  C54  1  0.27800000  0.27802000  0.50000000  1.0
  C  C55  1  0.72199000  0.72201000  1.00000000  1.0
  C  C56  1  0.89126000  0.89127000  0.50000000  1.0
  C  C57  1  0.10876000  0.10871000  0.00000000  1.0
  N  N58  1  0.24507000  0.65291000  0.40154000  1.0
  N  N59  1  0.75496000  0.34709000  0.90155000  1.0
  N  N60  1  0.34708000  0.75496000  0.09846000  1.0
  N  N61  1  0.65290000  0.24502000  0.59845000  1.0
  O  O62  1  0.04308000  0.25668000  0.30664000  1.0
  O  O63  1  0.95694000  0.74331000  0.80664000  1.0
  O  O64  1  0.74332000  0.95694000  0.19337000  1.0
  O  O65  1  0.25667000  0.04307000  0.69336000  1.0
  O  O66  1  0.89227000  0.67303000  0.32547000  1.0
  O  O67  1  0.10772000  0.32694000  0.82547000  1.0
  O  O68  1  0.32696000  0.10773000  0.17453000  1.0
  O  O69  1  0.67302000  0.89224000  0.67452000  1.0
  O  O70  1  0.81079000  0.60085000  0.42263000  1.0
  O  O71  1  0.18926000  0.39912000  0.92263000  1.0
  O  O72  1  0.39913000  0.18925000  0.07737000  1.0
  O  O73  1  0.60088000  0.81073000  0.57737000  1.0
  O  O74  1  0.49040000  0.99104000  0.29684000  1.0
  O  O75  1  0.50961000  0.00897000  0.79684000  1.0
  O  O76  1  0.00897000  0.50963000  0.20316000  1.0
  O  O77  1  0.99101000  0.49039000  0.70316000  1.0
  O  O78  1  0.44019000  0.55981000  0.25000000  1.0
  O  O79  1  0.55980000  0.44020000  0.75000000  1.0
