# generated using pymatgen
data_ZnH9C13SN3O4
_symmetry_space_group_name_H-M   'P 1'
_cell_length_a   7.92011000
_cell_length_b   13.57500000
_cell_length_c   13.69880000
_cell_angle_alpha   90.00000000
_cell_angle_beta   98.40900000
_cell_angle_gamma   90.00000000
_symmetry_Int_Tables_number   1
_chemical_formula_structural   ZnH9C13SN3O4
_chemical_formula_sum   'Zn4 H36 C52 S4 N12 O16'
_cell_volume   1456.99935975
_cell_formula_units_Z   4
loop_
 _symmetry_equiv_pos_site_id
 _symmetry_equiv_pos_as_xyz
  1  'x, y, z'
loop_
 _atom_site_type_symbol
 _atom_site_label
 _atom_site_symmetry_multiplicity
 _atom_site_fract_x
 _atom_site_fract_y
 _atom_site_fract_z
 _atom_site_occupancy
  Zn  Zn0  1  0.44223000  0.57583000  0.69037000  1.0
  Zn  Zn1  1  0.05776000  0.07583000  0.30962000  1.0
  Zn  Zn2  1  0.55776000  0.42417000  0.30962000  1.0
  Zn  Zn3  1  0.94225000  0.92417000  0.69038000  1.0
  H  H4  1  0.34270000  0.57417000  0.06626000  1.0
  H  H5  1  0.15730000  0.07417000  0.93374000  1.0
  H  H6  1  0.65730000  0.42583000  0.93375000  1.0
  H  H7  1  0.84270000  0.92583000  0.06625000  1.0
  H  H8  1  0.25583000  0.68886000  0.19601000  1.0
  H  H9  1  0.24417000  0.18886000  0.80399000  1.0
  H  H10  1  0.74417000  0.31114000  0.80399000  1.0
  H  H11  1  0.75583000  0.81114000  0.19600000  1.0
  H  H12  1  0.19832000  0.92452000  0.00307000  1.0
  H  H13  1  0.30168000  0.42452000  0.99693000  1.0
  H  H14  1  0.80168000  0.07548000  0.99693000  1.0
  H  H15  1  0.69833000  0.57548000  0.00307000  1.0
  H  H16  1  0.28054000  0.81850000  0.86226000  1.0
  H  H17  1  0.21946000  0.31851000  0.13773000  1.0
  H  H18  1  0.71946000  0.18149000  0.13774000  1.0
  H  H19  1  0.78055000  0.68149000  0.86226000  1.0
  H  H20  1  0.48585000  0.79403000  0.66252000  1.0
  H  H21  1  0.01414000  0.29403000  0.33748000  1.0
  H  H22  1  0.51415000  0.20597000  0.33748000  1.0
  H  H23  1  0.98586000  0.70597000  0.66252000  1.0
  H  H24  1  0.37888000  0.91943000  0.53418000  1.0
  H  H25  1  0.12112000  0.41943000  0.46582000  1.0
  H  H26  1  0.62113000  0.08057000  0.46582000  1.0
  H  H27  1  0.87888000  0.58057000  0.53419000  1.0
  H  H28  1  0.17889000  0.68055000  0.34408000  1.0
  H  H29  1  0.32110000  0.18055000  0.65591000  1.0
  H  H30  1  0.82111000  0.31945000  0.65591000  1.0
  H  H31  1  0.67890000  0.81945000  0.34409000  1.0
  H  H32  1  0.30156000  0.56371000  0.47802000  1.0
  H  H33  1  0.19843000  0.06371000  0.52197000  1.0
  H  H34  1  0.69843000  0.43629000  0.52197000  1.0
  H  H35  1  0.80157000  0.93629000  0.47803000  1.0
  H  H36  1  0.18654000  0.84885000  0.15694000  1.0
  H  H37  1  0.31346000  0.34885000  0.84306000  1.0
  H  H38  1  0.81346000  0.15115000  0.84306000  1.0
  H  H39  1  0.68655000  0.65115000  0.15694000  1.0
  C  C40  1  0.36083000  0.62096000  0.87418000  1.0
  C  C41  1  0.13917000  0.12096000  0.12582000  1.0
  C  C42  1  0.63917000  0.37904000  0.12582000  1.0
  C  C43  1  0.86084000  0.87904000  0.87418000  1.0
  C  C44  1  0.31209000  0.68799000  0.95391000  1.0
  C  C45  1  0.18792000  0.18799000  0.04609000  1.0
  C  C46  1  0.68792000  0.31201000  0.04609000  1.0
  C  C47  1  0.81209000  0.81201000  0.95390000  1.0
  C  C48  1  0.30753000  0.65026000  0.04856000  1.0
  C  C49  1  0.19247000  0.15027000  0.95144000  1.0
  C  C50  1  0.69247000  0.34973000  0.95144000  1.0
  C  C51  1  0.80753000  0.84973000  0.04855000  1.0
  C  C52  1  0.26275000  0.71202000  0.12091000  1.0
  C  C53  1  0.23725000  0.21202000  0.87909000  1.0
  C  C54  1  0.73725000  0.28798000  0.87909000  1.0
  C  C55  1  0.76275000  0.78798000  0.12091000  1.0
  C  C56  1  0.23197000  0.84687000  0.01018000  1.0
  C  C57  1  0.26803000  0.34687000  0.98982000  1.0
  C  C58  1  0.76804000  0.15313000  0.98983000  1.0
  C  C59  1  0.73197000  0.65313000  0.01017000  1.0
  C  C60  1  0.27541000  0.78784000  0.93513000  1.0
  C  C61  1  0.22459000  0.28784000  0.06487000  1.0
  C  C62  1  0.72459000  0.21216000  0.06487000  1.0
  C  C63  1  0.77541000  0.71216000  0.93513000  1.0
  C  C64  1  0.41999000  0.77191000  0.59033000  1.0
  C  C65  1  0.08000000  0.27191000  0.40967000  1.0
  C  C66  1  0.58001000  0.22809000  0.40967000  1.0
  C  C67  1  0.92000000  0.72809000  0.59033000  1.0
  C  C68  1  0.35973000  0.84125000  0.51909000  1.0
  C  C69  1  0.14027000  0.34125000  0.48091000  1.0
  C  C70  1  0.64027000  0.15875000  0.48091000  1.0
  C  C71  1  0.85973000  0.65875000  0.51909000  1.0
  C  C72  1  0.27037000  0.80922000  0.42903000  1.0
  C  C73  1  0.22963000  0.30922000  0.57097000  1.0
  C  C74  1  0.72963000  0.19078000  0.57097000  1.0
  C  C75  1  0.77037000  0.69078000  0.42903000  1.0
  C  C76  1  0.19115000  0.88133000  0.35176000  1.0
  C  C77  1  0.30884000  0.38134000  0.64824000  1.0
  C  C78  1  0.80885000  0.11866000  0.64824000  1.0
  C  C79  1  0.69115000  0.61867000  0.35176000  1.0
  C  C80  1  0.25018000  0.70807000  0.41263000  1.0
  C  C81  1  0.24981000  0.20807000  0.58737000  1.0
  C  C82  1  0.74982000  0.29193000  0.58737000  1.0
  C  C83  1  0.75019000  0.79193000  0.41263000  1.0
  C  C84  1  0.31600000  0.64312000  0.48671000  1.0
  C  C85  1  0.18399000  0.14312000  0.51329000  1.0
  C  C86  1  0.68399000  0.35688000  0.51329000  1.0
  C  C87  1  0.81601000  0.85688000  0.48671000  1.0
  C  C88  1  0.81804000  0.51673000  0.75415000  1.0
  C  C89  1  0.68195000  0.01673000  0.24586000  1.0
  C  C90  1  0.18194000  0.48327000  0.24586000  1.0
  C  C91  1  0.31805000  0.98327000  0.75415000  1.0
  S  S92  1  0.00867000  0.48841000  0.80242000  1.0
  S  S93  1  0.49131000  0.98841000  0.19760000  1.0
  S  S94  1  0.99131000  0.51159000  0.19759000  1.0
  S  S95  1  0.50869000  0.01159000  0.80242000  1.0
  N  N96  1  0.22507000  0.80709000  0.09971000  1.0
  N  N97  1  0.27494000  0.30709000  0.90029000  1.0
  N  N98  1  0.77494000  0.19291000  0.90030000  1.0
  N  N99  1  0.72507000  0.69291000  0.09970000  1.0
  N  N100  1  0.39671000  0.67450000  0.57473000  1.0
  N  N101  1  0.10328000  0.17450000  0.42526000  1.0
  N  N102  1  0.60328000  0.32550000  0.42526000  1.0
  N  N103  1  0.89672000  0.82550000  0.57474000  1.0
  N  N104  1  0.67760000  0.53865000  0.71754000  1.0
  N  N105  1  0.82239000  0.03864000  0.28246000  1.0
  N  N106  1  0.32238000  0.46136000  0.28246000  1.0
  N  N107  1  0.17762000  0.96136000  0.71754000  1.0
  O  O108  1  0.36143000  0.66269000  0.78951000  1.0
  O  O109  1  0.13856000  0.16270000  0.21048000  1.0
  O  O110  1  0.63856000  0.33731000  0.21049000  1.0
  O  O111  1  0.86144000  0.83730000  0.78951000  1.0
  O  O112  1  0.39866000  0.53339000  0.89463000  1.0
  O  O113  1  0.10133000  0.03339000  0.10536000  1.0
  O  O114  1  0.60134000  0.46661000  0.10537000  1.0
  O  O115  1  0.89866000  0.96661000  0.89463000  1.0
  O  O116  1  0.20163000  0.97201000  0.37893000  1.0
  O  O117  1  0.29836000  0.47202000  0.62107000  1.0
  O  O118  1  0.79837000  0.02799000  0.62107000  1.0
  O  O119  1  0.70163000  0.52799000  0.37893000  1.0
  O  O120  1  0.11979000  0.84896000  0.27037000  1.0
  O  O121  1  0.38021000  0.34896000  0.72962000  1.0
  O  O122  1  0.88021000  0.15104000  0.72963000  1.0
  O  O123  1  0.61980000  0.65104000  0.27038000  1.0
