# generated using pymatgen
data_Cu2H9C13N4Cl
_symmetry_space_group_name_H-M   'P 1'
_cell_length_a   8.71506000
_cell_length_b   9.17627000
_cell_length_c   9.76455000
_cell_angle_alpha   62.82990000
_cell_angle_beta   76.00460000
_cell_angle_gamma   64.63770000
_symmetry_Int_Tables_number   1
_chemical_formula_structural   Cu2H9C13N4Cl
_chemical_formula_sum   'Cu4 H18 C26 N8 Cl2'
_cell_volume   626.72205089
_cell_formula_units_Z   2
loop_
 _symmetry_equiv_pos_site_id
 _symmetry_equiv_pos_as_xyz
  1  'x, y, z'
loop_
 _atom_site_type_symbol
 _atom_site_label
 _atom_site_symmetry_multiplicity
 _atom_site_fract_x
 _atom_site_fract_y
 _atom_site_fract_z
 _atom_site_occupancy
  Cu  Cu0  1  0.72991000  0.18851000  0.08040000  1.0
  Cu  Cu1  1  0.27010000  0.81149000  0.91960000  1.0
  Cu  Cu2  1  0.73739000  0.01223000  0.45483000  1.0
  Cu  Cu3  1  0.26260000  0.98777000  0.54517000  1.0
  H  H4  1  0.90944000  0.71866000  0.99617000  1.0
  H  H5  1  0.09056000  0.28134000  0.00382000  1.0
  H  H6  1  0.91374000  0.91404000  0.71980000  1.0
  H  H7  1  0.08626000  0.08596000  0.28019000  1.0
  H  H8  1  0.62137000  0.72059000  0.62113000  1.0
  H  H9  1  0.37863000  0.27941000  0.37887000  1.0
  H  H10  1  0.60531000  0.51553000  0.89432000  1.0
  H  H11  1  0.39470000  0.48447000  0.10569000  1.0
  H  H12  1  0.79008000  0.60879000  0.26343000  1.0
  H  H13  1  0.20993000  0.39121000  0.73658000  1.0
  H  H14  1  0.98592000  0.34546000  0.54185000  1.0
  H  H15  1  0.01407000  0.65454000  0.45815000  1.0
  H  H16  1  0.97636000  0.25959000  0.82250000  1.0
  H  H17  1  0.02364000  0.74042000  0.17750000  1.0
  H  H18  1  0.53874000  0.15216000  0.89711000  1.0
  H  H19  1  0.46127000  0.84783000  0.10289000  1.0
  H  H20  1  0.52854000  0.23583000  0.61947000  1.0
  H  H21  1  0.47146000  0.76416000  0.38053000  1.0
  C  C22  1  0.84186000  0.71503000  0.91821000  1.0
  C  C23  1  0.15814000  0.28497000  0.08179000  1.0
  C  C24  1  0.84521000  0.82486000  0.76338000  1.0
  C  C25  1  0.15478000  0.17514000  0.23662000  1.0
  C  C26  1  0.68426000  0.71511000  0.70815000  1.0
  C  C27  1  0.31575000  0.28489000  0.29185000  1.0
  C  C28  1  0.67543000  0.60126000  0.86136000  1.0
  C  C29  1  0.32457000  0.39874000  0.13864000  1.0
  C  C30  1  0.75644000  0.59731000  0.97199000  1.0
  C  C31  1  0.24356000  0.40269000  0.02801000  1.0
  C  C32  1  0.75388000  0.47864000  0.13380000  1.0
  C  C33  1  0.24613000  0.52136000  0.86620000  1.0
  C  C34  1  0.77511000  0.49786000  0.26211000  1.0
  C  C35  1  0.22490000  0.50213000  0.73789000  1.0
  C  C36  1  0.75446000  0.35189000  0.38946000  1.0
  C  C37  1  0.24554000  0.64811000  0.61054000  1.0
  C  C38  1  0.75462000  0.30364000  0.55405000  1.0
  C  C39  1  0.24538000  0.69636000  0.44594000  1.0
  C  C40  1  0.88147000  0.30851000  0.61540000  1.0
  C  C41  1  0.11853000  0.69149000  0.38460000  1.0
  C  C42  1  0.87763000  0.25900000  0.77286000  1.0
  C  C43  1  0.12236000  0.74100000  0.22714000  1.0
  C  C44  1  0.63438000  0.19797000  0.81440000  1.0
  C  C45  1  0.36562000  0.80202000  0.18561000  1.0
  C  C46  1  0.62967000  0.24536000  0.65833000  1.0
  C  C47  1  0.37032000  0.75463000  0.34168000  1.0
  N  N48  1  0.76709000  0.82749000  0.65748000  1.0
  N  N49  1  0.23291000  0.17252000  0.34252000  1.0
  N  N50  1  0.72730000  0.32529000  0.18321000  1.0
  N  N51  1  0.27270000  0.67471000  0.81679000  1.0
  N  N52  1  0.72679000  0.24858000  0.33969000  1.0
  N  N53  1  0.27321000  0.75142000  0.66031000  1.0
  N  N54  1  0.75516000  0.20611000  0.87300000  1.0
  N  N55  1  0.24484000  0.79389000  0.12700000  1.0
  Cl  Cl56  1  0.68737000  0.93433000  0.27114000  1.0
  Cl  Cl57  1  0.31263000  0.06567000  0.72886000  1.0
