# generated using pymatgen
data_TmH8C6O7
_symmetry_space_group_name_H-M   'P 1'
_cell_length_a   7.56885000
_cell_length_b   10.62680000
_cell_length_c   12.58970000
_cell_angle_alpha   72.15810000
_cell_angle_beta   72.51340000
_cell_angle_gamma   69.14960000
_symmetry_Int_Tables_number   1
_chemical_formula_structural   TmH8C6O7
_chemical_formula_sum   'Tm4 H32 C24 O28'
_cell_volume   879.69276578
_cell_formula_units_Z   4
loop_
 _symmetry_equiv_pos_site_id
 _symmetry_equiv_pos_as_xyz
  1  'x, y, z'
loop_
 _atom_site_type_symbol
 _atom_site_label
 _atom_site_symmetry_multiplicity
 _atom_site_fract_x
 _atom_site_fract_y
 _atom_site_fract_z
 _atom_site_occupancy
  Tm  Tm0  1  0.55460000  0.68929000  0.77034000  1.0
  Tm  Tm1  1  0.01421000  0.81068000  0.72969000  1.0
  Tm  Tm2  1  0.44541000  0.31071000  0.22966000  1.0
  Tm  Tm3  1  0.98579000  0.18932000  0.27031000  1.0
  H  H4  1  0.34497000  0.63810000  0.46736000  1.0
  H  H5  1  0.45034000  0.86193000  0.03253000  1.0
  H  H6  1  0.65504000  0.36190000  0.53264000  1.0
  H  H7  1  0.54966000  0.13807000  0.96747000  1.0
  H  H8  1  0.30029000  0.50269000  0.58150000  1.0
  H  H9  1  0.38463000  0.99740000  0.91836000  1.0
  H  H10  1  0.69971000  0.49732000  0.41849000  1.0
  H  H11  1  0.61537000  0.00260000  0.08164000  1.0
  H  H12  1  0.98700000  0.86404000  0.04075000  1.0
  H  H13  1  0.89177000  0.63597000  0.45923000  1.0
  H  H14  1  0.01300000  0.13595000  0.95925000  1.0
  H  H15  1  0.10823000  0.36403000  0.54077000  1.0
  H  H16  1  0.13284000  0.74205000  0.13752000  1.0
  H  H17  1  0.01241000  0.75796000  0.36246000  1.0
  H  H18  1  0.86716000  0.25795000  0.86248000  1.0
  H  H19  1  0.98759000  0.24205000  0.63754000  1.0
  H  H20  1  0.80735000  0.70161000  0.15096000  1.0
  H  H21  1  0.66000000  0.79837000  0.34890000  1.0
  H  H22  1  0.19265000  0.29839000  0.84904000  1.0
  H  H23  1  0.34000000  0.20163000  0.65110000  1.0
  H  H24  1  0.90238000  0.66350000  0.01536000  1.0
  H  H25  1  0.58129000  0.83654000  0.48448000  1.0
  H  H26  1  0.09762000  0.33650000  0.98464000  1.0
  H  H27  1  0.41871000  0.16346000  0.51552000  1.0
  H  H28  1  0.30608000  0.50662000  0.85146000  1.0
  H  H29  1  0.66416000  0.99329000  0.64856000  1.0
  H  H30  1  0.69392000  0.49338000  0.14854000  1.0
  H  H31  1  0.33584000  0.00671000  0.35144000  1.0
  H  H32  1  0.49251000  0.42428000  0.91188000  1.0
  H  H33  1  0.82866000  0.07565000  0.58819000  1.0
  H  H34  1  0.50749000  0.57572000  0.08812000  1.0
  H  H35  1  0.17134000  0.92435000  0.41181000  1.0
  C  C36  1  0.41498000  0.55083000  0.52938000  1.0
  C  C37  1  0.49523000  0.94920000  0.97056000  1.0
  C  C38  1  0.58502000  0.44918000  0.47061000  1.0
  C  C39  1  0.50477000  0.05080000  0.02944000  1.0
  C  C40  1  0.47066000  0.60725000  0.60614000  1.0
  C  C41  1  0.68412000  0.89278000  0.89388000  1.0
  C  C42  1  0.52934000  0.39275000  0.39386000  1.0
  C  C43  1  0.31587000  0.10722000  0.10612000  1.0
  C  C44  1  0.24147000  0.73157000  0.96267000  1.0
  C  C45  1  0.93565000  0.76852000  0.53728000  1.0
  C  C46  1  0.75853000  0.26843000  0.03733000  1.0
  C  C47  1  0.06436000  0.23148000  0.46272000  1.0
  C  C48  1  0.07436000  0.75613000  0.06355000  1.0
  C  C49  1  0.89400000  0.74391000  0.43641000  1.0
  C  C50  1  0.92564000  0.24387000  0.93645000  1.0
  C  C51  1  0.10600000  0.25609000  0.56359000  1.0
  C  C52  1  0.03512000  0.51269000  0.14698000  1.0
  C  C53  1  0.69491000  0.98734000  0.35292000  1.0
  C  C54  1  0.96488000  0.48731000  0.85302000  1.0
  C  C55  1  0.30509000  0.01266000  0.64708000  1.0
  C  C56  1  0.94414000  0.66249000  0.09214000  1.0
  C  C57  1  0.69878000  0.83752000  0.40773000  1.0
  C  C58  1  0.05587000  0.33751000  0.90786000  1.0
  C  C59  1  0.30122000  0.16248000  0.59227000  1.0
  O  O60  1  0.21205000  0.76599000  0.86081000  1.0
  O  O61  1  0.83876000  0.73406000  0.63915000  1.0
  O  O62  1  0.78795000  0.23401000  0.13920000  1.0
  O  O63  1  0.16124000  0.26594000  0.36085000  1.0
  O  O64  1  0.20425000  0.48130000  0.16207000  1.0
  O  O65  1  0.84779000  0.01866000  0.33779000  1.0
  O  O66  1  0.79575000  0.51869000  0.83793000  1.0
  O  O67  1  0.15221000  0.98134000  0.66222000  1.0
  O  O68  1  0.44613000  0.49043000  0.84369000  1.0
  O  O69  1  0.78023000  0.00947000  0.65636000  1.0
  O  O70  1  0.55387000  0.50958000  0.15631000  1.0
  O  O71  1  0.21977000  0.99053000  0.34364000  1.0
  O  O72  1  0.34012000  0.69697000  0.66053000  1.0
  O  O73  1  0.69775000  0.80299000  0.83951000  1.0
  O  O74  1  0.65988000  0.30303000  0.33947000  1.0
  O  O75  1  0.30225000  0.19701000  0.16049000  1.0
  O  O76  1  0.93464000  0.42815000  0.17412000  1.0
  O  O77  1  0.53698000  0.07193000  0.32593000  1.0
  O  O78  1  0.06536000  0.57185000  0.82588000  1.0
  O  O79  1  0.46302000  0.92807000  0.67407000  1.0
  O  O80  1  0.41587000  0.67992000  0.97428000  1.0
  O  O81  1  0.06994000  0.82021000  0.52572000  1.0
  O  O82  1  0.58413000  0.32008000  0.02572000  1.0
  O  O83  1  0.93006000  0.17979000  0.47428000  1.0
  O  O84  1  0.64218000  0.56943000  0.61925000  1.0
  O  O85  1  0.83088000  0.93063000  0.88083000  1.0
  O  O86  1  0.35782000  0.43058000  0.38075000  1.0
  O  O87  1  0.16912000  0.06937000  0.11917000  1.0
