# generated using pymatgen
data_Cu2H19C17S2N2O7
_symmetry_space_group_name_H-M   'P 1'
_cell_length_a   10.95530000
_cell_length_b   11.01890000
_cell_length_c   11.51440000
_cell_angle_alpha   69.55040000
_cell_angle_beta   84.28980000
_cell_angle_gamma   70.53730000
_symmetry_Int_Tables_number   1
_chemical_formula_structural   Cu2H19C17S2N2O7
_chemical_formula_sum   'Cu4 H38 C34 S4 N4 O14'
_cell_volume   1227.72483734
_cell_formula_units_Z   2
loop_
 _symmetry_equiv_pos_site_id
 _symmetry_equiv_pos_as_xyz
  1  'x, y, z'
loop_
 _atom_site_type_symbol
 _atom_site_label
 _atom_site_symmetry_multiplicity
 _atom_site_fract_x
 _atom_site_fract_y
 _atom_site_fract_z
 _atom_site_occupancy
  Cu  Cu0  1  0.56584000  0.07088000  0.39390000  1.0
  Cu  Cu1  1  0.43416000  0.92911000  0.60610000  1.0
  Cu  Cu2  1  0.74033000  0.87983000  0.61996000  1.0
  Cu  Cu3  1  0.25964000  0.12019000  0.38002000  1.0
  H  H4  1  0.38731000  0.25879000  0.18464000  1.0
  H  H5  1  0.61272000  0.74121000  0.81536000  1.0
  H  H6  1  0.32143000  0.50613000  0.06456000  1.0
  H  H7  1  0.67859000  0.49388000  0.93544000  1.0
  H  H8  1  0.61241000  0.53446000  0.27541000  1.0
  H  H9  1  0.38759000  0.46556000  0.72461000  1.0
  H  H10  1  0.65548000  0.28688000  0.39474000  1.0
  H  H11  1  0.34452000  0.71313000  0.60528000  1.0
  H  H12  1  0.33553000  0.67593000  0.92420000  1.0
  H  H13  1  0.66452000  0.32406000  0.07579000  1.0
  H  H14  1  0.31641000  0.85262000  0.88939000  1.0
  H  H15  1  0.68362000  0.14736000  0.11061000  1.0
  H  H16  1  0.19080000  0.76768000  0.77736000  1.0
  H  H17  1  0.80921000  0.23231000  0.22264000  1.0
  H  H18  1  0.02109000  0.81328000  0.62542000  1.0
  H  H19  1  0.97892000  0.18672000  0.37458000  1.0
  H  H20  1  0.72746000  0.88874000  0.87156000  1.0
  H  H21  1  0.27256000  0.11127000  0.12844000  1.0
  H  H22  1  0.88354000  0.84457000  0.03680000  1.0
  H  H23  1  0.11648000  0.15539000  0.96322000  1.0
  H  H24  1  0.83681000  0.41392000  0.60418000  1.0
  H  H25  1  0.16311000  0.58608000  0.39581000  1.0
  H  H26  1  0.87858000  0.43672000  0.74035000  1.0
  H  H27  1  0.12136000  0.56330000  0.25964000  1.0
  H  H28  1  0.98676000  0.43917000  0.61286000  1.0
  H  H29  1  0.01319000  0.56081000  0.38713000  1.0
  H  H30  1  0.03093000  0.87208000  0.29083000  1.0
  H  H31  1  0.96906000  0.12792000  0.70918000  1.0
  H  H32  1  0.90915000  0.94927000  0.16970000  1.0
  H  H33  1  0.09087000  0.05073000  0.83030000  1.0
  H  H34  1  0.92173000  0.78586000  0.28264000  1.0
  H  H35  1  0.07827000  0.21414000  0.71737000  1.0
  H  H36  1  0.40689000  0.25354000  0.59178000  1.0
  H  H37  1  0.59308000  0.74644000  0.40826000  1.0
  H  H38  1  0.53527000  0.30639000  0.62199000  1.0
  H  H39  1  0.46467000  0.69362000  0.37799000  1.0
  H  H40  1  0.43252000  0.24306000  0.74496000  1.0
  H  H41  1  0.56746000  0.75696000  0.25505000  1.0
  C  C42  1  0.43221000  0.32509000  0.20269000  1.0
  C  C43  1  0.56782000  0.67490000  0.79732000  1.0
  C  C44  1  0.39839000  0.46364000  0.13413000  1.0
  C  C45  1  0.60164000  0.53635000  0.86586000  1.0
  C  C46  1  0.46253000  0.54379000  0.15765000  1.0
  C  C47  1  0.53749000  0.45622000  0.84235000  1.0
  C  C48  1  0.55859000  0.47836000  0.25264000  1.0
  C  C49  1  0.44142000  0.52165000  0.74737000  1.0
  C  C50  1  0.58422000  0.34045000  0.31876000  1.0
  C  C51  1  0.41580000  0.65955000  0.68125000  1.0
  C  C52  1  0.31337000  0.75807000  0.96371000  1.0
  C  C53  1  0.68667000  0.24192000  0.03629000  1.0
  C  C54  1  0.05213000  0.80148000  0.92168000  1.0
  C  C55  1  0.94788000  0.19850000  0.07832000  1.0
  C  C56  1  0.09021000  0.79022000  0.80484000  1.0
  C  C57  1  0.90982000  0.20976000  0.19515000  1.0
  C  C58  1  0.99632000  0.81594000  0.71878000  1.0
  C  C59  1  0.00370000  0.18404000  0.28121000  1.0
  C  C60  1  0.83166000  0.85891000  0.85686000  1.0
  C  C61  1  0.16835000  0.14108000  0.14314000  1.0
  C  C62  1  0.91908000  0.83472000  0.94763000  1.0
  C  C63  1  0.08094000  0.16525000  0.05237000  1.0
  C  C64  1  0.82355000  0.62141000  0.57681000  1.0
  C  C65  1  0.17643000  0.37859000  0.42317000  1.0
  C  C66  1  0.88443000  0.46790000  0.63924000  1.0
  C  C67  1  0.11550000  0.53214000  0.36073000  1.0
  C  C68  1  0.83665000  0.94671000  0.35287000  1.0
  C  C69  1  0.16334000  0.05330000  0.64713000  1.0
  C  C70  1  0.93152000  0.88633000  0.26723000  1.0
  C  C71  1  0.06849000  0.11367000  0.73276000  1.0
  C  C72  1  0.56844000  0.08808000  0.68370000  1.0
  C  C73  1  0.43155000  0.91192000  0.31631000  1.0
  C  C74  1  0.48178000  0.23312000  0.65966000  1.0
  C  C75  1  0.51815000  0.76691000  0.34034000  1.0
  S  S76  1  0.43520000  0.71769000  0.07656000  1.0
  S  S77  1  0.56483000  0.28231000  0.92343000  1.0
  S  S78  1  0.15613000  0.78325000  0.03664000  1.0
  S  S79  1  0.84389000  0.21673000  0.96335000  1.0
  N  N80  1  0.52295000  0.26412000  0.29352000  1.0
  N  N81  1  0.47707000  0.73588000  0.70648000  1.0
  N  N82  1  0.86954000  0.85045000  0.74396000  1.0
  N  N83  1  0.13048000  0.14954000  0.25604000  1.0
  O  O84  1  0.59723000  0.90564000  0.52766000  1.0
  O  O85  1  0.40275000  0.09438000  0.47236000  1.0
  O  O86  1  0.79982000  0.68659000  0.65695000  1.0
  O  O87  1  0.20017000  0.31342000  0.34302000  1.0
  O  O88  1  0.80417000  0.67131000  0.46326000  1.0
  O  O89  1  0.19582000  0.32869000  0.53673000  1.0
  O  O90  1  0.72121000  0.01627000  0.30505000  1.0
  O  O91  1  0.27880000  0.98372000  0.69493000  1.0
  O  O92  1  0.87239000  0.92642000  0.45980000  1.0
  O  O93  1  0.12759000  0.07362000  0.54020000  1.0
  O  O94  1  0.66569000  0.07287000  0.60885000  1.0
  O  O95  1  0.33432000  0.92714000  0.39116000  1.0
  O  O96  1  0.54285000  0.98988000  0.76565000  1.0
  O  O97  1  0.45713000  0.01012000  0.23438000  1.0
