# generated using pymatgen
data_MnH25C24(NO2)2
_symmetry_space_group_name_H-M   'P 1'
_cell_length_a   6.72580000
_cell_length_b   11.71240000
_cell_length_c   14.71200000
_cell_angle_alpha   111.53200000
_cell_angle_beta   90.31170000
_cell_angle_gamma   91.03630000
_symmetry_Int_Tables_number   1
_chemical_formula_structural   MnH25C24(NO2)2
_chemical_formula_sum   'Mn2 H50 C48 N4 O8'
_cell_volume   1077.79502786
_cell_formula_units_Z   2
loop_
 _symmetry_equiv_pos_site_id
 _symmetry_equiv_pos_as_xyz
  1  'x, y, z'
loop_
 _atom_site_type_symbol
 _atom_site_label
 _atom_site_symmetry_multiplicity
 _atom_site_fract_x
 _atom_site_fract_y
 _atom_site_fract_z
 _atom_site_occupancy
  Mn  Mn0  1  0.24617000  0.00801000  0.27078000  1.0
  Mn  Mn1  1  0.75385000  0.99199000  0.72922000  1.0
  H  H2  1  0.22613000  0.04956000  0.57771000  1.0
  H  H3  1  0.77386000  0.95044000  0.42229000  1.0
  H  H4  1  0.45988000  0.75604000  0.26237000  1.0
  H  H5  1  0.54013000  0.24396000  0.73763000  1.0
  H  H6  1  0.23756000  0.69651000  0.29598000  1.0
  H  H7  1  0.76245000  0.30350000  0.70402000  1.0
  H  H8  1  0.04327000  0.72943000  0.17171000  1.0
  H  H9  1  0.95672000  0.27057000  0.82830000  1.0
  H  H10  1  0.27062000  0.66929000  0.11401000  1.0
  H  H11  1  0.72937000  0.33072000  0.88599000  1.0
  H  H12  1  0.25360000  0.95069000  0.95950000  1.0
  H  H13  1  0.74639000  0.04931000  0.04050000  1.0
  H  H14  1  0.39418000  0.75258000  0.43589000  1.0
  H  H15  1  0.60582000  0.24742000  0.56410000  1.0
  H  H16  1  0.14199000  0.77101000  0.47253000  1.0
  H  H17  1  0.85801000  0.22899000  0.52746000  1.0
  H  H18  1  0.33309000  0.86177000  0.55193000  1.0
  H  H19  1  0.66690000  0.13822000  0.44806000  1.0
  H  H20  1  0.08388000  0.68280000  0.98182000  1.0
  H  H21  1  0.91612000  0.31721000  0.01818000  1.0
  H  H22  1  0.34691000  0.68256000  0.96876000  1.0
  H  H23  1  0.65309000  0.31745000  0.03124000  1.0
  H  H24  1  0.19568000  0.75308000  0.90591000  1.0
  H  H25  1  0.80432000  0.24692000  0.09410000  1.0
  H  H26  1  0.19050000  0.20982000  0.67934000  1.0
  H  H27  1  0.80950000  0.79018000  0.32066000  1.0
  H  H28  1  0.17173000  0.42076000  0.80216000  1.0
  H  H29  1  0.82827000  0.57924000  0.19784000  1.0
  H  H30  1  0.18990000  0.60105000  0.75148000  1.0
  H  H31  1  0.81010000  0.39894000  0.24851000  1.0
  H  H32  1  0.22693000  0.56913000  0.57519000  1.0
  H  H33  1  0.77306000  0.43086000  0.42480000  1.0
  H  H34  1  0.24963000  0.35693000  0.45146000  1.0
  H  H35  1  0.75037000  0.64306000  0.54853000  1.0
  H  H36  1  0.28440000  0.08775000  0.91539000  1.0
  H  H37  1  0.71559000  0.91225000  0.08462000  1.0
  H  H38  1  0.30234000  0.26572000  0.86883000  1.0
  H  H39  1  0.69766000  0.73428000  0.13118000  1.0
  H  H40  1  0.29901000  0.47877000  0.99679000  1.0
  H  H41  1  0.70099000  0.52123000  0.00322000  1.0
  H  H42  1  0.28577000  0.50466000  0.17328000  1.0
  H  H43  1  0.71422000  0.49534000  0.82672000  1.0
  H  H44  1  0.26757000  0.32129000  0.21986000  1.0
  H  H45  1  0.73242000  0.67870000  0.78014000  1.0
  H  H46  1  0.71355000  0.22819000  0.33123000  1.0
  H  H47  1  0.28646000  0.77182000  0.66877000  1.0
  H  H48  1  0.90292000  0.18528000  0.24114000  1.0
  H  H49  1  0.09709000  0.81472000  0.75886000  1.0
  H  H50  1  0.64063000  0.16566000  0.20749000  1.0
  H  H51  1  0.35937000  0.83434000  0.79250000  1.0
  C  C52  1  0.23879000  0.14496000  0.47905000  1.0
  C  C53  1  0.76121000  0.85504000  0.52095000  1.0
  C  C54  1  0.23812000  0.04015000  0.50167000  1.0
  C  C55  1  0.76187000  0.95985000  0.49834000  1.0
  C  C56  1  0.26006000  0.91824000  0.43347000  1.0
  C  C57  1  0.73993000  0.08176000  0.56653000  1.0
  C  C58  1  0.29767000  0.76653000  0.26967000  1.0
  C  C59  1  0.70234000  0.23348000  0.73033000  1.0
  C  C60  1  0.20416000  0.74853000  0.17065000  1.0
  C  C61  1  0.79583000  0.25147000  0.82935000  1.0
  C  C62  1  0.23142000  0.85745000  0.05922000  1.0
  C  C63  1  0.76857000  0.14255000  0.94078000  1.0
  C  C64  1  0.24889000  0.96515000  0.03661000  1.0
  C  C65  1  0.75110000  0.03485000  0.96339000  1.0
  C  C66  1  0.25570000  0.08494000  0.10364000  1.0
  C  C67  1  0.74430000  0.91506000  0.89636000  1.0
  C  C68  1  0.28441000  0.82004000  0.47563000  1.0
  C  C69  1  0.71559000  0.17996000  0.52437000  1.0
  C  C70  1  0.21293000  0.73701000  0.97414000  1.0
  C  C71  1  0.78707000  0.26299000  0.02587000  1.0
  C  C72  1  0.22362000  0.26929000  0.55635000  1.0
  C  C73  1  0.77637000  0.73071000  0.44364000  1.0
  C  C74  1  0.20073000  0.28803000  0.65589000  1.0
  C  C75  1  0.79927000  0.71197000  0.34410000  1.0
  C  C76  1  0.18913000  0.40686000  0.72511000  1.0
  C  C77  1  0.81086000  0.59313000  0.27488000  1.0
  C  C78  1  0.19912000  0.50860000  0.69691000  1.0
  C  C79  1  0.80087000  0.49140000  0.30309000  1.0
  C  C80  1  0.22040000  0.49066000  0.59824000  1.0
  C  C81  1  0.77959000  0.50934000  0.40175000  1.0
  C  C82  1  0.23285000  0.37222000  0.52865000  1.0
  C  C83  1  0.76714000  0.62778000  0.47134000  1.0
  C  C84  1  0.27136000  0.19151000  0.07172000  1.0
  C  C85  1  0.72864000  0.80849000  0.92828000  1.0
  C  C86  1  0.28225000  0.17799000  0.97297000  1.0
  C  C87  1  0.71776000  0.82201000  0.02704000  1.0
  C  C88  1  0.29275000  0.28035000  0.94624000  1.0
  C  C89  1  0.70725000  0.71965000  0.05376000  1.0
  C  C90  1  0.29211000  0.39863000  0.01784000  1.0
  C  C91  1  0.70789000  0.60137000  0.98216000  1.0
  C  C92  1  0.28411000  0.41325000  0.11651000  1.0
  C  C93  1  0.71589000  0.58674000  0.88350000  1.0
  C  C94  1  0.27413000  0.31079000  0.14325000  1.0
  C  C95  1  0.72587000  0.68920000  0.85676000  1.0
  C  C96  1  0.75133000  0.03439000  0.26641000  1.0
  C  C97  1  0.24866000  0.96563000  0.73359000  1.0
  C  C98  1  0.75450000  0.16085000  0.25959000  1.0
  C  C99  1  0.24550000  0.83915000  0.74041000  1.0
  N  N100  1  0.25879000  0.89045000  0.33813000  1.0
  N  N101  1  0.74123000  0.10955000  0.66187000  1.0
  N  N102  1  0.23219000  0.86016000  0.14967000  1.0
  N  N103  1  0.76779000  0.13984000  0.85033000  1.0
  O  O104  1  0.25915000  0.14506000  0.39070000  1.0
  O  O105  1  0.74089000  0.85494000  0.60930000  1.0
  O  O106  1  0.24597000  0.11435000  0.19802000  1.0
  O  O107  1  0.75405000  0.88565000  0.80198000  1.0
  O  O108  1  0.91448000  0.98748000  0.27802000  1.0
  O  O109  1  0.08552000  0.01255000  0.72204000  1.0
  O  O110  1  0.58429000  0.97999000  0.26210000  1.0
  O  O111  1  0.41570000  0.01998000  0.73785000  1.0
