# generated using pymatgen
data_ZnH14(C8O3)2
_symmetry_space_group_name_H-M   'P 1'
_cell_length_a   5.54682000
_cell_length_b   7.90524000
_cell_length_c   15.53150000
_cell_angle_alpha   89.99990000
_cell_angle_beta   95.77620000
_cell_angle_gamma   89.99960000
_symmetry_Int_Tables_number   1
_chemical_formula_structural   ZnH14(C8O3)2
_chemical_formula_sum   'Zn2 H28 C32 O12'
_cell_volume   677.58195203
_cell_formula_units_Z   2
loop_
 _symmetry_equiv_pos_site_id
 _symmetry_equiv_pos_as_xyz
  1  'x, y, z'
loop_
 _atom_site_type_symbol
 _atom_site_label
 _atom_site_symmetry_multiplicity
 _atom_site_fract_x
 _atom_site_fract_y
 _atom_site_fract_z
 _atom_site_occupancy
  Zn  Zn0  1  0.99115000  0.91428000  0.57541000  1.0
  Zn  Zn1  1  0.00886000  0.41429000  0.42459000  1.0
  H  H2  1  0.81437000  0.74313000  0.25480000  1.0
  H  H3  1  0.18563000  0.24314000  0.74520000  1.0
  H  H4  1  0.58457000  0.74448000  0.11135000  1.0
  H  H5  1  0.41543000  0.24448000  0.88865000  1.0
  H  H6  1  0.11977000  0.07938000  0.01954000  1.0
  H  H7  1  0.88022000  0.57938000  0.98046000  1.0
  H  H8  1  0.34636000  0.07569000  0.16221000  1.0
  H  H9  1  0.65362000  0.57571000  0.83779000  1.0
  H  H10  1  0.39411000  0.75913000  0.00105000  1.0
  H  H11  1  0.60589000  0.25912000  0.99896000  1.0
  H  H12  1  0.16741000  0.76249000  0.85733000  1.0
  H  H13  1  0.83258000  0.26249000  0.14268000  1.0
  H  H14  1  0.71942000  0.07128000  0.76116000  1.0
  H  H15  1  0.28057000  0.57131000  0.23884000  1.0
  H  H16  1  0.95055000  0.06759000  0.90326000  1.0
  H  H17  1  0.04944000  0.56760000  0.09674000  1.0
  H  H18  1  0.25685000  0.15311000  0.30549000  1.0
  H  H19  1  0.74315000  0.65312000  0.69451000  1.0
  H  H20  1  0.64089000  0.90666000  0.39070000  1.0
  H  H21  1  0.35913000  0.40666000  0.60929000  1.0
  H  H22  1  0.65703000  0.12973000  0.40410000  1.0
  H  H23  1  0.34296000  0.62973000  0.59590000  1.0
  H  H24  1  0.67185000  0.03969000  0.29938000  1.0
  H  H25  1  0.32816000  0.53968000  0.70061000  1.0
  H  H26  1  0.59651000  0.06790000  0.60953000  1.0
  H  H27  1  0.40350000  0.56790000  0.39047000  1.0
  H  H28  1  0.77588000  0.20876000  0.57088000  1.0
  H  H29  1  0.22413000  0.70876000  0.42911000  1.0
  C  C30  1  0.09454000  0.90767000  0.21806000  1.0
  C  C31  1  0.90546000  0.40768000  0.78195000  1.0
  C  C32  1  0.87980000  0.81500000  0.20206000  1.0
  C  C33  1  0.12020000  0.31500000  0.79794000  1.0
  C  C34  1  0.75123000  0.81780000  0.12057000  1.0
  C  C35  1  0.24877000  0.31780000  0.87943000  1.0
  C  C36  1  0.83166000  0.91202000  0.05193000  1.0
  C  C37  1  0.16834000  0.41202000  0.94808000  1.0
  C  C38  1  0.04840000  0.00432000  0.06993000  1.0
  C  C39  1  0.95160000  0.50433000  0.93007000  1.0
  C  C40  1  0.17869000  0.00362000  0.15145000  1.0
  C  C41  1  0.82130000  0.50362000  0.84855000  1.0
  C  C42  1  0.69338000  0.91333000  0.96531000  1.0
  C  C43  1  0.30662000  0.41333000  0.03469000  1.0
  C  C44  1  0.46975000  0.82782000  0.94935000  1.0
  C  C45  1  0.53023000  0.32781000  0.05066000  1.0
  C  C46  1  0.33974000  0.82893000  0.86807000  1.0
  C  C47  1  0.66025000  0.32894000  0.13193000  1.0
  C  C48  1  0.42727000  0.91694000  0.79917000  1.0
  C  C49  1  0.57273000  0.41695000  0.20083000  1.0
  C  C50  1  0.64951000  0.00184000  0.81377000  1.0
  C  C51  1  0.35048000  0.50185000  0.18623000  1.0
  C  C52  1  0.77930000  0.99972000  0.89504000  1.0
  C  C53  1  0.22069000  0.49974000  0.10496000  1.0
  C  C54  1  0.20350000  0.04978000  0.42978000  1.0
  C  C55  1  0.79651000  0.54977000  0.57022000  1.0
  C  C56  1  0.31396000  0.04015000  0.34342000  1.0
  C  C57  1  0.68603000  0.54015000  0.65658000  1.0
  C  C58  1  0.58848000  0.02825000  0.36015000  1.0
  C  C59  1  0.41153000  0.52825000  0.63985000  1.0
  C  C60  1  0.28286000  0.92507000  0.71384000  1.0
  C  C61  1  0.71716000  0.42508000  0.28617000  1.0
  O  O62  1  0.16885000  0.19125000  0.46414000  1.0
  O  O63  1  0.83119000  0.69123000  0.53586000  1.0
  O  O64  1  0.15802000  0.90924000  0.46600000  1.0
  O  O65  1  0.84199000  0.40924000  0.53400000  1.0
  O  O66  1  0.21749000  0.89060000  0.29868000  1.0
  O  O67  1  0.78250000  0.39061000  0.70132000  1.0
  O  O68  1  0.35260000  0.01261000  0.65160000  1.0
  O  O69  1  0.64741000  0.51262000  0.34840000  1.0
  O  O70  1  0.08015000  0.84527000  0.70220000  1.0
  O  O71  1  0.91985000  0.34526000  0.29780000  1.0
  O  O72  1  0.73378000  0.08650000  0.57303000  1.0
  O  O73  1  0.26623000  0.58650000  0.42697000  1.0
