# generated using pymatgen
data_Cd2H8C14N2O9
_symmetry_space_group_name_H-M   'P 1'
_cell_length_a   8.38180000
_cell_length_b   8.42890000
_cell_length_c   21.74730000
_cell_angle_alpha   90.00000000
_cell_angle_beta   94.15740000
_cell_angle_gamma   90.00000000
_symmetry_Int_Tables_number   1
_chemical_formula_structural   Cd2H8C14N2O9
_chemical_formula_sum   'Cd8 H32 C56 N8 O36'
_cell_volume   1532.38981205
_cell_formula_units_Z   4
loop_
 _symmetry_equiv_pos_site_id
 _symmetry_equiv_pos_as_xyz
  1  'x, y, z'
loop_
 _atom_site_type_symbol
 _atom_site_label
 _atom_site_symmetry_multiplicity
 _atom_site_fract_x
 _atom_site_fract_y
 _atom_site_fract_z
 _atom_site_occupancy
  Cd  Cd0  1  0.78113000  0.51523000  0.86337000  1.0
  Cd  Cd1  1  0.71887000  0.01523000  0.63663000  1.0
  Cd  Cd2  1  0.21887000  0.48477000  0.13663000  1.0
  Cd  Cd3  1  0.28113000  0.98477000  0.36337000  1.0
  Cd  Cd4  1  0.87541000  0.31342000  0.51791000  1.0
  Cd  Cd5  1  0.62459000  0.81342000  0.98209000  1.0
  Cd  Cd6  1  0.12459000  0.68658000  0.48209000  1.0
  Cd  Cd7  1  0.37541000  0.18658000  0.01791000  1.0
  H  H8  1  0.95520000  0.04591000  0.44298000  1.0
  H  H9  1  0.54480000  0.54591000  0.05702000  1.0
  H  H10  1  0.04480000  0.95409000  0.55702000  1.0
  H  H11  1  0.45520000  0.45409000  0.94298000  1.0
  H  H12  1  0.78982000  0.99116000  0.46966000  1.0
  H  H13  1  0.71018000  0.49116000  0.03034000  1.0
  H  H14  1  0.21018000  0.00884000  0.53034000  1.0
  H  H15  1  0.28982000  0.50884000  0.96966000  1.0
  H  H16  1  0.29365000  0.25885000  0.70077000  1.0
  H  H17  1  0.20634000  0.75885000  0.79923000  1.0
  H  H18  1  0.70635000  0.74115000  0.29923000  1.0
  H  H19  1  0.79365000  0.24115000  0.20077000  1.0
  H  H20  1  0.38415000  0.35865000  0.80604000  1.0
  H  H21  1  0.11585000  0.85865000  0.69396000  1.0
  H  H22  1  0.61585000  0.64135000  0.19396000  1.0
  H  H23  1  0.88415000  0.14135000  0.30604000  1.0
  H  H24  1  0.17571000  0.45874000  0.87431000  1.0
  H  H25  1  0.32429000  0.95874000  0.62569000  1.0
  H  H26  1  0.82429000  0.54126000  0.12569000  1.0
  H  H27  1  0.67571000  0.04126000  0.37431000  1.0
  H  H28  1  0.24016000  0.96093000  0.14378000  1.0
  H  H29  1  0.25984000  0.46093000  0.35622000  1.0
  H  H30  1  0.75984000  0.03907000  0.85622000  1.0
  H  H31  1  0.74016000  0.53907000  0.64378000  1.0
  H  H32  1  0.97859000  0.06188000  0.17536000  1.0
  H  H33  1  0.52141000  0.56188000  0.32464000  1.0
  H  H34  1  0.02141000  0.93812000  0.82464000  1.0
  H  H35  1  0.47859000  0.43813000  0.67536000  1.0
  H  H36  1  0.72915000  0.00496000  0.10558000  1.0
  H  H37  1  0.77085000  0.50496000  0.39442000  1.0
  H  H38  1  0.27085000  0.99504000  0.89442000  1.0
  H  H39  1  0.22915000  0.49504000  0.60558000  1.0
  C  C40  1  0.93421000  0.34116000  0.75662000  1.0
  C  C41  1  0.56579000  0.84116000  0.74338000  1.0
  C  C42  1  0.06579000  0.65884000  0.24338000  1.0
  C  C43  1  0.43421000  0.15884000  0.25662000  1.0
  C  C44  1  0.04324000  0.29736000  0.71361000  1.0
  C  C45  1  0.45676000  0.79736000  0.78639000  1.0
  C  C46  1  0.95676000  0.70264000  0.28639000  1.0
  C  C47  1  0.54324000  0.20264000  0.21361000  1.0
  C  C48  1  0.20675000  0.29884000  0.73242000  1.0
  C  C49  1  0.29325000  0.79884000  0.76758000  1.0
  C  C50  1  0.79326000  0.70116000  0.26758000  1.0
  C  C51  1  0.70675000  0.20116000  0.23242000  1.0
  C  C52  1  0.25739000  0.35338000  0.79097000  1.0
  C  C53  1  0.24261000  0.85338000  0.70903000  1.0
  C  C54  1  0.74261000  0.64662000  0.20903000  1.0
  C  C55  1  0.75739000  0.14662000  0.29097000  1.0
  C  C56  1  0.14233000  0.40804000  0.82916000  1.0
  C  C57  1  0.35768000  0.90804000  0.67084000  1.0
  C  C58  1  0.85768000  0.59197000  0.17084000  1.0
  C  C59  1  0.64232000  0.09197000  0.32916000  1.0
  C  C60  1  0.75435000  0.32114000  0.74350000  1.0
  C  C61  1  0.74565000  0.82115000  0.75650000  1.0
  C  C62  1  0.24565000  0.67885000  0.25650000  1.0
  C  C63  1  0.25435000  0.17885000  0.24350000  1.0
  C  C64  1  0.99228000  0.26466000  0.64693000  1.0
  C  C65  1  0.50772000  0.76466000  0.85307000  1.0
  C  C66  1  0.00772000  0.73534000  0.35307000  1.0
  C  C67  1  0.49228000  0.23534000  0.14693000  1.0
  C  C68  1  0.99084000  0.81143000  0.02780000  1.0
  C  C69  1  0.50916000  0.31143000  0.47220000  1.0
  C  C70  1  0.00916000  0.18857000  0.97220000  1.0
  C  C71  1  0.49084000  0.68857000  0.52780000  1.0
  C  C72  1  0.13451000  0.84342000  0.06275000  1.0
  C  C73  1  0.36549000  0.34342000  0.43725000  1.0
  C  C74  1  0.86549000  0.15658000  0.93725000  1.0
  C  C75  1  0.63451000  0.65658000  0.56275000  1.0
  C  C76  1  0.12935000  0.93432000  0.11647000  1.0
  C  C77  1  0.37065000  0.43432000  0.38353000  1.0
  C  C78  1  0.87065000  0.06568000  0.88353000  1.0
  C  C79  1  0.62935000  0.56569000  0.61647000  1.0
  C  C80  1  0.98365000  0.99139000  0.13364000  1.0
  C  C81  1  0.51635000  0.49138000  0.36636000  1.0
  C  C82  1  0.01635000  0.00861000  0.86636000  1.0
  C  C83  1  0.48365000  0.50862000  0.63364000  1.0
  C  C84  1  0.84643000  0.95944000  0.09564000  1.0
  C  C85  1  0.65357000  0.45944000  0.40436000  1.0
  C  C86  1  0.15357000  0.04056000  0.90436000  1.0
  C  C87  1  0.34643000  0.54056000  0.59564000  1.0
  C  C88  1  0.98626000  0.70539000  0.97110000  1.0
  C  C89  1  0.51374000  0.20538000  0.52890000  1.0
  C  C90  1  0.01374000  0.29461000  0.02890000  1.0
  C  C91  1  0.48626000  0.79461000  0.47110000  1.0
  C  C92  1  0.29492000  0.78251000  0.04686000  1.0
  C  C93  1  0.20508000  0.28251000  0.45314000  1.0
  C  C94  1  0.70508000  0.21749000  0.95314000  1.0
  C  C95  1  0.79492000  0.71749000  0.54686000  1.0
  N  N96  1  0.98547000  0.39923000  0.81241000  1.0
  N  N97  1  0.51453000  0.89923000  0.68759000  1.0
  N  N98  1  0.01453000  0.60077000  0.18759000  1.0
  N  N99  1  0.48547000  0.10077000  0.31241000  1.0
  N  N100  1  0.85150000  0.87221000  0.04426000  1.0
  N  N101  1  0.64850000  0.37221000  0.45574000  1.0
  N  N102  1  0.14850000  0.12779000  0.95574000  1.0
  N  N103  1  0.35150000  0.62779000  0.54426000  1.0
  O  O104  1  0.66180000  0.37936000  0.78139000  1.0
  O  O105  1  0.83820000  0.87936000  0.71862000  1.0
  O  O106  1  0.33820000  0.62064000  0.21862000  1.0
  O  O107  1  0.16180000  0.12064000  0.28138000  1.0
  O  O108  1  0.85687000  0.08242000  0.46037000  1.0
  O  O109  1  0.64313000  0.58242000  0.03963000  1.0
  O  O110  1  0.14313000  0.91758000  0.53963000  1.0
  O  O111  1  0.35687000  0.41758000  0.96037000  1.0
  O  O112  1  0.70620000  0.24731000  0.69509000  1.0
  O  O113  1  0.79380000  0.74731000  0.80492000  1.0
  O  O114  1  0.29380000  0.75269000  0.30492000  1.0
  O  O115  1  0.20620000  0.25269000  0.19508000  1.0
  O  O116  1  0.98320000  0.12433000  0.62644000  1.0
  O  O117  1  0.51680000  0.62433000  0.87356000  1.0
  O  O118  1  0.01681000  0.87567000  0.37356000  1.0
  O  O119  1  0.48320000  0.37567000  0.12644000  1.0
  O  O120  1  0.96946000  0.38941000  0.61411000  1.0
  O  O121  1  0.53054000  0.88941000  0.88589000  1.0
  O  O122  1  0.03054000  0.61059000  0.38589000  1.0
  O  O123  1  0.46946000  0.11059000  0.11411000  1.0
  O  O124  1  0.84790000  0.68699000  0.94192000  1.0
  O  O125  1  0.65211000  0.18699000  0.55808000  1.0
  O  O126  1  0.15211000  0.31301000  0.05808000  1.0
  O  O127  1  0.34789000  0.81301000  0.44192000  1.0
  O  O128  1  0.11279000  0.64221000  0.95651000  1.0
  O  O129  1  0.38721000  0.14220000  0.54349000  1.0
  O  O130  1  0.88721000  0.35779000  0.04349000  1.0
  O  O131  1  0.61279000  0.85779000  0.45651000  1.0
  O  O132  1  0.37901000  0.87352000  0.01518000  1.0
  O  O133  1  0.12099000  0.37352000  0.48482000  1.0
  O  O134  1  0.62099000  0.12647000  0.98482000  1.0
  O  O135  1  0.87901000  0.62647000  0.51518000  1.0
  O  O136  1  0.34089000  0.65070000  0.06950000  1.0
  O  O137  1  0.15911000  0.15070000  0.43050000  1.0
  O  O138  1  0.65911000  0.34930000  0.93050000  1.0
  O  O139  1  0.84089000  0.84930000  0.56950000  1.0
