# generated using pymatgen
data_AgH12C12N3O2
_symmetry_space_group_name_H-M   'P 1'
_cell_length_a   7.30079000
_cell_length_b   11.44510000
_cell_length_c   15.05300000
_cell_angle_alpha   90.00000000
_cell_angle_beta   101.92300000
_cell_angle_gamma   90.00000000
_symmetry_Int_Tables_number   1
_chemical_formula_structural   AgH12C12N3O2
_chemical_formula_sum   'Ag4 H48 C48 N12 O8'
_cell_volume   1230.66699245
_cell_formula_units_Z   4
loop_
 _symmetry_equiv_pos_site_id
 _symmetry_equiv_pos_as_xyz
  1  'x, y, z'
loop_
 _atom_site_type_symbol
 _atom_site_label
 _atom_site_symmetry_multiplicity
 _atom_site_fract_x
 _atom_site_fract_y
 _atom_site_fract_z
 _atom_site_occupancy
  Ag  Ag0  1  0.21641000  0.98844000  0.00519000  1.0
  Ag  Ag1  1  0.78359000  0.48844000  0.49481000  1.0
  Ag  Ag2  1  0.78357000  0.01156000  0.99480000  1.0
  Ag  Ag3  1  0.21640000  0.51154000  0.50520000  1.0
  H  H4  1  0.04636000  0.75707000  0.06264000  1.0
  H  H5  1  0.95365000  0.25708000  0.43736000  1.0
  H  H6  1  0.95364000  0.24292000  0.93737000  1.0
  H  H7  1  0.04638000  0.74290000  0.56264000  1.0
  H  H8  1  0.97793000  0.66898000  0.20450000  1.0
  H  H9  1  0.02208000  0.16899000  0.29550000  1.0
  H  H10  1  0.02206000  0.33103000  0.79551000  1.0
  H  H11  1  0.97795000  0.83100000  0.70449000  1.0
  H  H12  1  0.21788000  0.97449000  0.35058000  1.0
  H  H13  1  0.78209000  0.47449000  0.14942000  1.0
  H  H14  1  0.78213000  0.02551000  0.64943000  1.0
  H  H15  1  0.21788000  0.52549000  0.85058000  1.0
  H  H16  1  0.27785000  0.05205000  0.20337000  1.0
  H  H17  1  0.72212000  0.55205000  0.29663000  1.0
  H  H18  1  0.72216000  0.94795000  0.79664000  1.0
  H  H19  1  0.27787000  0.44793000  0.70337000  1.0
  H  H20  1  0.37617000  0.15635000  0.70189000  1.0
  H  H21  1  0.62383000  0.65637000  0.79811000  1.0
  H  H22  1  0.62382000  0.84369000  0.29811000  1.0
  H  H23  1  0.37615000  0.34367000  0.20189000  1.0
  H  H24  1  0.52965000  0.33808000  0.77344000  1.0
  H  H25  1  0.47037000  0.83809000  0.72656000  1.0
  H  H26  1  0.47036000  0.66195000  0.22658000  1.0
  H  H27  1  0.52964000  0.16194000  0.27342000  1.0
  H  H28  1  0.55962000  0.36694000  0.94211000  1.0
  H  H29  1  0.44038000  0.86695000  0.55788000  1.0
  H  H30  1  0.44037000  0.63306000  0.05790000  1.0
  H  H31  1  0.55964000  0.13306000  0.44210000  1.0
  H  H32  1  0.48804000  0.14253000  0.09567000  1.0
  H  H33  1  0.51193000  0.64250000  0.40434000  1.0
  H  H34  1  0.51195000  0.85746000  0.90433000  1.0
  H  H35  1  0.48809000  0.35745000  0.59567000  1.0
  H  H36  1  0.51604000  0.29588000  0.08340000  1.0
  H  H37  1  0.48391000  0.79585000  0.41658000  1.0
  H  H38  1  0.48391000  0.70412000  0.91660000  1.0
  H  H39  1  0.51609000  0.20411000  0.58339000  1.0
  H  H40  1  0.28652000  0.23479000  0.06886000  1.0
  H  H41  1  0.71344000  0.73478000  0.43112000  1.0
  H  H42  1  0.71345000  0.76519000  0.93114000  1.0
  H  H43  1  0.28657000  0.26519000  0.56887000  1.0
  H  H44  1  0.21325000  0.98553000  0.72258000  1.0
  H  H45  1  0.78675000  0.48555000  0.77742000  1.0
  H  H46  1  0.78677000  0.01449000  0.27740000  1.0
  H  H47  1  0.21322000  0.51448000  0.22259000  1.0
  H  H48  1  0.17723000  0.93194000  0.82566000  1.0
  H  H49  1  0.82278000  0.43195000  0.67434000  1.0
  H  H50  1  0.82279000  0.06808000  0.17432000  1.0
  H  H51  1  0.17720000  0.56806000  0.32568000  1.0
  C  C52  1  0.08416000  0.80213000  0.12805000  1.0
  C  C53  1  0.91585000  0.30215000  0.37195000  1.0
  C  C54  1  0.91584000  0.19786000  0.87196000  1.0
  C  C55  1  0.08417000  0.69784000  0.62804000  1.0
  C  C56  1  0.04863000  0.75311000  0.20735000  1.0
  C  C57  1  0.95136000  0.25313000  0.29264000  1.0
  C  C58  1  0.95136000  0.24689000  0.79265000  1.0
  C  C59  1  0.04866000  0.74687000  0.70736000  1.0
  C  C60  1  0.09549000  0.81416000  0.28945000  1.0
  C  C61  1  0.90450000  0.31417000  0.21056000  1.0
  C  C62  1  0.90450000  0.18584000  0.71057000  1.0
  C  C63  1  0.09551000  0.68581000  0.78944000  1.0
  C  C64  1  0.18141000  0.92330000  0.28832000  1.0
  C  C65  1  0.81857000  0.42330000  0.21168000  1.0
  C  C66  1  0.81860000  0.07671000  0.71169000  1.0
  C  C67  1  0.18142000  0.57669000  0.78831000  1.0
  C  C68  1  0.21438000  0.96664000  0.20688000  1.0
  C  C69  1  0.78561000  0.46664000  0.29312000  1.0
  C  C70  1  0.78563000  0.03336000  0.79312000  1.0
  C  C71  1  0.21438000  0.53334000  0.70688000  1.0
  C  C72  1  0.04792000  0.76724000  0.37642000  1.0
  C  C73  1  0.95210000  0.26727000  0.12359000  1.0
  C  C74  1  0.95209000  0.23275000  0.62360000  1.0
  C  C75  1  0.04793000  0.73274000  0.87641000  1.0
  C  C76  1  0.32781000  0.08750000  0.82859000  1.0
  C  C77  1  0.67219000  0.58751000  0.67141000  1.0
  C  C78  1  0.67220000  0.91251000  0.17140000  1.0
  C  C79  1  0.32780000  0.41250000  0.32859000  1.0
  C  C80  1  0.39235000  0.17265000  0.77428000  1.0
  C  C81  1  0.60766000  0.67266000  0.72572000  1.0
  C  C82  1  0.60765000  0.82737000  0.22572000  1.0
  C  C83  1  0.39234000  0.32736000  0.27427000  1.0
  C  C84  1  0.47470000  0.27325000  0.81427000  1.0
  C  C85  1  0.52531000  0.77327000  0.68573000  1.0
  C  C86  1  0.52530000  0.72677000  0.18574000  1.0
  C  C87  1  0.47469000  0.22676000  0.31426000  1.0
  C  C88  1  0.49082000  0.29007000  0.90782000  1.0
  C  C89  1  0.50918000  0.79007000  0.59217000  1.0
  C  C90  1  0.50917000  0.70995000  0.09219000  1.0
  C  C91  1  0.49084000  0.20993000  0.40781000  1.0
  C  C92  1  0.42190000  0.20478000  0.95803000  1.0
  C  C93  1  0.57809000  0.70478000  0.54197000  1.0
  C  C94  1  0.57808000  0.79522000  0.04197000  1.0
  C  C95  1  0.42192000  0.29520000  0.45803000  1.0
  C  C96  1  0.42900000  0.22037000  0.05725000  1.0
  C  C97  1  0.57097000  0.72036000  0.44274000  1.0
  C  C98  1  0.57096000  0.77962000  0.94275000  1.0
  C  C99  1  0.42904000  0.27961000  0.55725000  1.0
  N  N100  1  0.16512000  0.90811000  0.12766000  1.0
  N  N101  1  0.83487000  0.40810000  0.37234000  1.0
  N  N102  1  0.83488000  0.09189000  0.87234000  1.0
  N  N103  1  0.16515000  0.59187000  0.62766000  1.0
  N  N104  1  0.34095000  0.10480000  0.91899000  1.0
  N  N105  1  0.65904000  0.60480000  0.58101000  1.0
  N  N106  1  0.65904000  0.89521000  0.08100000  1.0
  N  N107  1  0.34096000  0.39519000  0.41899000  1.0
  N  N108  1  0.25543000  0.98512000  0.79118000  1.0
  N  N109  1  0.74457000  0.48514000  0.70882000  1.0
  N  N110  1  0.74459000  0.01490000  0.20880000  1.0
  N  N111  1  0.25540000  0.51488000  0.29120000  1.0
  O  O112  1  0.00778000  0.84059000  0.43130000  1.0
  O  O113  1  0.99222000  0.34062000  0.06870000  1.0
  O  O114  1  0.99222000  0.15942000  0.56870000  1.0
  O  O115  1  0.00780000  0.65940000  0.93130000  1.0
  O  O116  1  0.05010000  0.65551000  0.38461000  1.0
  O  O117  1  0.94989000  0.15553000  0.11538000  1.0
  O  O118  1  0.94989000  0.34449000  0.61540000  1.0
  O  O119  1  0.05015000  0.84448000  0.88461000  1.0
