# generated using pymatgen
data_NaCrH27C15NO6
_symmetry_space_group_name_H-M   'P 1'
_cell_length_a   6.08609000
_cell_length_b   9.69968000
_cell_length_c   14.96650000
_cell_angle_alpha   90.00830000
_cell_angle_beta   90.00240000
_cell_angle_gamma   94.79290000
_symmetry_Int_Tables_number   1
_chemical_formula_structural   NaCrH27C15NO6
_chemical_formula_sum   'Na2 Cr2 H54 C30 N2 O12'
_cell_volume   880.42978974
_cell_formula_units_Z   2
loop_
 _symmetry_equiv_pos_site_id
 _symmetry_equiv_pos_as_xyz
  1  'x, y, z'
loop_
 _atom_site_type_symbol
 _atom_site_label
 _atom_site_symmetry_multiplicity
 _atom_site_fract_x
 _atom_site_fract_y
 _atom_site_fract_z
 _atom_site_occupancy
  Na  Na0  1  0.76299000  0.79241000  0.62630000  1.0
  Na  Na1  1  0.23700000  0.20764000  0.12633000  1.0
  Cr  Cr2  1  0.28000000  0.92700000  0.59760000  1.0
  Cr  Cr3  1  0.71994000  0.07301000  0.09760000  1.0
  H  H4  1  0.20073000  0.08581000  0.75406000  1.0
  H  H5  1  0.79917000  0.91418000  0.25407000  1.0
  H  H6  1  0.50733000  0.98580000  0.81780000  1.0
  H  H7  1  0.49264000  0.01422000  0.31780000  1.0
  H  H8  1  0.55252000  0.73821000  0.82528000  1.0
  H  H9  1  0.44750000  0.26181000  0.32532000  1.0
  H  H10  1  0.29792000  0.69833000  0.77005000  1.0
  H  H11  1  0.70207000  0.30172000  0.27012000  1.0
  H  H12  1  0.25831000  0.66579000  0.93754000  1.0
  H  H13  1  0.74172000  0.33417000  0.43760000  1.0
  H  H14  1  0.34649000  0.84242000  0.95322000  1.0
  H  H15  1  0.65347000  0.15757000  0.45325000  1.0
  H  H16  1  0.94044000  0.73182000  0.84449000  1.0
  H  H17  1  0.05959000  0.26818000  0.34457000  1.0
  H  H18  1  0.92959000  0.80357000  0.95305000  1.0
  H  H19  1  0.07039000  0.19637000  0.45309000  1.0
  H  H20  1  0.08688000  0.02822000  0.90194000  1.0
  H  H21  1  0.91311000  0.97174000  0.40193000  1.0
  H  H22  1  0.85928000  0.97717000  0.83306000  1.0
  H  H23  1  0.14071000  0.02283000  0.33309000  1.0
  H  H24  1  0.05404000  0.71819000  0.41161000  1.0
  H  H25  1  0.94601000  0.28180000  0.91166000  1.0
  H  H26  1  0.34488000  0.90029000  0.40725000  1.0
  H  H27  1  0.65520000  0.09967000  0.90729000  1.0
  H  H28  1  0.45917000  0.71958000  0.31646000  1.0
  H  H29  1  0.54079000  0.28037000  0.81646000  1.0
  H  H30  1  0.69379000  0.78465000  0.37728000  1.0
  H  H31  1  0.30622000  0.21536000  0.87730000  1.0
  H  H32  1  0.65784000  0.58419000  0.47947000  1.0
  H  H33  1  0.34211000  0.41583000  0.97948000  1.0
  H  H34  1  0.64920000  0.52189000  0.36838000  1.0
  H  H35  1  0.35083000  0.47809000  0.86839000  1.0
  H  H36  1  0.24068000  0.48756000  0.37375000  1.0
  H  H37  1  0.75938000  0.51240000  0.87383000  1.0
  H  H38  1  0.35396000  0.39680000  0.46200000  1.0
  H  H39  1  0.64599000  0.60323000  0.96203000  1.0
  H  H40  1  0.04210000  0.52537000  0.51861000  1.0
  H  H41  1  0.95792000  0.47457000  0.01867000  1.0
  H  H42  1  0.29432000  0.59250000  0.56745000  1.0
  H  H43  1  0.70564000  0.40752000  0.06749000  1.0
  H  H44  1  0.54127000  0.38538000  0.61158000  1.0
  H  H45  1  0.45884000  0.61465000  0.11161000  1.0
  H  H46  1  0.17665000  0.35660000  0.67858000  1.0
  H  H47  1  0.82339000  0.64337000  0.17859000  1.0
  H  H48  1  0.03777000  0.34358000  0.78334000  1.0
  H  H49  1  0.96222000  0.65643000  0.28334000  1.0
  H  H50  1  0.04848000  0.50298000  0.72210000  1.0
  H  H51  1  0.95159000  0.49701000  0.22210000  1.0
  H  H52  1  0.63045000  0.17751000  0.61920000  1.0
  H  H53  1  0.36953000  0.82251000  0.11920000  1.0
  H  H54  1  0.77350000  0.14100000  0.71900000  1.0
  H  H55  1  0.22649000  0.85903000  0.21900000  1.0
  H  H56  1  0.92145000  0.15781000  0.61644000  1.0
  H  H57  1  0.07850000  0.84218000  0.11646000  1.0
  C  C58  1  0.17195000  0.97351000  0.76817000  1.0
  C  C59  1  0.82800000  0.02648000  0.26818000  1.0
  C  C60  1  0.39752000  0.91530000  0.77656000  1.0
  C  C61  1  0.60243000  0.08474000  0.27656000  1.0
  C  C62  1  0.38478000  0.77071000  0.81755000  1.0
  C  C63  1  0.61518000  0.22930000  0.31758000  1.0
  C  C64  1  0.26005000  0.76852000  0.90638000  1.0
  C  C65  1  0.73993000  0.23146000  0.40642000  1.0
  C  C66  1  0.02482000  0.80735000  0.89063000  1.0
  C  C67  1  0.97511000  0.19261000  0.39068000  1.0
  C  C68  1  0.02676000  0.95232000  0.85086000  1.0
  C  C69  1  0.97320000  0.04764000  0.35086000  1.0
  C  C70  1  0.16802000  0.72600000  0.46934000  1.0
  C  C71  1  0.83199000  0.27399000  0.96938000  1.0
  C  C72  1  0.38565000  0.80591000  0.44294000  1.0
  C  C73  1  0.61437000  0.19409000  0.94294000  1.0
  C  C74  1  0.53298000  0.72490000  0.38380000  1.0
  C  C75  1  0.46706000  0.27508000  0.88380000  1.0
  C  C76  1  0.55853000  0.57874000  0.41788000  1.0
  C  C77  1  0.44153000  0.42127000  0.91790000  1.0
  C  C78  1  0.33390000  0.50152000  0.43681000  1.0
  C  C79  1  0.66612000  0.49850000  0.93686000  1.0
  C  C80  1  0.20282000  0.58106000  0.50398000  1.0
  C  C81  1  0.79715000  0.41896000  0.00403000  1.0
  C  C82  1  0.68702000  0.43586000  0.64675000  1.0
  C  C83  1  0.31307000  0.56416000  0.14676000  1.0
  C  C84  1  0.03559000  0.39012000  0.71635000  1.0
  C  C85  1  0.96446000  0.60988000  0.21635000  1.0
  C  C86  1  0.78673000  0.19731000  0.65523000  1.0
  C  C87  1  0.21326000  0.80270000  0.15524000  1.0
  N  N88  1  0.83152000  0.34505000  0.67092000  1.0
  N  N89  1  0.16850000  0.65495000  0.17092000  1.0
  O  O90  1  0.07448000  0.90734000  0.69100000  1.0
  O  O91  1  0.92545000  0.09269000  0.19105000  1.0
  O  O92  1  0.70891000  0.56288000  0.66025000  1.0
  O  O93  1  0.29121000  0.43718000  0.16027000  1.0
  O  O94  1  0.48478000  0.91421000  0.68797000  1.0
  O  O95  1  0.51515000  0.08579000  0.18798000  1.0
  O  O96  1  0.07631000  0.80848000  0.53638000  1.0
  O  O97  1  0.92367000  0.19153000  0.03640000  1.0
  O  O98  1  0.48732000  0.84615000  0.52576000  1.0
  O  O99  1  0.51270000  0.15390000  0.02579000  1.0
  O  O100  1  0.27768000  0.08418000  0.56488000  1.0
  O  O101  1  0.72233000  0.91581000  0.06490000  1.0
