# generated using pymatgen
data_CuH16C10Br2(N8O3)2
_symmetry_space_group_name_H-M   'P 1'
_cell_length_a   7.81891000
_cell_length_b   8.07500000
_cell_length_c   9.66254000
_cell_angle_alpha   77.84140000
_cell_angle_beta   81.72700000
_cell_angle_gamma   87.45450000
_symmetry_Int_Tables_number   1
_chemical_formula_structural   CuH16C10Br2(N8O3)2
_chemical_formula_sum   'Cu1 H16 C10 Br2 N16 O6'
_cell_volume   590.11672013
_cell_formula_units_Z   1
loop_
 _symmetry_equiv_pos_site_id
 _symmetry_equiv_pos_as_xyz
  1  'x, y, z'
loop_
 _atom_site_type_symbol
 _atom_site_label
 _atom_site_symmetry_multiplicity
 _atom_site_fract_x
 _atom_site_fract_y
 _atom_site_fract_z
 _atom_site_occupancy
  Cu  Cu0  1  0.00000000  0.99999000  0.00000000  1.0
  H  H1  1  0.82326000  0.63627000  0.18625000  1.0
  H  H2  1  0.17674000  0.36372000  0.81375000  1.0
  H  H3  1  0.36046000  0.86049000  0.11765000  1.0
  H  H4  1  0.63954000  0.13951000  0.88236000  1.0
  H  H5  1  0.63602000  0.83104000  0.63375000  1.0
  H  H6  1  0.36399000  0.16897000  0.36624000  1.0
  H  H7  1  0.43767000  0.75383000  0.60461000  1.0
  H  H8  1  0.56233000  0.24618000  0.39539000  1.0
  H  H9  1  0.87454000  0.60926000  0.65161000  1.0
  H  H10  1  0.12547000  0.39075000  0.34838000  1.0
  H  H11  1  0.83021000  0.40738000  0.76553000  1.0
  H  H12  1  0.16980000  0.59263000  0.23446000  1.0
  H  H13  1  0.51651000  0.48858000  0.81184000  1.0
  H  H14  1  0.48350000  0.51143000  0.18814000  1.0
  H  H15  1  0.59352000  0.49937000  0.62846000  1.0
  H  H16  1  0.40649000  0.50064000  0.37153000  1.0
  C  C17  1  0.83254000  0.64945000  0.07087000  1.0
  C  C18  1  0.16746000  0.35054000  0.92914000  1.0
  C  C19  1  0.36582000  0.85214000  0.00669000  1.0
  C  C20  1  0.63418000  0.14786000  0.99331000  1.0
  C  C21  1  0.53103000  0.74192000  0.68068000  1.0
  C  C22  1  0.46898000  0.25809000  0.31932000  1.0
  C  C23  1  0.78955000  0.54138000  0.74477000  1.0
  C  C24  1  0.21046000  0.45862000  0.25522000  1.0
  C  C25  1  0.60040000  0.55955000  0.71938000  1.0
  C  C26  1  0.39961000  0.44045000  0.28062000  1.0
  Br  Br27  1  0.04432000  0.13340000  0.62409000  1.0
  Br  Br28  1  0.95566000  0.86659000  0.37591000  1.0
  N  N29  1  0.89180000  0.79003000  0.97549000  1.0
  N  N30  1  0.10820000  0.20996000  0.02451000  1.0
  N  N31  1  0.28091000  0.87257000  0.80049000  1.0
  N  N32  1  0.71909000  0.12742000  0.19951000  1.0
  N  N33  1  0.88506000  0.76504000  0.84569000  1.0
  N  N34  1  0.11494000  0.23496000  0.15431000  1.0
  N  N35  1  0.43569000  0.80036000  0.80432000  1.0
  N  N36  1  0.56431000  0.19964000  0.19568000  1.0
  N  N37  1  0.49451000  0.78516000  0.92946000  1.0
  N  N38  1  0.50549000  0.21485000  0.07054000  1.0
  N  N39  1  0.23602000  0.90648000  0.92882000  1.0
  N  N40  1  0.76398000  0.09352000  0.07118000  1.0
  N  N41  1  0.78826000  0.53359000  0.00297000  1.0
  N  N42  1  0.21174000  0.46640000  0.99702000  1.0
  N  N43  1  0.82349000  0.61127000  0.86555000  1.0
  N  N44  1  0.17652000  0.38873000  0.13445000  1.0
  O  O45  1  0.92839000  0.15350000  0.78428000  1.0
  O  O46  1  0.07161000  0.84649000  0.21574000  1.0
  O  O47  1  0.20533000  0.27305000  0.59934000  1.0
  O  O48  1  0.79464000  0.72695000  0.40065000  1.0
  O  O49  1  0.91233000  0.20843000  0.50268000  1.0
  O  O50  1  0.08763000  0.79157000  0.49735000  1.0
