# generated using pymatgen
data_CrH8C17(O2F3)2
_symmetry_space_group_name_H-M   'P 1'
_cell_length_a   6.94281000
_cell_length_b   12.43300000
_cell_length_c   20.57800000
_cell_angle_alpha   90.29700000
_cell_angle_beta   90.00000000
_cell_angle_gamma   90.00000000
_symmetry_Int_Tables_number   1
_chemical_formula_structural   CrH8C17(O2F3)2
_chemical_formula_sum   'Cr4 H32 C68 O16 F24'
_cell_volume   1776.26820516
_cell_formula_units_Z   4
loop_
 _symmetry_equiv_pos_site_id
 _symmetry_equiv_pos_as_xyz
  1  'x, y, z'
loop_
 _atom_site_type_symbol
 _atom_site_label
 _atom_site_symmetry_multiplicity
 _atom_site_fract_x
 _atom_site_fract_y
 _atom_site_fract_z
 _atom_site_occupancy
  Cr  Cr0  1  0.39336000  0.53609000  0.01636000  1.0
  Cr  Cr1  1  0.39337000  0.96391000  0.48364000  1.0
  Cr  Cr2  1  0.60664000  0.46392000  0.98365000  1.0
  Cr  Cr3  1  0.60665000  0.03608000  0.51635000  1.0
  H  H4  1  0.96723000  0.71157000  0.89009000  1.0
  H  H5  1  0.96721000  0.78843000  0.60991000  1.0
  H  H6  1  0.03275000  0.28843000  0.10992000  1.0
  H  H7  1  0.03273000  0.21157000  0.39008000  1.0
  H  H8  1  0.09280000  0.88424000  0.84862000  1.0
  H  H9  1  0.09279000  0.61576000  0.65138000  1.0
  H  H10  1  0.90721000  0.11576000  0.15139000  1.0
  H  H11  1  0.90719000  0.38425000  0.34861000  1.0
  H  H12  1  0.57924000  0.04438000  0.91731000  1.0
  H  H13  1  0.57923000  0.45561000  0.58269000  1.0
  H  H14  1  0.42077000  0.95563000  0.08269000  1.0
  H  H15  1  0.42077000  0.54437000  0.41732000  1.0
  H  H16  1  0.45195000  0.87143000  0.95546000  1.0
  H  H17  1  0.45194000  0.62856000  0.54454000  1.0
  H  H18  1  0.54804000  0.12859000  0.04453000  1.0
  H  H19  1  0.54803000  0.37140000  0.45547000  1.0
  H  H20  1  0.45562000  0.13631000  0.71221000  1.0
  H  H21  1  0.45563000  0.36370000  0.78778000  1.0
  H  H22  1  0.54437000  0.86369000  0.28777000  1.0
  H  H23  1  0.54437000  0.63631000  0.21223000  1.0
  H  H24  1  0.80865000  0.98028000  0.75142000  1.0
  H  H25  1  0.80866000  0.51972000  0.74858000  1.0
  H  H26  1  0.19135000  0.01971000  0.24858000  1.0
  H  H27  1  0.19135000  0.48029000  0.25142000  1.0
  H  H28  1  0.96004000  0.96246000  0.64311000  1.0
  H  H29  1  0.96005000  0.53754000  0.85689000  1.0
  H  H30  1  0.03992000  0.03753000  0.35689000  1.0
  H  H31  1  0.03994000  0.46247000  0.14311000  1.0
  H  H32  1  0.30128000  0.16102000  0.81875000  1.0
  H  H33  1  0.30128000  0.33898000  0.68124000  1.0
  H  H34  1  0.69874000  0.83897000  0.18124000  1.0
  H  H35  1  0.69874000  0.66103000  0.31876000  1.0
  C  C36  1  0.62793000  0.67826000  0.95167000  1.0
  C  C37  1  0.62791000  0.82173000  0.54833000  1.0
  C  C38  1  0.37207000  0.32175000  0.04833000  1.0
  C  C39  1  0.37205000  0.17825000  0.45166000  1.0
  C  C40  1  0.70060000  0.78020000  0.92496000  1.0
  C  C41  1  0.70058000  0.71980000  0.57504000  1.0
  C  C42  1  0.29939000  0.21981000  0.07505000  1.0
  C  C43  1  0.29938000  0.28018000  0.42495000  1.0
  C  C44  1  0.88114000  0.78449000  0.89444000  1.0
  C  C45  1  0.88112000  0.71551000  0.60556000  1.0
  C  C46  1  0.11885000  0.21552000  0.10556000  1.0
  C  C47  1  0.11884000  0.28448000  0.39444000  1.0
  C  C48  1  0.95187000  0.88191000  0.87186000  1.0
  C  C49  1  0.95186000  0.61809000  0.62814000  1.0
  C  C50  1  0.04813000  0.11809000  0.12815000  1.0
  C  C51  1  0.04812000  0.38191000  0.37185000  1.0
  C  C52  1  0.84556000  0.97721000  0.87977000  1.0
  C  C53  1  0.84555000  0.52279000  0.62023000  1.0
  C  C54  1  0.15445000  0.02279000  0.12023000  1.0
  C  C55  1  0.15444000  0.47721000  0.37977000  1.0
  C  C56  1  0.66479000  0.97231000  0.90985000  1.0
  C  C57  1  0.66478000  0.52769000  0.59016000  1.0
  C  C58  1  0.33522000  0.02770000  0.09016000  1.0
  C  C59  1  0.33520000  0.47229000  0.40985000  1.0
  C  C60  1  0.59224000  0.87470000  0.93180000  1.0
  C  C61  1  0.59223000  0.62529000  0.56820000  1.0
  C  C62  1  0.40776000  0.12531000  0.06820000  1.0
  C  C63  1  0.40774000  0.37468000  0.43180000  1.0
  C  C64  1  0.94054000  0.08357000  0.85915000  1.0
  C  C65  1  0.94054000  0.41643000  0.64085000  1.0
  C  C66  1  0.05948000  0.91643000  0.14085000  1.0
  C  C67  1  0.05948000  0.58357000  0.35915000  1.0
  C  C68  1  0.07802000  0.11567000  0.91618000  1.0
  C  C69  1  0.07802000  0.38433000  0.58382000  1.0
  C  C70  1  0.92201000  0.88433000  0.08382000  1.0
  C  C71  1  0.92201000  0.61567000  0.41618000  1.0
  C  C72  1  0.79325000  0.17711000  0.85057000  1.0
  C  C73  1  0.79325000  0.32289000  0.64943000  1.0
  C  C74  1  0.20678000  0.82289000  0.14943000  1.0
  C  C75  1  0.20677000  0.67711000  0.35057000  1.0
  C  C76  1  0.31731000  0.03283000  0.60806000  1.0
  C  C77  1  0.31733000  0.46717000  0.89194000  1.0
  C  C78  1  0.68266000  0.96716000  0.39193000  1.0
  C  C79  1  0.68268000  0.53284000  0.10807000  1.0
  C  C80  1  0.22005000  0.04650000  0.67123000  1.0
  C  C81  1  0.22006000  0.45350000  0.82877000  1.0
  C  C82  1  0.77993000  0.95349000  0.32876000  1.0
  C  C83  1  0.77994000  0.54651000  0.17124000  1.0
  C  C84  1  0.31359000  0.10254000  0.72122000  1.0
  C  C85  1  0.31360000  0.39746000  0.77878000  1.0
  C  C86  1  0.68640000  0.89746000  0.27877000  1.0
  C  C87  1  0.68641000  0.60255000  0.22123000  1.0
  C  C88  1  0.04488000  0.07052000  0.79361000  1.0
  C  C89  1  0.04489000  0.42948000  0.70639000  1.0
  C  C90  1  0.95512000  0.92948000  0.20639000  1.0
  C  C91  1  0.95513000  0.57052000  0.29361000  1.0
  C  C92  1  0.95078000  0.01476000  0.74319000  1.0
  C  C93  1  0.95079000  0.48524000  0.75682000  1.0
  C  C94  1  0.04922000  0.98523000  0.25682000  1.0
  C  C95  1  0.04922000  0.51477000  0.24319000  1.0
  C  C96  1  0.03614000  0.00345000  0.68239000  1.0
  C  C97  1  0.03615000  0.49655000  0.81761000  1.0
  C  C98  1  0.96385000  0.99654000  0.31760000  1.0
  C  C99  1  0.96385000  0.50346000  0.18240000  1.0
  C  C100  1  0.22606000  0.11539000  0.78154000  1.0
  C  C101  1  0.22607000  0.38462000  0.71846000  1.0
  C  C102  1  0.77395000  0.88461000  0.21845000  1.0
  C  C103  1  0.77395000  0.61539000  0.28155000  1.0
  O  O104  1  0.72557000  0.59094000  0.94409000  1.0
  O  O105  1  0.72556000  0.90905000  0.55591000  1.0
  O  O106  1  0.27442000  0.40906000  0.05592000  1.0
  O  O107  1  0.27441000  0.09093000  0.44408000  1.0
  O  O108  1  0.23248000  0.98284000  0.56120000  1.0
  O  O109  1  0.23250000  0.51716000  0.93880000  1.0
  O  O110  1  0.76749000  0.01715000  0.43879000  1.0
  O  O111  1  0.76750000  0.48284000  0.06120000  1.0
  O  O112  1  0.46783000  0.67729000  0.98319000  1.0
  O  O113  1  0.46780000  0.82271000  0.51681000  1.0
  O  O114  1  0.53217000  0.32273000  0.01681000  1.0
  O  O115  1  0.53215000  0.17727000  0.48319000  1.0
  O  O116  1  0.48938000  0.06976000  0.60058000  1.0
  O  O117  1  0.48940000  0.43024000  0.89942000  1.0
  O  O118  1  0.51060000  0.93023000  0.39941000  1.0
  O  O119  1  0.51060000  0.56976000  0.10059000  1.0
  F  F120  1  0.98608000  0.11067000  0.97419000  1.0
  F  F121  1  0.98608000  0.38934000  0.52581000  1.0
  F  F122  1  0.01395000  0.88933000  0.02581000  1.0
  F  F123  1  0.01395000  0.61066000  0.47419000  1.0
  F  F124  1  0.23125000  0.04729000  0.91932000  1.0
  F  F125  1  0.23125000  0.45271000  0.58068000  1.0
  F  F126  1  0.76878000  0.95271000  0.08067000  1.0
  F  F127  1  0.76877000  0.54729000  0.41933000  1.0
  F  F128  1  0.15088000  0.21734000  0.91125000  1.0
  F  F129  1  0.15089000  0.28267000  0.58875000  1.0
  F  F130  1  0.84914000  0.78267000  0.08874000  1.0
  F  F131  1  0.84915000  0.71733000  0.41126000  1.0
  F  F132  1  0.71181000  0.21097000  0.90728000  1.0
  F  F133  1  0.71181000  0.28903000  0.59272000  1.0
  F  F134  1  0.28823000  0.78904000  0.09272000  1.0
  F  F135  1  0.28822000  0.71096000  0.40728000  1.0
  F  F136  1  0.87593000  0.26453000  0.82308000  1.0
  F  F137  1  0.87593000  0.23547000  0.67692000  1.0
  F  F138  1  0.12410000  0.73548000  0.17692000  1.0
  F  F139  1  0.12409000  0.76452000  0.32308000  1.0
  F  F140  1  0.64662000  0.14593000  0.81055000  1.0
  F  F141  1  0.64662000  0.35407000  0.68946000  1.0
  F  F142  1  0.35339000  0.85408000  0.18946000  1.0
  F  F143  1  0.35339000  0.64593000  0.31055000  1.0
