# generated using pymatgen
data_CuH10C7BrN2
_symmetry_space_group_name_H-M   'P 1'
_cell_length_a   7.75567000
_cell_length_b   7.88121000
_cell_length_c   15.25680000
_cell_angle_alpha   89.99970000
_cell_angle_beta   89.99990000
_cell_angle_gamma   100.43500000
_symmetry_Int_Tables_number   1
_chemical_formula_structural   CuH10C7BrN2
_chemical_formula_sum   'Cu4 H40 C28 Br4 N8'
_cell_volume   917.13406202
_cell_formula_units_Z   4
loop_
 _symmetry_equiv_pos_site_id
 _symmetry_equiv_pos_as_xyz
  1  'x, y, z'
loop_
 _atom_site_type_symbol
 _atom_site_label
 _atom_site_symmetry_multiplicity
 _atom_site_fract_x
 _atom_site_fract_y
 _atom_site_fract_z
 _atom_site_occupancy
  Cu  Cu0  1  0.80623000  0.94140000  0.04742000  1.0
  Cu  Cu1  1  0.69376000  0.05860000  0.54742000  1.0
  Cu  Cu2  1  0.19376000  0.05860000  0.95257000  1.0
  Cu  Cu3  1  0.30624000  0.94139000  0.45258000  1.0
  H  H4  1  0.79297000  0.00338000  0.21177000  1.0
  H  H5  1  0.70704000  0.99662000  0.71176000  1.0
  H  H6  1  0.20705000  0.99663000  0.78823000  1.0
  H  H7  1  0.29298000  0.00338000  0.28823000  1.0
  H  H8  1  0.56968000  0.97481000  0.16371000  1.0
  H  H9  1  0.93032000  0.02519000  0.66370000  1.0
  H  H10  1  0.43033000  0.02519000  0.83630000  1.0
  H  H11  1  0.06969000  0.97481000  0.33629000  1.0
  H  H12  1  0.89592000  0.24455000  0.10870000  1.0
  H  H13  1  0.60408000  0.75545000  0.60870000  1.0
  H  H14  1  0.10409000  0.75546000  0.89129000  1.0
  H  H15  1  0.39592000  0.24455000  0.39130000  1.0
  H  H16  1  0.69289000  0.28889000  0.98300000  1.0
  H  H17  1  0.80710000  0.71111000  0.48299000  1.0
  H  H18  1  0.30709000  0.71110000  0.01700000  1.0
  H  H19  1  0.19289000  0.28888000  0.51700000  1.0
  H  H20  1  0.51454000  0.15601000  0.03649000  1.0
  H  H21  1  0.98545000  0.84399000  0.53648000  1.0
  H  H22  1  0.48545000  0.84398000  0.96352000  1.0
  H  H23  1  0.01454000  0.15600000  0.46351000  1.0
  H  H24  1  0.39689000  0.24445000  0.16384000  1.0
  H  H25  1  0.10311000  0.75556000  0.66383000  1.0
  H  H26  1  0.60309000  0.75556000  0.83616000  1.0
  H  H27  1  0.89688000  0.24444000  0.33616000  1.0
  H  H28  1  0.55952000  0.37650000  0.23002000  1.0
  H  H29  1  0.94048000  0.62350000  0.73001000  1.0
  H  H30  1  0.44047000  0.62348000  0.76998000  1.0
  H  H31  1  0.05951000  0.37650000  0.26998000  1.0
  H  H32  1  0.26126000  0.49807000  0.12520000  1.0
  H  H33  1  0.23874000  0.50194000  0.62519000  1.0
  H  H34  1  0.73875000  0.50196000  0.87480000  1.0
  H  H35  1  0.76125000  0.49806000  0.37480000  1.0
  H  H36  1  0.29465000  0.72880000  0.23466000  1.0
  H  H37  1  0.20535000  0.27120000  0.73465000  1.0
  H  H38  1  0.70537000  0.27122000  0.76535000  1.0
  H  H39  1  0.79466000  0.72881000  0.26535000  1.0
  H  H40  1  0.48061000  0.64756000  0.28617000  1.0
  H  H41  1  0.01940000  0.35244000  0.78616000  1.0
  H  H42  1  0.51941000  0.35244000  0.71385000  1.0
  H  H43  1  0.98061000  0.64756000  0.21384000  1.0
  C  C44  1  0.67343000  0.55531000  0.07362000  1.0
  C  C45  1  0.82657000  0.44471000  0.57362000  1.0
  C  C46  1  0.32656000  0.44469000  0.92638000  1.0
  C  C47  1  0.17342000  0.55529000  0.42638000  1.0
  C  C48  1  0.70834000  0.03357000  0.15923000  1.0
  C  C49  1  0.79166000  0.96642000  0.65922000  1.0
  C  C50  1  0.29167000  0.96644000  0.84077000  1.0
  C  C51  1  0.20834000  0.03357000  0.34077000  1.0
  C  C52  1  0.76383000  0.16848000  0.10173000  1.0
  C  C53  1  0.73617000  0.83152000  0.60173000  1.0
  C  C54  1  0.23617000  0.83153000  0.89827000  1.0
  C  C55  1  0.26383000  0.16847000  0.39827000  1.0
  C  C56  1  0.63747000  0.24785000  0.04728000  1.0
  C  C57  1  0.86252000  0.75215000  0.54728000  1.0
  C  C58  1  0.36251000  0.75215000  0.95272000  1.0
  C  C59  1  0.13747000  0.24784000  0.45272000  1.0
  C  C60  1  0.47721000  0.37397000  0.17118000  1.0
  C  C61  1  0.02279000  0.62603000  0.67117000  1.0
  C  C62  1  0.52278000  0.62602000  0.82882000  1.0
  C  C63  1  0.97720000  0.37397000  0.32882000  1.0
  C  C64  1  0.36282000  0.50738000  0.17570000  1.0
  C  C65  1  0.13719000  0.49263000  0.67569000  1.0
  C  C66  1  0.63719000  0.49264000  0.82432000  1.0
  C  C67  1  0.86281000  0.50738000  0.32431000  1.0
  C  C68  1  0.38064000  0.63375000  0.23505000  1.0
  C  C69  1  0.11937000  0.36625000  0.73504000  1.0
  C  C70  1  0.61938000  0.36625000  0.76495000  1.0
  C  C71  1  0.88063000  0.63375000  0.26496000  1.0
  Br  Br72  1  0.84567000  0.02172000  0.89499000  1.0
  Br  Br73  1  0.65431000  0.97829000  0.39498000  1.0
  Br  Br74  1  0.15432000  0.97829000  0.10501000  1.0
  Br  Br75  1  0.34568000  0.02170000  0.60502000  1.0
  N  N76  1  0.74246000  0.69741000  0.05806000  1.0
  N  N77  1  0.75753000  0.30257000  0.55806000  1.0
  N  N78  1  0.25753000  0.30258000  0.94194000  1.0
  N  N79  1  0.24247000  0.69742000  0.44194000  1.0
  N  N80  1  0.58919000  0.39986000  0.09149000  1.0
  N  N81  1  0.91080000  0.60014000  0.59148000  1.0
  N  N82  1  0.41080000  0.60014000  0.90852000  1.0
  N  N83  1  0.08919000  0.39985000  0.40851000  1.0
