# generated using pymatgen
data_PrCuH8C14(NO4)2
_symmetry_space_group_name_H-M   'P 1'
_cell_length_a   9.27477000
_cell_length_b   11.43650000
_cell_length_c   17.31300000
_cell_angle_alpha   107.06400000
_cell_angle_beta   90.02090000
_cell_angle_gamma   113.86600000
_symmetry_Int_Tables_number   1
_chemical_formula_structural   PrCuH8C14(NO4)2
_chemical_formula_sum   'Pr4 Cu4 H32 C56 N8 O32'
_cell_volume   1590.48633815
_cell_formula_units_Z   4
loop_
 _symmetry_equiv_pos_site_id
 _symmetry_equiv_pos_as_xyz
  1  'x, y, z'
loop_
 _atom_site_type_symbol
 _atom_site_label
 _atom_site_symmetry_multiplicity
 _atom_site_fract_x
 _atom_site_fract_y
 _atom_site_fract_z
 _atom_site_occupancy
  Pr  Pr0  1  0.30249000  0.96442000  0.92423000  1.0
  Pr  Pr1  1  0.33820000  0.03570000  0.57578000  1.0
  Pr  Pr2  1  0.69752000  0.03558000  0.07577000  1.0
  Pr  Pr3  1  0.66179000  0.96430000  0.42422000  1.0
  Cu  Cu4  1  0.24516000  0.33075000  0.13411000  1.0
  Cu  Cu5  1  0.91471000  0.66937000  0.36570000  1.0
  Cu  Cu6  1  0.75485000  0.66926000  0.86590000  1.0
  Cu  Cu7  1  0.08528000  0.33063000  0.63430000  1.0
  H  H8  1  0.61703000  0.19838000  0.77943000  1.0
  H  H9  1  0.41973000  0.80199000  0.72040000  1.0
  H  H10  1  0.38298000  0.80161000  0.22058000  1.0
  H  H11  1  0.58027000  0.19801000  0.27960000  1.0
  H  H12  1  0.78805000  0.30928000  0.68835000  1.0
  H  H13  1  0.47953000  0.69092000  0.81158000  1.0
  H  H14  1  0.21193000  0.69070000  0.31165000  1.0
  H  H15  1  0.52047000  0.30908000  0.18842000  1.0
  H  H16  1  0.16136000  0.23430000  0.75991000  1.0
  H  H17  1  0.92778000  0.76540000  0.74038000  1.0
  H  H18  1  0.83865000  0.76570000  0.24008000  1.0
  H  H19  1  0.07222000  0.23461000  0.25962000  1.0
  H  H20  1  0.00987000  0.13174000  0.86016000  1.0
  H  H21  1  0.87914000  0.86801000  0.63998000  1.0
  H  H22  1  0.99016000  0.86827000  0.13984000  1.0
  H  H23  1  0.12085000  0.13199000  0.36002000  1.0
  H  H24  1  0.55508000  0.73335000  0.05972000  1.0
  H  H25  1  0.82189000  0.26666000  0.44023000  1.0
  H  H26  1  0.44491000  0.26666000  0.94028000  1.0
  H  H27  1  0.17810000  0.73333000  0.55977000  1.0
  H  H28  1  0.49292000  0.57517000  0.13716000  1.0
  H  H29  1  0.91798000  0.42483000  0.36281000  1.0
  H  H30  1  0.50708000  0.42484000  0.86285000  1.0
  H  H31  1  0.08202000  0.57517000  0.63719000  1.0
  H  H32  1  0.04839000  0.32934000  0.99868000  1.0
  H  H33  1  0.71865000  0.67075000  0.50088000  1.0
  H  H34  1  0.95161000  0.67066000  0.00132000  1.0
  H  H35  1  0.28137000  0.32925000  0.49913000  1.0
  H  H36  1  0.08970000  0.48862000  0.91810000  1.0
  H  H37  1  0.60057000  0.51145000  0.58139000  1.0
  H  H38  1  0.91029000  0.51137000  0.08190000  1.0
  H  H39  1  0.39944000  0.48855000  0.41861000  1.0
  C  C40  1  0.69863000  0.08736000  0.88295000  1.0
  C  C41  1  0.61213000  0.91285000  0.61710000  1.0
  C  C42  1  0.30140000  0.91264000  0.11706000  1.0
  C  C43  1  0.38786000  0.08714000  0.38290000  1.0
  C  C44  1  0.79963000  0.15554000  0.82727000  1.0
  C  C45  1  0.64516000  0.84460000  0.67274000  1.0
  C  C46  1  0.20039000  0.84446000  0.17273000  1.0
  C  C47  1  0.35484000  0.15540000  0.32725000  1.0
  C  C48  1  0.73818000  0.20716000  0.77845000  1.0
  C  C49  1  0.53202000  0.79306000  0.72148000  1.0
  C  C50  1  0.26183000  0.79283000  0.22155000  1.0
  C  C51  1  0.46799000  0.20694000  0.27851000  1.0
  C  C52  1  0.83256000  0.26777000  0.72679000  1.0
  C  C53  1  0.56562000  0.73237000  0.77319000  1.0
  C  C54  1  0.16743000  0.73222000  0.27321000  1.0
  C  C55  1  0.43439000  0.26764000  0.22681000  1.0
  C  C56  1  0.04179000  0.22690000  0.76763000  1.0
  C  C57  1  0.81567000  0.77292000  0.73253000  1.0
  C  C58  1  0.95822000  0.77311000  0.23237000  1.0
  C  C59  1  0.18434000  0.22709000  0.26747000  1.0
  C  C60  1  0.95582000  0.16873000  0.82262000  1.0
  C  C61  1  0.78804000  0.83115000  0.67747000  1.0
  C  C62  1  0.04419000  0.83127000  0.17738000  1.0
  C  C63  1  0.21196000  0.16886000  0.32253000  1.0
  C  C64  1  0.34598000  0.73378000  0.94559000  1.0
  C  C65  1  0.61183000  0.26627000  0.55410000  1.0
  C  C66  1  0.65401000  0.26623000  0.05441000  1.0
  C  C67  1  0.38816000  0.73373000  0.44590000  1.0
  C  C68  1  0.32469000  0.62608000  0.98325000  1.0
  C  C69  1  0.69827000  0.37390000  0.51643000  1.0
  C  C70  1  0.67530000  0.37392000  0.01676000  1.0
  C  C71  1  0.30172000  0.62609000  0.48357000  1.0
  C  C72  1  0.44065000  0.64644000  0.04325000  1.0
  C  C73  1  0.79418000  0.35356000  0.45659000  1.0
  C  C74  1  0.55934000  0.35357000  0.95675000  1.0
  C  C75  1  0.20582000  0.64643000  0.54341000  1.0
  C  C76  1  0.40748000  0.55682000  0.08691000  1.0
  C  C77  1  0.85069000  0.44319000  0.41295000  1.0
  C  C78  1  0.59252000  0.44320000  0.91309000  1.0
  C  C79  1  0.14931000  0.55680000  0.58706000  1.0
  C  C80  1  0.15817000  0.42093000  0.01007000  1.0
  C  C81  1  0.73688000  0.57910000  0.48952000  1.0
  C  C82  1  0.84183000  0.57907000  0.98994000  1.0
  C  C83  1  0.26312000  0.42090000  0.51048000  1.0
  C  C84  1  0.18213000  0.50882000  0.96532000  1.0
  C  C85  1  0.67289000  0.49119000  0.53424000  1.0
  C  C86  1  0.81786000  0.49118000  0.03468000  1.0
  C  C87  1  0.32712000  0.50881000  0.46576000  1.0
  C  C88  1  0.94502000  0.92677000  0.97415000  1.0
  C  C89  1  0.01806000  0.07321000  0.52587000  1.0
  C  C90  1  0.05497000  0.07324000  0.02586000  1.0
  C  C91  1  0.98193000  0.92679000  0.47412000  1.0
  C  C92  1  0.21571000  0.92327000  0.72850000  1.0
  C  C93  1  0.29240000  0.07705000  0.77151000  1.0
  C  C94  1  0.78428000  0.07672000  0.27149000  1.0
  C  C95  1  0.70761000  0.92295000  0.22847000  1.0
  N  N96  1  0.98121000  0.27529000  0.71950000  1.0
  N  N97  1  0.70664000  0.72469000  0.78060000  1.0
  N  N98  1  0.01879000  0.72471000  0.28050000  1.0
  N  N99  1  0.29337000  0.27532000  0.21940000  1.0
  N  N100  1  0.26766000  0.44577000  0.07170000  1.0
  N  N101  1  0.82176000  0.55426000  0.42803000  1.0
  N  N102  1  0.73235000  0.55424000  0.92831000  1.0
  N  N103  1  0.17825000  0.44573000  0.57198000  1.0
  O  O104  1  0.54888000  0.03587000  0.86301000  1.0
  O  O105  1  0.51384000  0.96440000  0.63705000  1.0
  O  O106  1  0.45114000  0.96412000  0.13700000  1.0
  O  O107  1  0.48615000  0.03559000  0.36295000  1.0
  O  O108  1  0.77149000  0.08850000  0.94543000  1.0
  O  O109  1  0.68364000  0.91161000  0.55457000  1.0
  O  O110  1  0.22854000  0.91152000  0.05458000  1.0
  O  O111  1  0.31635000  0.08838000  0.44543000  1.0
  O  O112  1  0.23543000  0.71495000  0.89394000  1.0
  O  O113  1  0.52011000  0.28526000  0.60571000  1.0
  O  O114  1  0.76456000  0.28505000  0.10606000  1.0
  O  O115  1  0.47988000  0.71473000  0.39429000  1.0
  O  O116  1  0.47153000  0.84611000  0.97038000  1.0
  O  O117  1  0.62507000  0.15386000  0.52940000  1.0
  O  O118  1  0.52846000  0.15388000  0.02962000  1.0
  O  O119  1  0.37491000  0.84613000  0.47060000  1.0
  O  O120  1  0.00301000  0.86508000  0.91877000  1.0
  O  O121  1  0.13759000  0.13488000  0.58132000  1.0
  O  O122  1  0.99701000  0.13492000  0.08123000  1.0
  O  O123  1  0.86239000  0.86512000  0.41867000  1.0
  O  O124  1  0.80386000  0.87671000  0.98960000  1.0
  O  O125  1  0.92686000  0.12330000  0.51041000  1.0
  O  O126  1  0.19616000  0.12331000  0.01040000  1.0
  O  O127  1  0.07312000  0.87670000  0.48959000  1.0
  O  O128  1  0.20122000  0.84832000  0.77197000  1.0
  O  O129  1  0.35264000  0.15199000  0.72800000  1.0
  O  O130  1  0.79878000  0.15167000  0.22803000  1.0
  O  O131  1  0.64734000  0.84800000  0.27199000  1.0
  O  O132  1  0.16911000  0.88517000  0.65266000  1.0
  O  O133  1  0.28383000  0.11515000  0.84732000  1.0
  O  O134  1  0.83087000  0.11481000  0.34734000  1.0
  O  O135  1  0.71619000  0.88484000  0.15268000  1.0
