# generated using pymatgen
data_Cu6H20WC20S4(IN)4
_symmetry_space_group_name_H-M   'P 1'
_cell_length_a   12.86844735
_cell_length_b   12.86860000
_cell_length_c   12.86860000
_cell_angle_alpha   107.71080000
_cell_angle_beta   110.35832728
_cell_angle_gamma   110.35852728
_symmetry_Int_Tables_number   1
_chemical_formula_structural   Cu6H20WC20S4(IN)4
_chemical_formula_sum   'Cu12 H40 W2 C40 S8 I8 N8'
_cell_volume   1639.31204352
_cell_formula_units_Z   2
loop_
 _symmetry_equiv_pos_site_id
 _symmetry_equiv_pos_as_xyz
  1  'x, y, z'
loop_
 _atom_site_type_symbol
 _atom_site_label
 _atom_site_symmetry_multiplicity
 _atom_site_fract_x
 _atom_site_fract_y
 _atom_site_fract_z
 _atom_site_occupancy
  Cu  Cu0  1  0.50000000  0.57513000  0.07513000  1.0
  Cu  Cu1  1  0.50000000  0.92487000  0.42487000  1.0
  Cu  Cu2  1  0.00000000  0.32516000  0.32516000  1.0
  Cu  Cu3  1  0.00000000  0.67483000  0.67484000  1.0
  Cu  Cu4  1  0.54355000  0.91828000  0.16738000  1.0
  Cu  Cu5  1  0.24910000  0.62526000  0.08171000  1.0
  Cu  Cu6  1  0.45645000  0.62384000  0.37474000  1.0
  Cu  Cu7  1  0.75090000  0.83261000  0.37616000  1.0
  Cu  Cu8  1  0.95652000  0.62475000  0.37367000  1.0
  Cu  Cu9  1  0.25108000  0.62634000  0.58286000  1.0
  Cu  Cu10  1  0.04348000  0.41714000  0.66822000  1.0
  Cu  Cu11  1  0.74892000  0.33177000  0.37525000  1.0
  H  H12  1  0.70044000  0.07505000  0.09517000  1.0
  H  H13  1  0.02011000  0.62539000  0.92495000  1.0
  H  H14  1  0.29956000  0.39472000  0.37461000  1.0
  H  H15  1  0.97989000  0.90483000  0.60527000  1.0
  H  H16  1  0.79956000  0.62469000  0.14450000  1.0
  H  H17  1  0.48019000  0.85550000  0.65506000  1.0
  H  H18  1  0.20044000  0.34494000  0.82512000  1.0
  H  H19  1  0.51981000  0.17487000  0.37531000  1.0
  H  H20  1  0.66080000  0.15670000  0.94104000  1.0
  H  H21  1  0.78434000  0.50411000  0.84330000  1.0
  H  H22  1  0.33920000  0.28024000  0.49590000  1.0
  H  H23  1  0.21566000  0.05895000  0.71976000  1.0
  H  H24  1  0.83918000  0.74598000  0.03004000  1.0
  H  H25  1  0.71594000  0.96995000  0.80915000  1.0
  H  H26  1  0.16082000  0.19087000  0.90680000  1.0
  H  H27  1  0.28406000  0.09321000  0.25401000  1.0
  H  H28  1  0.43754000  0.10694000  0.80560000  1.0
  H  H29  1  0.69866000  0.33061000  0.89306000  1.0
  H  H30  1  0.56246000  0.36806000  0.66939000  1.0
  H  H31  1  0.30134000  0.19440000  0.63195000  1.0
  H  H32  1  0.06240000  0.91957000  0.11794000  1.0
  H  H33  1  0.80163000  0.88206000  0.94447000  1.0
  H  H34  1  0.93760000  0.05554000  0.85716000  1.0
  H  H35  1  0.19837000  0.14284000  0.08043000  1.0
  H  H36  1  0.25902000  0.97327000  0.83221000  1.0
  H  H37  1  0.85893000  0.28575000  0.02672000  1.0
  H  H38  1  0.74098000  0.57319000  0.71425000  1.0
  H  H39  1  0.14107000  0.16779000  0.42682000  1.0
  H  H40  1  0.24092000  0.96444000  0.32309000  1.0
  H  H41  1  0.64134000  0.67690000  0.91783000  1.0
  H  H42  1  0.75908000  0.08217000  0.72351000  1.0
  H  H43  1  0.35866000  0.27649000  0.03557000  1.0
  H  H44  1  0.31329000  0.89780000  0.98619000  1.0
  H  H45  1  0.08839000  0.41549000  0.10219000  1.0
  H  H46  1  0.68670000  0.67290000  0.58450000  1.0
  H  H47  1  0.91162000  0.01380000  0.32711000  1.0
  H  H48  1  0.18670000  0.83457000  0.42268000  1.0
  H  H49  1  0.41188000  0.57730000  0.76400000  1.0
  H  H50  1  0.81329000  0.23599000  0.64787000  1.0
  H  H51  1  0.58812000  0.35213000  0.16542000  1.0
  W  W52  1  0.50000000  0.75000000  0.24999000  1.0
  W  W53  1  0.00000000  0.50000000  0.50000000  1.0
  C  C54  1  0.60405000  0.05445000  0.03410000  1.0
  C  C55  1  0.97965000  0.54961000  0.94555000  1.0
  C  C56  1  0.39595000  0.43005000  0.45040000  1.0
  C  C57  1  0.02035000  0.96589000  0.56995000  1.0
  C  C58  1  0.89594000  0.70047000  0.17985000  1.0
  C  C59  1  0.52062000  0.82014000  0.71609000  1.0
  C  C60  1  0.10406000  0.28392000  0.80453000  1.0
  C  C61  1  0.47938000  0.19547000  0.29952000  1.0
  C  C62  1  0.58136000  0.10040000  0.94887000  1.0
  C  C63  1  0.84847000  0.48098000  0.89960000  1.0
  C  C64  1  0.41864000  0.36751000  0.51904000  1.0
  C  C65  1  0.15153000  0.05113000  0.63250000  1.0
  C  C66  1  0.91862000  0.76912000  0.11732000  1.0
  C  C67  1  0.65180000  0.88267000  0.80130000  1.0
  C  C68  1  0.08138000  0.19871000  0.85050000  1.0
  C  C69  1  0.34819000  0.14950000  0.23087000  1.0
  C  C70  1  0.45669000  0.07216000  0.87342000  1.0
  C  C71  1  0.80125000  0.38454000  0.92784000  1.0
  C  C72  1  0.54331000  0.41673000  0.61546000  1.0
  C  C73  1  0.19875000  0.12659000  0.58329000  1.0
  C  C74  1  0.04326000  0.86562000  0.16658000  1.0
  C  C75  1  0.69904000  0.83341000  0.87670000  1.0
  C  C76  1  0.95674000  0.12333000  0.82236000  1.0
  C  C77  1  0.30096000  0.17766000  0.13437000  1.0
  C  C78  1  0.35864000  0.99878000  0.88695000  1.0
  C  C79  1  0.88817000  0.35987000  0.00122000  1.0
  C  C80  1  0.64136000  0.52831000  0.64014000  1.0
  C  C81  1  0.11183000  0.11306000  0.47169000  1.0
  C  C82  1  0.14131000  0.89030000  0.27819000  1.0
  C  C83  1  0.61212000  0.72180000  0.86313000  1.0
  C  C84  1  0.85868000  0.13688000  0.74899000  1.0
  C  C85  1  0.38788000  0.25101000  0.10968000  1.0
  C  C86  1  0.38800000  0.95572000  0.97385000  1.0
  C  C87  1  0.01813000  0.43229000  0.04428000  1.0
  C  C88  1  0.61200000  0.58585000  0.56771000  1.0
  C  C89  1  0.98187000  0.02614000  0.41415000  1.0
  C  C90  1  0.11197000  0.81781000  0.33569000  1.0
  C  C91  1  0.48213000  0.66430000  0.77628000  1.0
  C  C92  1  0.88802000  0.22372000  0.70584000  1.0
  C  C93  1  0.51787000  0.29415000  0.18217000  1.0
  S  S94  1  0.63323000  0.78743000  0.16943000  1.0
  S  S95  1  0.38201000  0.84580000  0.21259000  1.0
  S  S96  1  0.36678000  0.53621000  0.15421000  1.0
  S  S97  1  0.61799000  0.83059000  0.46380000  1.0
  S  S98  1  0.86673000  0.40420000  0.28623000  1.0
  S  S99  1  0.11797000  0.71377000  0.58050000  1.0
  S  S100  1  0.13327000  0.41949000  0.53747000  1.0
  S  S101  1  0.88202000  0.46252000  0.59580000  1.0
  I  I102  1  0.50000000  0.41254000  0.91254000  1.0
  I  I103  1  0.50000000  0.08745000  0.58745000  1.0
  I  I104  1  0.00000000  0.16257000  0.16257000  1.0
  I  I105  1  0.00000000  0.83743000  0.83743000  1.0
  I  I106  1  0.75259000  0.12504000  0.37764000  1.0
  I  I107  1  0.25260000  0.62755000  0.87496000  1.0
  I  I108  1  0.24741000  0.62505000  0.37245000  1.0
  I  I109  1  0.74740000  0.62236000  0.37495000  1.0
  N  N110  1  0.50844000  0.98208000  0.04599000  1.0
  N  N111  1  0.06390000  0.52635000  0.01790000  1.0
  N  N112  1  0.49155000  0.53755000  0.47364000  1.0
  N  N113  1  0.93610000  0.95400000  0.46245000  1.0
  N  N114  1  0.99153000  0.72370000  0.28736000  1.0
  N  N115  1  0.43634000  0.71263000  0.70417000  1.0
  N  N116  1  0.00847000  0.29583000  0.73218000  1.0
  N  N117  1  0.56365000  0.26782000  0.27629000  1.0
