# generated using pymatgen
data_Al6H67C85NO31
_symmetry_space_group_name_H-M   'P 1'
_cell_length_a   12.56510000
_cell_length_b   12.77182125
_cell_length_c   28.49190000
_cell_angle_alpha   89.64759773
_cell_angle_beta   89.82010000
_cell_angle_gamma   118.99523847
_symmetry_Int_Tables_number   1
_chemical_formula_structural   Al6H67C85NO31
_chemical_formula_sum   'Al6 H67 C85 N1 O31'
_cell_volume   3999.08471885
_cell_formula_units_Z   1
loop_
 _symmetry_equiv_pos_site_id
 _symmetry_equiv_pos_as_xyz
  1  'x, y, z'
loop_
 _atom_site_type_symbol
 _atom_site_label
 _atom_site_symmetry_multiplicity
 _atom_site_fract_x
 _atom_site_fract_y
 _atom_site_fract_z
 _atom_site_occupancy
  Al  Al0  1  0.40989000  0.59418000  0.50269000  1.0
  Al  Al1  1  0.65932000  0.58104000  0.50015000  1.0
  Al  Al2  1  0.42340000  0.34969000  0.49939000  1.0
  Al  Al3  1  0.92027000  0.07050000  0.99995000  1.0
  Al  Al4  1  0.91339000  0.31889000  0.00016000  1.0
  Al  Al5  1  0.67498000  0.09040000  0.00048000  1.0
  H  H6  1  0.87444000  0.41022000  0.71098000  1.0
  H  H7  1  0.59260000  0.46719000  0.72963000  1.0
  H  H8  1  0.47204000  0.25531000  0.78500000  1.0
  H  H9  1  0.53702000  0.13139000  0.71780000  1.0
  H  H10  1  0.75666000  0.19995000  0.76732000  1.0
  H  H11  1  0.23894000  0.22035000  0.79925000  1.0
  H  H12  1  0.28262000  0.23569000  0.71849000  1.0
  H  H13  1  0.98993000  0.23970000  0.69757000  1.0
  H  H14  1  0.05476000  0.14575000  0.70669000  1.0
  H  H15  1  0.01374000  0.14245000  0.78727000  1.0
  H  H16  1  0.95865000  0.24460000  0.77846000  1.0
  H  H17  1  0.28138000  0.52839000  0.71044000  1.0
  H  H18  1  0.12323000  0.46577000  0.70303000  1.0
  H  H19  1  0.25805000  0.52210000  0.79234000  1.0
  H  H20  1  0.37365000  0.39246000  0.72281000  1.0
  H  H21  1  0.33926000  0.37551000  0.80414000  1.0
  H  H22  1  0.10086000  0.46806000  0.78489000  1.0
  H  H23  1  0.46978000  0.75947000  0.79465000  1.0
  H  H24  1  0.46964000  0.73622000  0.71304000  1.0
  H  H25  1  0.78139000  0.99968000  0.70026000  1.0
  H  H26  1  0.62468000  0.95323000  0.69577000  1.0
  H  H27  1  0.61235000  0.97976000  0.77667000  1.0
  H  H28  1  0.77157000  0.03691000  0.78002000  1.0
  H  H29  1  0.74242000  0.69576000  0.72718000  1.0
  H  H30  1  0.85189000  0.84486000  0.71414000  1.0
  H  H31  1  0.76296000  0.74746000  0.80692000  1.0
  H  H32  1  0.51775000  0.62892000  0.72202000  1.0
  H  H33  1  0.53068000  0.66195000  0.80320000  1.0
  H  H34  1  0.85774000  0.89925000  0.79305000  1.0
  H  H35  1  0.48503000  0.27397000  0.20041000  1.0
  H  H36  1  0.46861000  0.29492000  0.28125000  1.0
  H  H37  1  0.71763000  0.22046000  0.30171000  1.0
  H  H38  1  0.55915000  0.16049000  0.29518000  1.0
  H  H39  1  0.58149000  0.14293000  0.21452000  1.0
  H  H40  1  0.74062000  0.20784000  0.22126000  1.0
  H  H41  1  0.79319000  0.54145000  0.28500000  1.0
  H  H42  1  0.85650000  0.44639000  0.29402000  1.0
  H  H43  1  0.80622000  0.52511000  0.20349000  1.0
  H  H44  1  0.56324000  0.45112000  0.27584000  1.0
  H  H45  1  0.57684000  0.43061000  0.19491000  1.0
  H  H46  1  0.87387000  0.43391000  0.21272000  1.0
  H  H47  1  0.27387000  0.51547000  0.20114000  1.0
  H  H48  1  0.30843000  0.53091000  0.28228000  1.0
  H  H49  1  0.99600000  0.27911000  0.30464000  1.0
  H  H50  1  0.08557000  0.43602000  0.29898000  1.0
  H  H51  1  0.04821000  0.42127000  0.21811000  1.0
  H  H52  1  0.95901000  0.26429000  0.22417000  1.0
  H  H53  1  0.25741000  0.21731000  0.28458000  1.0
  H  H54  1  0.10061000  0.14828000  0.29712000  1.0
  H  H55  1  0.21505000  0.19790000  0.20406000  1.0
  H  H56  1  0.38039000  0.44198000  0.27707000  1.0
  H  H57  1  0.34355000  0.42463000  0.19630000  1.0
  H  H58  1  0.05818000  0.13337000  0.21618000  1.0
  H  H59  1  0.66970000  0.68287000  0.19635000  1.0
  H  H60  1  0.69521000  0.67047000  0.27744000  1.0
  H  H61  1  0.85315000  0.87319000  0.28891000  1.0
  H  H62  1  0.85057000  0.89592000  0.20730000  1.0
  H  H63  1  0.82075000  0.01663000  0.21604000  1.0
  H  H64  1  0.47759000  0.78543000  0.29404000  1.0
  H  H65  1  0.58474000  0.93635000  0.30392000  1.0
  H  H66  1  0.48245000  0.83627000  0.21425000  1.0
  H  H67  1  0.54012000  0.62839000  0.28494000  1.0
  H  H68  1  0.52040000  0.65928000  0.20494000  1.0
  H  H69  1  0.60780000  0.97989000  0.22362000  1.0
  H  H70  1  0.89884000  0.62919000  0.75699000  1.0
  H  H71  1  0.31719000  0.70374000  0.47557000  1.0
  H  H72  1  0.03341000  0.98304000  0.02879000  1.0
  C  C73  1  0.62051000  0.71117000  0.56924000  1.0
  C  C74  1  0.61512000  0.39035000  0.56317000  1.0
  C  C75  1  0.28365000  0.37977000  0.56696000  1.0
  C  C76  1  0.62463000  0.72205000  0.43502000  1.0
  C  C77  1  0.61114000  0.39696000  0.43304000  1.0
  C  C78  1  0.28750000  0.39284000  0.43340000  1.0
  C  C79  1  0.78500000  0.37500000  0.72775000  1.0
  C  C80  1  0.75046000  0.44327000  0.76494000  1.0
  C  C81  1  0.70435000  0.30333000  0.88728000  1.0
  C  C82  1  0.63998000  0.36205000  0.60934000  1.0
  C  C83  1  0.71910000  0.25846000  0.75809000  1.0
  C  C84  1  0.68251000  0.32585000  0.79635000  1.0
  C  C85  1  0.59717000  0.22045000  0.73165000  1.0
  C  C86  1  0.66293000  0.33766000  0.70006000  1.0
  C  C87  1  0.56114000  0.28881000  0.76826000  1.0
  C  C88  1  0.62700000  0.40542000  0.73806000  1.0
  C  C89  1  0.69401000  0.31616000  0.84540000  1.0
  C  C90  1  0.65107000  0.34868000  0.65113000  1.0
  C  C91  1  0.28379000  0.31694000  0.73164000  1.0
  C  C92  1  0.05894000  0.22989000  0.71784000  1.0
  C  C93  1  0.03585000  0.22912000  0.77120000  1.0
  C  C94  1  0.10148000  0.30939000  0.88733000  1.0
  C  C95  1  0.18606000  0.33500000  0.70518000  1.0
  C  C96  1  0.25950000  0.30852000  0.78513000  1.0
  C  C97  1  0.14994000  0.32885000  0.79573000  1.0
  C  C98  1  0.17641000  0.45179000  0.77537000  1.0
  C  C99  1  0.19323000  0.45377000  0.72154000  1.0
  C  C100  1  0.12643000  0.32147000  0.84574000  1.0
  C  C101  1  0.20874000  0.34018000  0.65515000  1.0
  C  C102  1  0.23269000  0.35012000  0.61348000  1.0
  C  C103  1  0.53977000  0.72140000  0.72994000  1.0
  C  C104  1  0.69149000  0.93826000  0.71528000  1.0
  C  C105  1  0.68633000  0.96015000  0.76836000  1.0
  C  C106  1  0.67981000  0.90137000  0.88805000  1.0
  C  C107  1  0.66485000  0.80784000  0.70721000  1.0
  C  C108  1  0.54314000  0.74146000  0.78353000  1.0
  C  C109  1  0.66694000  0.84883000  0.79721000  1.0
  C  C110  1  0.77030000  0.82081000  0.78449000  1.0
  C  C111  1  0.76420000  0.78949000  0.73192000  1.0
  C  C112  1  0.67060000  0.87492000  0.84681000  1.0
  C  C113  1  0.66020000  0.78328000  0.65741000  1.0
  C  C114  1  0.65020000  0.75858000  0.61595000  1.0
  C  C115  1  0.55674000  0.36443000  0.26756000  1.0
  C  C116  1  0.64801000  0.23091000  0.28239000  1.0
  C  C117  1  0.66188000  0.22048000  0.22889000  1.0
  C  C118  1  0.69850000  0.30608000  0.11108000  1.0
  C  C119  1  0.65939000  0.35419000  0.29379000  1.0
  C  C120  1  0.56705000  0.35131000  0.21397000  1.0
  C  C121  1  0.67875000  0.33474000  0.20287000  1.0
  C  C122  1  0.79442000  0.44411000  0.22178000  1.0
  C  C123  1  0.78400000  0.45415000  0.27554000  1.0
  C  C124  1  0.68905000  0.32094000  0.15273000  1.0
  C  C125  1  0.64715000  0.36522000  0.34400000  1.0
  C  C126  1  0.63595000  0.37525000  0.38591000  1.0
  C  C127  1  0.29700000  0.44560000  0.26882000  1.0
  C  C128  1  0.07283000  0.35044000  0.28531000  1.0
  C  C129  1  0.04845000  0.34088000  0.23195000  1.0
  C  C130  1  0.09757000  0.30497000  0.11398000  1.0
  C  C131  1  0.18933000  0.34188000  0.29548000  1.0
  C  C132  1  0.27307000  0.43493000  0.21539000  1.0
  C  C133  1  0.14760000  0.32521000  0.20529000  1.0
  C  C134  1  0.14716000  0.21077000  0.22389000  1.0
  C  C135  1  0.17383000  0.22152000  0.27705000  1.0
  C  C136  1  0.12244000  0.31561000  0.15545000  1.0
  C  C137  1  0.21465000  0.35321000  0.34528000  1.0
  C  C138  1  0.23917000  0.36562000  0.38677000  1.0
  C  C139  1  0.62627000  0.69759000  0.26987000  1.0
  C  C140  1  0.79084000  0.90576000  0.27795000  1.0
  C  C141  1  0.78892000  0.92215000  0.22456000  1.0
  C  C142  1  0.67362000  0.89572000  0.11365000  1.0
  C  C143  1  0.66079000  0.81600000  0.29632000  1.0
  C  C144  1  0.61496000  0.71289000  0.21654000  1.0
  C  C145  1  0.65844000  0.84620000  0.20512000  1.0
  C  C146  1  0.57304000  0.88406000  0.23011000  1.0
  C  C147  1  0.56762000  0.85763000  0.28325000  1.0
  C  C148  1  0.66229000  0.86842000  0.15499000  1.0
  C  C149  1  0.65943000  0.79451000  0.34635000  1.0
  C  C150  1  0.65110000  0.77085000  0.38799000  1.0
  C  C151  1  0.05015000  0.27876000  0.93378000  1.0
  C  C152  1  0.72830000  0.27952000  0.93429000  1.0
  C  C153  1  0.70747000  0.95117000  0.93437000  1.0
  C  C154  1  0.04796000  0.27916000  0.06742000  1.0
  C  C155  1  0.72182000  0.27771000  0.06472000  1.0
  C  C156  1  0.70688000  0.94957000  0.06754000  1.0
  C  C157  1  0.82848000  0.56589000  0.78242000  1.0
  N  N158  1  0.83729000  0.02334000  0.30362000  1.0
  O  O159  1  0.30479000  0.47977000  0.55026000  1.0
  O  O160  1  0.51657000  0.68624000  0.55426000  1.0
  O  O161  1  0.70076000  0.69387000  0.54731000  1.0
  O  O162  1  0.69243000  0.49165000  0.54563000  1.0
  O  O163  1  0.51495000  0.31544000  0.54429000  1.0
  O  O164  1  0.30864000  0.30348000  0.54719000  1.0
  O  O165  1  0.31370000  0.49441000  0.44946000  1.0
  O  O166  1  0.52410000  0.70132000  0.45262000  1.0
  O  O167  1  0.70395000  0.69856000  0.45386000  1.0
  O  O168  1  0.68897000  0.49415000  0.45240000  1.0
  O  O169  1  0.50967000  0.31990000  0.45134000  1.0
  O  O170  1  0.30471000  0.31228000  0.45426000  1.0
  O  O171  1  0.49902000  0.50757000  0.50047000  1.0
  O  O172  1  0.80671000  0.96908000  0.95210000  1.0
  O  O173  1  0.01900000  0.17436000  0.94837000  1.0
  O  O174  1  0.03566000  0.35910000  0.95581000  1.0
  O  O175  1  0.83158000  0.35317000  0.95155000  1.0
  O  O176  1  0.64778000  0.18389000  0.95452000  1.0
  O  O177  1  0.63011000  0.97798000  0.95320000  1.0
  O  O178  1  0.81177000  0.97564000  0.05298000  1.0
  O  O179  1  0.02701000  0.18074000  0.04965000  1.0
  O  O180  1  0.02434000  0.35783000  0.04868000  1.0
  O  O181  1  0.82126000  0.35282000  0.04467000  1.0
  O  O182  1  0.64421000  0.17645000  0.04796000  1.0
  O  O183  1  0.62897000  0.97122000  0.04635000  1.0
  O  O184  1  0.83518000  0.16103000  0.00064000  1.0
  O  O185  1  0.81720000  0.59889000  0.82140000  1.0
  O  O186  1  0.90299000  0.03920000  0.33791000  1.0
  O  O187  1  0.80410000  0.09503000  0.28934000  1.0
  O  O188  1  0.33067000  0.67504000  0.50521000  1.0
  O  O189  1  0.99715000  0.98728000  0.99949000  1.0
