# generated using pymatgen
data_BaH9C7NO7
_symmetry_space_group_name_H-M   'P 1'
_cell_length_a   7.11942000
_cell_length_b   7.62536000
_cell_length_c   18.64350000
_cell_angle_alpha   89.99980000
_cell_angle_beta   90.00000000
_cell_angle_gamma   90.53140000
_symmetry_Int_Tables_number   1
_chemical_formula_structural   BaH9C7NO7
_chemical_formula_sum   'Ba4 H36 C28 N4 O28'
_cell_volume   1012.07741639
_cell_formula_units_Z   4
loop_
 _symmetry_equiv_pos_site_id
 _symmetry_equiv_pos_as_xyz
  1  'x, y, z'
loop_
 _atom_site_type_symbol
 _atom_site_label
 _atom_site_symmetry_multiplicity
 _atom_site_fract_x
 _atom_site_fract_y
 _atom_site_fract_z
 _atom_site_occupancy
  Ba  Ba0  1  0.47403000  0.24356000  0.56531000  1.0
  Ba  Ba1  1  0.02597000  0.75644000  0.06531000  1.0
  Ba  Ba2  1  0.52597000  0.75644000  0.43469000  1.0
  Ba  Ba3  1  0.97403000  0.24356000  0.93469000  1.0
  H  H4  1  0.96866000  0.73154000  0.60644000  1.0
  H  H5  1  0.53134000  0.26846000  0.10644000  1.0
  H  H6  1  0.03134000  0.26846000  0.39356000  1.0
  H  H7  1  0.46867000  0.73154000  0.89356000  1.0
  H  H8  1  0.14331000  0.47942000  0.80155000  1.0
  H  H9  1  0.35666000  0.52058000  0.30155000  1.0
  H  H10  1  0.85667000  0.52058000  0.19845000  1.0
  H  H11  1  0.64333000  0.47941000  0.69845000  1.0
  H  H12  1  0.90838000  0.99659000  0.79874000  1.0
  H  H13  1  0.59162000  0.00341000  0.29874000  1.0
  H  H14  1  0.09162000  0.00341000  0.20126000  1.0
  H  H15  1  0.40838000  0.99659000  0.70126000  1.0
  H  H16  1  0.94488000  0.30050000  0.53692000  1.0
  H  H17  1  0.55512000  0.69949000  0.03692000  1.0
  H  H18  1  0.05511000  0.69949000  0.46309000  1.0
  H  H19  1  0.44489000  0.30050000  0.96308000  1.0
  H  H20  1  0.84874000  0.38138000  0.46907000  1.0
  H  H21  1  0.65126000  0.61862000  0.96907000  1.0
  H  H22  1  0.15125000  0.61861000  0.53093000  1.0
  H  H23  1  0.34875000  0.38139000  0.03093000  1.0
  H  H24  1  0.73541000  0.23808000  0.72459000  1.0
  H  H25  1  0.76458000  0.76191000  0.22459000  1.0
  H  H26  1  0.26458000  0.76191000  0.27541000  1.0
  H  H27  1  0.23542000  0.23809000  0.77541000  1.0
  H  H28  1  0.80117000  0.07812000  0.67684000  1.0
  H  H29  1  0.69883000  0.92187000  0.17684000  1.0
  H  H30  1  0.19883000  0.92188000  0.32316000  1.0
  H  H31  1  0.30117000  0.07813000  0.82316000  1.0
  H  H32  1  0.07507000  0.03272000  0.60771000  1.0
  H  H33  1  0.42493000  0.96728000  0.10771000  1.0
  H  H34  1  0.92494000  0.96728000  0.39229000  1.0
  H  H35  1  0.57507000  0.03271000  0.89229000  1.0
  H  H36  1  0.13844000  0.92541000  0.53945000  1.0
  H  H37  1  0.36157000  0.07458000  0.03945000  1.0
  H  H38  1  0.86157000  0.07458000  0.46055000  1.0
  H  H39  1  0.63844000  0.92541000  0.96055000  1.0
  C  C40  1  0.98836000  0.73109000  0.66440000  1.0
  C  C41  1  0.51163000  0.26891000  0.16440000  1.0
  C  C42  1  0.01163000  0.26891000  0.33560000  1.0
  C  C43  1  0.48837000  0.73109000  0.83560000  1.0
  C  C44  1  0.06751000  0.58542000  0.69815000  1.0
  C  C45  1  0.43248000  0.41458000  0.19814000  1.0
  C  C46  1  0.93248000  0.41459000  0.30186000  1.0
  C  C47  1  0.56752000  0.58542000  0.80185000  1.0
  C  C48  1  0.08144000  0.58857000  0.77278000  1.0
  C  C49  1  0.41854000  0.41142000  0.27277000  1.0
  C  C50  1  0.91856000  0.41143000  0.22723000  1.0
  C  C51  1  0.58145000  0.58857000  0.72722000  1.0
  C  C52  1  0.02245000  0.73587000  0.81067000  1.0
  C  C53  1  0.47752000  0.26413000  0.31067000  1.0
  C  C54  1  0.97754000  0.26413000  0.18933000  1.0
  C  C55  1  0.52247000  0.73587000  0.68932000  1.0
  C  C56  1  0.95288000  0.87753000  0.77153000  1.0
  C  C57  1  0.54710000  0.12246000  0.27152000  1.0
  C  C58  1  0.04712000  0.12247000  0.22848000  1.0
  C  C59  1  0.45289000  0.87753000  0.72847000  1.0
  C  C60  1  0.14633000  0.43664000  0.65484000  1.0
  C  C61  1  0.35368000  0.56337000  0.15484000  1.0
  C  C62  1  0.85367000  0.56336000  0.34516000  1.0
  C  C63  1  0.64633000  0.43664000  0.84516000  1.0
  C  C64  1  0.04250000  0.74303000  0.89103000  1.0
  C  C65  1  0.45750000  0.25697000  0.39102000  1.0
  C  C66  1  0.95750000  0.25698000  0.10897000  1.0
  C  C67  1  0.54250000  0.74303000  0.60897000  1.0
  N  N68  1  0.93471000  0.87573000  0.69983000  1.0
  N  N69  1  0.56527000  0.12427000  0.19983000  1.0
  N  N70  1  0.06528000  0.12427000  0.30017000  1.0
  N  N71  1  0.43473000  0.87573000  0.80017000  1.0
  O  O72  1  0.13282000  0.44390000  0.58637000  1.0
  O  O73  1  0.36719000  0.55611000  0.08636000  1.0
  O  O74  1  0.86718000  0.55610000  0.41364000  1.0
  O  O75  1  0.63283000  0.44390000  0.91363000  1.0
  O  O76  1  0.23214000  0.31442000  0.68713000  1.0
  O  O77  1  0.26787000  0.68559000  0.18713000  1.0
  O  O78  1  0.76786000  0.68558000  0.31287000  1.0
  O  O79  1  0.73215000  0.31442000  0.81287000  1.0
  O  O80  1  0.04493000  0.89203000  0.92162000  1.0
  O  O81  1  0.45508000  0.10798000  0.42163000  1.0
  O  O82  1  0.95507000  0.10798000  0.07837000  1.0
  O  O83  1  0.54491000  0.89202000  0.57837000  1.0
  O  O84  1  0.05769000  0.59814000  0.92444000  1.0
  O  O85  1  0.44232000  0.40187000  0.42443000  1.0
  O  O86  1  0.94233000  0.40187000  0.07556000  1.0
  O  O87  1  0.55768000  0.59813000  0.57556000  1.0
  O  O88  1  0.84007000  0.28059000  0.50327000  1.0
  O  O89  1  0.65993000  0.71941000  0.00328000  1.0
  O  O90  1  0.15993000  0.71941000  0.49673000  1.0
  O  O91  1  0.34007000  0.28059000  0.99673000  1.0
  O  O92  1  0.73468000  0.19215000  0.67472000  1.0
  O  O93  1  0.76531000  0.80784000  0.17473000  1.0
  O  O94  1  0.26531000  0.80784000  0.32528000  1.0
  O  O95  1  0.23470000  0.19216000  0.82528000  1.0
  O  O96  1  0.14698000  0.04192000  0.56333000  1.0
  O  O97  1  0.35302000  0.95807000  0.06333000  1.0
  O  O98  1  0.85302000  0.95807000  0.43667000  1.0
  O  O99  1  0.64698000  0.04192000  0.93667000  1.0
