# generated using pymatgen
data_GdH3CSO7
_symmetry_space_group_name_H-M   'P 1'
_cell_length_a   6.87547000
_cell_length_b   6.87505000
_cell_length_c   11.52410000
_cell_angle_alpha   90.00010000
_cell_angle_beta   90.00000000
_cell_angle_gamma   89.99830000
_symmetry_Int_Tables_number   1
_chemical_formula_structural   GdH3CSO7
_chemical_formula_sum   'Gd4 H12 C4 S4 O28'
_cell_volume   544.73498775
_cell_formula_units_Z   4
loop_
 _symmetry_equiv_pos_site_id
 _symmetry_equiv_pos_as_xyz
  1  'x, y, z'
loop_
 _atom_site_type_symbol
 _atom_site_label
 _atom_site_symmetry_multiplicity
 _atom_site_fract_x
 _atom_site_fract_y
 _atom_site_fract_z
 _atom_site_occupancy
  Gd  Gd0  1  0.38234000  0.12336000  0.21013000  1.0
  Gd  Gd1  1  0.61766000  0.87664000  0.71013000  1.0
  Gd  Gd2  1  0.87651000  0.38245000  0.46010000  1.0
  Gd  Gd3  1  0.12349000  0.61755000  0.96010000  1.0
  H  H4  1  0.47363000  0.62792000  0.25225000  1.0
  H  H5  1  0.52637000  0.37208000  0.75225000  1.0
  H  H6  1  0.37178000  0.47373000  0.50219000  1.0
  H  H7  1  0.62823000  0.52627000  0.00219000  1.0
  H  H8  1  0.10949000  0.95767000  0.38988000  1.0
  H  H9  1  0.89051000  0.04234000  0.88988000  1.0
  H  H10  1  0.04241000  0.10957000  0.63977000  1.0
  H  H11  1  0.95759000  0.89043000  0.13977000  1.0
  H  H12  1  0.32231000  0.90057000  0.43189000  1.0
  H  H13  1  0.67769000  0.09943000  0.93189000  1.0
  H  H14  1  0.09966000  0.32242000  0.68170000  1.0
  H  H15  1  0.90034000  0.67758000  0.18170000  1.0
  C  C16  1  0.38245000  0.62534000  0.17380000  1.0
  C  C17  1  0.61755000  0.37466000  0.67380000  1.0
  C  C18  1  0.37419000  0.38252000  0.42374000  1.0
  C  C19  1  0.62582000  0.61748000  0.92374000  1.0
  S  S20  1  0.27372000  0.11235000  0.90295000  1.0
  S  S21  1  0.72628000  0.88765000  0.40295000  1.0
  S  S22  1  0.88744000  0.27358000  0.15279000  1.0
  S  S23  1  0.11256000  0.72642000  0.65279000  1.0
  O  O24  1  0.40395000  0.11529000  0.00515000  1.0
  O  O25  1  0.59605000  0.88471000  0.50515000  1.0
  O  O26  1  0.88415000  0.40379000  0.25504000  1.0
  O  O27  1  0.11585000  0.59621000  0.75504000  1.0
  O  O28  1  0.38893000  0.07083000  0.79834000  1.0
  O  O29  1  0.61107000  0.92917000  0.29834000  1.0
  O  O30  1  0.92905000  0.38895000  0.04827000  1.0
  O  O31  1  0.07095000  0.61105000  0.54827000  1.0
  O  O32  1  0.17988000  0.30216000  0.88596000  1.0
  O  O33  1  0.82013000  0.69784000  0.38596000  1.0
  O  O34  1  0.69780000  0.17955000  0.13564000  1.0
  O  O35  1  0.30220000  0.82046000  0.63564000  1.0
  O  O36  1  0.12092000  0.95799000  0.91855000  1.0
  O  O37  1  0.87907000  0.04201000  0.41855000  1.0
  O  O38  1  0.04193000  0.12092000  0.16840000  1.0
  O  O39  1  0.95807000  0.87908000  0.66840000  1.0
  O  O40  1  0.32952000  0.46194000  0.13094000  1.0
  O  O41  1  0.67048000  0.53806000  0.63094000  1.0
  O  O42  1  0.53750000  0.32954000  0.38076000  1.0
  O  O43  1  0.46250000  0.67046000  0.88077000  1.0
  O  O44  1  0.33589000  0.78454000  0.12575000  1.0
  O  O45  1  0.66411000  0.21546000  0.62575000  1.0
  O  O46  1  0.21488000  0.33603000  0.37580000  1.0
  O  O47  1  0.78512000  0.66397000  0.87581000  1.0
  O  O48  1  0.24273000  0.92667000  0.36291000  1.0
  O  O49  1  0.75727000  0.07333000  0.86291000  1.0
  O  O50  1  0.07342000  0.24279000  0.61277000  1.0
  O  O51  1  0.92658000  0.75721000  0.11277000  1.0
