# generated using pymatgen
data_CuH18C27(NO3)2
_symmetry_space_group_name_H-M   'P 1'
_cell_length_a   7.24416000
_cell_length_b   12.53030000
_cell_length_c   12.67690000
_cell_angle_alpha   75.17410000
_cell_angle_beta   79.05750000
_cell_angle_gamma   86.19540000
_symmetry_Int_Tables_number   1
_chemical_formula_structural   CuH18C27(NO3)2
_chemical_formula_sum   'Cu2 H36 C54 N4 O12'
_cell_volume   1091.97486015
_cell_formula_units_Z   2
loop_
 _symmetry_equiv_pos_site_id
 _symmetry_equiv_pos_as_xyz
  1  'x, y, z'
loop_
 _atom_site_type_symbol
 _atom_site_label
 _atom_site_symmetry_multiplicity
 _atom_site_fract_x
 _atom_site_fract_y
 _atom_site_fract_z
 _atom_site_occupancy
  Cu  Cu0  1  0.06060000  0.32623000  0.74860000  1.0
  Cu  Cu1  1  0.93940000  0.67377000  0.25140000  1.0
  H  H2  1  0.04120000  0.15631000  0.24441000  1.0
  H  H3  1  0.95878000  0.84369000  0.75559000  1.0
  H  H4  1  0.98127000  0.27708000  0.37781000  1.0
  H  H5  1  0.01872000  0.72292000  0.62219000  1.0
  H  H6  1  0.29244000  0.04629000  0.59535000  1.0
  H  H7  1  0.70753000  0.95371000  0.40465000  1.0
  H  H8  1  0.35806000  0.92922000  0.46023000  1.0
  H  H9  1  0.64191000  0.07078000  0.53978000  1.0
  H  H10  1  0.62800000  0.94725000  0.24365000  1.0
  H  H11  1  0.37200000  0.05276000  0.75635000  1.0
  H  H12  1  0.88178000  0.05001000  0.10125000  1.0
  H  H13  1  0.11822000  0.95000000  0.89875000  1.0
  H  H14  1  0.21481000  0.12069000  0.05546000  1.0
  H  H15  1  0.78520000  0.87931000  0.94454000  1.0
  H  H16  1  0.46689000  0.22243000  0.91368000  1.0
  H  H17  1  0.53311000  0.77757000  0.08631000  1.0
  H  H18  1  0.72431000  0.42878000  0.88836000  1.0
  H  H19  1  0.27569000  0.57122000  0.11163000  1.0
  H  H20  1  0.69240000  0.59649000  0.96699000  1.0
  H  H21  1  0.30760000  0.40350000  0.03301000  1.0
  H  H22  1  0.96766000  0.71916000  0.92952000  1.0
  H  H23  1  0.03234000  0.28083000  0.07048000  1.0
  H  H24  1  0.30589000  0.76580000  0.82314000  1.0
  H  H25  1  0.69411000  0.23420000  0.17687000  1.0
  H  H26  1  0.59212000  0.71263000  0.70601000  1.0
  H  H27  1  0.40788000  0.28737000  0.29399000  1.0
  H  H28  1  0.76827000  0.56908000  0.60496000  1.0
  H  H29  1  0.23174000  0.43092000  0.39504000  1.0
  H  H30  1  0.75856000  0.38848000  0.56029000  1.0
  H  H31  1  0.24144000  0.61152000  0.43970000  1.0
  H  H32  1  0.45821000  0.28151000  0.61913000  1.0
  H  H33  1  0.54181000  0.71849000  0.38087000  1.0
  H  H34  1  0.28817000  0.81642000  0.25430000  1.0
  H  H35  1  0.71184000  0.18359000  0.74569000  1.0
  H  H36  1  0.00035000  0.91521000  0.25800000  1.0
  H  H37  1  0.99965000  0.08479000  0.74200000  1.0
  C  C38  1  0.24890000  0.97135000  0.25412000  1.0
  C  C39  1  0.75110000  0.02865000  0.74588000  1.0
  C  C40  1  0.20751000  0.03728000  0.34253000  1.0
  C  C41  1  0.79247000  0.96272000  0.65747000  1.0
  C  C42  1  0.09958000  0.13473000  0.32031000  1.0
  C  C43  1  0.90041000  0.86526000  0.67969000  1.0
  C  C44  1  0.06524000  0.20119000  0.39443000  1.0
  C  C45  1  0.93475000  0.79881000  0.60557000  1.0
  C  C46  1  0.13613000  0.17059000  0.49380000  1.0
  C  C47  1  0.86386000  0.82941000  0.50620000  1.0
  C  C48  1  0.24002000  0.07168000  0.51743000  1.0
  C  C49  1  0.75996000  0.92832000  0.48257000  1.0
  C  C50  1  0.27706000  0.00594000  0.44176000  1.0
  C  C51  1  0.72292000  0.99406000  0.55825000  1.0
  C  C52  1  0.09764000  0.24498000  0.57050000  1.0
  C  C53  1  0.90236000  0.75503000  0.42949000  1.0
  C  C54  1  0.40402000  0.03085000  0.16197000  1.0
  C  C55  1  0.59598000  0.96915000  0.83803000  1.0
  C  C56  1  0.59262000  0.01050000  0.17325000  1.0
  C  C57  1  0.40738000  0.98950000  0.82675000  1.0
  C  C58  1  0.73516000  0.06731000  0.09304000  1.0
  C  C59  1  0.26485000  0.93269000  0.90696000  1.0
  C  C60  1  0.35981000  0.10766000  0.06815000  1.0
  C  C61  1  0.64019000  0.89234000  0.93185000  1.0
  C  C62  1  0.50234000  0.16444000  0.98758000  1.0
  C  C63  1  0.49766000  0.83556000  0.01242000  1.0
  C  C64  1  0.69095000  0.14578000  0.00001000  1.0
  C  C65  1  0.30905000  0.85423000  0.99999000  1.0
  C  C66  1  0.84589000  0.20643000  0.91687000  1.0
  C  C67  1  0.15411000  0.79357000  0.08313000  1.0
  C  C68  1  0.83989000  0.48552000  0.87268000  1.0
  C  C69  1  0.16011000  0.51447000  0.12732000  1.0
  C  C70  1  0.82424000  0.57903000  0.91603000  1.0
  C  C71  1  0.17577000  0.42096000  0.08397000  1.0
  C  C72  1  0.97595000  0.64803000  0.89376000  1.0
  C  C73  1  0.02405000  0.35197000  0.10625000  1.0
  C  C74  1  0.14461000  0.62389000  0.82624000  1.0
  C  C75  1  0.85540000  0.37610000  0.17376000  1.0
  C  C76  1  0.30962000  0.69026000  0.79494000  1.0
  C  C77  1  0.69039000  0.30973000  0.20507000  1.0
  C  C78  1  0.46859000  0.66053000  0.73030000  1.0
  C  C79  1  0.53141000  0.33946000  0.26970000  1.0
  C  C80  1  0.47784000  0.56060000  0.69370000  1.0
  C  C81  1  0.52217000  0.43940000  0.30630000  1.0
  C  C82  1  0.31605000  0.49451000  0.72283000  1.0
  C  C83  1  0.68396000  0.50549000  0.27718000  1.0
  C  C84  1  0.14828000  0.52730000  0.78735000  1.0
  C  C85  1  0.85173000  0.47270000  0.21265000  1.0
  C  C86  1  0.63953000  0.52133000  0.63194000  1.0
  C  C87  1  0.36047000  0.47868000  0.36805000  1.0
  C  C88  1  0.63319000  0.42176000  0.60448000  1.0
  C  C89  1  0.36681000  0.57824000  0.39551000  1.0
  C  C90  1  0.46642000  0.36135000  0.63724000  1.0
  C  C91  1  0.53359000  0.63865000  0.36276000  1.0
  N  N92  1  0.99812000  0.46038000  0.81027000  1.0
  N  N93  1  0.00189000  0.53962000  0.18973000  1.0
  N  N94  1  0.31165000  0.39732000  0.69434000  1.0
  N  N95  1  0.68837000  0.60268000  0.30566000  1.0
  O  O96  1  0.12984000  0.20475000  0.67151000  1.0
  O  O97  1  0.87016000  0.79525000  0.32848000  1.0
  O  O98  1  0.03934000  0.34214000  0.53820000  1.0
  O  O99  1  0.96066000  0.65787000  0.46179000  1.0
  O  O100  1  0.80637000  0.26294000  0.82102000  1.0
  O  O101  1  0.19362000  0.73706000  0.17898000  1.0
  O  O102  1  0.00859000  0.20654000  0.93775000  1.0
  O  O103  1  0.99141000  0.79345000  0.06225000  1.0
  O  O104  1  0.30515000  0.86262000  0.30475000  1.0
  O  O105  1  0.69485000  0.13739000  0.69525000  1.0
  O  O106  1  0.08861000  0.97016000  0.20563000  1.0
  O  O107  1  0.91140000  0.02984000  0.79437000  1.0
