# generated using pymatgen
data_CdH12C10(SN3)2
_symmetry_space_group_name_H-M   'P 1'
_cell_length_a   5.77231000
_cell_length_b   7.79642000
_cell_length_c   8.80266000
_cell_angle_alpha   110.31100000
_cell_angle_beta   106.87100000
_cell_angle_gamma   96.50140000
_symmetry_Int_Tables_number   1
_chemical_formula_structural   CdH12C10(SN3)2
_chemical_formula_sum   'Cd1 H12 C10 S2 N6'
_cell_volume   345.27555764
_cell_formula_units_Z   1
loop_
 _symmetry_equiv_pos_site_id
 _symmetry_equiv_pos_as_xyz
  1  'x, y, z'
loop_
 _atom_site_type_symbol
 _atom_site_label
 _atom_site_symmetry_multiplicity
 _atom_site_fract_x
 _atom_site_fract_y
 _atom_site_fract_z
 _atom_site_occupancy
  Cd  Cd0  1  0.00001000  0.00001000  0.50000000  1.0
  H  H1  1  0.76151000  0.42797000  0.11361000  1.0
  H  H2  1  0.23848000  0.57203000  0.88640000  1.0
  H  H3  1  0.06247000  0.49463000  0.27773000  1.0
  H  H4  1  0.93753000  0.50536000  0.72227000  1.0
  H  H5  1  0.84867000  0.28356000  0.23072000  1.0
  H  H6  1  0.15134000  0.71643000  0.76928000  1.0
  H  H7  1  0.72502000  0.23820000  0.80840000  1.0
  H  H8  1  0.27497000  0.76180000  0.19159000  1.0
  H  H9  1  0.35553000  0.24711000  0.20629000  1.0
  H  H10  1  0.64446000  0.75288000  0.79371000  1.0
  H  H11  1  0.39309000  0.05455000  0.88353000  1.0
  H  H12  1  0.60692000  0.94545000  0.11647000  1.0
  C  C13  1  0.91528000  0.37547000  0.17423000  1.0
  C  C14  1  0.08472000  0.62452000  0.82577000  1.0
  C  C15  1  0.90215000  0.21220000  0.86952000  1.0
  C  C16  1  0.09785000  0.78781000  0.13048000  1.0
  C  C17  1  0.23357000  0.21543000  0.07576000  1.0
  C  C18  1  0.76642000  0.78457000  0.92422000  1.0
  C  C19  1  0.24958000  0.12137000  0.91652000  1.0
  C  C20  1  0.75042000  0.87863000  0.08348000  1.0
  C  C21  1  0.53591000  0.22308000  0.49334000  1.0
  C  C22  1  0.46410000  0.77691000  0.50665000  1.0
  S  S23  1  0.34466000  0.32631000  0.57518000  1.0
  S  S24  1  0.65534000  0.67369000  0.42483000  1.0
  N  N25  1  0.01326000  0.27285000  0.04377000  1.0
  N  N26  1  0.98673000  0.72714000  0.95623000  1.0
  N  N27  1  0.04197000  0.12020000  0.78897000  1.0
  N  N28  1  0.95803000  0.87981000  0.21103000  1.0
  N  N29  1  0.67630000  0.15034000  0.43250000  1.0
  N  N30  1  0.32371000  0.84967000  0.56751000  1.0
