# generated using pymatgen
data_CdH14C7S2(NO)4
_symmetry_space_group_name_H-M   'P 1'
_cell_length_a   7.66021000
_cell_length_b   11.36270000
_cell_length_c   16.00000000
_cell_angle_alpha   90.00000000
_cell_angle_beta   100.35100000
_cell_angle_gamma   90.00000000
_symmetry_Int_Tables_number   1
_chemical_formula_structural   CdH14C7S2(NO)4
_chemical_formula_sum   'Cd4 H56 C28 S8 N16 O16'
_cell_volume   1369.98598744
_cell_formula_units_Z   4
loop_
 _symmetry_equiv_pos_site_id
 _symmetry_equiv_pos_as_xyz
  1  'x, y, z'
loop_
 _atom_site_type_symbol
 _atom_site_label
 _atom_site_symmetry_multiplicity
 _atom_site_fract_x
 _atom_site_fract_y
 _atom_site_fract_z
 _atom_site_occupancy
  Cd  Cd0  1  0.86509000  0.49368000  0.01915000  1.0
  Cd  Cd1  1  0.86510000  0.50632000  0.51915000  1.0
  Cd  Cd2  1  0.44997000  0.99202000  0.70186000  1.0
  Cd  Cd3  1  0.44997000  0.00798000  0.20186000  1.0
  H  H4  1  0.82917000  0.90003000  0.11628000  1.0
  H  H5  1  0.82917000  0.09997000  0.61628000  1.0
  H  H6  1  0.04179000  0.83891000  0.12488000  1.0
  H  H7  1  0.04180000  0.16109000  0.62488000  1.0
  H  H8  1  0.60101000  0.83210000  0.00727000  1.0
  H  H9  1  0.60101000  0.16790000  0.50727000  1.0
  H  H10  1  0.65527000  0.72333000  0.93529000  1.0
  H  H11  1  0.65527000  0.27667000  0.43529000  1.0
  H  H12  1  0.69510000  0.05542000  0.03634000  1.0
  H  H13  1  0.69509000  0.94458000  0.53634000  1.0
  H  H14  1  0.73073000  0.08960000  0.93331000  1.0
  H  H15  1  0.73073000  0.91040000  0.43331000  1.0
  H  H16  1  0.84375000  0.16236000  0.15050000  1.0
  H  H17  1  0.84375000  0.83763000  0.65050000  1.0
  H  H18  1  0.96138000  0.29278000  0.13225000  1.0
  H  H19  1  0.96138000  0.70721000  0.63225000  1.0
  H  H20  1  0.29863000  0.36389000  0.91345000  1.0
  H  H21  1  0.29863000  0.63611000  0.41345000  1.0
  H  H22  1  0.22763000  0.49204000  0.95699000  1.0
  H  H23  1  0.22764000  0.50796000  0.45699000  1.0
  H  H24  1  0.23096000  0.60013000  0.81873000  1.0
  H  H25  1  0.23096000  0.39987000  0.31873000  1.0
  H  H26  1  0.31710000  0.47447000  0.77711000  1.0
  H  H27  1  0.31710000  0.52553000  0.27711000  1.0
  H  H28  1  0.04074000  0.36047000  0.79766000  1.0
  H  H29  1  0.04074000  0.63953000  0.29766000  1.0
  H  H30  1  0.94911000  0.49239000  0.82767000  1.0
  H  H31  1  0.94911000  0.50761000  0.32767000  1.0
  H  H32  1  0.66073000  0.21955000  0.78302000  1.0
  H  H33  1  0.66073000  0.78045000  0.28302000  1.0
  H  H34  1  0.71433000  0.32990000  0.71194000  1.0
  H  H35  1  0.71433000  0.67010000  0.21194000  1.0
  H  H36  1  0.27107000  0.34003000  0.59697000  1.0
  H  H37  1  0.27107000  0.65997000  0.09697000  1.0
  H  H38  1  0.48348000  0.40094000  0.60482000  1.0
  H  H39  1  0.48347000  0.59906000  0.10482000  1.0
  H  H40  1  0.35732000  0.79089000  0.58953000  1.0
  H  H41  1  0.35732000  0.20911000  0.08953000  1.0
  H  H42  1  0.47480000  0.66034000  0.57148000  1.0
  H  H43  1  0.47480000  0.33966000  0.07148000  1.0
  H  H44  1  0.58786000  0.58808000  0.78868000  1.0
  H  H45  1  0.58786000  0.41192000  0.28868000  1.0
  H  H46  1  0.62511000  0.55430000  0.68582000  1.0
  H  H47  1  0.62510000  0.44570000  0.18582000  1.0
  H  H48  1  0.02074000  0.86550000  0.80566000  1.0
  H  H49  1  0.02074000  0.13450000  0.30567000  1.0
  H  H50  1  0.08793000  0.99719000  0.76537000  1.0
  H  H51  1  0.08793000  0.00280000  0.26537000  1.0
  H  H52  1  0.07390000  0.09802000  0.90623000  1.0
  H  H53  1  0.07390000  0.90198000  0.40623000  1.0
  H  H54  1  0.00065000  0.96563000  0.94467000  1.0
  H  H55  1  0.00065000  0.03437000  0.44467000  1.0
  H  H56  1  0.28747000  0.86712000  0.91960000  1.0
  H  H57  1  0.28747000  0.13288000  0.41960000  1.0
  H  H58  1  0.36386000  0.00588000  0.89322000  1.0
  H  H59  1  0.36386000  0.99412000  0.39322000  1.0
  C  C60  1  0.49798000  0.49293000  0.94325000  1.0
  C  C61  1  0.49798000  0.50707000  0.44325000  1.0
  C  C62  1  0.30646000  0.46077000  0.91017000  1.0
  C  C63  1  0.30646000  0.53923000  0.41017000  1.0
  C  C64  1  0.23092000  0.50350000  0.82099000  1.0
  C  C65  1  0.23092000  0.49650000  0.32099000  1.0
  C  C66  1  0.04442000  0.45677000  0.78999000  1.0
  C  C67  1  0.04442000  0.54323000  0.28999000  1.0
  C  C68  1  0.97121000  0.48268000  0.69770000  1.0
  C  C69  1  0.97121000  0.51732000  0.19770000  1.0
  C  C70  1  0.86084000  0.77545000  0.02581000  1.0
  C  C71  1  0.86084000  0.22456000  0.52581000  1.0
  C  C72  1  0.84132000  0.20497000  0.02620000  1.0
  C  C73  1  0.84133000  0.79503000  0.52620000  1.0
  C  C74  1  0.81740000  0.99275000  0.77820000  1.0
  C  C75  1  0.81740000  0.00724000  0.27821000  1.0
  C  C76  1  0.00955000  0.96193000  0.81115000  1.0
  C  C77  1  0.00955000  0.03807000  0.31115000  1.0
  C  C78  1  0.08282000  0.00186000  0.90129000  1.0
  C  C79  1  0.08282000  0.99814000  0.40129000  1.0
  C  C80  1  0.27389000  0.96217000  0.93027000  1.0
  C  C81  1  0.27389000  0.03783000  0.43027000  1.0
  C  C82  1  0.34623000  0.98542000  0.02304000  1.0
  C  C83  1  0.34623000  0.01458000  0.52304000  1.0
  C  C84  1  0.45381000  0.27453000  0.69444000  1.0
  C  C85  1  0.45381000  0.72548000  0.19444000  1.0
  C  C86  1  0.47729000  0.70333000  0.69570000  1.0
  C  C87  1  0.47729000  0.29667000  0.19570000  1.0
  S  S88  1  0.01572000  0.68565000  0.98924000  1.0
  S  S89  1  0.01572000  0.31435000  0.48925000  1.0
  S  S90  1  0.91370000  0.29691000  0.95295000  1.0
  S  S91  1  0.91371000  0.70309000  0.45295000  1.0
  S  S92  1  0.29957000  0.18438000  0.73123000  1.0
  S  S93  1  0.29956000  0.81562000  0.23122000  1.0
  S  S94  1  0.40390000  0.79525000  0.76872000  1.0
  S  S95  1  0.40391000  0.20475000  0.26872000  1.0
  N  N96  1  0.91442000  0.84605000  0.09199000  1.0
  N  N97  1  0.91442000  0.15395000  0.59199000  1.0
  N  N98  1  0.69282000  0.77640000  0.98660000  1.0
  N  N99  1  0.69282000  0.22360000  0.48660000  1.0
  N  N100  1  0.74275000  0.11210000  0.99643000  1.0
  N  N101  1  0.74275000  0.88790000  0.49643000  1.0
  N  N102  1  0.88005000  0.22422000  0.10956000  1.0
  N  N103  1  0.88005000  0.77578000  0.60956000  1.0
  N  N104  1  0.62265000  0.27396000  0.73248000  1.0
  N  N105  1  0.62265000  0.72604000  0.23248000  1.0
  N  N106  1  0.39884000  0.34675000  0.62940000  1.0
  N  N107  1  0.39884000  0.65325000  0.12940000  1.0
  N  N108  1  0.43892000  0.72251000  0.61235000  1.0
  N  N109  1  0.43892000  0.27749000  0.11235000  1.0
  N  N110  1  0.57648000  0.61076000  0.72560000  1.0
  N  N111  1  0.57648000  0.38924000  0.22560000  1.0
  O  O112  1  0.55990000  0.46667000  0.02157000  1.0
  O  O113  1  0.55990000  0.53333000  0.52157000  1.0
  O  O114  1  0.59501000  0.54113000  0.89685000  1.0
  O  O115  1  0.59501000  0.45888000  0.39685000  1.0
  O  O116  1  0.05476000  0.54998000  0.65512000  1.0
  O  O117  1  0.05476000  0.45002000  0.15512000  1.0
  O  O118  1  0.82400000  0.43384000  0.66373000  1.0
  O  O119  1  0.82400000  0.56616000  0.16373000  1.0
  O  O120  1  0.75531000  0.96508000  0.70017000  1.0
  O  O121  1  0.75531000  0.03491000  0.20017000  1.0
  O  O122  1  0.72076000  0.04188000  0.82441000  1.0
  O  O123  1  0.72076000  0.95812000  0.32441000  1.0
  O  O124  1  0.26317000  0.05277000  0.06589000  1.0
  O  O125  1  0.26317000  0.94723000  0.56589000  1.0
  O  O126  1  0.49214000  0.93510000  0.05694000  1.0
  O  O127  1  0.49214000  0.06490000  0.55694000  1.0
