# generated using pymatgen
data_MnH6C10(N4O)2
_symmetry_space_group_name_H-M   'P 1'
_cell_length_a   7.52295000
_cell_length_b   7.52442000
_cell_length_c   12.04090000
_cell_angle_alpha   84.70580000
_cell_angle_beta   85.87520000
_cell_angle_gamma   62.18050000
_symmetry_Int_Tables_number   1
_chemical_formula_structural   MnH6C10(N4O)2
_chemical_formula_sum   'Mn2 H12 C20 N16 O4'
_cell_volume   599.91494464
_cell_formula_units_Z   2
loop_
 _symmetry_equiv_pos_site_id
 _symmetry_equiv_pos_as_xyz
  1  'x, y, z'
loop_
 _atom_site_type_symbol
 _atom_site_label
 _atom_site_symmetry_multiplicity
 _atom_site_fract_x
 _atom_site_fract_y
 _atom_site_fract_z
 _atom_site_occupancy
  Mn  Mn0  1  0.08097000  0.91670000  0.25014000  1.0
  Mn  Mn1  1  0.92633000  0.07857000  0.74890000  1.0
  H  H2  1  0.67991000  0.19562000  0.27702000  1.0
  H  H3  1  0.80215000  0.32230000  0.22196000  1.0
  H  H4  1  0.30995000  0.81737000  0.72839000  1.0
  H  H5  1  0.18119000  0.68849000  0.78099000  1.0
  H  H6  1  0.46080000  0.59958000  0.30881000  1.0
  H  H7  1  0.39426000  0.53688000  0.19840000  1.0
  H  H8  1  0.56268000  0.37592000  0.68785000  1.0
  H  H9  1  0.62816000  0.43790000  0.80123000  1.0
  H  H10  1  0.96371000  0.55943000  0.31275000  1.0
  H  H11  1  0.44610000  0.02805000  0.18780000  1.0
  H  H12  1  0.00649000  0.45690000  0.67455000  1.0
  H  H13  1  0.54459000  0.99966000  0.82170000  1.0
  C  C14  1  0.84343000  0.79213000  0.07166000  1.0
  C  C15  1  0.21689000  0.14428000  0.42519000  1.0
  C  C16  1  0.14838000  0.21098000  0.91040000  1.0
  C  C17  1  0.78669000  0.85603000  0.59021000  1.0
  C  C18  1  0.77540000  0.64475000  0.07287000  1.0
  C  C19  1  0.36134000  0.21569000  0.42414000  1.0
  C  C20  1  0.20516000  0.36493000  0.91233000  1.0
  C  C21  1  0.63481000  0.79604000  0.58961000  1.0
  C  C22  1  0.90886000  0.61497000  0.22924000  1.0
  C  C23  1  0.39143000  0.08198000  0.27015000  1.0
  C  C24  1  0.06700000  0.39854000  0.75653000  1.0
  C  C25  1  0.60211000  0.93851000  0.74123000  1.0
  C  C26  1  0.84595000  0.91941000  0.97955000  1.0
  C  C27  1  0.09579000  0.13799000  0.51788000  1.0
  C  C28  1  0.16801000  0.07170000  0.99991000  1.0
  C  C29  1  0.92294000  0.83579000  0.50110000  1.0
  C  C30  1  0.68643000  0.60362000  0.98691000  1.0
  C  C31  1  0.39339000  0.30854000  0.51074000  1.0
  C  C32  1  0.29773000  0.39706000  0.00048000  1.0
  C  C33  1  0.60602000  0.69716000  0.50418000  1.0
  N  N34  1  0.92731000  0.77010000  0.17341000  1.0
  N  N35  1  0.23822000  0.06093000  0.32482000  1.0
  N  N36  1  0.06102000  0.23456000  0.80972000  1.0
  N  N37  1  0.76465000  0.94581000  0.68860000  1.0
  N  N38  1  0.81907000  0.53447000  0.17335000  1.0
  N  N39  1  0.47076000  0.17351000  0.32552000  1.0
  N  N40  1  0.15196000  0.48174000  0.81446000  1.0
  N  N41  1  0.51913000  0.85086000  0.68537000  1.0
  N  N42  1  0.85536000  0.00506000  0.89405000  1.0
  N  N43  1  0.01708000  0.12700000  0.60452000  1.0
  N  N44  1  0.18995000  0.96893000  0.08212000  1.0
  N  N45  1  0.02309000  0.81245000  0.41941000  1.0
  N  N46  1  0.61379000  0.56909000  0.91474000  1.0
  N  N47  1  0.41268000  0.38366000  0.58653000  1.0
  N  N48  1  0.37460000  0.41583000  0.07619000  1.0
  N  N49  1  0.59148000  0.61578000  0.43001000  1.0
  O  O50  1  0.81343000  0.18689000  0.24971000  1.0
  O  O51  1  0.18192000  0.82316000  0.76417000  1.0
  O  O52  1  0.35345000  0.63462000  0.25605000  1.0
  O  O53  1  0.67599000  0.36205000  0.73244000  1.0
