# generated using pymatgen
data_AgPH17C22NO2F3
_symmetry_space_group_name_H-M   'P 1'
_cell_length_a   8.30185000
_cell_length_b   9.03463000
_cell_length_c   15.02050000
_cell_angle_alpha   103.13400000
_cell_angle_beta   92.44410000
_cell_angle_gamma   111.97100000
_symmetry_Int_Tables_number   1
_chemical_formula_structural   AgPH17C22NO2F3
_chemical_formula_sum   'Ag2 P2 H34 C44 N2 O4 F6'
_cell_volume   1007.23230244
_cell_formula_units_Z   2
loop_
 _symmetry_equiv_pos_site_id
 _symmetry_equiv_pos_as_xyz
  1  'x, y, z'
loop_
 _atom_site_type_symbol
 _atom_site_label
 _atom_site_symmetry_multiplicity
 _atom_site_fract_x
 _atom_site_fract_y
 _atom_site_fract_z
 _atom_site_occupancy
  Ag  Ag0  1  0.06846000  0.19298000  0.10263000  1.0
  Ag  Ag1  1  0.93154000  0.80703000  0.89737000  1.0
  P  P2  1  0.17691000  0.21877000  0.25344000  1.0
  P  P3  1  0.82309000  0.78123000  0.74656000  1.0
  H  H4  1  0.75150000  0.29489000  0.04275000  1.0
  H  H5  1  0.24850000  0.70511000  0.95724000  1.0
  H  H6  1  0.71495000  0.51782000  0.98230000  1.0
  H  H7  1  0.28505000  0.48218000  0.01770000  1.0
  H  H8  1  0.45501000  0.37108000  0.15440000  1.0
  H  H9  1  0.54499000  0.62892000  0.84560000  1.0
  H  H10  1  0.72573000  0.62554000  0.19794000  1.0
  H  H11  1  0.27427000  0.37446000  0.80205000  1.0
  H  H12  1  0.80645000  0.80474000  0.35905000  1.0
  H  H13  1  0.19355000  0.19526000  0.64095000  1.0
  H  H14  1  0.61650000  0.72253000  0.47835000  1.0
  H  H15  1  0.38351000  0.27748000  0.52165000  1.0
  H  H16  1  0.34528000  0.46434000  0.43573000  1.0
  H  H17  1  0.65473000  0.53567000  0.56427000  1.0
  H  H18  1  0.94519000  0.39085000  0.27220000  1.0
  H  H19  1  0.05481000  0.60915000  0.72780000  1.0
  H  H20  1  0.75168000  0.43442000  0.38749000  1.0
  H  H21  1  0.24832000  0.56558000  0.61251000  1.0
  H  H22  1  0.72586000  0.30459000  0.51968000  1.0
  H  H23  1  0.27414000  0.69541000  0.48032000  1.0
  H  H24  1  0.89813000  0.13936000  0.53725000  1.0
  H  H25  1  0.10188000  0.86064000  0.46276000  1.0
  H  H26  1  0.09762000  0.09977000  0.42272000  1.0
  H  H27  1  0.90238000  0.90023000  0.57729000  1.0
  H  H28  1  0.99037000  0.87211000  0.17559000  1.0
  H  H29  1  0.00963000  0.12789000  0.82441000  1.0
  H  H30  1  0.02893000  0.62314000  0.20056000  1.0
  H  H31  1  0.97106000  0.37686000  0.79944000  1.0
  H  H32  1  0.28707000  0.65606000  0.30542000  1.0
  H  H33  1  0.71293000  0.34394000  0.69458000  1.0
  H  H34  1  0.50496000  0.93773000  0.38711000  1.0
  H  H35  1  0.49504000  0.06227000  0.61289000  1.0
  H  H36  1  0.46397000  0.18548000  0.36440000  1.0
  H  H37  1  0.53603000  0.81452000  0.63560000  1.0
  C  C38  1  0.33158000  0.14509000  0.96130000  1.0
  C  C39  1  0.66843000  0.85493000  0.03871000  1.0
  C  C40  1  0.39238000  0.05270000  0.87700000  1.0
  C  C41  1  0.60762000  0.94730000  0.12300000  1.0
  C  C42  1  0.86356000  0.38666000  0.02412000  1.0
  C  C43  1  0.13644000  0.61334000  0.97588000  1.0
  C  C44  1  0.84297000  0.51073000  0.99020000  1.0
  C  C45  1  0.15703000  0.48928000  0.00980000  1.0
  C  C46  1  0.38343000  0.39916000  0.29294000  1.0
  C  C47  1  0.61657000  0.60084000  0.70706000  1.0
  C  C48  1  0.49210000  0.44507000  0.22624000  1.0
  C  C49  1  0.50790000  0.55493000  0.77376000  1.0
  C  C50  1  0.64462000  0.58922000  0.25070000  1.0
  C  C51  1  0.35538000  0.41078000  0.74930000  1.0
  C  C52  1  0.68964000  0.68978000  0.34116000  1.0
  C  C53  1  0.31036000  0.31022000  0.65884000  1.0
  C  C54  1  0.58261000  0.64395000  0.40782000  1.0
  C  C55  1  0.41739000  0.35605000  0.59218000  1.0
  C  C56  1  0.43033000  0.49866000  0.38408000  1.0
  C  C57  1  0.56967000  0.50134000  0.61592000  1.0
  C  C58  1  0.03684000  0.24538000  0.34099000  1.0
  C  C59  1  0.96317000  0.75462000  0.65902000  1.0
  C  C60  1  0.93746000  0.33824000  0.33130000  1.0
  C  C61  1  0.06254000  0.66176000  0.66870000  1.0
  C  C62  1  0.82681000  0.36067000  0.39554000  1.0
  C  C63  1  0.17319000  0.63933000  0.60446000  1.0
  C  C64  1  0.81236000  0.28815000  0.46927000  1.0
  C  C65  1  0.18765000  0.71185000  0.53073000  1.0
  C  C66  1  0.90963000  0.19452000  0.47910000  1.0
  C  C67  1  0.09037000  0.80548000  0.52090000  1.0
  C  C68  1  0.02187000  0.17331000  0.41534000  1.0
  C  C69  1  0.97814000  0.82669000  0.58466000  1.0
  C  C70  1  0.22176000  0.04427000  0.27066000  1.0
  C  C71  1  0.77824000  0.95573000  0.72934000  1.0
  C  C72  1  0.10048000  0.88528000  0.22361000  1.0
  C  C73  1  0.89952000  0.11472000  0.77639000  1.0
  C  C74  1  0.12314000  0.74644000  0.23734000  1.0
  C  C75  1  0.87686000  0.25356000  0.76266000  1.0
  C  C76  1  0.26781000  0.76485000  0.29651000  1.0
  C  C77  1  0.73219000  0.23514000  0.70349000  1.0
  C  C78  1  0.38987000  0.92272000  0.34245000  1.0
  C  C79  1  0.61013000  0.07727000  0.65755000  1.0
  C  C80  1  0.36691000  0.06232000  0.32980000  1.0
  C  C81  1  0.63309000  0.93768000  0.67020000  1.0
  N  N82  1  0.02011000  0.37532000  0.03402000  1.0
  N  N83  1  0.97989000  0.62468000  0.96598000  1.0
  O  O84  1  0.17626000  0.06448000  0.97485000  1.0
  O  O85  1  0.82373000  0.93552000  0.02515000  1.0
  O  O86  1  0.43634000  0.28682000  0.00332000  1.0
  O  O87  1  0.56365000  0.71317000  0.99668000  1.0
  F  F88  1  0.32066000  0.06555000  0.79658000  1.0
  F  F89  1  0.67933000  0.93445000  0.20342000  1.0
  F  F90  1  0.56902000  0.11516000  0.87970000  1.0
  F  F91  1  0.43098000  0.88484000  0.12029000  1.0
  F  F92  1  0.34098000  0.88693000  0.86992000  1.0
  F  F93  1  0.65901000  0.11306000  0.13007000  1.0
