# generated using pymatgen
data_AlH7C14ClO5
_symmetry_space_group_name_H-M   'P 1'
_cell_length_a   6.62996000
_cell_length_b   13.01679036
_cell_length_c   17.71236180
_cell_angle_alpha   92.10522184
_cell_angle_beta   99.10784365
_cell_angle_gamma   100.99920672
_symmetry_Int_Tables_number   1
_chemical_formula_structural   AlH7C14ClO5
_chemical_formula_sum   'Al2 H14 C28 Cl2 O10'
_cell_volume   1478.05501784
_cell_formula_units_Z   2
loop_
 _symmetry_equiv_pos_site_id
 _symmetry_equiv_pos_as_xyz
  1  'x, y, z'
loop_
 _atom_site_type_symbol
 _atom_site_label
 _atom_site_symmetry_multiplicity
 _atom_site_fract_x
 _atom_site_fract_y
 _atom_site_fract_z
 _atom_site_occupancy
  Al  Al0  1  0.99997000  0.49987000  0.49999000  1.0
  Al  Al1  1  0.49994000  0.49983000  0.49997000  1.0
  H  H2  1  0.31231000  0.55855000  0.59314000  1.0
  H  H3  1  0.68744000  0.44124000  0.40683000  1.0
  H  H4  1  0.91166000  0.58976000  0.27792000  1.0
  H  H5  1  0.82758000  0.59062000  0.13577000  1.0
  H  H6  1  0.32328000  0.42392000  0.11606000  1.0
  H  H7  1  0.67699000  0.57648000  0.88388000  1.0
  H  H8  1  0.08876000  0.41062000  0.72220000  1.0
  H  H9  1  0.17319000  0.41013000  0.86435000  1.0
  H  H10  1  0.15691000  0.82121000  0.46880000  1.0
  H  H11  1  0.58014000  0.81112000  0.55263000  1.0
  H  H12  1  0.63400000  0.00673000  0.55747000  1.0
  H  H13  1  0.84262000  0.17851000  0.53109000  1.0
  H  H14  1  0.41962000  0.18857000  0.44742000  1.0
  H  H15  1  0.36572000  0.99298000  0.44252000  1.0
  C  C16  1  0.83174000  0.68923000  0.50850000  1.0
  C  C17  1  0.79309000  0.48601000  0.63694000  1.0
  C  C18  1  0.16796000  0.31045000  0.49144000  1.0
  C  C19  1  0.20684000  0.51385000  0.36303000  1.0
  C  C20  1  0.16765000  0.51122000  0.27752000  1.0
  C  C21  1  0.00282000  0.55535000  0.24154000  1.0
  C  C22  1  0.95522000  0.55543000  0.16247000  1.0
  C  C23  1  0.07068000  0.50786000  0.11588000  1.0
  C  C24  1  0.23511000  0.46248000  0.15118000  1.0
  C  C25  1  0.28341000  0.46475000  0.23072000  1.0
  C  C26  1  0.02158000  0.50313000  0.03497000  1.0
  C  C27  1  0.97897000  0.49754000  0.96511000  1.0
  C  C28  1  0.92983000  0.49274000  0.88420000  1.0
  C  C29  1  0.76538000  0.53803000  0.84882000  1.0
  C  C30  1  0.71689000  0.53551000  0.76928000  1.0
  C  C31  1  0.83238000  0.48883000  0.72250000  1.0
  C  C32  1  0.99735000  0.44486000  0.75857000  1.0
  C  C33  1  0.04527000  0.44510000  0.83767000  1.0
  C  C34  1  0.04282000  0.86269000  0.48720000  1.0
  C  C35  1  0.71687000  0.85836000  0.53507000  1.0
  C  C36  1  0.74687000  0.96603000  0.53722000  1.0
  C  C37  1  0.92442000  0.02637000  0.51282000  1.0
  C  C38  1  0.95670000  0.13698000  0.51270000  1.0
  C  C39  1  0.28273000  0.14134000  0.46490000  1.0
  C  C40  1  0.25286000  0.03367000  0.46276000  1.0
  C  C41  1  0.07523000  0.97331000  0.48711000  1.0
  C  C42  1  0.86652000  0.80598000  0.51011000  1.0
  C  C43  1  0.13305000  0.19369000  0.48983000  1.0
  Cl  Cl44  1  0.48156000  0.40125000  0.26729000  1.0
  Cl  Cl45  1  0.51828000  0.59870000  0.73262000  1.0
  O  O46  1  0.98124000  0.64573000  0.49613000  1.0
  O  O47  1  0.60536000  0.46941000  0.60283000  1.0
  O  O48  1  0.34588000  0.35805000  0.47956000  1.0
  O  O49  1  0.04576000  0.49934000  0.39508000  1.0
  O  O50  1  0.01857000  0.35399000  0.50386000  1.0
  O  O51  1  0.39455000  0.53042000  0.39717000  1.0
  O  O52  1  0.65391000  0.64161000  0.52045000  1.0
  O  O53  1  0.95413000  0.50048000  0.60488000  1.0
  O  O54  1  0.28186000  0.54200000  0.53812000  1.0
  O  O55  1  0.71783000  0.45773000  0.46187000  1.0
