# generated using pymatgen
data_Zn4H16C11N16O9
_symmetry_space_group_name_H-M   'P 1'
_cell_length_a   9.13154000
_cell_length_b   9.57862000
_cell_length_c   17.56320000
_cell_angle_alpha   85.57880000
_cell_angle_beta   74.96000000
_cell_angle_gamma   89.99500000
_symmetry_Int_Tables_number   1
_chemical_formula_structural   Zn4H16C11N16O9
_chemical_formula_sum   'Zn8 H32 C22 N32 O18'
_cell_volume   1478.85589462
_cell_formula_units_Z   2
loop_
 _symmetry_equiv_pos_site_id
 _symmetry_equiv_pos_as_xyz
  1  'x, y, z'
loop_
 _atom_site_type_symbol
 _atom_site_label
 _atom_site_symmetry_multiplicity
 _atom_site_fract_x
 _atom_site_fract_y
 _atom_site_fract_z
 _atom_site_occupancy
  Zn  Zn0  1  0.37881000  0.76345000  0.83467000  1.0
  Zn  Zn1  1  0.21352000  0.73665000  0.16528000  1.0
  Zn  Zn2  1  0.62120000  0.23655000  0.16533000  1.0
  Zn  Zn3  1  0.78648000  0.26335000  0.83472000  1.0
  Zn  Zn4  1  0.37913000  0.55478000  0.65891000  1.0
  Zn  Zn5  1  0.03828000  0.94517000  0.34109000  1.0
  Zn  Zn6  1  0.62087000  0.44522000  0.34109000  1.0
  Zn  Zn7  1  0.96172000  0.05483000  0.65891000  1.0
  H  H8  1  0.54633000  0.63876000  0.94437000  1.0
  H  H9  1  0.49026000  0.86129000  0.05565000  1.0
  H  H10  1  0.45367000  0.36124000  0.05563000  1.0
  H  H11  1  0.50974000  0.13871000  0.94435000  1.0
  H  H12  1  0.65462000  0.49128000  0.94780000  1.0
  H  H13  1  0.60204000  0.00875000  0.05224000  1.0
  H  H14  1  0.34538000  0.50872000  0.05220000  1.0
  H  H15  1  0.39795000  0.99125000  0.94776000  1.0
  H  H16  1  0.02914000  0.05648000  0.82271000  1.0
  H  H17  1  0.85196000  0.44351000  0.17715000  1.0
  H  H18  1  0.97085000  0.94352000  0.17729000  1.0
  H  H19  1  0.14805000  0.55649000  0.82284000  1.0
  H  H20  1  0.10960000  0.93566000  0.87863000  1.0
  H  H21  1  0.98813000  0.56438000  0.12122000  1.0
  H  H22  1  0.89040000  0.06434000  0.12137000  1.0
  H  H23  1  0.01187000  0.43562000  0.87878000  1.0
  H  H24  1  0.60629000  0.32756000  0.70682000  1.0
  H  H25  1  0.31329000  0.17244000  0.29331000  1.0
  H  H26  1  0.39372000  0.67245000  0.29318000  1.0
  H  H27  1  0.68671000  0.82756000  0.70669000  1.0
  H  H28  1  0.18338000  0.79863000  0.58953000  1.0
  H  H29  1  0.77362000  0.70109000  0.41043000  1.0
  H  H30  1  0.81662000  0.20137000  0.41047000  1.0
  H  H31  1  0.22638000  0.29891000  0.58957000  1.0
  H  H32  1  0.71982000  0.78730000  0.58496000  1.0
  H  H33  1  0.30514000  0.71273000  0.41492000  1.0
  H  H34  1  0.28019000  0.21270000  0.41504000  1.0
  H  H35  1  0.69485000  0.28727000  0.58508000  1.0
  H  H36  1  0.55881000  0.80170000  0.57198000  1.0
  H  H37  1  0.13112000  0.69870000  0.42801000  1.0
  H  H38  1  0.44120000  0.19830000  0.42802000  1.0
  H  H39  1  0.86887000  0.30130000  0.57199000  1.0
  C  C40  1  0.58166000  0.52100000  0.84978000  1.0
  C  C41  1  0.43112000  0.97916000  0.15022000  1.0
  C  C42  1  0.41834000  0.47900000  0.15022000  1.0
  C  C43  1  0.56887000  0.02083000  0.84977000  1.0
  C  C44  1  0.58049000  0.40523000  0.74988000  1.0
  C  C45  1  0.33038000  0.09488000  0.25017000  1.0
  C  C46  1  0.41951000  0.59477000  0.25011000  1.0
  C  C47  1  0.66962000  0.90511000  0.74983000  1.0
  C  C48  1  0.14864000  0.89940000  0.76250000  1.0
  C  C49  1  0.91141000  0.60050000  0.23740000  1.0
  C  C50  1  0.85136000  0.10060000  0.23750000  1.0
  C  C51  1  0.08859000  0.39950000  0.76260000  1.0
  C  C52  1  0.18782000  0.81679000  0.64911000  1.0
  C  C53  1  0.83751000  0.68300000  0.35082000  1.0
  C  C54  1  0.81218000  0.18321000  0.35088000  1.0
  C  C55  1  0.16249000  0.31700000  0.64918000  1.0
  C  C56  1  0.25821000  0.75008000  0.99997000  1.0
  C  C57  1  0.74180000  0.24993000  0.00002000  1.0
  C  C58  1  0.54932000  0.44078000  0.51180000  1.0
  C  C59  1  0.06109000  0.05922000  0.48822000  1.0
  C  C60  1  0.45067000  0.55922000  0.48819000  1.0
  C  C61  1  0.93890000  0.94079000  0.51178000  1.0
  N  N62  1  0.48637000  0.58513000  0.81202000  1.0
  N  N63  1  0.29820000  0.91502000  0.18803000  1.0
  N  N64  1  0.51363000  0.41487000  0.18798000  1.0
  N  N65  1  0.70180000  0.08498000  0.81197000  1.0
  N  N66  1  0.48818000  0.51048000  0.74700000  1.0
  N  N67  1  0.23519000  0.98963000  0.25307000  1.0
  N  N68  1  0.51182000  0.48952000  0.25300000  1.0
  N  N69  1  0.76481000  0.01037000  0.74693000  1.0
  N  N70  1  0.64209000  0.40689000  0.81241000  1.0
  N  N71  1  0.45433000  0.09324000  0.18761000  1.0
  N  N72  1  0.35792000  0.59311000  0.18759000  1.0
  N  N73  1  0.54567000  0.90677000  0.81239000  1.0
  N  N74  1  0.61783000  0.56689000  0.91381000  1.0
  N  N75  1  0.53115000  0.93326000  0.08619000  1.0
  N  N76  1  0.38217000  0.43311000  0.08619000  1.0
  N  N77  1  0.46885000  0.06674000  0.91381000  1.0
  N  N78  1  0.24691000  0.79408000  0.76115000  1.0
  N  N79  1  0.00828000  0.70583000  0.23875000  1.0
  N  N80  1  0.75309000  0.20592000  0.23885000  1.0
  N  N81  1  0.99172000  0.29417000  0.76125000  1.0
  N  N82  1  0.27161000  0.74177000  0.68772000  1.0
  N  N83  1  0.95972000  0.75810000  0.31221000  1.0
  N  N84  1  0.72838000  0.25823000  0.31228000  1.0
  N  N85  1  0.04028000  0.24190000  0.68779000  1.0
  N  N86  1  0.10908000  0.91645000  0.69295000  1.0
  N  N87  1  0.80247000  0.58338000  0.30698000  1.0
  N  N88  1  0.89092000  0.08354000  0.30705000  1.0
  N  N89  1  0.19753000  0.41662000  0.69302000  1.0
  N  N90  1  0.10310000  0.97848000  0.82477000  1.0
  N  N91  1  0.92793000  0.52153000  0.17509000  1.0
  N  N92  1  0.89690000  0.02152000  0.17523000  1.0
  N  N93  1  0.07207000  0.47847000  0.82491000  1.0
  O  O94  1  0.21727000  0.76840000  0.93407000  1.0
  O  O95  1  0.15132000  0.73196000  0.06583000  1.0
  O  O96  1  0.78274000  0.23163000  0.06593000  1.0
  O  O97  1  0.84869000  0.26803000  0.93417000  1.0
  O  O98  1  0.39936000  0.74987000  0.00002000  1.0
  O  O99  1  0.60065000  0.25012000  0.99997000  1.0
  O  O100  1  0.53350000  0.41017000  0.58517000  1.0
  O  O101  1  0.11871000  0.08981000  0.41488000  1.0
  O  O102  1  0.46649000  0.58982000  0.41484000  1.0
  O  O103  1  0.88130000  0.91020000  0.58512000  1.0
  O  O104  1  0.63891000  0.38245000  0.45651000  1.0
  O  O105  1  0.09523000  0.11762000  0.54355000  1.0
  O  O106  1  0.36108000  0.61755000  0.54349000  1.0
  O  O107  1  0.90476000  0.88238000  0.45645000  1.0
  O  O108  1  0.62299000  0.73542000  0.59216000  1.0
  O  O109  1  0.21556000  0.76486000  0.40783000  1.0
  O  O110  1  0.37701000  0.26459000  0.40785000  1.0
  O  O111  1  0.78444000  0.23514000  0.59217000  1.0
