# generated using pymatgen
data_CdH7C10N3O4
_symmetry_space_group_name_H-M   'P 1'
_cell_length_a   7.03279000
_cell_length_b   8.70568472
_cell_length_c   10.22540000
_cell_angle_alpha   74.89278655
_cell_angle_beta   75.18500000
_cell_angle_gamma   70.54919130
_symmetry_Int_Tables_number   1
_chemical_formula_structural   CdH7C10N3O4
_chemical_formula_sum   'Cd2 H14 C20 N6 O8'
_cell_volume   560.02432776
_cell_formula_units_Z   2
loop_
 _symmetry_equiv_pos_site_id
 _symmetry_equiv_pos_as_xyz
  1  'x, y, z'
loop_
 _atom_site_type_symbol
 _atom_site_label
 _atom_site_symmetry_multiplicity
 _atom_site_fract_x
 _atom_site_fract_y
 _atom_site_fract_z
 _atom_site_occupancy
  Cd  Cd0  1  0.70101000  0.86517000  0.24938000  1.0
  Cd  Cd1  1  0.29899000  0.13483000  0.75063000  1.0
  H  H2  1  0.52996000  0.70137000  0.57537000  1.0
  H  H3  1  0.47003000  0.29863000  0.42463000  1.0
  H  H4  1  0.58418000  0.42444000  0.73463000  1.0
  H  H5  1  0.41581000  0.57556000  0.26537000  1.0
  H  H6  1  0.82949000  0.17551000  0.64372000  1.0
  H  H7  1  0.17050000  0.82449000  0.35628000  1.0
  H  H8  1  0.02043000  0.21170000  0.40339000  1.0
  H  H9  1  0.97957000  0.78829000  0.59661000  1.0
  H  H10  1  0.19764000  0.26685000  0.16950000  1.0
  H  H11  1  0.80242000  0.73315000  0.83050000  1.0
  H  H12  1  0.36610000  0.47009000  0.94968000  1.0
  H  H13  1  0.63393000  0.52993000  0.05033000  1.0
  H  H14  1  0.19601000  0.76553000  0.99996000  1.0
  H  H15  1  0.80396000  0.23449000  0.00004000  1.0
  C  C16  1  0.63922000  0.59086000  0.54079000  1.0
  C  C17  1  0.36077000  0.40913000  0.45921000  1.0
  C  C18  1  0.66848000  0.43729000  0.62915000  1.0
  C  C19  1  0.33153000  0.56270000  0.37085000  1.0
  C  C20  1  0.80478000  0.29852000  0.57879000  1.0
  C  C21  1  0.19522000  0.70147000  0.42121000  1.0
  C  C22  1  0.91019000  0.31841000  0.44323000  1.0
  C  C23  1  0.08980000  0.68159000  0.55677000  1.0
  C  C24  1  0.87810000  0.47813000  0.36190000  1.0
  C  C25  1  0.12191000  0.52187000  0.63809000  1.0
  C  C26  1  0.00439000  0.51201000  0.22557000  1.0
  C  C27  1  0.99560000  0.48799000  0.77441000  1.0
  C  C28  1  0.15585000  0.40126000  0.14684000  1.0
  C  C29  1  0.84417000  0.59874000  0.85315000  1.0
  C  C30  1  0.45218000  0.92501000  0.01942000  1.0
  C  C31  1  0.54784000  0.07499000  0.98060000  1.0
  C  C32  1  0.39105000  0.00367000  0.48909000  1.0
  C  C33  1  0.60889000  0.99634000  0.51091000  1.0
  C  C34  1  0.24342000  0.50199000  0.03566000  1.0
  C  C35  1  0.75660000  0.49802000  0.96435000  1.0
  N  N36  1  0.74036000  0.61121000  0.41016000  1.0
  N  N37  1  0.25964000  0.38878000  0.58983000  1.0
  N  N38  1  0.00126000  0.67029000  0.16467000  1.0
  N  N39  1  0.99873000  0.32971000  0.83533000  1.0
  N  N40  1  0.14593000  0.66170000  0.04949000  1.0
  N  N41  1  0.85405000  0.33832000  0.95050000  1.0
  O  O42  1  0.50551000  0.80995000  0.11825000  1.0
  O  O43  1  0.49453000  0.19003000  0.88176000  1.0
  O  O44  1  0.32557000  0.92887000  0.94745000  1.0
  O  O45  1  0.67450000  0.07112000  0.05257000  1.0
  O  O46  1  0.37784000  0.99147000  0.37114000  1.0
  O  O47  1  0.62212000  0.00852000  0.62885000  1.0
  O  O48  1  0.24268000  0.02082000  0.59067000  1.0
  O  O49  1  0.75730000  0.97918000  0.40932000  1.0
