# generated using pymatgen
data_ZnH12C14(NO)4
_symmetry_space_group_name_H-M   'P 1'
_cell_length_a   7.81979000
_cell_length_b   9.80456000
_cell_length_c   11.50500000
_cell_angle_alpha   78.10070000
_cell_angle_beta   72.65160000
_cell_angle_gamma   82.36210000
_symmetry_Int_Tables_number   1
_chemical_formula_structural   ZnH12C14(NO)4
_chemical_formula_sum   'Zn2 H24 C28 N8 O8'
_cell_volume   821.45189848
_cell_formula_units_Z   2
loop_
 _symmetry_equiv_pos_site_id
 _symmetry_equiv_pos_as_xyz
  1  'x, y, z'
loop_
 _atom_site_type_symbol
 _atom_site_label
 _atom_site_symmetry_multiplicity
 _atom_site_fract_x
 _atom_site_fract_y
 _atom_site_fract_z
 _atom_site_occupancy
  Zn  Zn0  1  0.55212000  0.43324000  0.20315000  1.0
  Zn  Zn1  1  0.44790000  0.56675000  0.79685000  1.0
  H  H2  1  0.98568000  0.17053000  0.30566000  1.0
  H  H3  1  0.01429000  0.82950000  0.69432000  1.0
  H  H4  1  0.85853000  0.64656000  0.44404000  1.0
  H  H5  1  0.14145000  0.35344000  0.55597000  1.0
  H  H6  1  0.96087000  0.25137000  0.90964000  1.0
  H  H7  1  0.03914000  0.74862000  0.09036000  1.0
  H  H8  1  0.82994000  0.91625000  0.21756000  1.0
  H  H9  1  0.17008000  0.08372000  0.78244000  1.0
  H  H10  1  0.24677000  0.96349000  0.19175000  1.0
  H  H11  1  0.75322000  0.03650000  0.80826000  1.0
  H  H12  1  0.70344000  0.79557000  0.93627000  1.0
  H  H13  1  0.29656000  0.20443000  0.06372000  1.0
  H  H14  1  0.28984000  0.16599000  0.35830000  1.0
  H  H15  1  0.71017000  0.83403000  0.64170000  1.0
  H  H16  1  0.93915000  0.38269000  0.15089000  1.0
  H  H17  1  0.06087000  0.61733000  0.84909000  1.0
  H  H18  1  0.23234000  0.53655000  0.10532000  1.0
  H  H19  1  0.76766000  0.46346000  0.89466000  1.0
  H  H20  1  0.74166000  0.67336000  0.25374000  1.0
  H  H21  1  0.25834000  0.32664000  0.74627000  1.0
  H  H22  1  0.77932000  0.41301000  0.59296000  1.0
  H  H23  1  0.22066000  0.58699000  0.40704000  1.0
  H  H24  1  0.62296000  0.27588000  0.46801000  1.0
  H  H25  1  0.37702000  0.72412000  0.53199000  1.0
  C  C26  1  0.76250000  0.19077000  0.15020000  1.0
  C  C27  1  0.23749000  0.80922000  0.84981000  1.0
  C  C28  1  0.88479000  0.09301000  0.07146000  1.0
  C  C29  1  0.11521000  0.90697000  0.92854000  1.0
  C  C30  1  0.97996000  0.14135000  0.94864000  1.0
  C  C31  1  0.02003000  0.85864000  0.05137000  1.0
  C  C32  1  0.90586000  0.95111000  0.12191000  1.0
  C  C33  1  0.09414000  0.04886000  0.87810000  1.0
  C  C34  1  0.43916000  0.72226000  0.14493000  1.0
  C  C35  1  0.56084000  0.27774000  0.85507000  1.0
  C  C36  1  0.47194000  0.86587000  0.07051000  1.0
  C  C37  1  0.52808000  0.13412000  0.92950000  1.0
  C  C38  1  0.35799000  0.98114000  0.10794000  1.0
  C  C39  1  0.64201000  0.01885000  0.89206000  1.0
  C  C40  1  0.61461000  0.88606000  0.96229000  1.0
  C  C41  1  0.38539000  0.11393000  0.03770000  1.0
  C  C42  1  0.23190000  0.24898000  0.30003000  1.0
  C  C43  1  0.76810000  0.75104000  0.69996000  1.0
  C  C44  1  0.05236000  0.36414000  0.18915000  1.0
  C  C45  1  0.94765000  0.63589000  0.81085000  1.0
  C  C46  1  0.19778000  0.43890000  0.16762000  1.0
  C  C47  1  0.80224000  0.56112000  0.83236000  1.0
  C  C48  1  0.73048000  0.58391000  0.32805000  1.0
  C  C49  1  0.26951000  0.41609000  0.67195000  1.0
  C  C50  1  0.75678000  0.44446000  0.50201000  1.0
  C  C51  1  0.24320000  0.55554000  0.49800000  1.0
  C  C52  1  0.67205000  0.37912000  0.44241000  1.0
  C  C53  1  0.32792000  0.62088000  0.55760000  1.0
  N  N54  1  0.30825000  0.36644000  0.23753000  1.0
  N  N55  1  0.69176000  0.63358000  0.76246000  1.0
  N  N56  1  0.07509000  0.24570000  0.27338000  1.0
  N  N57  1  0.92491000  0.75433000  0.72661000  1.0
  N  N58  1  0.65613000  0.46686000  0.33498000  1.0
  N  N59  1  0.34387000  0.53314000  0.66502000  1.0
  N  N60  1  0.79260000  0.57326000  0.42785000  1.0
  N  N61  1  0.20740000  0.42674000  0.57216000  1.0
  O  O62  1  0.72058000  0.31296000  0.09174000  1.0
  O  O63  1  0.27942000  0.68704000  0.90825000  1.0
  O  O64  1  0.71180000  0.15453000  0.26602000  1.0
  O  O65  1  0.28820000  0.84546000  0.73399000  1.0
  O  O66  1  0.55912000  0.62402000  0.10590000  1.0
  O  O67  1  0.44089000  0.37598000  0.89410000  1.0
  O  O68  1  0.30432000  0.70435000  0.23707000  1.0
  O  O69  1  0.69571000  0.29563000  0.76294000  1.0
