# generated using pymatgen
data_Zr3H14C15O16
_symmetry_space_group_name_H-M   'P 1'
_cell_length_a   17.49460000
_cell_length_b   20.33180000
_cell_length_c   20.92610000
_cell_angle_alpha   89.98080000
_cell_angle_beta   79.82800000
_cell_angle_gamma   89.96770000
_symmetry_Int_Tables_number   1
_chemical_formula_structural   Zr3H14C15O16
_chemical_formula_sum   'Zr12 H56 C60 O64'
_cell_volume   7326.34924432
_cell_formula_units_Z   4
loop_
 _symmetry_equiv_pos_site_id
 _symmetry_equiv_pos_as_xyz
  1  'x, y, z'
loop_
 _atom_site_type_symbol
 _atom_site_label
 _atom_site_symmetry_multiplicity
 _atom_site_fract_x
 _atom_site_fract_y
 _atom_site_fract_z
 _atom_site_occupancy
  Zr  Zr0  1  0.13973000  0.53203000  0.61554000  1.0
  Zr  Zr1  1  0.92499000  0.41271000  0.54676000  1.0
  Zr  Zr2  1  0.94378000  0.49760000  0.69137000  1.0
  Zr  Zr3  1  0.11931000  0.44565000  0.47074000  1.0
  Zr  Zr4  1  0.07843000  0.36839000  0.62634000  1.0
  Zr  Zr5  1  0.98758000  0.57583000  0.53260000  1.0
  Zr  Zr6  1  0.63249000  0.93702000  0.14380000  1.0
  Zr  Zr7  1  0.43042000  0.00166000  0.02101000  1.0
  Zr  Zr8  1  0.46242000  0.85727000  0.10753000  1.0
  Zr  Zr9  1  0.59884000  0.08184000  0.05572000  1.0
  Zr  Zr10  1  0.61193000  0.92312000  0.98146000  1.0
  Zr  Zr11  1  0.45204000  0.01875000  0.18311000  1.0
  H  H12  1  0.87263000  0.20482000  0.26909000  1.0
  H  H13  1  0.12079000  0.19954000  0.26077000  1.0
  H  H14  1  0.01476000  0.07518000  0.13376000  1.0
  H  H15  1  0.18929000  0.73836000  0.89461000  1.0
  H  H16  1  0.94085000  0.72427000  0.90768000  1.0
  H  H17  1  0.03726000  0.86368000  0.02730000  1.0
  H  H18  1  0.22055000  0.41722000  0.55863000  1.0
  H  H19  1  0.91796000  0.36174000  0.68160000  1.0
  H  H20  1  0.98010000  0.48138000  0.42970000  1.0
  H  H21  1  0.01119000  0.62504000  0.65214000  1.0
  H  H22  1  0.03110000  0.28543000  0.71254000  1.0
  H  H23  1  0.82174000  0.57468000  0.72528000  1.0
  H  H24  1  0.84452000  0.63480000  0.57632000  1.0
  H  H25  1  0.13697000  0.26320000  0.56238000  1.0
  H  H26  1  0.24856000  0.37262000  0.43472000  1.0
  H  H27  1  0.17491000  0.52394000  0.37153000  1.0
  H  H28  1  0.99418000  0.60612000  0.39807000  1.0
  H  H29  1  0.98890000  0.26128000  0.61261000  1.0
  H  H30  1  0.89748000  0.28256000  0.51581000  1.0
  H  H31  1  0.15803000  0.66854000  0.62933000  1.0
  H  H32  1  0.06582000  0.68249000  0.49133000  1.0
  H  H33  1  0.18093000  0.32081000  0.51394000  1.0
  H  H34  1  0.84109000  0.29736000  0.58180000  1.0
  H  H35  1  0.93328000  0.45156000  0.81016000  1.0
  H  H36  1  0.08703000  0.32250000  0.75382000  1.0
  H  H37  1  0.07447000  0.56456000  0.40555000  1.0
  H  H38  1  0.87860000  0.61542000  0.64311000  1.0
  H  H39  1  0.11316000  0.65683000  0.56637000  1.0
  H  H40  1  0.70529000  0.65151000  0.34142000  1.0
  H  H41  1  0.45832000  0.64829000  0.34333000  1.0
  H  H42  1  0.55656000  0.52770000  0.47829000  1.0
  H  H43  1  0.35969000  0.28363000  0.81813000  1.0
  H  H44  1  0.60921000  0.28653000  0.80181000  1.0
  H  H45  1  0.49743000  0.41749000  0.68445000  1.0
  H  H46  1  0.72654000  0.99440000  0.03098000  1.0
  H  H47  1  0.46569000  0.86502000  0.97314000  1.0
  H  H48  1  0.44260000  0.12155000  0.08798000  1.0
  H  H49  1  0.49136000  0.89919000  0.23408000  1.0
  H  H50  1  0.60343000  0.83339000  0.90088000  1.0
  H  H51  1  0.32988000  0.82330000  0.18108000  1.0
  H  H52  1  0.30647000  0.97326000  0.24152000  1.0
  H  H53  1  0.68060000  0.98738000  0.87751000  1.0
  H  H54  1  0.73600000  0.12053000  0.98465000  1.0
  H  H55  1  0.61348000  0.18381000  0.13201000  1.0
  H  H56  1  0.42128000  0.15505000  0.21128000  1.0
  H  H57  1  0.54458000  0.93442000  0.87427000  1.0
  H  H58  1  0.42775000  0.03087000  0.89118000  1.0
  H  H59  1  0.62218000  0.92427000  0.27913000  1.0
  H  H60  1  0.49716000  0.06316000  0.28845000  1.0
  H  H61  1  0.69945000  0.03756000  0.93458000  1.0
  H  H62  1  0.38340000  0.96350000  0.90584000  1.0
  H  H63  1  0.48496000  0.73542000  0.06597000  1.0
  H  H64  1  0.65911000  0.79304000  0.93988000  1.0
  H  H65  1  0.51238000  0.14818000  0.17109000  1.0
  H  H66  1  0.35964000  0.90601000  0.22203000  1.0
  H  H67  1  0.56594000  0.98741000  0.26576000  1.0
  C  C68  1  0.93609000  0.13737000  0.19888000  1.0
  C  C69  1  0.92943000  0.18518000  0.24807000  1.0
  C  C70  1  0.99599000  0.20775000  0.27021000  1.0
  C  C71  1  0.06929000  0.18218000  0.24338000  1.0
  C  C72  1  0.07630000  0.13450000  0.19409000  1.0
  C  C73  1  0.00962000  0.11221000  0.17185000  1.0
  C  C74  1  0.12072000  0.80417000  0.96355000  1.0
  C  C75  1  0.13102000  0.75455000  0.91596000  1.0
  C  C76  1  0.06616000  0.72542000  0.89618000  1.0
  C  C77  1  0.99092000  0.74669000  0.92338000  1.0
  C  C78  1  0.98031000  0.79668000  0.97044000  1.0
  C  C79  1  0.04531000  0.82509000  0.99066000  1.0
  C  C80  1  0.22698000  0.41899000  0.68646000  1.0
  C  C81  1  0.27876000  0.52573000  0.49054000  1.0
  C  C82  1  0.07035000  0.58397000  0.75832000  1.0
  C  C83  1  0.77742000  0.42181000  0.65980000  1.0
  C  C84  1  0.83107000  0.52626000  0.48103000  1.0
  C  C85  1  0.99777000  0.34823000  0.40828000  1.0
  C  C86  1  0.63847000  0.58634000  0.41212000  1.0
  C  C87  1  0.64776000  0.63279000  0.36150000  1.0
  C  C88  1  0.58285000  0.65473000  0.33647000  1.0
  C  C89  1  0.50847000  0.63094000  0.36279000  1.0
  C  C90  1  0.49860000  0.58574000  0.41439000  1.0
  C  C91  1  0.56387000  0.56311000  0.43865000  1.0
  C  C92  1  0.42082000  0.35367000  0.74949000  1.0
  C  C93  1  0.41605000  0.30353000  0.79631000  1.0
  C  C94  1  0.48395000  0.27962000  0.81541000  1.0
  C  C95  1  0.55672000  0.30511000  0.78684000  1.0
  C  C96  1  0.56188000  0.35449000  0.73930000  1.0
  C  C97  1  0.49374000  0.37896000  0.72101000  1.0
  C  C98  1  0.76164000  0.86501000  0.03532000  1.0
  C  C99  1  0.74337000  0.06557000  0.13817000  1.0
  C  C100  1  0.58409000  0.79203000  0.19514000  1.0
  C  C101  1  0.30642000  0.88608000  0.02772000  1.0
  C  C102  1  0.29572000  0.06688000  0.13093000  1.0
  C  C103  1  0.48609000  0.14174000  0.95616000  1.0
  C  C104  1  0.48032000  0.23051000  0.86394000  1.0
  C  C105  1  0.48045000  0.18954000  0.90634000  1.0
  C  C106  1  0.59136000  0.74095000  0.24159000  1.0
  C  C107  1  0.59022000  0.70118000  0.28525000  1.0
  C  C108  1  0.70462000  0.56374000  0.43634000  1.0
  C  C109  1  0.76234000  0.54519000  0.45626000  1.0
  C  C110  1  0.35699000  0.54579000  0.46313000  1.0
  C  C111  1  0.42285000  0.56351000  0.44119000  1.0
  C  C112  1  0.63564000  0.37949000  0.71051000  1.0
  C  C113  1  0.69938000  0.40040000  0.68628000  1.0
  C  C114  1  0.29397000  0.39896000  0.71307000  1.0
  C  C115  1  0.35241000  0.37819000  0.73030000  1.0
  C  C116  1  0.90421000  0.81865000  0.99651000  1.0
  C  C117  1  0.83839000  0.83758000  0.01703000  1.0
  C  C118  1  0.23996000  0.85821000  0.00501000  1.0
  C  C119  1  0.18558000  0.83313000  0.98494000  1.0
  C  C120  1  0.07440000  0.67474000  0.84889000  1.0
  C  C121  1  0.07581000  0.63091000  0.80906000  1.0
  C  C122  1  0.86879000  0.11425000  0.17696000  1.0
  C  C123  1  0.81093000  0.09372000  0.15875000  1.0
  C  C124  1  0.21705000  0.09029000  0.14895000  1.0
  C  C125  1  0.15114000  0.10971000  0.16816000  1.0
  C  C126  1  0.99161000  0.29894000  0.36001000  1.0
  C  C127  1  0.99094000  0.25653000  0.31910000  1.0
  O  O128  1  0.15900000  0.64109000  0.59117000  1.0
  O  O129  1  0.22292000  0.47869000  0.66955000  1.0
  O  O130  1  0.12815000  0.58216000  0.71099000  1.0
  O  O131  1  0.24130000  0.49413000  0.45334000  1.0
  O  O132  1  0.00813000  0.55103000  0.76385000  1.0
  O  O133  1  0.25527000  0.54106000  0.54970000  1.0
  O  O134  1  0.17825000  0.37321000  0.68067000  1.0
  O  O135  1  0.06044000  0.46491000  0.66029000  1.0
  O  O136  1  0.16736000  0.43289000  0.56543000  1.0
  O  O137  1  0.01760000  0.58124000  0.63343000  1.0
  O  O138  1  0.09449000  0.53010000  0.53095000  1.0
  O  O139  1  0.12245000  0.50950000  0.38931000  1.0
  O  O140  1  0.04012000  0.32746000  0.73512000  1.0
  O  O141  1  0.04061000  0.38874000  0.53968000  1.0
  O  O142  1  0.94864000  0.38915000  0.64859000  1.0
  O  O143  1  0.93155000  0.49893000  0.59009000  1.0
  O  O144  1  0.99397000  0.48084000  0.47255000  1.0
  O  O145  1  0.90982000  0.44541000  0.77193000  1.0
  O  O146  1  0.80866000  0.46413000  0.69029000  1.0
  O  O147  1  0.80871000  0.39293000  0.60637000  1.0
  O  O148  1  0.04795000  0.66648000  0.53525000  1.0
  O  O149  1  0.83757000  0.46628000  0.49627000  1.0
  O  O150  1  0.87482000  0.58397000  0.70435000  1.0
  O  O151  1  0.89171000  0.63572000  0.59486000  1.0
  O  O152  1  0.03392000  0.60338000  0.42511000  1.0
  O  O153  1  0.87958000  0.57281000  0.48538000  1.0
  O  O154  1  0.89590000  0.29344000  0.56168000  1.0
  O  O155  1  0.19393000  0.36454000  0.45112000  1.0
  O  O156  1  0.93737000  0.35605000  0.45312000  1.0
  O  O157  1  0.06126000  0.37875000  0.40275000  1.0
  O  O158  1  0.16907000  0.30282000  0.56081000  1.0
  O  O159  1  0.03587000  0.27024000  0.63005000  1.0
  O  O160  1  0.62098000  0.96251000  0.25142000  1.0
  O  O161  1  0.74022000  0.88336000  0.09375000  1.0
  O  O162  1  0.63115000  0.84065000  0.19381000  1.0
  O  O163  1  0.70504000  0.10239000  0.10588000  1.0
  O  O164  1  0.53038000  0.78537000  0.16227000  1.0
  O  O165  1  0.72981000  0.00570000  0.15392000  1.0
  O  O166  1  0.72235000  0.86974000  0.98924000  1.0
  O  O167  1  0.57921000  0.88987000  0.07701000  1.0
  O  O168  1  0.67149000  0.98698000  0.04575000  1.0
  O  O169  1  0.50350000  0.91753000  0.19060000  1.0
  O  O170  1  0.56853000  0.02173000  0.13973000  1.0
  O  O171  1  0.56842000  0.16493000  0.11746000  1.0
  O  O172  1  0.60739000  0.81204000  0.94328000  1.0
  O  O173  1  0.54952000  0.01031000  0.99947000  1.0
  O  O174  1  0.48266000  0.89889000  0.00028000  1.0
  O  O175  1  0.42686000  0.95912000  0.10708000  1.0
  O  O176  1  0.46638000  0.07849000  0.08832000  1.0
  O  O177  1  0.45703000  0.77474000  0.05740000  1.0
  O  O178  1  0.33325000  0.85663000  0.07150000  1.0
  O  O179  1  0.33326000  0.93985000  0.99875000  1.0
  O  O180  1  0.49248000  0.01824000  0.27362000  1.0
  O  O181  1  0.31941000  0.05141000  0.07196000  1.0
  O  O182  1  0.37614000  0.84433000  0.19139000  1.0
  O  O183  1  0.35769000  0.95501000  0.24219000  1.0
  O  O184  1  0.46762000  0.12818000  0.20933000  1.0
  O  O185  1  0.33456000  0.06407000  0.17759000  1.0
  O  O186  1  0.43430000  0.98466000  0.90250000  1.0
  O  O187  1  0.68755000  0.10159000  0.97691000  1.0
  O  O188  1  0.43426000  0.09569000  0.96381000  1.0
  O  O189  1  0.54092000  0.14877000  0.98734000  1.0
  O  O190  1  0.70250000  0.98985000  0.91739000  1.0
  O  O191  1  0.59310000  0.91723000  0.88423000  1.0
