# generated using pymatgen
data_CuH14C22N3ClO2
_symmetry_space_group_name_H-M   'P 1'
_cell_length_a   8.39663000
_cell_length_b   10.17870000
_cell_length_c   12.71470000
_cell_angle_alpha   66.89260000
_cell_angle_beta   81.43880000
_cell_angle_gamma   69.67340000
_symmetry_Int_Tables_number   1
_chemical_formula_structural   CuH14C22N3ClO2
_chemical_formula_sum   'Cu2 H28 C44 N6 Cl2 O4'
_cell_volume   937.16046244
_cell_formula_units_Z   2
loop_
 _symmetry_equiv_pos_site_id
 _symmetry_equiv_pos_as_xyz
  1  'x, y, z'
loop_
 _atom_site_type_symbol
 _atom_site_label
 _atom_site_symmetry_multiplicity
 _atom_site_fract_x
 _atom_site_fract_y
 _atom_site_fract_z
 _atom_site_occupancy
  Cu  Cu0  1  0.27215000  0.32794000  0.29459000  1.0
  Cu  Cu1  1  0.72785000  0.67205000  0.70541000  1.0
  H  H2  1  0.98813000  0.99033000  0.41274000  1.0
  H  H3  1  0.01187000  0.00967000  0.58726000  1.0
  H  H4  1  0.03068000  0.14320000  0.85472000  1.0
  H  H5  1  0.96931000  0.85681000  0.14528000  1.0
  H  H6  1  0.62983000  0.50466000  0.21893000  1.0
  H  H7  1  0.37016000  0.49534000  0.78108000  1.0
  H  H8  1  0.54690000  0.47408000  0.41882000  1.0
  H  H9  1  0.45310000  0.52591000  0.58119000  1.0
  H  H10  1  0.90975000  0.10202000  0.20978000  1.0
  H  H11  1  0.09026000  0.89798000  0.79021000  1.0
  H  H12  1  0.52330000  0.20969000  0.80103000  1.0
  H  H13  1  0.47670000  0.79032000  0.19896000  1.0
  H  H14  1  0.94320000  0.44503000  0.16383000  1.0
  H  H15  1  0.05679000  0.55497000  0.83617000  1.0
  H  H16  1  0.59899000  0.24442000  0.15782000  1.0
  H  H17  1  0.40101000  0.75558000  0.84219000  1.0
  H  H18  1  0.77419000  0.38085000  0.56569000  1.0
  H  H19  1  0.22581000  0.61915000  0.43432000  1.0
  H  H20  1  0.99994000  0.29823000  0.67735000  1.0
  H  H21  1  0.00006000  0.70177000  0.32265000  1.0
  H  H22  1  0.54925000  0.10251000  0.67499000  1.0
  H  H23  1  0.45074000  0.89749000  0.32501000  1.0
  H  H24  1  0.76114000  0.02722000  0.56328000  1.0
  H  H25  1  0.23886000  0.97277000  0.43672000  1.0
  H  H26  1  0.50660000  0.21427000  0.99300000  1.0
  H  H27  1  0.49341000  0.78573000  0.00699000  1.0
  H  H28  1  0.02610000  0.12894000  0.05248000  1.0
  H  H29  1  0.97390000  0.87108000  0.94752000  1.0
  C  C30  1  0.85652000  0.05515000  0.38947000  1.0
  C  C31  1  0.14348000  0.94485000  0.61053000  1.0
  C  C32  1  0.13859000  0.15308000  0.88580000  1.0
  C  C33  1  0.86140000  0.84693000  0.11420000  1.0
  C  C34  1  0.72739000  0.46433000  0.28197000  1.0
  C  C35  1  0.27261000  0.53567000  0.71803000  1.0
  C  C36  1  0.68143000  0.44640000  0.39549000  1.0
  C  C37  1  0.31857000  0.55360000  0.60452000  1.0
  C  C38  1  0.81231000  0.11665000  0.27466000  1.0
  C  C39  1  0.18770000  0.88334000  0.72534000  1.0
  C  C40  1  0.41414000  0.18999000  0.85554000  1.0
  C  C41  1  0.58586000  0.81000000  0.14445000  1.0
  C  C42  1  0.89909000  0.43067000  0.25153000  1.0
  C  C43  1  0.10090000  0.56932000  0.74847000  1.0
  C  C44  1  0.64279000  0.19541000  0.24564000  1.0
  C  C45  1  0.35722000  0.80459000  0.75436000  1.0
  C  C46  1  0.80669000  0.39358000  0.47634000  1.0
  C  C47  1  0.19332000  0.60642000  0.52367000  1.0
  C  C48  1  0.12049000  0.26607000  0.63276000  1.0
  C  C49  1  0.87951000  0.73393000  0.36724000  1.0
  C  C50  1  0.42814000  0.16083000  0.63078000  1.0
  C  C51  1  0.57186000  0.83916000  0.36922000  1.0
  C  C52  1  0.27792000  0.17592000  0.81295000  1.0
  C  C53  1  0.72208000  0.82408000  0.18705000  1.0
  C  C54  1  0.73225000  0.07668000  0.47222000  1.0
  C  C55  1  0.26774000  0.92332000  0.52778000  1.0
  C  C56  1  0.27545000  0.19938000  0.69151000  1.0
  C  C57  1  0.72455000  0.80063000  0.30849000  1.0
  C  C58  1  0.42141000  0.19442000  0.51398000  1.0
  C  C59  1  0.57858000  0.80558000  0.48602000  1.0
  C  C60  1  0.97648000  0.35892000  0.44031000  1.0
  C  C61  1  0.02352000  0.64108000  0.55969000  1.0
  C  C62  1  0.56533000  0.16048000  0.43673000  1.0
  C  C63  1  0.43466000  0.83953000  0.56327000  1.0
  C  C64  1  0.12330000  0.29614000  0.51581000  1.0
  C  C65  1  0.87670000  0.70385000  0.48420000  1.0
  C  C66  1  0.26473000  0.17252000  0.03643000  1.0
  C  C67  1  0.73527000  0.82749000  0.96356000  1.0
  C  C68  1  0.40496000  0.19296000  0.96461000  1.0
  C  C69  1  0.59505000  0.80704000  0.03538000  1.0
  C  C70  1  0.13458000  0.14755000  0.99708000  1.0
  C  C71  1  0.86542000  0.85246000  0.00291000  1.0
  C  C72  1  0.24961000  0.18415000  0.15194000  1.0
  C  C73  1  0.75040000  0.81586000  0.84805000  1.0
  N  N74  1  0.01973000  0.37848000  0.32878000  1.0
  N  N75  1  0.98027000  0.62152000  0.67121000  1.0
  N  N76  1  0.52280000  0.21569000  0.32499000  1.0
  N  N77  1  0.47720000  0.78430000  0.67501000  1.0
  N  N78  1  0.27194000  0.26365000  0.45997000  1.0
  N  N79  1  0.72806000  0.73634000  0.54003000  1.0
  Cl  Cl80  1  0.28601000  0.58329000  0.23969000  1.0
  Cl  Cl81  1  0.71396000  0.41671000  0.76031000  1.0
  O  O82  1  0.27813000  0.30329000  0.14849000  1.0
  O  O83  1  0.72189000  0.69671000  0.85151000  1.0
  O  O84  1  0.21014000  0.08700000  0.23892000  1.0
  O  O85  1  0.78985000  0.91300000  0.76107000  1.0
