# generated using pymatgen
data_H20Pb(C4O)5
_symmetry_space_group_name_H-M   'P 1'
_cell_length_a   7.14155000
_cell_length_b   8.56667000
_cell_length_c   15.59760000
_cell_angle_alpha   77.67000000
_cell_angle_beta   90.00050000
_cell_angle_gamma   90.00010000
_symmetry_Int_Tables_number   1
_chemical_formula_structural   H20Pb(C4O)5
_chemical_formula_sum   'H40 Pb2 C40 O10'
_cell_volume   932.23944869
_cell_formula_units_Z   2
loop_
 _symmetry_equiv_pos_site_id
 _symmetry_equiv_pos_as_xyz
  1  'x, y, z'
loop_
 _atom_site_type_symbol
 _atom_site_label
 _atom_site_symmetry_multiplicity
 _atom_site_fract_x
 _atom_site_fract_y
 _atom_site_fract_z
 _atom_site_occupancy
  H  H0  1  0.65353000  0.56984000  0.65010000  1.0
  H  H1  1  0.15352000  0.43016000  0.34990000  1.0
  H  H2  1  0.42800000  0.56829000  0.65146000  1.0
  H  H3  1  0.92800000  0.43170000  0.34854000  1.0
  H  H4  1  0.65713000  0.07260000  0.61381000  1.0
  H  H5  1  0.15713000  0.92739000  0.38619000  1.0
  H  H6  1  0.45306000  0.27101000  0.70485000  1.0
  H  H7  1  0.95306000  0.72900000  0.29514000  1.0
  H  H8  1  0.53631000  0.07789000  0.75233000  1.0
  H  H9  1  0.03632000  0.92211000  0.24767000  1.0
  H  H10  1  0.14279000  0.16225000  0.82247000  1.0
  H  H11  1  0.64278000  0.83776000  0.17753000  1.0
  H  H12  1  0.83842000  0.02515000  0.82214000  1.0
  H  H13  1  0.33842000  0.97486000  0.17786000  1.0
  H  H14  1  0.77439000  0.85909000  0.71167000  1.0
  H  H15  1  0.27440000  0.14092000  0.28833000  1.0
  H  H16  1  0.01155000  0.83711000  0.59930000  1.0
  H  H17  1  0.51157000  0.16289000  0.40069000  1.0
  H  H18  1  0.44163000  0.87378000  0.59634000  1.0
  H  H19  1  0.94164000  0.12621000  0.40365000  1.0
  H  H20  1  0.33297000  0.02343000  0.51578000  1.0
  H  H21  1  0.83299000  0.97656000  0.48421000  1.0
  H  H22  1  0.64838000  0.31739000  0.20853000  1.0
  H  H23  1  0.14837000  0.68262000  0.79147000  1.0
  H  H24  1  0.40141000  0.33715000  0.10376000  1.0
  H  H25  1  0.90140000  0.66285000  0.89625000  1.0
  H  H26  1  0.27883000  0.42168000  0.18137000  1.0
  H  H27  1  0.77883000  0.57832000  0.81863000  1.0
  H  H28  1  0.11821000  0.62400000  0.03018000  1.0
  H  H29  1  0.61820000  0.37601000  0.96981000  1.0
  H  H30  1  0.18287000  0.88178000  0.92478000  1.0
  H  H31  1  0.68287000  0.11823000  0.07522000  1.0
  H  H32  1  0.50376000  0.99509000  0.91050000  1.0
  H  H33  1  0.00375000  0.00491000  0.08950000  1.0
  H  H34  1  0.76413000  0.85438000  0.00106000  1.0
  H  H35  1  0.26412000  0.14561000  0.99894000  1.0
  H  H36  1  0.80983000  0.61957000  0.16561000  1.0
  H  H37  1  0.30982000  0.38044000  0.83439000  1.0
  H  H38  1  0.81187000  0.48661000  0.09329000  1.0
  H  H39  1  0.31187000  0.51339000  0.90671000  1.0
  Pb  Pb40  1  0.52569000  0.61841000  0.44336000  1.0
  Pb  Pb41  1  0.02569000  0.38161000  0.55664000  1.0
  C  C42  1  0.51399000  0.27464000  0.54316000  1.0
  C  C43  1  0.01399000  0.72535000  0.45683000  1.0
  C  C44  1  0.51298000  0.11696000  0.60906000  1.0
  C  C45  1  0.01298000  0.88303000  0.39093000  1.0
  C  C46  1  0.44589000  0.14502000  0.70006000  1.0
  C  C47  1  0.94590000  0.85498000  0.29993000  1.0
  C  C48  1  0.24930000  0.07961000  0.70966000  1.0
  C  C49  1  0.74931000  0.92039000  0.29033000  1.0
  C  C50  1  0.11528000  0.09284000  0.77292000  1.0
  C  C51  1  0.61528000  0.90716000  0.22707000  1.0
  C  C52  1  0.94318000  0.01494000  0.77273000  1.0
  C  C53  1  0.44317000  0.98506000  0.22727000  1.0
  C  C54  1  0.90640000  0.92364000  0.71022000  1.0
  C  C55  1  0.40640000  0.07636000  0.28978000  1.0
  C  C56  1  0.03992000  0.91167000  0.64626000  1.0
  C  C57  1  0.53992000  0.08832000  0.35374000  1.0
  C  C58  1  0.21088000  0.99099000  0.64569000  1.0
  C  C59  1  0.71088000  0.00900000  0.35431000  1.0
  C  C60  1  0.37522000  0.99251000  0.58508000  1.0
  C  C61  1  0.87523000  0.00748000  0.41491000  1.0
  C  C62  1  0.55635000  0.48967000  0.27764000  1.0
  C  C63  1  0.05634000  0.51033000  0.72236000  1.0
  C  C64  1  0.58556000  0.43708000  0.19077000  1.0
  C  C65  1  0.08555000  0.56292000  0.80923000  1.0
  C  C66  1  0.40225000  0.43640000  0.13855000  1.0
  C  C67  1  0.90224000  0.56360000  0.86145000  1.0
  C  C68  1  0.40581000  0.59421000  0.07381000  1.0
  C  C69  1  0.90580000  0.40580000  0.92619000  1.0
  C  C70  1  0.25926000  0.67434000  0.02387000  1.0
  C  C71  1  0.75925000  0.32566000  0.97613000  1.0
  C  C72  1  0.29569000  0.81851000  0.96475000  1.0
  C  C73  1  0.79567000  0.18149000  0.03525000  1.0
  C  C74  1  0.47704000  0.88179000  0.95624000  1.0
  C  C75  1  0.97703000  0.11822000  0.04376000  1.0
  C  C76  1  0.62394000  0.80236000  0.00701000  1.0
  C  C77  1  0.12393000  0.19764000  0.99299000  1.0
  C  C78  1  0.58732000  0.65887000  0.06629000  1.0
  C  C79  1  0.08732000  0.34114000  0.93371000  1.0
  C  C80  1  0.71903000  0.55349000  0.12888000  1.0
  C  C81  1  0.21903000  0.44651000  0.87112000  1.0
  O  O82  1  0.54031000  0.61700000  0.61893000  1.0
  O  O83  1  0.04030000  0.38299000  0.38107000  1.0
  O  O84  1  0.36095000  0.33914000  0.51151000  1.0
  O  O85  1  0.86095000  0.66086000  0.48850000  1.0
  O  O86  1  0.66891000  0.34513000  0.52032000  1.0
  O  O87  1  0.16890000  0.65486000  0.47967000  1.0
  O  O88  1  0.39262000  0.50922000  0.30572000  1.0
  O  O89  1  0.89262000  0.49078000  0.69428000  1.0
  O  O90  1  0.70378000  0.51346000  0.32011000  1.0
  O  O91  1  0.20378000  0.48656000  0.67989000  1.0
