# generated using pymatgen
data_Al3H46C48O17
_symmetry_space_group_name_H-M   'P 1'
_cell_length_a   12.40431151
_cell_length_b   12.47450000
_cell_length_c   28.41980000
_cell_angle_alpha   88.29150000
_cell_angle_beta   88.47070510
_cell_angle_gamma   60.84345249
_symmetry_Int_Tables_number   1
_chemical_formula_structural   Al3H46C48O17
_chemical_formula_sum   'Al6 H92 C96 O34'
_cell_volume   3838.31795578
_cell_formula_units_Z   2
loop_
 _symmetry_equiv_pos_site_id
 _symmetry_equiv_pos_as_xyz
  1  'x, y, z'
loop_
 _atom_site_type_symbol
 _atom_site_label
 _atom_site_symmetry_multiplicity
 _atom_site_fract_x
 _atom_site_fract_y
 _atom_site_fract_z
 _atom_site_occupancy
  Al  Al0  1  0.18025000  0.41920000  0.49624000  1.0
  Al  Al1  1  0.91458000  0.66141000  0.49810000  1.0
  Al  Al2  1  0.92291000  0.41744000  0.49799000  1.0
  Al  Al3  1  0.14175000  0.91842000  0.99732000  1.0
  Al  Al4  1  0.40486000  0.90956000  0.99811000  1.0
  Al  Al5  1  0.40334000  0.66995000  0.99865000  1.0
  H  H6  1  0.74755000  0.79534000  0.20916000  1.0
  H  H7  1  0.36891000  0.08707000  0.21804000  1.0
  H  H8  1  0.24667000  0.47071000  0.21143000  1.0
  H  H9  1  0.55321000  0.86212000  0.27683000  1.0
  H  H10  1  0.23771000  0.78369000  0.29256000  1.0
  H  H11  1  0.34039000  0.62643000  0.30360000  1.0
  H  H12  1  0.36805000  0.58224000  0.22325000  1.0
  H  H13  1  0.29694000  0.74333000  0.21328000  1.0
  H  H14  1  0.01959000  0.86616000  0.29130000  1.0
  H  H15  1  0.97491000  0.78786000  0.20383000  1.0
  H  H16  1  0.08236000  0.55809000  0.21411000  1.0
  H  H17  1  0.16296000  0.98229000  0.30768000  1.0
  H  H18  1  0.89374000  0.57957000  0.26104000  1.0
  H  H19  1  0.05955000  0.86642000  0.21094000  1.0
  H  H20  1  0.78897000  0.51525000  0.79587000  1.0
  H  H21  1  0.77264000  0.47952000  0.71599000  1.0
  H  H22  1  0.45247000  0.72611000  0.70011000  1.0
  H  H23  1  0.54759000  0.56558000  0.69589000  1.0
  H  H24  1  0.58312000  0.53706000  0.77743000  1.0
  H  H25  1  0.44795000  0.67884000  0.78150000  1.0
  H  H26  1  0.70789000  0.80186000  0.70966000  1.0
  H  H27  1  0.55550000  0.86927000  0.68853000  1.0
  H  H28  1  0.13619000  0.98110000  0.22652000  1.0
  H  H29  1  0.79759000  0.45355000  0.20926000  1.0
  H  H30  1  0.84787000  0.56679000  0.70504000  1.0
  H  H31  1  0.81318000  0.64068000  0.78228000  1.0
  H  H32  1  0.46980000  0.85761000  0.76201000  1.0
  H  H33  1  0.38881000  0.09187000  0.78364000  1.0
  H  H34  1  0.36605000  0.08188000  0.70248000  1.0
  H  H35  1  0.06738000  0.08052000  0.71235000  1.0
  H  H36  1  0.22569000  0.98842000  0.69856000  1.0
  H  H37  1  0.27915000  0.96088000  0.77846000  1.0
  H  H38  1  0.12027000  0.02730000  0.79178000  1.0
  H  H39  1  0.29676000  0.92834000  0.22079000  1.0
  H  H40  1  0.06965000  0.37680000  0.71904000  1.0
  H  H41  1  0.60434000  0.51971000  0.27722000  1.0
  H  H42  1  0.97235000  0.31149000  0.71535000  1.0
  H  H43  1  0.06478000  0.34952000  0.80111000  1.0
  H  H44  1  0.30474000  0.24235000  0.70074000  1.0
  H  H45  1  0.29443000  0.25290000  0.78344000  1.0
  H  H46  1  0.99272000  0.25850000  0.79591000  1.0
  H  H47  1  0.96664000  0.74584000  0.81039000  1.0
  H  H48  1  0.94696000  0.78662000  0.72832000  1.0
  H  H49  1  0.27643000  0.69696000  0.70628000  1.0
  H  H50  1  0.20399000  0.30113000  0.27842000  1.0
  H  H51  1  0.12572000  0.82432000  0.70236000  1.0
  H  H52  1  0.10045000  0.83868000  0.78504000  1.0
  H  H53  1  0.45874000  0.73764000  0.22490000  1.0
  H  H54  1  0.26260000  0.74977000  0.78598000  1.0
  H  H55  1  0.18597000  0.45569000  0.72356000  1.0
  H  H56  1  0.31042000  0.47992000  0.70591000  1.0
  H  H57  1  0.25016000  0.44984000  0.80054000  1.0
  H  H58  1  0.96376000  0.63828000  0.72437000  1.0
  H  H59  1  0.02742000  0.58673000  0.80311000  1.0
  H  H60  1  0.98167000  0.20393000  0.20528000  1.0
  H  H61  1  0.33372000  0.16185000  0.29544000  1.0
  H  H62  1  0.31114000  0.96889000  0.30019000  1.0
  H  H63  1  0.30271000  0.33549000  0.34547000  1.0
  H  H64  1  0.28170000  0.48025000  0.36278000  1.0
  H  H65  1  0.51675000  0.27900000  0.31718000  1.0
  H  H66  1  0.49287000  0.42471000  0.33379000  1.0
  H  H67  1  0.45345000  0.37675000  0.41919000  1.0
  H  H68  1  0.60440000  0.27144000  0.39844000  1.0
  H  H69  1  0.48592000  0.23030000  0.40209000  1.0
  H  H70  1  0.73819000  0.87093000  0.29214000  1.0
  H  H71  1  0.81248000  0.96077000  0.28349000  1.0
  H  H72  1  0.26697000  0.24034000  0.20092000  1.0
  H  H73  1  0.83096000  0.80742000  0.37274000  1.0
  H  H74  1  0.89391000  0.90671000  0.36575000  1.0
  H  H75  1  0.67683000  0.08666000  0.35433000  1.0
  H  H76  1  0.69265000  0.01238000  0.40974000  1.0
  H  H77  1  0.61622000  0.98476000  0.36370000  1.0
  H  H78  1  0.97215000  0.60933000  0.34814000  1.0
  H  H79  1  0.10978000  0.47164000  0.36592000  1.0
  H  H80  1  0.98711000  0.46172000  0.33919000  1.0
  H  H81  1  0.77309000  0.84614000  0.77141000  1.0
  H  H82  1  0.74051000  0.80379000  0.82907000  1.0
  H  H83  1  0.98837000  0.32380000  0.28677000  1.0
  H  H84  1  0.70024000  0.95919000  0.81566000  1.0
  H  H85  1  0.55983000  0.37321000  0.78036000  1.0
  H  H86  1  0.45606000  0.31914000  0.76709000  1.0
  H  H87  1  0.49855000  0.39243000  0.86449000  1.0
  H  H88  1  0.38417000  0.35184000  0.85371000  1.0
  H  H89  1  0.54363000  0.14398000  0.82636000  1.0
  H  H90  1  0.57534000  0.16810000  0.88439000  1.0
  H  H91  1  0.66288000  0.18094000  0.83641000  1.0
  H  H92  1  0.79788000  0.28296000  0.25493000  1.0
  H  H93  1  0.80752000  0.33415000  0.31235000  1.0
  H  H94  1  0.03431000  0.31306000  0.20635000  1.0
  H  H95  1  0.78875000  0.20156000  0.30652000  1.0
  H  H96  1  0.38415000  0.29522000  0.52028000  1.0
  H  H97  1  0.93780000  0.03303000  0.02457000  1.0
  C  C98  1  0.09284000  0.65262000  0.43715000  1.0
  C  C99  1  0.71047000  0.63901000  0.34057000  1.0
  C  C100  1  0.03331000  0.22789000  0.27495000  1.0
  C  C101  1  0.78578000  0.60153000  0.42877000  1.0
  C  C102  1  0.21554000  0.01837000  0.28772000  1.0
  C  C103  1  0.20938000  0.00313000  0.23425000  1.0
  C  C104  1  0.20718000  0.08055000  0.11502000  1.0
  C  C105  1  0.16205000  0.15609000  0.29822000  1.0
  C  C106  1  0.05000000  0.22394000  0.22081000  1.0
  C  C107  1  0.18190000  0.12353000  0.20707000  1.0
  C  C108  1  0.27481000  0.16361000  0.22329000  1.0
  C  C109  1  0.73407000  0.62680000  0.38251000  1.0
  C  C110  1  0.24806000  0.20115000  0.27526000  1.0
  C  C111  1  0.19363000  0.10207000  0.15685000  1.0
  C  C112  1  0.14788000  0.18182000  0.34812000  1.0
  C  C113  1  0.10569000  0.28071000  0.43204000  1.0
  C  C114  1  0.13265000  0.21584000  0.38859000  1.0
  C  C115  1  0.17317000  0.54365000  0.27978000  1.0
  C  C116  1  0.25954000  0.69030000  0.28329000  1.0
  C  C117  1  0.28439000  0.66981000  0.23008000  1.0
  C  C118  1  0.20267000  0.67637000  0.11408000  1.0
  C  C119  1  0.14736000  0.67358000  0.29908000  1.0
  C  C120  1  0.55540000  0.70198000  0.23367000  1.0
  C  C121  1  0.16818000  0.55396000  0.22541000  1.0
  C  C122  1  0.17353000  0.66850000  0.20697000  1.0
  C  C123  1  0.05370000  0.78423000  0.22194000  1.0
  C  C124  1  0.03132000  0.78129000  0.27556000  1.0
  C  C125  1  0.08391000  0.61556000  0.56957000  1.0
  C  C126  1  0.18886000  0.66836000  0.15625000  1.0
  C  C127  1  0.13344000  0.68260000  0.34959000  1.0
  C  C128  1  0.11920000  0.69098000  0.39218000  1.0
  C  C129  1  0.76528000  0.56974000  0.72133000  1.0
  C  C130  1  0.53948000  0.64790000  0.71224000  1.0
  C  C131  1  0.66178000  0.66546000  0.19496000  1.0
  C  C132  1  0.54156000  0.63402000  0.76649000  1.0
  C  C133  1  0.58234000  0.70612000  0.88067000  1.0
  C  C134  1  0.64832000  0.66837000  0.69567000  1.0
  C  C135  1  0.75576000  0.59939000  0.77413000  1.0
  C  C136  1  0.61891000  0.68795000  0.78769000  1.0
  C  C137  1  0.75795000  0.61341000  0.55816000  1.0
  C  C138  1  0.57091000  0.81681000  0.76288000  1.0
  C  C139  1  0.62186000  0.79675000  0.71192000  1.0
  C  C140  1  0.60065000  0.69779000  0.83833000  1.0
  C  C141  1  0.67084000  0.65506000  0.64523000  1.0
  C  C142  1  0.63655000  0.58069000  0.26185000  1.0
  C  C143  1  0.69791000  0.64052000  0.60353000  1.0
  C  C144  1  0.29261000  0.16799000  0.71711000  1.0
  C  C145  1  0.15996000  0.06684000  0.71951000  1.0
  C  C146  1  0.18935000  0.04310000  0.77255000  1.0
  C  C147  1  0.21637000  0.10976000  0.88655000  1.0
  C  C148  1  0.16611000  0.18310000  0.70288000  1.0
  C  C149  1  0.09858000  0.27935000  0.56395000  1.0
  C  C150  1  0.30046000  0.16724000  0.77129000  1.0
  C  C151  1  0.19261000  0.15444000  0.79419000  1.0
  C  C152  1  0.06962000  0.27138000  0.78241000  1.0
  C  C153  1  0.68990000  0.64975000  0.29147000  1.0
  C  C154  1  0.06152000  0.29500000  0.72863000  1.0
  C  C155  1  0.20657000  0.13420000  0.84464000  1.0
  C  C156  1  0.14740000  0.20409000  0.65259000  1.0
  C  C157  1  0.12722000  0.22834000  0.61091000  1.0
  C  C158  1  0.00875000  0.68907000  0.73672000  1.0
  C  C159  1  0.18183000  0.73561000  0.72040000  1.0
  C  C160  1  0.17881000  0.75094000  0.77407000  1.0
  C  C161  1  0.60826000  0.77131000  0.26157000  1.0
  C  C162  1  0.19988000  0.66524000  0.89051000  1.0
  C  C163  1  0.13209000  0.64693000  0.70925000  1.0
  C  C164  1  0.74351000  0.54403000  0.22478000  1.0
  C  C165  1  0.03398000  0.66728000  0.79002000  1.0
  C  C166  1  0.16482000  0.64679000  0.79989000  1.0
  C  C167  1  0.25799000  0.52122000  0.77929000  1.0
  C  C168  1  0.22556000  0.51677000  0.72749000  1.0
  C  C169  1  0.18371000  0.65174000  0.84964000  1.0
  C  C170  1  0.11443000  0.64511000  0.65917000  1.0
  C  C171  1  0.10089000  0.63905000  0.61733000  1.0
  C  C172  1  0.23013000  0.03677000  0.06754000  1.0
  C  C173  1  0.71524000  0.73446000  0.22445000  1.0
  C  C174  1  0.55916000  0.71118000  0.05889000  1.0
  C  C175  1  0.79700000  0.61325000  0.25259000  1.0
  C  C176  1  0.22604000  0.70438000  0.06674000  1.0
  C  C177  1  0.23268000  0.05477000  0.93283000  1.0
  C  C178  1  0.53792000  0.72741000  0.92863000  1.0
  C  C179  1  0.22554000  0.70057000  0.93472000  1.0
  C  C180  1  0.61532000  0.68435000  0.10427000  1.0
  C  C181  1  0.32976000  0.40624000  0.33752000  1.0
  C  C182  1  0.46799000  0.35280000  0.34280000  1.0
  C  C183  1  0.50548000  0.30549000  0.39324000  1.0
  C  C184  1  0.81884000  0.87899000  0.30234000  1.0
  C  C185  1  0.81662000  0.89317000  0.35536000  1.0
  C  C186  1  0.63976000  0.67489000  0.14603000  1.0
  C  C187  1  0.69416000  0.99986000  0.37164000  1.0
  C  C188  1  0.03724000  0.51376000  0.33957000  1.0
  C  C189  1  0.70697000  0.87565000  0.80125000  1.0
  C  C190  1  0.47108000  0.37912000  0.79097000  1.0
  C  C191  1  0.47609000  0.33592000  0.84200000  1.0
  C  C192  1  0.56974000  0.19975000  0.84765000  1.0
  C  C193  1  0.83274000  0.25246000  0.29098000  1.0
  O  O194  1  0.17323000  0.32657000  0.44217000  1.0
  O  O195  1  0.52984000  0.63445000  0.04253000  1.0
  O  O196  1  0.32980000  0.62638000  0.04784000  1.0
  O  O197  1  0.17071000  0.54691000  0.45190000  1.0
  O  O198  1  0.15014000  0.80669000  0.94869000  1.0
  O  O199  1  0.15647000  0.02014000  0.94596000  1.0
  O  O200  1  0.32714000  0.04021000  0.95621000  1.0
  O  O201  1  0.51473000  0.82961000  0.94627000  1.0
  O  O202  1  0.51915000  0.64505000  0.94908000  1.0
  O  O203  1  0.32659000  0.62258000  0.95506000  1.0
  O  O204  1  0.31862000  0.83150000  0.99847000  1.0
  O  O205  1  0.78141000  0.69468000  0.53929000  1.0
  O  O206  1  0.98772000  0.72472000  0.45688000  1.0
  O  O207  1  0.80807000  0.68175000  0.44654000  1.0
  O  O208  1  0.81147000  0.49756000  0.44794000  1.0
  O  O209  1  0.01108000  0.29174000  0.45619000  1.0
  O  O210  1  0.17908000  0.29604000  0.54176000  1.0
  O  O211  1  0.16668000  0.51690000  0.55201000  1.0
  O  O212  1  0.98347000  0.69542000  0.54955000  1.0
  O  O213  1  0.29606000  0.45139000  0.28963000  1.0
  O  O214  1  0.92427000  0.76971000  0.28557000  1.0
  O  O215  1  0.08472000  0.50633000  0.29239000  1.0
  O  O216  1  0.79018000  0.50835000  0.54099000  1.0
  O  O217  1  0.58565000  0.90716000  0.78694000  1.0
  O  O218  1  0.37941000  0.50499000  0.78321000  1.0
  O  O219  1  0.96228000  0.17168000  0.29140000  1.0
  O  O220  1  0.98987000  0.30929000  0.54911000  1.0
  O  O221  1  0.00420000  0.50029000  0.49756000  1.0
  O  O222  1  0.14655000  0.80493000  0.04866000  1.0
  O  O223  1  0.14820000  0.02154000  0.04815000  1.0
  O  O224  1  0.33609000  0.01215000  0.04948000  1.0
  O  O225  1  0.53623000  0.81360000  0.03907000  1.0
  O  O226  1  0.34191000  0.34767000  0.49362000  1.0
  O  O227  1  0.98030000  0.99936000  0.99517000  1.0
