# generated using pymatgen
data_MnH8C10(NCl)2
_symmetry_space_group_name_H-M   'P 1'
_cell_length_a   3.54762000
_cell_length_b   11.42120000
_cell_length_c   11.76180000
_cell_angle_alpha   89.93550000
_cell_angle_beta   89.96970000
_cell_angle_gamma   89.94940000
_symmetry_Int_Tables_number   1
_chemical_formula_structural   MnH8C10(NCl)2
_chemical_formula_sum   'Mn2 H16 C20 N4 Cl4'
_cell_volume   476.56497025
_cell_formula_units_Z   2
loop_
 _symmetry_equiv_pos_site_id
 _symmetry_equiv_pos_as_xyz
  1  'x, y, z'
loop_
 _atom_site_type_symbol
 _atom_site_label
 _atom_site_symmetry_multiplicity
 _atom_site_fract_x
 _atom_site_fract_y
 _atom_site_fract_z
 _atom_site_occupancy
  Mn  Mn0  1  0.49902000  0.24907000  0.25007000  1.0
  Mn  Mn1  1  0.49984000  0.75000000  0.74996000  1.0
  H  H2  1  0.68276000  0.05231000  0.08245000  1.0
  H  H3  1  0.68007000  0.94944000  0.58294000  1.0
  H  H4  1  0.68015000  0.55052000  0.91695000  1.0
  H  H5  1  0.31981000  0.55081000  0.58290000  1.0
  H  H6  1  0.31961000  0.94924000  0.91712000  1.0
  H  H7  1  0.31646000  0.05229000  0.41704000  1.0
  H  H8  1  0.31643000  0.44780000  0.08319000  1.0
  H  H9  1  0.68378000  0.44774000  0.41738000  1.0
  H  H10  1  0.68972000  0.83729000  0.07512000  1.0
  H  H11  1  0.68708000  0.16741000  0.57460000  1.0
  H  H12  1  0.68696000  0.33251000  0.92540000  1.0
  H  H13  1  0.31320000  0.33287000  0.57466000  1.0
  H  H14  1  0.31309000  0.16715000  0.92545000  1.0
  H  H15  1  0.31037000  0.83732000  0.42479000  1.0
  H  H16  1  0.31019000  0.66298000  0.07528000  1.0
  H  H17  1  0.68977000  0.66294000  0.42477000  1.0
  C  C18  1  0.59856000  0.00200000  0.15673000  1.0
  C  C19  1  0.59688000  0.00187000  0.65611000  1.0
  C  C20  1  0.59701000  0.49808000  0.84383000  1.0
  C  C21  1  0.40315000  0.49827000  0.65608000  1.0
  C  C22  1  0.40291000  0.00174000  0.84392000  1.0
  C  C23  1  0.40129000  0.00202000  0.34285000  1.0
  C  C24  1  0.40136000  0.49814000  0.15728000  1.0
  C  C25  1  0.59935000  0.49814000  0.34315000  1.0
  C  C26  1  0.60104000  0.88034000  0.15343000  1.0
  C  C27  1  0.59940000  0.12298000  0.65228000  1.0
  C  C28  1  0.59939000  0.37697000  0.84773000  1.0
  C  C29  1  0.40093000  0.37717000  0.65229000  1.0
  C  C30  1  0.40082000  0.12284000  0.84776000  1.0
  C  C31  1  0.39909000  0.88034000  0.34639000  1.0
  C  C32  1  0.39907000  0.61987000  0.15361000  1.0
  C  C33  1  0.60153000  0.61984000  0.34649000  1.0
  C  C34  1  0.49996000  0.81507000  0.24995000  1.0
  C  C35  1  0.50019000  0.18597000  0.75002000  1.0
  C  C36  1  0.50022000  0.31401000  0.75002000  1.0
  C  C37  1  0.50012000  0.68510000  0.24999000  1.0
  N  N38  1  0.49995000  0.06525000  0.24969000  1.0
  N  N39  1  0.49977000  0.94154000  0.75001000  1.0
  N  N40  1  0.50007000  0.55844000  0.74992000  1.0
  N  N41  1  0.50043000  0.43502000  0.25033000  1.0
  Cl  Cl42  1  0.00006000  0.24858000  0.11495000  1.0
  Cl  Cl43  1  0.00002000  0.75009000  0.59653000  1.0
  Cl  Cl44  1  0.99972000  0.74985000  0.90337000  1.0
  Cl  Cl45  1  0.99943000  0.25074000  0.38521000  1.0
