# generated using pymatgen
data_CuH6C4S2N3
_symmetry_space_group_name_H-M   'P 1'
_cell_length_a   6.48289000
_cell_length_b   7.75380000
_cell_length_c   14.27030000
_cell_angle_alpha   89.99940000
_cell_angle_beta   89.99980000
_cell_angle_gamma   80.53440000
_symmetry_Int_Tables_number   1
_chemical_formula_structural   CuH6C4S2N3
_chemical_formula_sum   'Cu4 H24 C16 S8 N12'
_cell_volume   707.55889879
_cell_formula_units_Z   4
loop_
 _symmetry_equiv_pos_site_id
 _symmetry_equiv_pos_as_xyz
  1  'x, y, z'
loop_
 _atom_site_type_symbol
 _atom_site_label
 _atom_site_symmetry_multiplicity
 _atom_site_fract_x
 _atom_site_fract_y
 _atom_site_fract_z
 _atom_site_occupancy
  Cu  Cu0  1  0.05691000  0.55949000  0.07977000  1.0
  Cu  Cu1  1  0.44310000  0.44050000  0.57977000  1.0
  Cu  Cu2  1  0.94311000  0.44051000  0.92024000  1.0
  Cu  Cu3  1  0.55689000  0.55949000  0.42024000  1.0
  H  H4  1  0.68879000  0.41022000  0.10484000  1.0
  H  H5  1  0.81121000  0.58977000  0.60484000  1.0
  H  H6  1  0.31122000  0.58979000  0.89517000  1.0
  H  H7  1  0.18877000  0.41021000  0.39517000  1.0
  H  H8  1  0.03590000  0.92402000  0.11283000  1.0
  H  H9  1  0.46409000  0.07598000  0.61283000  1.0
  H  H10  1  0.96409000  0.07598000  0.88717000  1.0
  H  H11  1  0.53590000  0.92402000  0.38716000  1.0
  H  H12  1  0.73415000  0.92759000  0.23607000  1.0
  H  H13  1  0.76584000  0.07241000  0.73607000  1.0
  H  H14  1  0.26581000  0.07241000  0.76392000  1.0
  H  H15  1  0.23418000  0.92760000  0.26391000  1.0
  H  H16  1  0.64807000  0.91788000  0.11785000  1.0
  H  H17  1  0.85193000  0.08211000  0.61785000  1.0
  H  H18  1  0.35190000  0.08214000  0.88214000  1.0
  H  H19  1  0.14809000  0.91786000  0.38213000  1.0
  H  H20  1  0.43803000  0.19740000  0.15520000  1.0
  H  H21  1  0.06197000  0.80259000  0.65520000  1.0
  H  H22  1  0.56196000  0.80263000  0.84481000  1.0
  H  H23  1  0.93803000  0.19737000  0.34480000  1.0
  H  H24  1  0.60990000  0.23728000  0.24815000  1.0
  H  H25  1  0.89010000  0.76272000  0.74815000  1.0
  H  H26  1  0.39011000  0.76272000  0.75186000  1.0
  H  H27  1  0.10989000  0.23729000  0.25185000  1.0
  C  C28  1  0.72030000  0.99629000  0.16887000  1.0
  C  C29  1  0.77970000  0.00371000  0.66887000  1.0
  C  C30  1  0.27967000  0.00371000  0.83113000  1.0
  C  C31  1  0.22033000  0.99629000  0.33112000  1.0
  C  C32  1  0.40633000  0.61678000  0.21667000  1.0
  C  C33  1  0.09370000  0.38322000  0.71667000  1.0
  C  C34  1  0.59371000  0.38321000  0.78334000  1.0
  C  C35  1  0.90631000  0.61679000  0.28333000  1.0
  C  C36  1  0.91153000  0.18614000  0.09658000  1.0
  C  C37  1  0.58848000  0.81386000  0.59658000  1.0
  C  C38  1  0.08848000  0.81387000  0.90342000  1.0
  C  C39  1  0.41151000  0.18613000  0.40341000  1.0
  C  C40  1  0.60209000  0.18427000  0.17698000  1.0
  C  C41  1  0.89791000  0.81572000  0.67698000  1.0
  C  C42  1  0.39790000  0.81574000  0.82302000  1.0
  C  C43  1  0.10209000  0.18427000  0.32302000  1.0
  S  S44  1  0.11106000  0.25994000  0.03855000  1.0
  S  S45  1  0.38894000  0.74006000  0.53855000  1.0
  S  S46  1  0.88894000  0.74006000  0.96146000  1.0
  S  S47  1  0.61105000  0.25994000  0.46145000  1.0
  S  S48  1  0.37751000  0.65838000  0.10417000  1.0
  S  S49  1  0.12250000  0.34163000  0.60418000  1.0
  S  S50  1  0.62252000  0.34162000  0.89583000  1.0
  S  S51  1  0.87749000  0.65837000  0.39583000  1.0
  N  N52  1  0.72095000  0.27768000  0.11275000  1.0
  N  N53  1  0.77905000  0.72232000  0.61275000  1.0
  N  N54  1  0.27906000  0.72233000  0.88726000  1.0
  N  N55  1  0.22092000  0.27767000  0.38725000  1.0
  N  N56  1  0.92565000  0.02540000  0.13467000  1.0
  N  N57  1  0.57435000  0.97460000  0.63467000  1.0
  N  N58  1  0.07434000  0.97461000  0.86534000  1.0
  N  N59  1  0.42566000  0.02539000  0.36533000  1.0
  N  N60  1  0.42758000  0.58846000  0.29786000  1.0
  N  N61  1  0.07245000  0.41155000  0.79788000  1.0
  N  N62  1  0.57245000  0.41153000  0.70212000  1.0
  N  N63  1  0.92757000  0.58846000  0.20212000  1.0
