# generated using pymatgen
data_AgP2H20C26NO3
_symmetry_space_group_name_H-M   'P 1'
_cell_length_a   10.50130000
_cell_length_b   11.69840000
_cell_length_c   12.17030000
_cell_angle_alpha   110.70700000
_cell_angle_beta   98.50320000
_cell_angle_gamma   97.31070000
_symmetry_Int_Tables_number   1
_chemical_formula_structural   AgP2H20C26NO3
_chemical_formula_sum   'Ag2 P4 H40 C52 N2 O6'
_cell_volume   1356.85110161
_cell_formula_units_Z   2
loop_
 _symmetry_equiv_pos_site_id
 _symmetry_equiv_pos_as_xyz
  1  'x, y, z'
loop_
 _atom_site_type_symbol
 _atom_site_label
 _atom_site_symmetry_multiplicity
 _atom_site_fract_x
 _atom_site_fract_y
 _atom_site_fract_z
 _atom_site_occupancy
  Ag  Ag0  1  0.82833000  0.51760000  0.54714000  1.0
  Ag  Ag1  1  0.17167000  0.48240000  0.45286000  1.0
  P  P2  1  0.65853000  0.33600000  0.50051000  1.0
  P  P3  1  0.34147000  0.66400000  0.49949000  1.0
  P  P4  1  0.23049000  0.30835000  0.30425000  1.0
  P  P5  1  0.76951000  0.69165000  0.69575000  1.0
  H  H6  1  0.29156000  0.15017000  0.43830000  1.0
  H  H7  1  0.70844000  0.84983000  0.56170000  1.0
  H  H8  1  0.21530000  0.92711000  0.39579000  1.0
  H  H9  1  0.78470000  0.07288000  0.60421000  1.0
  H  H10  1  0.04633000  0.79529000  0.21211000  1.0
  H  H11  1  0.95368000  0.20470000  0.78789000  1.0
  H  H12  1  0.95399000  0.88914000  0.07161000  1.0
  H  H13  1  0.04601000  0.11086000  0.92839000  1.0
  H  H14  1  0.03468000  0.11147000  0.11021000  1.0
  H  H15  1  0.96532000  0.88852000  0.88979000  1.0
  H  H16  1  0.37377000  0.20082000  0.11466000  1.0
  H  H17  1  0.62623000  0.79918000  0.88534000  1.0
  H  H18  1  0.36204000  0.20534000  0.91056000  1.0
  H  H19  1  0.63796000  0.79466000  0.08944000  1.0
  H  H20  1  0.20569000  0.31984000  0.83733000  1.0
  H  H21  1  0.79430000  0.68016000  0.16267000  1.0
  H  H22  1  0.06372000  0.42784000  0.96623000  1.0
  H  H23  1  0.93627000  0.57216000  0.03377000  1.0
  H  H24  1  0.07653000  0.42735000  0.17272000  1.0
  H  H25  1  0.92347000  0.57265000  0.82728000  1.0
  H  H26  1  0.43338000  0.41147000  0.61715000  1.0
  H  H27  1  0.56662000  0.58853000  0.38285000  1.0
  H  H28  1  0.39553000  0.43955000  0.81923000  1.0
  H  H29  1  0.60447000  0.56045000  0.18077000  1.0
  H  H30  1  0.55303000  0.38827000  0.96119000  1.0
  H  H31  1  0.44697000  0.61173000  0.03881000  1.0
  H  H32  1  0.74979000  0.30640000  0.89691000  1.0
  H  H33  1  0.25021000  0.69360000  0.10309000  1.0
  H  H34  1  0.79240000  0.28546000  0.69684000  1.0
  H  H35  1  0.20760000  0.71454000  0.30316000  1.0
  H  H36  1  0.49527000  0.08215000  0.41058000  1.0
  H  H37  1  0.50473000  0.91785000  0.58943000  1.0
  H  H38  1  0.55285000  0.87251000  0.33596000  1.0
  H  H39  1  0.44715000  0.12749000  0.66404000  1.0
  H  H40  1  0.78452000  0.85254000  0.32473000  1.0
  H  H41  1  0.21548000  0.14746000  0.67527000  1.0
  H  H42  1  0.95602000  0.04196000  0.37876000  1.0
  H  H43  1  0.04398000  0.95804000  0.62124000  1.0
  H  H44  1  0.89767000  0.25192000  0.44849000  1.0
  H  H45  1  0.10233000  0.74808000  0.55151000  1.0
  C  C46  1  0.50682000  0.32685000  0.41478000  1.0
  C  C47  1  0.49317000  0.67314000  0.58521000  1.0
  C  C48  1  0.39704000  0.32251000  0.36062000  1.0
  C  C49  1  0.60297000  0.67749000  0.63938000  1.0
  C  C50  1  0.17095000  0.14438000  0.27508000  1.0
  C  C51  1  0.82905000  0.85562000  0.72492000  1.0
  C  C52  1  0.21949000  0.09257000  0.35661000  1.0
  C  C53  1  0.78051000  0.90743000  0.64339000  1.0
  C  C54  1  0.17593000  0.96685000  0.33265000  1.0
  C  C55  1  0.82407000  0.03315000  0.66735000  1.0
  C  C56  1  0.08181000  0.89296000  0.22935000  1.0
  C  C57  1  0.91819000  0.10704000  0.77065000  1.0
  C  C58  1  0.03016000  0.94567000  0.15040000  1.0
  C  C59  1  0.96984000  0.05432000  0.84961000  1.0
  C  C60  1  0.07451000  0.07102000  0.17271000  1.0
  C  C61  1  0.92548000  0.92898000  0.82729000  1.0
  C  C62  1  0.22520000  0.31290000  0.15583000  1.0
  C  C63  1  0.77480000  0.68710000  0.84417000  1.0
  C  C64  1  0.30602000  0.25077000  0.08208000  1.0
  C  C65  1  0.69398000  0.74923000  0.91792000  1.0
  C  C66  1  0.29959000  0.25367000  0.96802000  1.0
  C  C67  1  0.70041000  0.74633000  0.03198000  1.0
  C  C68  1  0.21231000  0.31776000  0.92683000  1.0
  C  C69  1  0.78769000  0.68224000  0.07317000  1.0
  C  C70  1  0.13145000  0.37856000  0.99970000  1.0
  C  C71  1  0.86855000  0.62144000  0.00030000  1.0
  C  C72  1  0.13764000  0.37698000  0.11468000  1.0
  C  C73  1  0.86236000  0.62302000  0.88532000  1.0
  C  C74  1  0.61487000  0.34495000  0.64305000  1.0
  C  C75  1  0.38513000  0.65505000  0.35695000  1.0
  C  C76  1  0.50370000  0.38943000  0.67827000  1.0
  C  C77  1  0.49630000  0.61057000  0.32173000  1.0
  C  C78  1  0.48253000  0.40524000  0.79296000  1.0
  C  C79  1  0.51747000  0.59476000  0.20704000  1.0
  C  C80  1  0.57036000  0.37558000  0.87184000  1.0
  C  C81  1  0.42964000  0.62443000  0.12816000  1.0
  C  C82  1  0.68039000  0.32979000  0.83597000  1.0
  C  C83  1  0.31961000  0.67022000  0.16402000  1.0
  C  C84  1  0.70361000  0.31586000  0.72258000  1.0
  C  C85  1  0.29639000  0.68414000  0.27742000  1.0
  C  C86  1  0.69352000  0.18020000  0.43593000  1.0
  C  C87  1  0.30648000  0.81980000  0.56407000  1.0
  C  C88  1  0.59608000  0.07320000  0.40325000  1.0
  C  C89  1  0.40392000  0.92680000  0.59675000  1.0
  C  C90  1  0.62861000  0.95557000  0.36151000  1.0
  C  C91  1  0.37139000  0.04443000  0.63849000  1.0
  C  C92  1  0.75849000  0.94438000  0.35360000  1.0
  C  C93  1  0.24151000  0.05562000  0.64639000  1.0
  C  C94  1  0.85503000  0.05061000  0.38475000  1.0
  C  C95  1  0.14497000  0.94939000  0.61525000  1.0
  C  C96  1  0.82267000  0.16860000  0.42490000  1.0
  C  C97  1  0.17733000  0.83140000  0.57509000  1.0
  N  N98  1  0.91735000  0.59813000  0.34525000  1.0
  N  N99  1  0.08265000  0.40187000  0.65475000  1.0
  O  O100  1  0.95327000  0.53335000  0.40847000  1.0
  O  O101  1  0.04673000  0.46665000  0.59153000  1.0
  O  O102  1  0.98411000  0.60953000  0.27118000  1.0
  O  O103  1  0.01589000  0.39047000  0.72882000  1.0
  O  O104  1  0.81795000  0.64590000  0.36156000  1.0
  O  O105  1  0.18206000  0.35410000  0.63844000  1.0
