# generated using pymatgen
data_CoH12C15(N4O3)2
_symmetry_space_group_name_H-M   'P 1'
_cell_length_a   10.82490000
_cell_length_b   11.53490000
_cell_length_c   18.55670000
_cell_angle_alpha   79.06950000
_cell_angle_beta   73.05610000
_cell_angle_gamma   62.02020000
_symmetry_Int_Tables_number   1
_chemical_formula_structural   CoH12C15(N4O3)2
_chemical_formula_sum   'Co4 H48 C60 N32 O24'
_cell_volume   1953.56597597
_cell_formula_units_Z   4
loop_
 _symmetry_equiv_pos_site_id
 _symmetry_equiv_pos_as_xyz
  1  'x, y, z'
loop_
 _atom_site_type_symbol
 _atom_site_label
 _atom_site_symmetry_multiplicity
 _atom_site_fract_x
 _atom_site_fract_y
 _atom_site_fract_z
 _atom_site_occupancy
  Co  Co0  1  0.39901000  0.59136000  0.84214000  1.0
  Co  Co1  1  0.16732000  0.09136000  0.34201000  1.0
  Co  Co2  1  0.60094000  0.40859000  0.15784000  1.0
  Co  Co3  1  0.83280000  0.90860000  0.65798000  1.0
  H  H4  1  0.16967000  0.52764000  0.81250000  1.0
  H  H5  1  0.48958000  0.02786000  0.31264000  1.0
  H  H6  1  0.83033000  0.47236000  0.18750000  1.0
  H  H7  1  0.51043000  0.97214000  0.68736000  1.0
  H  H8  1  0.15364000  0.41082000  0.71864000  1.0
  H  H9  1  0.71644000  0.91124000  0.21890000  1.0
  H  H10  1  0.84637000  0.58917000  0.28136000  1.0
  H  H11  1  0.28356000  0.08875000  0.78110000  1.0
  H  H12  1  0.60162000  0.30909000  0.61506000  1.0
  H  H13  1  0.47451000  0.80906000  0.11495000  1.0
  H  H14  1  0.39839000  0.69091000  0.38494000  1.0
  H  H15  1  0.52548000  0.19095000  0.88505000  1.0
  H  H16  1  0.59971000  0.43315000  0.71224000  1.0
  H  H17  1  0.25487000  0.93310000  0.21201000  1.0
  H  H18  1  0.40030000  0.56684000  0.28775000  1.0
  H  H19  1  0.74513000  0.06691000  0.78798000  1.0
  H  H20  1  0.06942000  0.73718000  0.85687000  1.0
  H  H21  1  0.33620000  0.23734000  0.35675000  1.0
  H  H22  1  0.93057000  0.26282000  0.14313000  1.0
  H  H23  1  0.66382000  0.76266000  0.64325000  1.0
  H  H24  1  0.84895000  0.81010000  0.96153000  1.0
  H  H25  1  0.37936000  0.31007000  0.46141000  1.0
  H  H26  1  0.15106000  0.18990000  0.03846000  1.0
  H  H27  1  0.62065000  0.68992000  0.53859000  1.0
  H  H28  1  0.11762000  0.57960000  0.11755000  1.0
  H  H29  1  0.18548000  0.07938000  0.61741000  1.0
  H  H30  1  0.88239000  0.42040000  0.88245000  1.0
  H  H31  1  0.81451000  0.92063000  0.38259000  1.0
  H  H32  1  0.32862000  0.50946000  0.00594000  1.0
  H  H33  1  0.15606000  0.00935000  0.50576000  1.0
  H  H34  1  0.67138000  0.49054000  0.99407000  1.0
  H  H35  1  0.84394000  0.99065000  0.49424000  1.0
  H  H36  1  0.66005000  0.61651000  0.84476000  1.0
  H  H37  1  0.87861000  0.11590000  0.34520000  1.0
  H  H38  1  0.33994000  0.38351000  0.15523000  1.0
  H  H39  1  0.12138000  0.88410000  0.65480000  1.0
  H  H40  1  0.72509000  0.76102000  0.89525000  1.0
  H  H41  1  0.61866000  0.26013000  0.39588000  1.0
  H  H42  1  0.27489000  0.23900000  0.10475000  1.0
  H  H43  1  0.38133000  0.73987000  0.60413000  1.0
  H  H44  1  0.27730000  0.96963000  0.00479000  1.0
  H  H45  1  0.74844000  0.47014000  0.50442000  1.0
  H  H46  1  0.72269000  0.03037000  0.99522000  1.0
  H  H47  1  0.25155000  0.52986000  0.49559000  1.0
  H  H48  1  0.22973000  0.81541000  0.95185000  1.0
  H  H49  1  0.00308000  0.31588000  0.45145000  1.0
  H  H50  1  0.77025000  0.18459000  0.04815000  1.0
  H  H51  1  0.99691000  0.68412000  0.54856000  1.0
  C  C52  1  0.26364000  0.47840000  0.76806000  1.0
  C  C53  1  0.48947000  0.97859000  0.26814000  1.0
  C  C54  1  0.73637000  0.52159000  0.23193000  1.0
  C  C55  1  0.51053000  0.02141000  0.73186000  1.0
  C  C56  1  0.25468000  0.41243000  0.71593000  1.0
  C  C57  1  0.61665000  0.91270000  0.21608000  1.0
  C  C58  1  0.74533000  0.58756000  0.28408000  1.0
  C  C59  1  0.38335000  0.08729000  0.78393000  1.0
  C  C60  1  0.37821000  0.34961000  0.65944000  1.0
  C  C61  1  0.61262000  0.84984000  0.15953000  1.0
  C  C62  1  0.62179000  0.65038000  0.34055000  1.0
  C  C63  1  0.38739000  0.15017000  0.84046000  1.0
  C  C64  1  0.50447000  0.35673000  0.65816000  1.0
  C  C65  1  0.48068000  0.85680000  0.15811000  1.0
  C  C66  1  0.49553000  0.64328000  0.34184000  1.0
  C  C67  1  0.51932000  0.14322000  0.84188000  1.0
  C  C68  1  0.50350000  0.42510000  0.71232000  1.0
  C  C69  1  0.35899000  0.92513000  0.21219000  1.0
  C  C70  1  0.49650000  0.57490000  0.28768000  1.0
  C  C71  1  0.64101000  0.07489000  0.78780000  1.0
  C  C72  1  0.30623000  0.20213000  0.41484000  1.0
  C  C73  1  0.07654000  0.70206000  0.91498000  1.0
  C  C74  1  0.69378000  0.79787000  0.58516000  1.0
  C  C75  1  0.92346000  0.29794000  0.08502000  1.0
  C  C76  1  0.32981000  0.24312000  0.47309000  1.0
  C  C77  1  0.95376000  0.74319000  0.97322000  1.0
  C  C78  1  0.67021000  0.75686000  0.52691000  1.0
  C  C79  1  0.04624000  0.25680000  0.02678000  1.0
  C  C80  1  0.28488000  0.20000000  0.54777000  1.0
  C  C81  1  0.96723000  0.70019000  0.04790000  1.0
  C  C82  1  0.71512000  0.80001000  0.45224000  1.0
  C  C83  1  0.03277000  0.29982000  0.95210000  1.0
  C  C84  1  0.10400000  0.61431000  0.06030000  1.0
  C  C85  1  0.22159000  0.11409000  0.56016000  1.0
  C  C86  1  0.89600000  0.38569000  0.93969000  1.0
  C  C87  1  0.77841000  0.88590000  0.43984000  1.0
  C  C88  1  0.22067000  0.57584000  0.99865000  1.0
  C  C89  1  0.20490000  0.07573000  0.49850000  1.0
  C  C90  1  0.77932000  0.42416000  0.00134000  1.0
  C  C91  1  0.79512000  0.92426000  0.50149000  1.0
  C  C92  1  0.57863000  0.69447000  0.88117000  1.0
  C  C93  1  0.84568000  0.19404000  0.38150000  1.0
  C  C94  1  0.42136000  0.30554000  0.11882000  1.0
  C  C95  1  0.15432000  0.80596000  0.61850000  1.0
  C  C96  1  0.61420000  0.77585000  0.90841000  1.0
  C  C97  1  0.70153000  0.27530000  0.40882000  1.0
  C  C98  1  0.38579000  0.22416000  0.09159000  1.0
  C  C99  1  0.29846000  0.72470000  0.59118000  1.0
  C  C100  1  0.50597000  0.87698000  0.95351000  1.0
  C  C101  1  0.66357000  0.37683000  0.45364000  1.0
  C  C102  1  0.49401000  0.12303000  0.04649000  1.0
  C  C103  1  0.33642000  0.62317000  0.54637000  1.0
  C  C104  1  0.36439000  0.89228000  0.96975000  1.0
  C  C105  1  0.77365000  0.39254000  0.46957000  1.0
  C  C106  1  0.63560000  0.10773000  0.03026000  1.0
  C  C107  1  0.22635000  0.60746000  0.53044000  1.0
  C  C108  1  0.33844000  0.80598000  0.94055000  1.0
  C  C109  1  0.91506000  0.30622000  0.44037000  1.0
  C  C110  1  0.66155000  0.19402000  0.05945000  1.0
  C  C111  1  0.08494000  0.69378000  0.55964000  1.0
  N  N112  1  0.38519000  0.48595000  0.76694000  1.0
  N  N113  1  0.36161000  0.98603000  0.26687000  1.0
  N  N114  1  0.61482000  0.51405000  0.23307000  1.0
  N  N115  1  0.63837000  0.01397000  0.73314000  1.0
  N  N116  1  0.38246000  0.28899000  0.59921000  1.0
  N  N117  1  0.72929000  0.78929000  0.09933000  1.0
  N  N118  1  0.61758000  0.71098000  0.40080000  1.0
  N  N119  1  0.27070000  0.21069000  0.90068000  1.0
  N  N120  1  0.62076000  0.36885000  0.87075000  1.0
  N  N121  1  0.13976000  0.86875000  0.37056000  1.0
  N  N122  1  0.37924000  0.63116000  0.12925000  1.0
  N  N123  1  0.86024000  0.13125000  0.62944000  1.0
  N  N124  1  0.36014000  0.79117000  0.73937000  1.0
  N  N125  1  0.10905000  0.29106000  0.23918000  1.0
  N  N126  1  0.63986000  0.20883000  0.26063000  1.0
  N  N127  1  0.89095000  0.70894000  0.76082000  1.0
  N  N128  1  0.20949000  0.62017000  0.92679000  1.0
  N  N129  1  0.24342000  0.12019000  0.42665000  1.0
  N  N130  1  0.79053000  0.37985000  0.07320000  1.0
  N  N131  1  0.75655000  0.87983000  0.57334000  1.0
  N  N132  1  0.29091000  0.24395000  0.61208000  1.0
  N  N133  1  0.85296000  0.74417000  0.11224000  1.0
  N  N134  1  0.70909000  0.75603000  0.38791000  1.0
  N  N135  1  0.14706000  0.25583000  0.88775000  1.0
  N  N136  1  0.44282000  0.70744000  0.89719000  1.0
  N  N137  1  0.95250000  0.20740000  0.39723000  1.0
  N  N138  1  0.55717000  0.29258000  0.10281000  1.0
  N  N139  1  0.04748000  0.79260000  0.60278000  1.0
  N  N140  1  0.54969000  0.95799000  0.97726000  1.0
  N  N141  1  0.51508000  0.45785000  0.47734000  1.0
  N  N142  1  0.45030000  0.04202000  0.02274000  1.0
  N  N143  1  0.48491000  0.54215000  0.52266000  1.0
  O  O144  1  0.63192000  0.45903000  0.82026000  1.0
  O  O145  1  0.08871000  0.95887000  0.32011000  1.0
  O  O146  1  0.36808000  0.54098000  0.17974000  1.0
  O  O147  1  0.91129000  0.04114000  0.67990000  1.0
  O  O148  1  0.49259000  0.39721000  0.91109000  1.0
  O  O149  1  0.19911000  0.89728000  0.41090000  1.0
  O  O150  1  0.50741000  0.60279000  0.08890000  1.0
  O  O151  1  0.80089000  0.10273000  0.58910000  1.0
  O  O152  1  0.72489000  0.26321000  0.87899000  1.0
  O  O153  1  0.13334000  0.76295000  0.37879000  1.0
  O  O154  1  0.27511000  0.73679000  0.12100000  1.0
  O  O155  1  0.86666000  0.23706000  0.62120000  1.0
  O  O156  1  0.25736000  0.78215000  0.79218000  1.0
  O  O157  1  0.16805000  0.28212000  0.29200000  1.0
  O  O158  1  0.74265000  0.21785000  0.20782000  1.0
  O  O159  1  0.83195000  0.71788000  0.70801000  1.0
  O  O160  1  0.48439000  0.69317000  0.73644000  1.0
  O  O161  1  0.08557000  0.19311000  0.23633000  1.0
  O  O162  1  0.51561000  0.30683000  0.26356000  1.0
  O  O163  1  0.91443000  0.80689000  0.76367000  1.0
  O  O164  1  0.34031000  0.88848000  0.69389000  1.0
  O  O165  1  0.07723000  0.38826000  0.19360000  1.0
  O  O166  1  0.65970000  0.11152000  0.30611000  1.0
  O  O167  1  0.92277000  0.61174000  0.80640000  1.0
