# generated using pymatgen
data_Mn2H31C40(N4O5)2
_symmetry_space_group_name_H-M   'P 1'
_cell_length_a   14.24480000
_cell_length_b   15.55900000
_cell_length_c   19.73940000
_cell_angle_alpha   89.99990000
_cell_angle_beta   94.51000000
_cell_angle_gamma   89.99990000
_symmetry_Int_Tables_number   1
_chemical_formula_structural   Mn2H31C40(N4O5)2
_chemical_formula_sum   'Mn8 H124 C160 N32 O40'
_cell_volume   4361.39237201
_cell_formula_units_Z   4
loop_
 _symmetry_equiv_pos_site_id
 _symmetry_equiv_pos_as_xyz
  1  'x, y, z'
loop_
 _atom_site_type_symbol
 _atom_site_label
 _atom_site_symmetry_multiplicity
 _atom_site_fract_x
 _atom_site_fract_y
 _atom_site_fract_z
 _atom_site_occupancy
  Mn  Mn0  1  0.89380000  0.49352000  0.70697000  1.0
  Mn  Mn1  1  0.60620000  0.99351000  0.29303000  1.0
  Mn  Mn2  1  0.10620000  0.50649000  0.29302000  1.0
  Mn  Mn3  1  0.39379000  0.00648000  0.70698000  1.0
  Mn  Mn4  1  0.86428000  0.61271000  0.86122000  1.0
  Mn  Mn5  1  0.63571000  0.11271000  0.13878000  1.0
  Mn  Mn6  1  0.13571000  0.38729000  0.13878000  1.0
  Mn  Mn7  1  0.36428000  0.88729000  0.86122000  1.0
  H  H8  1  0.89883000  0.54775000  0.98752000  1.0
  H  H9  1  0.60117000  0.04775000  0.01248000  1.0
  H  H10  1  0.10117000  0.45225000  0.01248000  1.0
  H  H11  1  0.39883000  0.95225000  0.98752000  1.0
  H  H12  1  0.86718000  0.46649000  0.94306000  1.0
  H  H13  1  0.63282000  0.96649000  0.05693000  1.0
  H  H14  1  0.13282000  0.53351000  0.05694000  1.0
  H  H15  1  0.36718000  0.03351000  0.94306000  1.0
  H  H16  1  0.04061000  0.43654000  0.64229000  1.0
  H  H17  1  0.45939000  0.93653000  0.35771000  1.0
  H  H18  1  0.95939000  0.56346000  0.35771000  1.0
  H  H19  1  0.54061000  0.06346000  0.64229000  1.0
  H  H20  1  0.07439000  0.53142000  0.66811000  1.0
  H  H21  1  0.42561000  0.03142000  0.33189000  1.0
  H  H22  1  0.92561000  0.46858000  0.33190000  1.0
  H  H23  1  0.57439000  0.96858000  0.66810000  1.0
  H  H24  1  0.19714000  0.53442000  0.92836000  1.0
  H  H25  1  0.30285000  0.03442000  0.07164000  1.0
  H  H26  1  0.80286000  0.46558000  0.07165000  1.0
  H  H27  1  0.69714000  0.96558000  0.92836000  1.0
  H  H28  1  0.05027000  0.40267000  0.76013000  1.0
  H  H29  1  0.44974000  0.90268000  0.23987000  1.0
  H  H30  1  0.94974000  0.59733000  0.23987000  1.0
  H  H31  1  0.55027000  0.09732000  0.76012000  1.0
  H  H32  1  0.54258000  0.57271000  0.80096000  1.0
  H  H33  1  0.95741000  0.07270000  0.19904000  1.0
  H  H34  1  0.45741000  0.42730000  0.19904000  1.0
  H  H35  1  0.04259000  0.92730000  0.80095000  1.0
  H  H36  1  0.39071000  0.49736000  0.81075000  1.0
  H  H37  1  0.10929000  0.99736000  0.18925000  1.0
  H  H38  1  0.60929000  0.50264000  0.18925000  1.0
  H  H39  1  0.89071000  0.00264000  0.81075000  1.0
  H  H40  1  0.34622000  0.28218000  0.77108000  1.0
  H  H41  1  0.15378000  0.78218000  0.22892000  1.0
  H  H42  1  0.65379000  0.71782000  0.22891000  1.0
  H  H43  1  0.84622000  0.21782000  0.77109000  1.0
  H  H44  1  0.41801000  0.19286000  0.02315000  1.0
  H  H45  1  0.08198000  0.69286000  0.97685000  1.0
  H  H46  1  0.58199000  0.80713000  0.97685000  1.0
  H  H47  1  0.91801000  0.30714000  0.02315000  1.0
  H  H48  1  0.35534000  0.13701000  0.81598000  1.0
  H  H49  1  0.14466000  0.63701000  0.18402000  1.0
  H  H50  1  0.64466000  0.86299000  0.18402000  1.0
  H  H51  1  0.85534000  0.36299000  0.81598000  1.0
  H  H52  1  0.33748000  0.44175000  0.91649000  1.0
  H  H53  1  0.16252000  0.94175000  0.08351000  1.0
  H  H54  1  0.66252000  0.55825000  0.08351000  1.0
  H  H55  1  0.83748000  0.05825000  0.91649000  1.0
  H  H56  1  0.19267000  0.31780000  0.74307000  1.0
  H  H57  1  0.30734000  0.81780000  0.25692000  1.0
  H  H58  1  0.80734000  0.68220000  0.25693000  1.0
  H  H59  1  0.69267000  0.18220000  0.74307000  1.0
  H  H60  1  0.53224000  0.25324000  0.80328000  1.0
  H  H61  1  0.96776000  0.75325000  0.19671000  1.0
  H  H62  1  0.46776000  0.74676000  0.19672000  1.0
  H  H63  1  0.03225000  0.24676000  0.80329000  1.0
  H  H64  1  0.68211000  0.32946000  0.78747000  1.0
  H  H65  1  0.81790000  0.82946000  0.21253000  1.0
  H  H66  1  0.31790000  0.67054000  0.21253000  1.0
  H  H67  1  0.18211000  0.17054000  0.78747000  1.0
  H  H68  1  0.77434000  0.27956000  0.65546000  1.0
  H  H69  1  0.72566000  0.77956000  0.34453000  1.0
  H  H70  1  0.22567000  0.72043000  0.34453000  1.0
  H  H71  1  0.27434000  0.22044000  0.65547000  1.0
  H  H72  1  0.69000000  0.14796000  0.61310000  1.0
  H  H73  1  0.80999000  0.64795000  0.38690000  1.0
  H  H74  1  0.31000000  0.85204000  0.38690000  1.0
  H  H75  1  0.19000000  0.35204000  0.61310000  1.0
  H  H76  1  0.68970000  0.01140000  0.57715000  1.0
  H  H77  1  0.81030000  0.51140000  0.42285000  1.0
  H  H78  1  0.31030000  0.98861000  0.42284000  1.0
  H  H79  1  0.18970000  0.48860000  0.57715000  1.0
  H  H80  1  0.84122000  0.95651000  0.35157000  1.0
  H  H81  1  0.65878000  0.45652000  0.64843000  1.0
  H  H82  1  0.15878000  0.04348000  0.64842000  1.0
  H  H83  1  0.34122000  0.54348000  0.35157000  1.0
  H  H84  1  0.60939000  0.00425000  0.46490000  1.0
  H  H85  1  0.89061000  0.50425000  0.53510000  1.0
  H  H86  1  0.39062000  0.99575000  0.53510000  1.0
  H  H87  1  0.10939000  0.49575000  0.46490000  1.0
  H  H88  1  0.79185000  0.83464000  0.51784000  1.0
  H  H89  1  0.70815000  0.33464000  0.48216000  1.0
  H  H90  1  0.20816000  0.16536000  0.48215000  1.0
  H  H91  1  0.29184000  0.66536000  0.51784000  1.0
  H  H92  1  0.83921000  0.70616000  0.58640000  1.0
  H  H93  1  0.66079000  0.20615000  0.41360000  1.0
  H  H94  1  0.16079000  0.29385000  0.41360000  1.0
  H  H95  1  0.33920000  0.79385000  0.58640000  1.0
  H  H96  1  0.94474000  0.80682000  0.87881000  1.0
  H  H97  1  0.55526000  0.30682000  0.12119000  1.0
  H  H98  1  0.05525000  0.19317000  0.12120000  1.0
  H  H99  1  0.44474000  0.69317000  0.87880000  1.0
  H  H100  1  0.07543000  0.88321000  0.93764000  1.0
  H  H101  1  0.42457000  0.38321000  0.06236000  1.0
  H  H102  1  0.92456000  0.11679000  0.06236000  1.0
  H  H103  1  0.57543000  0.61679000  0.93764000  1.0
  H  H104  1  0.84294000  0.97857000  0.04462000  1.0
  H  H105  1  0.65706000  0.47857000  0.95539000  1.0
  H  H106  1  0.15707000  0.02143000  0.95538000  1.0
  H  H107  1  0.34293000  0.52143000  0.04462000  1.0
  H  H108  1  0.84258000  0.82794000  0.07438000  1.0
  H  H109  1  0.65742000  0.32794000  0.92562000  1.0
  H  H110  1  0.15742000  0.17207000  0.92562000  1.0
  H  H111  1  0.34258000  0.67206000  0.07438000  1.0
  H  H112  1  0.78251000  0.67387000  0.01441000  1.0
  H  H113  1  0.71749000  0.17387000  0.98559000  1.0
  H  H114  1  0.21748000  0.32613000  0.98559000  1.0
  H  H115  1  0.28251000  0.82613000  0.01441000  1.0
  H  H116  1  0.85482000  0.85746000  0.76833000  1.0
  H  H117  1  0.64517000  0.35745000  0.23168000  1.0
  H  H118  1  0.14517000  0.14254000  0.23168000  1.0
  H  H119  1  0.35482000  0.64254000  0.76833000  1.0
  H  H120  1  0.81080000  0.98847000  0.70030000  1.0
  H  H121  1  0.68919000  0.48848000  0.29970000  1.0
  H  H122  1  0.18919000  0.01152000  0.29970000  1.0
  H  H123  1  0.31081000  0.51152000  0.70030000  1.0
  H  H124  1  0.95509000  0.03581000  0.56654000  1.0
  H  H125  1  0.54491000  0.53580000  0.43346000  1.0
  H  H126  1  0.04492000  0.96419000  0.43346000  1.0
  H  H127  1  0.45508000  0.46419000  0.56654000  1.0
  H  H128  1  0.03698000  0.17103000  0.60411000  1.0
  H  H129  1  0.46302000  0.67103000  0.39589000  1.0
  H  H130  1  0.96303000  0.82897000  0.39589000  1.0
  H  H131  1  0.53698000  0.32897000  0.60411000  1.0
  C  C132  1  0.03040000  0.52977000  0.85247000  1.0
  C  C133  1  0.46959000  0.02977000  0.14753000  1.0
  C  C134  1  0.96960000  0.47023000  0.14753000  1.0
  C  C135  1  0.53040000  0.97023000  0.85247000  1.0
  C  C136  1  0.11534000  0.47583000  0.84417000  1.0
  C  C137  1  0.38465000  0.97583000  0.15583000  1.0
  C  C138  1  0.88466000  0.52417000  0.15583000  1.0
  C  C139  1  0.61535000  0.02417000  0.84417000  1.0
  C  C140  1  0.19674000  0.48634000  0.88825000  1.0
  C  C141  1  0.30325000  0.98635000  0.11176000  1.0
  C  C142  1  0.80326000  0.51366000  0.11176000  1.0
  C  C143  1  0.69674000  0.01366000  0.88824000  1.0
  C  C144  1  0.11412000  0.41337000  0.79308000  1.0
  C  C145  1  0.38588000  0.91337000  0.20692000  1.0
  C  C146  1  0.88588000  0.58664000  0.20692000  1.0
  C  C147  1  0.61413000  0.08663000  0.79308000  1.0
  C  C148  1  0.71512000  0.49908000  0.79177000  1.0
  C  C149  1  0.78488000  0.99908000  0.20823000  1.0
  C  C150  1  0.28488000  0.50092000  0.20823000  1.0
  C  C151  1  0.21513000  0.00092000  0.79177000  1.0
  C  C152  1  0.62206000  0.45577000  0.79543000  1.0
  C  C153  1  0.87794000  0.95577000  0.20457000  1.0
  C  C154  1  0.37794000  0.54423000  0.20457000  1.0
  C  C155  1  0.12206000  0.04423000  0.79543000  1.0
  C  C156  1  0.53961000  0.50269000  0.80116000  1.0
  C  C157  1  0.96039000  0.00269000  0.19884000  1.0
  C  C158  1  0.46040000  0.49731000  0.19884000  1.0
  C  C159  1  0.03961000  0.99731000  0.80116000  1.0
  C  C160  1  0.45463000  0.46004000  0.80698000  1.0
  C  C161  1  0.04537000  0.96004000  0.19302000  1.0
  C  C162  1  0.54538000  0.53996000  0.19302000  1.0
  C  C163  1  0.95463000  0.03996000  0.80698000  1.0
  C  C164  1  0.45143000  0.37034000  0.80973000  1.0
  C  C165  1  0.04857000  0.87034000  0.19027000  1.0
  C  C166  1  0.54857000  0.62966000  0.19027000  1.0
  C  C167  1  0.95143000  0.12966000  0.80973000  1.0
  C  C168  1  0.36101000  0.32057000  0.81760000  1.0
  C  C169  1  0.13899000  0.82057000  0.18239000  1.0
  C  C170  1  0.63899000  0.67943000  0.18240000  1.0
  C  C171  1  0.86101000  0.17943000  0.81761000  1.0
  C  C172  1  0.40237000  0.20092000  0.96873000  1.0
  C  C173  1  0.09763000  0.70092000  0.03127000  1.0
  C  C174  1  0.59764000  0.79907000  0.03127000  1.0
  C  C175  1  0.90236000  0.29907000  0.96873000  1.0
  C  C176  1  0.37040000  0.16947000  0.86437000  1.0
  C  C177  1  0.12960000  0.66947000  0.13563000  1.0
  C  C178  1  0.62960000  0.83053000  0.13563000  1.0
  C  C179  1  0.87040000  0.33053000  0.86437000  1.0
  C  C180  1  0.27518000  0.37453000  0.82833000  1.0
  C  C181  1  0.22482000  0.87453000  0.17167000  1.0
  C  C182  1  0.72482000  0.62548000  0.17167000  1.0
  C  C183  1  0.77518000  0.12548000  0.82833000  1.0
  C  C184  1  0.27531000  0.43499000  0.88113000  1.0
  C  C185  1  0.22469000  0.93499000  0.11887000  1.0
  C  C186  1  0.72469000  0.56501000  0.11887000  1.0
  C  C187  1  0.77531000  0.06501000  0.88113000  1.0
  C  C188  1  0.19401000  0.36426000  0.78450000  1.0
  C  C189  1  0.30600000  0.86426000  0.21550000  1.0
  C  C190  1  0.80599000  0.63574000  0.21550000  1.0
  C  C191  1  0.69401000  0.13574000  0.78449000  1.0
  C  C192  1  0.53397000  0.32331000  0.80242000  1.0
  C  C193  1  0.96603000  0.82331000  0.19757000  1.0
  C  C194  1  0.46603000  0.67669000  0.19757000  1.0
  C  C195  1  0.03397000  0.17669000  0.80243000  1.0
  C  C196  1  0.61803000  0.36564000  0.79413000  1.0
  C  C197  1  0.88197000  0.86563000  0.20587000  1.0
  C  C198  1  0.38197000  0.63437000  0.20587000  1.0
  C  C199  1  0.11803000  0.13437000  0.79413000  1.0
  C  C200  1  0.95937000  0.31354000  0.65868000  1.0
  C  C201  1  0.54062000  0.81354000  0.34132000  1.0
  C  C202  1  0.04062000  0.68646000  0.34132000  1.0
  C  C203  1  0.45937000  0.18646000  0.65868000  1.0
  C  C204  1  0.91104000  0.23266000  0.63378000  1.0
  C  C205  1  0.58895000  0.73266000  0.36622000  1.0
  C  C206  1  0.08896000  0.76734000  0.36622000  1.0
  C  C207  1  0.41104000  0.26734000  0.63378000  1.0
  C  C208  1  0.81322000  0.22583000  0.63575000  1.0
  C  C209  1  0.68678000  0.72583000  0.36425000  1.0
  C  C210  1  0.18678000  0.77416000  0.36425000  1.0
  C  C211  1  0.31322000  0.27416000  0.63575000  1.0
  C  C212  1  0.76643000  0.15171000  0.61217000  1.0
  C  C213  1  0.73356000  0.65171000  0.38783000  1.0
  C  C214  1  0.23357000  0.84828000  0.38782000  1.0
  C  C215  1  0.26643000  0.34828000  0.61217000  1.0
  C  C216  1  0.81719000  0.08248000  0.58828000  1.0
  C  C217  1  0.68281000  0.58248000  0.41172000  1.0
  C  C218  1  0.18281000  0.91752000  0.41172000  1.0
  C  C219  1  0.31719000  0.41752000  0.58828000  1.0
  C  C220  1  0.76374000  0.00131000  0.56646000  1.0
  C  C221  1  0.73626000  0.50131000  0.43354000  1.0
  C  C222  1  0.23626000  0.99869000  0.43354000  1.0
  C  C223  1  0.26374000  0.49869000  0.56646000  1.0
  C  C224  1  0.79884000  0.96875000  0.39387000  1.0
  C  C225  1  0.70116000  0.46875000  0.60613000  1.0
  C  C226  1  0.20116000  0.03125000  0.60612000  1.0
  C  C227  1  0.29884000  0.53125000  0.39388000  1.0
  C  C228  1  0.67985000  0.99252000  0.44973000  1.0
  C  C229  1  0.82015000  0.49252000  0.55027000  1.0
  C  C230  1  0.32015000  0.00748000  0.55027000  1.0
  C  C231  1  0.17985000  0.50748000  0.44973000  1.0
  C  C232  1  0.79795000  0.92071000  0.60446000  1.0
  C  C233  1  0.70205000  0.42071000  0.39554000  1.0
  C  C234  1  0.20205000  0.07929000  0.39554000  1.0
  C  C235  1  0.29795000  0.57929000  0.60446000  1.0
  C  C236  1  0.80588000  0.84090000  0.57265000  1.0
  C  C237  1  0.69412000  0.34089000  0.42735000  1.0
  C  C238  1  0.19412000  0.15910000  0.42735000  1.0
  C  C239  1  0.30588000  0.65911000  0.57265000  1.0
  C  C240  1  0.83243000  0.76835000  0.61089000  1.0
  C  C241  1  0.66757000  0.26835000  0.38911000  1.0
  C  C242  1  0.16757000  0.23165000  0.38911000  1.0
  C  C243  1  0.33242000  0.73165000  0.61089000  1.0
  C  C244  1  0.85044000  0.77391000  0.68150000  1.0
  C  C245  1  0.64955000  0.27391000  0.31850000  1.0
  C  C246  1  0.14955000  0.22609000  0.31850000  1.0
  C  C247  1  0.35044000  0.72609000  0.68150000  1.0
  C  C248  1  0.87729000  0.69550000  0.72260000  1.0
  C  C249  1  0.62270000  0.19549000  0.27740000  1.0
  C  C250  1  0.12271000  0.30451000  0.27740000  1.0
  C  C251  1  0.37729000  0.80450000  0.72260000  1.0
  C  C252  1  0.90943000  0.79057000  0.92376000  1.0
  C  C253  1  0.59057000  0.29057000  0.07624000  1.0
  C  C254  1  0.09057000  0.20942000  0.07624000  1.0
  C  C255  1  0.40943000  0.70942000  0.92376000  1.0
  C  C256  1  0.95384000  0.92207000  0.98970000  1.0
  C  C257  1  0.54616000  0.42207000  0.01031000  1.0
  C  C258  1  0.04615000  0.07793000  0.01030000  1.0
  C  C259  1  0.45384000  0.57792000  0.98970000  1.0
  C  C260  1  0.04141000  0.93475000  0.96385000  1.0
  C  C261  1  0.45859000  0.43474000  0.03615000  1.0
  C  C262  1  0.95859000  0.06526000  0.03614000  1.0
  C  C263  1  0.54141000  0.56526000  0.96385000  1.0
  C  C264  1  0.91234000  0.98714000  0.02594000  1.0
  C  C265  1  0.58766000  0.48714000  0.97406000  1.0
  C  C266  1  0.08766000  0.01286000  0.97406000  1.0
  C  C267  1  0.41234000  0.51286000  0.02594000  1.0
  C  C268  1  0.85291000  0.80084000  0.02504000  1.0
  C  C269  1  0.64708000  0.30084000  0.97496000  1.0
  C  C270  1  0.14708000  0.19916000  0.97496000  1.0
  C  C271  1  0.35292000  0.69916000  0.02504000  1.0
  C  C272  1  0.82507000  0.72457000  0.99492000  1.0
  C  C273  1  0.67493000  0.22458000  0.00508000  1.0
  C  C274  1  0.17493000  0.27542000  0.00508000  1.0
  C  C275  1  0.32507000  0.77543000  0.99492000  1.0
  C  C276  1  0.84175000  0.85373000  0.71328000  1.0
  C  C277  1  0.65825000  0.35373000  0.28673000  1.0
  C  C278  1  0.15825000  0.14627000  0.28673000  1.0
  C  C279  1  0.34175000  0.64627000  0.71327000  1.0
  C  C280  1  0.81631000  0.92642000  0.67519000  1.0
  C  C281  1  0.68369000  0.42642000  0.32482000  1.0
  C  C282  1  0.18369000  0.07358000  0.32481000  1.0
  C  C283  1  0.31631000  0.57358000  0.67519000  1.0
  C  C284  1  0.91515000  0.08909000  0.58586000  1.0
  C  C285  1  0.58485000  0.58908000  0.41414000  1.0
  C  C286  1  0.08486000  0.91092000  0.41414000  1.0
  C  C287  1  0.41515000  0.41092000  0.58586000  1.0
  C  C288  1  0.96126000  0.16444000  0.60732000  1.0
  C  C289  1  0.53874000  0.66443000  0.39268000  1.0
  C  C290  1  0.03874000  0.83557000  0.39268000  1.0
  C  C291  1  0.46126000  0.33557000  0.60732000  1.0
  N  N292  1  0.37634000  0.25543000  0.87149000  1.0
  N  N293  1  0.12366000  0.75543000  0.12850000  1.0
  N  N294  1  0.62366000  0.74457000  0.12850000  1.0
  N  N295  1  0.87634000  0.24457000  0.87150000  1.0
  N  N296  1  0.39720000  0.27693000  0.93787000  1.0
  N  N297  1  0.10280000  0.77694000  0.06213000  1.0
  N  N298  1  0.60280000  0.72306000  0.06213000  1.0
  N  N299  1  0.89720000  0.22306000  0.93787000  1.0
  N  N300  1  0.38636000  0.13300000  0.92545000  1.0
  N  N301  1  0.11364000  0.63301000  0.07455000  1.0
  N  N302  1  0.61364000  0.86699000  0.07454000  1.0
  N  N303  1  0.88636000  0.36699000  0.92545000  1.0
  N  N304  1  0.75814000  0.98976000  0.49261000  1.0
  N  N305  1  0.74186000  0.48976000  0.50740000  1.0
  N  N306  1  0.24186000  0.01024000  0.50739000  1.0
  N  N307  1  0.25814000  0.51024000  0.49261000  1.0
  N  N308  1  0.83521000  0.97469000  0.45777000  1.0
  N  N309  1  0.66479000  0.47468000  0.54223000  1.0
  N  N310  1  0.16479000  0.02532000  0.54222000  1.0
  N  N311  1  0.33521000  0.52531000  0.45778000  1.0
  N  N312  1  0.70323000  0.97929000  0.38654000  1.0
  N  N313  1  0.79677000  0.47929000  0.61346000  1.0
  N  N314  1  0.29677000  0.02071000  0.61346000  1.0
  N  N315  1  0.20323000  0.52071000  0.38654000  1.0
  N  N316  1  0.86047000  0.71909000  0.93178000  1.0
  N  N317  1  0.63953000  0.21909000  0.06822000  1.0
  N  N318  1  0.13953000  0.28090000  0.06822000  1.0
  N  N319  1  0.36047000  0.78090000  0.93178000  1.0
  N  N320  1  0.90688000  0.84221000  0.97943000  1.0
  N  N321  1  0.59311000  0.34221000  0.02057000  1.0
  N  N322  1  0.09311000  0.15779000  0.02057000  1.0
  N  N323  1  0.40689000  0.65779000  0.97943000  1.0
  O  O324  1  0.95505000  0.51508000  0.81279000  1.0
  O  O325  1  0.54496000  0.01507000  0.18721000  1.0
  O  O326  1  0.04496000  0.48493000  0.18721000  1.0
  O  O327  1  0.45504000  0.98492000  0.81279000  1.0
  O  O328  1  0.03096000  0.58680000  0.89796000  1.0
  O  O329  1  0.46903000  0.08680000  0.10205000  1.0
  O  O330  1  0.96904000  0.41319000  0.10205000  1.0
  O  O331  1  0.53096000  0.91320000  0.89795000  1.0
  O  O332  1  0.77415000  0.45936000  0.75808000  1.0
  O  O333  1  0.72585000  0.95935000  0.24192000  1.0
  O  O334  1  0.22586000  0.54065000  0.24192000  1.0
  O  O335  1  0.27415000  0.04064000  0.75808000  1.0
  O  O336  1  0.72963000  0.56995000  0.82330000  1.0
  O  O337  1  0.77035000  0.06994000  0.17671000  1.0
  O  O338  1  0.27036000  0.43006000  0.17671000  1.0
  O  O339  1  0.22964000  0.93005000  0.82329000  1.0
  O  O340  1  0.91875000  0.35691000  0.70348000  1.0
  O  O341  1  0.58125000  0.85691000  0.29652000  1.0
  O  O342  1  0.08125000  0.64310000  0.29652000  1.0
  O  O343  1  0.41875000  0.14309000  0.70348000  1.0
  O  O344  1  0.03553000  0.33562000  0.63394000  1.0
  O  O345  1  0.46447000  0.83561000  0.36606000  1.0
  O  O346  1  0.96447000  0.66438000  0.36606000  1.0
  O  O347  1  0.53553000  0.16439000  0.63394000  1.0
  O  O348  1  0.88988000  0.70432000  0.78700000  1.0
  O  O349  1  0.61013000  0.20432000  0.21300000  1.0
  O  O350  1  0.11012000  0.29568000  0.21300000  1.0
  O  O351  1  0.38988000  0.79568000  0.78700000  1.0
  O  O352  1  0.85127000  0.52964000  0.95227000  1.0
  O  O353  1  0.64873000  0.02964000  0.04773000  1.0
  O  O354  1  0.14873000  0.47036000  0.04773000  1.0
  O  O355  1  0.35127000  0.97036000  0.95228000  1.0
  O  O356  1  0.88520000  0.62543000  0.69033000  1.0
  O  O357  1  0.61479000  0.12542000  0.30967000  1.0
  O  O358  1  0.11480000  0.37458000  0.30967000  1.0
  O  O359  1  0.38520000  0.87457000  0.69033000  1.0
  O  O360  1  0.02290000  0.50033000  0.64388000  1.0
  O  O361  1  0.47710000  0.00033000  0.35612000  1.0
  O  O362  1  0.97710000  0.49967000  0.35613000  1.0
  O  O363  1  0.52290000  0.99967000  0.64387000  1.0
