# generated using pymatgen
data_CuH12C12S(NO3)2
_symmetry_space_group_name_H-M   'P 1'
_cell_length_a   7.16474000
_cell_length_b   10.07270000
_cell_length_c   10.07260000
_cell_angle_alpha   85.85620000
_cell_angle_beta   74.70940000
_cell_angle_gamma   74.70940000
_symmetry_Int_Tables_number   1
_chemical_formula_structural   CuH12C12S(NO3)2
_chemical_formula_sum   'Cu2 H24 C24 S2 N4 O12'
_cell_volume   676.36514102
_cell_formula_units_Z   2
loop_
 _symmetry_equiv_pos_site_id
 _symmetry_equiv_pos_as_xyz
  1  'x, y, z'
loop_
 _atom_site_type_symbol
 _atom_site_label
 _atom_site_symmetry_multiplicity
 _atom_site_fract_x
 _atom_site_fract_y
 _atom_site_fract_z
 _atom_site_occupancy
  Cu  Cu0  1  0.25000000  0.19720000  0.80279000  1.0
  Cu  Cu1  1  0.75000000  0.80279000  0.19720000  1.0
  H  H2  1  0.11332000  0.99607000  0.82147000  1.0
  H  H3  1  0.38666000  0.17853000  0.00393000  1.0
  H  H4  1  0.88666000  0.00393000  0.17853000  1.0
  H  H5  1  0.61332000  0.82147000  0.99607000  1.0
  H  H6  1  0.31208000  0.94328000  0.87714000  1.0
  H  H7  1  0.18791000  0.12286000  0.05672000  1.0
  H  H8  1  0.68791000  0.05672000  0.12286000  1.0
  H  H9  1  0.81208000  0.87714000  0.94328000  1.0
  H  H10  1  0.28096000  0.01532000  0.55567000  1.0
  H  H11  1  0.21904000  0.44433000  0.98469000  1.0
  H  H12  1  0.71905000  0.98468000  0.44432000  1.0
  H  H13  1  0.78095000  0.55567000  0.01531000  1.0
  H  H14  1  0.29147000  0.06508000  0.30745000  1.0
  H  H15  1  0.20853000  0.69254000  0.93493000  1.0
  H  H16  1  0.70853000  0.93493000  0.69254000  1.0
  H  H17  1  0.79147000  0.30746000  0.06508000  1.0
  H  H18  1  0.28188000  0.30548000  0.21765000  1.0
  H  H19  1  0.21812000  0.78235000  0.69453000  1.0
  H  H20  1  0.71812000  0.69452000  0.78235000  1.0
  H  H21  1  0.78189000  0.21765000  0.30548000  1.0
  H  H22  1  0.25810000  0.55908000  0.27342000  1.0
  H  H23  1  0.24191000  0.72658000  0.44092000  1.0
  H  H24  1  0.74191000  0.44093000  0.72658000  1.0
  H  H25  1  0.75810000  0.27342000  0.55908000  1.0
  C  C26  1  0.27546000  0.11861000  0.51357000  1.0
  C  C27  1  0.22453000  0.48642000  0.88140000  1.0
  C  C28  1  0.72454000  0.88139000  0.48642000  1.0
  C  C29  1  0.77547000  0.51358000  0.11860000  1.0
  C  C30  1  0.28170000  0.14829000  0.37416000  1.0
  C  C31  1  0.21829000  0.62583000  0.85171000  1.0
  C  C32  1  0.71831000  0.85171000  0.62583000  1.0
  C  C33  1  0.78170000  0.37417000  0.14829000  1.0
  C  C34  1  0.27640000  0.28103000  0.32566000  1.0
  C  C35  1  0.22360000  0.67433000  0.71898000  1.0
  C  C36  1  0.72361000  0.71898000  0.67434000  1.0
  C  C37  1  0.77641000  0.32567000  0.28103000  1.0
  C  C38  1  0.26332000  0.38507000  0.41702000  1.0
  C  C39  1  0.23669000  0.58297000  0.61493000  1.0
  C  C40  1  0.73669000  0.61492000  0.58298000  1.0
  C  C41  1  0.76332000  0.41702000  0.38507000  1.0
  C  C42  1  0.25721000  0.34548000  0.55549000  1.0
  C  C43  1  0.24279000  0.44451000  0.65452000  1.0
  C  C44  1  0.74280000  0.65452000  0.44451000  1.0
  C  C45  1  0.75722000  0.55549000  0.34548000  1.0
  C  C46  1  0.25595000  0.52597000  0.37927000  1.0
  C  C47  1  0.24406000  0.62073000  0.47403000  1.0
  C  C48  1  0.74406000  0.47403000  0.62073000  1.0
  C  C49  1  0.75595000  0.37928000  0.52598000  1.0
  S  S50  1  0.75000000  0.14160000  0.85840000  1.0
  S  S51  1  0.24999000  0.85840000  0.14160000  1.0
  N  N52  1  0.26439000  0.21464000  0.60140000  1.0
  N  N53  1  0.23561000  0.39859000  0.78536000  1.0
  N  N54  1  0.73561000  0.78536000  0.39859000  1.0
  N  N55  1  0.76439000  0.60140000  0.21464000  1.0
  O  O56  1  0.25949000  0.99837000  0.80100000  1.0
  O  O57  1  0.24050000  0.19900000  0.00163000  1.0
  O  O58  1  0.74049000  0.00163000  0.19900000  1.0
  O  O59  1  0.75949000  0.80100000  0.99837000  1.0
  O  O60  1  0.62973000  0.15888000  0.75714000  1.0
  O  O61  1  0.87027000  0.24286000  0.84113000  1.0
  O  O62  1  0.37027000  0.84112000  0.24286000  1.0
  O  O63  1  0.12972000  0.75714000  0.15888000  1.0
  O  O64  1  0.88855000  0.99742000  0.84663000  1.0
  O  O65  1  0.61144000  0.15337000  0.00258000  1.0
  O  O66  1  0.11144000  0.00258000  0.15337000  1.0
  O  O67  1  0.38855000  0.84663000  0.99743000  1.0
