# generated using pymatgen
data_MgH12C15NO4
_symmetry_space_group_name_H-M   'P 1'
_cell_length_a   6.72560000
_cell_length_b   46.24090000
_cell_length_c   46.23470000
_cell_angle_alpha   119.76000000
_cell_angle_beta   92.75840000
_cell_angle_gamma   92.80290000
_symmetry_Int_Tables_number   1
_chemical_formula_structural   MgH12C15NO4
_chemical_formula_sum   'Mg6 H72 C90 N6 O24'
_cell_volume   12424.02113363
_cell_formula_units_Z   6
loop_
 _symmetry_equiv_pos_site_id
 _symmetry_equiv_pos_as_xyz
  1  'x, y, z'
loop_
 _atom_site_type_symbol
 _atom_site_label
 _atom_site_symmetry_multiplicity
 _atom_site_fract_x
 _atom_site_fract_y
 _atom_site_fract_z
 _atom_site_occupancy
  Mg  Mg0  1  0.42316000  0.66965000  0.31165000  1.0
  Mg  Mg1  1  0.69229000  0.33016000  0.68815000  1.0
  Mg  Mg2  1  0.11127000  0.68831000  0.35785000  1.0
  Mg  Mg3  1  0.00438000  0.31186000  0.64216000  1.0
  Mg  Mg4  1  0.75337000  0.64212000  0.33033000  1.0
  Mg  Mg5  1  0.36243000  0.35786000  0.66983000  1.0
  H  H6  1  0.58463000  0.07638000  0.57572000  1.0
  H  H7  1  0.19178000  0.04032000  0.54388000  1.0
  H  H8  1  0.28476000  0.03883000  0.57956000  1.0
  H  H9  1  0.37850000  0.98917000  0.53065000  1.0
  H  H10  1  0.59755000  0.01538000  0.55158000  1.0
  H  H11  1  0.57752000  0.03719000  0.51052000  1.0
  H  H12  1  0.36825000  0.00846000  0.48904000  1.0
  H  H13  1  0.57773000  0.96098000  0.47873000  1.0
  H  H14  1  0.78732000  0.98979000  0.49970000  1.0
  H  H15  1  0.77615000  0.00811000  0.45747000  1.0
  H  H16  1  0.55291000  0.98278000  0.43752000  1.0
  H  H17  1  0.95514000  0.95607000  0.44366000  1.0
  H  H18  1  0.85840000  0.95755000  0.40815000  1.0
  H  H19  1  0.55652000  0.92153000  0.41364000  1.0
  H  H20  1  0.90806000  0.84095000  0.41046000  1.0
  H  H21  1  0.17624000  0.83112000  0.38074000  1.0
  H  H22  1  0.36759000  0.88404000  0.40219000  1.0
  H  H23  1  0.16320000  0.76859000  0.35983000  1.0
  H  H24  1  0.88872000  0.78103000  0.39463000  1.0
  H  H25  1  0.21980000  0.15730000  0.58322000  1.0
  H  H26  1  0.95243000  0.16862000  0.61303000  1.0
  H  H27  1  0.76843000  0.11460000  0.58831000  1.0
  H  H28  1  0.95731000  0.23139000  0.63727000  1.0
  H  H29  1  0.23131000  0.21829000  0.60257000  1.0
  H  H30  1  0.00903000  0.42424000  0.50069000  1.0
  H  H31  1  0.64846000  0.45630000  0.49676000  1.0
  H  H32  1  0.70473000  0.42059000  0.45954000  1.0
  H  H33  1  0.84790000  0.46938000  0.45863000  1.0
  H  H34  1  0.04584000  0.44839000  0.46383000  1.0
  H  H35  1  0.06758000  0.48953000  0.52672000  1.0
  H  H36  1  0.88038000  0.51108000  0.51947000  1.0
  H  H37  1  0.10053000  0.52117000  0.48217000  1.0
  H  H38  1  0.28868000  0.50017000  0.49005000  1.0
  H  H39  1  0.32012000  0.54250000  0.55056000  1.0
  H  H40  1  0.11676000  0.56242000  0.54517000  1.0
  H  H41  1  0.51263000  0.55630000  0.51222000  1.0
  H  H42  1  0.45156000  0.59179000  0.54924000  1.0
  H  H43  1  0.14371000  0.58630000  0.50785000  1.0
  H  H44  1  0.49777000  0.58962000  0.43041000  1.0
  H  H45  1  0.79588000  0.61939000  0.45049000  1.0
  H  H46  1  0.96578000  0.59783000  0.48185000  1.0
  H  H47  1  0.80338000  0.64028000  0.40885000  1.0
  H  H48  1  0.49404000  0.60550000  0.38634000  1.0
  H  H49  1  0.63743000  0.41674000  0.57422000  1.0
  H  H50  1  0.33985000  0.38680000  0.55549000  1.0
  H  H51  1  0.18051000  0.41155000  0.52625000  1.0
  H  H52  1  0.32066000  0.36262000  0.59414000  1.0
  H  H53  1  0.62962000  0.39743000  0.61584000  1.0
  H  H54  1  0.50797000  0.49941000  0.92357000  1.0
  H  H55  1  0.15173000  0.50356000  0.95974000  1.0
  H  H56  1  0.24583000  0.54073000  0.96118000  1.0
  H  H57  1  0.39021000  0.54153000  0.01083000  1.0
  H  H58  1  0.58256000  0.53624000  0.98453000  1.0
  H  H59  1  0.54104000  0.47341000  0.96276000  1.0
  H  H60  1  0.36045000  0.48060000  0.99148000  1.0
  H  H61  1  0.61728000  0.51777000  0.03898000  1.0
  H  H62  1  0.79818000  0.50999000  0.01019000  1.0
  H  H63  1  0.76845000  0.44941000  0.99184000  1.0
  H  H64  1  0.57076000  0.45481000  0.01721000  1.0
  H  H65  1  0.99995000  0.48761000  0.04387000  1.0
  H  H66  1  0.90142000  0.45061000  0.04236000  1.0
  H  H67  1  0.63573000  0.49216000  0.07839000  1.0
  H  H68  1  0.06795000  0.56944000  0.15906000  1.0
  H  H69  1  0.34583000  0.54948000  0.16884000  1.0
  H  H70  1  0.48440000  0.51800000  0.11593000  1.0
  H  H71  1  0.39487000  0.59116000  0.23132000  1.0
  H  H72  1  0.10816000  0.61362000  0.21898000  1.0
  H  H73  1  0.06220000  0.42595000  0.84269000  1.0
  H  H74  1  0.78373000  0.44444000  0.83143000  1.0
  H  H75  1  0.65365000  0.47370000  0.88544000  1.0
  H  H76  1  0.72605000  0.40587000  0.76866000  1.0
  H  H77  1  0.01270000  0.38438000  0.78169000  1.0
  C  C78  1  0.34258000  0.10079000  0.57336000  1.0
  C  C79  1  0.32987000  0.04128000  0.55818000  1.0
  C  C80  1  0.45808000  0.01316000  0.53672000  1.0
  C  C81  1  0.50826000  0.01253000  0.50454000  1.0
  C  C82  1  0.64634000  0.98557000  0.48437000  1.0
  C  C83  1  0.69360000  0.98449000  0.45186000  1.0
  C  C84  1  0.81585000  0.95562000  0.42992000  1.0
  C  C85  1  0.79424000  0.89671000  0.41683000  1.0
  C  C86  1  0.65858000  0.86585000  0.40657000  1.0
  C  C87  1  0.74789000  0.83836000  0.40372000  1.0
  C  C88  1  0.63733000  0.80719000  0.39159000  1.0
  C  C89  1  0.42718000  0.80361000  0.38199000  1.0
  C  C90  1  0.33644000  0.83269000  0.38686000  1.0
  C  C91  1  0.44807000  0.86277000  0.39878000  1.0
  C  C92  1  0.32223000  0.77170000  0.36758000  1.0
  C  C93  1  0.41677000  0.74326000  0.36143000  1.0
  C  C94  1  0.62775000  0.74731000  0.37198000  1.0
  C  C95  1  0.73014000  0.77877000  0.38701000  1.0
  C  C96  1  0.74625000  0.71907000  0.36596000  1.0
  C  C97  1  0.47385000  0.13247000  0.58532000  1.0
  C  C98  1  0.38013000  0.16025000  0.58999000  1.0
  C  C99  1  0.48642000  0.19204000  0.60393000  1.0
  C  C100  1  0.69677000  0.19587000  0.61350000  1.0
  C  C101  1  0.79199000  0.16664000  0.60683000  1.0
  C  C102  1  0.68458000  0.13598000  0.59315000  1.0
  C  C103  1  0.79818000  0.22812000  0.62956000  1.0
  C  C104  1  0.70043000  0.25665000  0.63718000  1.0
  C  C105  1  0.48932000  0.25246000  0.62664000  1.0
  C  C106  1  0.39002000  0.22068000  0.61018000  1.0
  C  C107  1  0.36865000  0.28075000  0.63369000  1.0
  C  C108  1  0.76980000  0.42666000  0.52759000  1.0
  C  C109  1  0.77183000  0.44194000  0.48332000  1.0
  C  C110  1  0.92155000  0.46331000  0.47654000  1.0
  C  C111  1  0.00454000  0.49549000  0.50803000  1.0
  C  C112  1  0.16321000  0.51554000  0.50114000  1.0
  C  C113  1  0.24312000  0.54808000  0.53253000  1.0
  C  C114  1  0.38710000  0.57002000  0.52555000  1.0
  C  C115  1  0.37791000  0.58315000  0.47975000  1.0
  C  C116  1  0.25228000  0.59346000  0.45923000  1.0
  C  C117  1  0.34433000  0.59636000  0.43458000  1.0
  C  C118  1  0.24581000  0.60851000  0.41558000  1.0
  C  C119  1  0.04532000  0.61812000  0.42165000  1.0
  C  C120  1  0.94988000  0.61324000  0.44588000  1.0
  C  C121  1  0.04964000  0.60128000  0.46399000  1.0
  C  C122  1  0.95458000  0.63251000  0.40415000  1.0
  C  C123  1  0.05504000  0.63861000  0.38179000  1.0
  C  C124  1  0.25548000  0.62806000  0.37526000  1.0
  C  C125  1  0.34305000  0.61309000  0.39172000  1.0
  C  C126  1  0.37994000  0.63406000  0.35300000  1.0
  C  C127  1  0.88920000  0.41461000  0.54722000  1.0
  C  C128  1  0.79089000  0.40995000  0.57035000  1.0
  C  C129  1  0.88327000  0.39599000  0.58817000  1.0
  C  C130  1  0.08394000  0.38638000  0.58237000  1.0
  C  C131  1  0.18570000  0.39302000  0.55976000  1.0
  C  C132  1  0.09196000  0.40673000  0.54282000  1.0
  C  C133  1  0.16921000  0.37035000  0.59859000  1.0
  C  C134  1  0.06380000  0.36276000  0.61954000  1.0
  C  C135  1  0.86327000  0.37332000  0.62591000  1.0
  C  C136  1  0.78058000  0.38976000  0.61058000  1.0
  C  C137  1  0.73542000  0.36630000  0.64718000  1.0
  C  C138  1  0.24161000  0.47252000  0.89924000  1.0
  C  C139  1  0.28869000  0.51692000  0.95874000  1.0
  C  C140  1  0.44545000  0.52361000  0.98681000  1.0
  C  C141  1  0.49641000  0.49205000  0.98742000  1.0
  C  C142  1  0.66143000  0.49886000  0.01440000  1.0
  C  C143  1  0.70971000  0.46743000  0.01547000  1.0
  C  C144  1  0.86098000  0.47434000  0.04432000  1.0
  C  C145  1  0.89853000  0.52005000  0.10328000  1.0
  C  C146  1  0.79364000  0.54061000  0.13414000  1.0
  C  C147  1  0.91035000  0.56528000  0.16164000  1.0
  C  C148  1  0.83082000  0.58434000  0.19280000  1.0
  C  C149  1  0.62418000  0.57830000  0.19636000  1.0
  C  C150  1  0.50452000  0.55405000  0.16728000  1.0
  C  C151  1  0.58619000  0.53588000  0.13721000  1.0
  C  C152  1  0.55085000  0.59584000  0.22824000  1.0
  C  C153  1  0.67358000  0.61822000  0.25669000  1.0
  C  C154  1  0.88057000  0.62474000  0.25265000  1.0
  C  C155  1  0.95181000  0.60824000  0.22121000  1.0
  C  C156  1  0.02719000  0.64699000  0.28090000  1.0
  C  C157  1  0.34116000  0.45285000  0.86754000  1.0
  C  C158  1  0.21958000  0.42978000  0.83974000  1.0
  C  C159  1  0.29415000  0.41195000  0.80796000  1.0
  C  C160  1  0.50077000  0.41767000  0.80415000  1.0
  C  C161  1  0.62523000  0.44023000  0.83340000  1.0
  C  C162  1  0.54842000  0.45717000  0.86405000  1.0
  C  C163  1  0.57006000  0.40144000  0.77191000  1.0
  C  C164  1  0.44385000  0.38051000  0.74338000  1.0
  C  C165  1  0.23678000  0.37420000  0.74755000  1.0
  C  C166  1  0.16913000  0.38957000  0.77931000  1.0
  C  C167  1  0.08790000  0.35291000  0.71926000  1.0
  N  N168  1  0.43521000  0.07384000  0.56991000  1.0
  N  N169  1  0.70619000  0.92355000  0.41900000  1.0
  N  N170  1  0.86566000  0.43016000  0.50409000  1.0
  N  N171  1  0.28803000  0.58096000  0.50446000  1.0
  N  N172  1  0.36118000  0.49609000  0.92616000  1.0
  N  N173  1  0.78351000  0.49545000  0.07641000  1.0
  O  O174  1  0.92381000  0.72425000  0.37923000  1.0
  O  O175  1  0.66800000  0.68900000  0.34578000  1.0
  O  O176  1  0.31349000  0.71308000  0.34573000  1.0
  O  O177  1  0.19070000  0.27566000  0.62059000  1.0
  O  O178  1  0.44571000  0.31078000  0.65440000  1.0
  O  O179  1  0.80187000  0.28696000  0.65408000  1.0
  O  O180  1  0.15880000  0.09937000  0.56742000  1.0
  O  O181  1  0.97774000  0.89758000  0.42262000  1.0
  O  O182  1  0.54423000  0.62079000  0.34491000  1.0
  O  O183  1  0.32192000  0.65421000  0.34307000  1.0
  O  O184  1  0.96729000  0.65426000  0.36726000  1.0
  O  O185  1  0.57060000  0.37941000  0.65519000  1.0
  O  O186  1  0.79155000  0.34561000  0.65652000  1.0
  O  O187  1  0.14827000  0.34590000  0.63299000  1.0
  O  O188  1  0.59208000  0.43264000  0.53220000  1.0
  O  O189  1  0.55556000  0.57736000  0.47476000  1.0
  O  O190  1  0.19963000  0.65509000  0.27573000  1.0
  O  O191  1  0.97892000  0.65689000  0.31097000  1.0
  O  O192  1  0.60032000  0.63275000  0.28686000  1.0
  O  O193  1  0.91497000  0.34490000  0.72435000  1.0
  O  O194  1  0.13506000  0.34351000  0.68922000  1.0
  O  O195  1  0.51509000  0.36703000  0.71306000  1.0
  O  O196  1  0.05938000  0.46792000  0.90071000  1.0
  O  O197  1  0.08125000  0.52494000  0.10244000  1.0
