# generated using pymatgen
data_AlH7C15Cl2O5
_symmetry_space_group_name_H-M   'P 1'
_cell_length_a   6.65832000
_cell_length_b   21.38950000
_cell_length_c   24.62030000
_cell_angle_alpha   80.91960000
_cell_angle_beta   89.99990000
_cell_angle_gamma   89.99880000
_symmetry_Int_Tables_number   1
_chemical_formula_structural   AlH7C15Cl2O5
_chemical_formula_sum   'Al4 H28 C60 Cl8 O20'
_cell_volume   3462.43478722
_cell_formula_units_Z   4
loop_
 _symmetry_equiv_pos_site_id
 _symmetry_equiv_pos_as_xyz
  1  'x, y, z'
loop_
 _atom_site_type_symbol
 _atom_site_label
 _atom_site_symmetry_multiplicity
 _atom_site_fract_x
 _atom_site_fract_y
 _atom_site_fract_z
 _atom_site_occupancy
  Al  Al0  1  0.21968000  0.75001000  0.75111000  1.0
  Al  Al1  1  0.78139000  0.25005000  0.24779000  1.0
  Al  Al2  1  0.71968000  0.75000000  0.74888000  1.0
  Al  Al3  1  0.28140000  0.24996000  0.25221000  1.0
  H  H4  1  0.19970000  0.91290000  0.49052000  1.0
  H  H5  1  0.70737000  0.06236000  0.48931000  1.0
  H  H6  1  0.69951000  0.58714000  0.00949000  1.0
  H  H7  1  0.20738000  0.43764000  0.01068000  1.0
  H  H8  1  0.76101000  0.93453000  0.64909000  1.0
  H  H9  1  0.31346000  0.09108000  0.37171000  1.0
  H  H10  1  0.26116000  0.56543000  0.85087000  1.0
  H  H11  1  0.81343000  0.40894000  0.12829000  1.0
  H  H12  1  0.78237000  0.02284000  0.57119000  1.0
  H  H13  1  0.31002000  0.00633000  0.45292000  1.0
  H  H14  1  0.28249000  0.47714000  0.92879000  1.0
  H  H15  1  0.80997000  0.49370000  0.04708000  1.0
  H  H16  1  0.69588000  0.97728000  0.91217000  1.0
  H  H17  1  0.30921000  0.02201000  0.08873000  1.0
  H  H18  1  0.19596000  0.52268000  0.58786000  1.0
  H  H19  1  0.80920000  0.47798000  0.41127000  1.0
  H  H20  1  0.25434000  0.83095000  0.88764000  1.0
  H  H21  1  0.74904000  0.16800000  0.11218000  1.0
  H  H22  1  0.75435000  0.66903000  0.61237000  1.0
  H  H23  1  0.24902000  0.33200000  0.38781000  1.0
  H  H24  1  0.27629000  0.89760000  0.96185000  1.0
  H  H25  1  0.72716000  0.10016000  0.03887000  1.0
  H  H26  1  0.77635000  0.60238000  0.53817000  1.0
  H  H27  1  0.22715000  0.39984000  0.46114000  1.0
  H  H28  1  0.47276000  0.82895000  0.76009000  1.0
  H  H29  1  0.52744000  0.16996000  0.24213000  1.0
  H  H30  1  0.97277000  0.67104000  0.73993000  1.0
  H  H31  1  0.02743000  0.33005000  0.25787000  1.0
  C  C32  1  0.46708000  0.67782000  0.68347000  1.0
  C  C33  1  0.53517000  0.32179000  0.31705000  1.0
  C  C34  1  0.96707000  0.82218000  0.81653000  1.0
  C  C35  1  0.03517000  0.17821000  0.18295000  1.0
  C  C36  1  0.47201000  0.67130000  0.83238000  1.0
  C  C37  1  0.52749000  0.32944000  0.16804000  1.0
  C  C38  1  0.97201000  0.82870000  0.66761000  1.0
  C  C39  1  0.02751000  0.17057000  0.33195000  1.0
  C  C40  1  0.10808000  0.91966000  0.52576000  1.0
  C  C41  1  0.84289000  0.06779000  0.46424000  1.0
  C  C42  1  0.60793000  0.58036000  0.97425000  1.0
  C  C43  1  0.34288000  0.43222000  0.03575000  1.0
  C  C44  1  0.10160000  0.87141000  0.57098000  1.0
  C  C45  1  0.84752000  0.11607000  0.41901000  1.0
  C  C46  1  0.60147000  0.62861000  0.92902000  1.0
  C  C47  1  0.34754000  0.38393000  0.08098000  1.0
  C  C48  1  0.97755000  0.87650000  0.61625000  1.0
  C  C49  1  0.01626000  0.12397000  0.38396000  1.0
  C  C50  1  0.47750000  0.62351000  0.88375000  1.0
  C  C51  1  0.51626000  0.37604000  0.11604000  1.0
  C  C52  1  0.85932000  0.93101000  0.61428000  1.0
  C  C53  1  0.18096000  0.08354000  0.39788000  1.0
  C  C54  1  0.35932000  0.56898000  0.88571000  1.0
  C  C55  1  0.68093000  0.41647000  0.10211000  1.0
  C  C56  1  0.86978000  0.98003000  0.57005000  1.0
  C  C57  1  0.17738000  0.03586000  0.44322000  1.0
  C  C58  1  0.36989000  0.51995000  0.92992000  1.0
  C  C59  1  0.67736000  0.46415000  0.05677000  1.0
  C  C60  1  0.99490000  0.97524000  0.52483000  1.0
  C  C61  1  0.00598000  0.02654000  0.47701000  1.0
  C  C62  1  0.49491000  0.52477000  0.97515000  1.0
  C  C63  1  0.50596000  0.47347000  0.02299000  1.0
  C  C64  1  0.81812000  0.94472000  0.90755000  1.0
  C  C65  1  0.18655000  0.05451000  0.09309000  1.0
  C  C66  1  0.31819000  0.55524000  0.59248000  1.0
  C  C67  1  0.68654000  0.44548000  0.40691000  1.0
  C  C68  1  0.80703000  0.90676000  0.86656000  1.0
  C  C69  1  0.19742000  0.09312000  0.13363000  1.0
  C  C70  1  0.30707000  0.59322000  0.63346000  1.0
  C  C71  1  0.69742000  0.40688000  0.36636000  1.0
  C  C72  1  0.96473000  0.86487000  0.85904000  1.0
  C  C73  1  0.03922000  0.13497000  0.14081000  1.0
  C  C74  1  0.46476000  0.63512000  0.64096000  1.0
  C  C75  1  0.53920000  0.36503000  0.35919000  1.0
  C  C76  1  0.13240000  0.86295000  0.89408000  1.0
  C  C77  1  0.87143000  0.13613000  0.10590000  1.0
  C  C78  1  0.63243000  0.63703000  0.60593000  1.0
  C  C79  1  0.37141000  0.36388000  0.39410000  1.0
  C  C80  1  0.14487000  0.90008000  0.93525000  1.0
  C  C81  1  0.85900000  0.09829000  0.06527000  1.0
  C  C82  1  0.64492000  0.59990000  0.56477000  1.0
  C  C83  1  0.35900000  0.40171000  0.43473000  1.0
  C  C84  1  0.98676000  0.94198000  0.94243000  1.0
  C  C85  1  0.01767000  0.05649000  0.05840000  1.0
  C  C86  1  0.48683000  0.55799000  0.55760000  1.0
  C  C87  1  0.51767000  0.44351000  0.44161000  1.0
  C  C88  1  0.99729000  0.98161000  0.98323000  1.0
  C  C89  1  0.00735000  0.01642000  0.01794000  1.0
  C  C90  1  0.49736000  0.51836000  0.51680000  1.0
  C  C91  1  0.50735000  0.48357000  0.48207000  1.0
  Cl  Cl92  1  0.24166000  0.80374000  0.56813000  1.0
  Cl  Cl93  1  0.64109000  0.16584000  0.41026000  1.0
  Cl  Cl94  1  0.74142000  0.69630000  0.93189000  1.0
  Cl  Cl95  1  0.14112000  0.33417000  0.08973000  1.0
  Cl  Cl96  1  0.59585000  0.91736000  0.82480000  1.0
  Cl  Cl97  1  0.40940000  0.08346000  0.17507000  1.0
  Cl  Cl98  1  0.09592000  0.58262000  0.67522000  1.0
  Cl  Cl99  1  0.90940000  0.41654000  0.32493000  1.0
  O  O100  1  0.64050000  0.68853000  0.81100000  1.0
  O  O101  1  0.36274000  0.31326000  0.19212000  1.0
  O  O102  1  0.14050000  0.81149000  0.68900000  1.0
  O  O103  1  0.86274000  0.18675000  0.30787000  1.0
  O  O104  1  0.29994000  0.69470000  0.70108000  1.0
  O  O105  1  0.70121000  0.30530000  0.29840000  1.0
  O  O106  1  0.79995000  0.80530000  0.79891000  1.0
  O  O107  1  0.20121000  0.19471000  0.20159000  1.0
  O  O108  1  0.29924000  0.68800000  0.81327000  1.0
  O  O109  1  0.70208000  0.31157000  0.18534000  1.0
  O  O110  1  0.79924000  0.81201000  0.68672000  1.0
  O  O111  1  0.20209000  0.18844000  0.31466000  1.0
  O  O112  1  0.13939000  0.80532000  0.80149000  1.0
  O  O113  1  0.86198000  0.19584000  0.19657000  1.0
  O  O114  1  0.63939000  0.69467000  0.69852000  1.0
  O  O115  1  0.36197000  0.30417000  0.30342000  1.0
  O  O116  1  0.46973000  0.78846000  0.74706000  1.0
  O  O117  1  0.53112000  0.21162000  0.25293000  1.0
  O  O118  1  0.96973000  0.71155000  0.75294000  1.0
  O  O119  1  0.03112000  0.28838000  0.24707000  1.0
