# generated using pymatgen
data_H3PbC5N3O4
_symmetry_space_group_name_H-M   'P 1'
_cell_length_a   4.64308000
_cell_length_b   12.07650000
_cell_length_c   15.22820000
_cell_angle_alpha   89.99930000
_cell_angle_beta   96.43870000
_cell_angle_gamma   89.99970000
_symmetry_Int_Tables_number   1
_chemical_formula_structural   H3PbC5N3O4
_chemical_formula_sum   'H12 Pb4 C20 N12 O16'
_cell_volume   848.49208065
_cell_formula_units_Z   4
loop_
 _symmetry_equiv_pos_site_id
 _symmetry_equiv_pos_as_xyz
  1  'x, y, z'
loop_
 _atom_site_type_symbol
 _atom_site_label
 _atom_site_symmetry_multiplicity
 _atom_site_fract_x
 _atom_site_fract_y
 _atom_site_fract_z
 _atom_site_occupancy
  H  H0  1  0.54368000  0.37222000  0.42613000  1.0
  H  H1  1  0.95628000  0.87224000  0.07387000  1.0
  H  H2  1  0.45630000  0.62778000  0.57387000  1.0
  H  H3  1  0.04373000  0.12777000  0.92613000  1.0
  H  H4  1  0.97857000  0.23808000  0.49448000  1.0
  H  H5  1  0.52140000  0.73808000  0.00552000  1.0
  H  H6  1  0.02142000  0.76193000  0.50552000  1.0
  H  H7  1  0.47860000  0.26192000  0.99448000  1.0
  H  H8  1  0.97678000  0.10208000  0.45220000  1.0
  H  H9  1  0.52321000  0.60208000  0.04780000  1.0
  H  H10  1  0.02322000  0.89793000  0.54780000  1.0
  H  H11  1  0.47680000  0.39792000  0.95220000  1.0
  Pb  Pb12  1  0.58964000  0.90836000  0.28647000  1.0
  Pb  Pb13  1  0.91035000  0.40836000  0.21353000  1.0
  Pb  Pb14  1  0.41036000  0.09163000  0.71353000  1.0
  Pb  Pb15  1  0.08964000  0.59163000  0.78647000  1.0
  C  C16  1  0.48929000  0.29766000  0.38803000  1.0
  C  C17  1  0.01068000  0.79766000  0.11197000  1.0
  C  C18  1  0.51068000  0.70234000  0.61197000  1.0
  C  C19  1  0.98933000  0.20234000  0.88802000  1.0
  C  C20  1  0.30046000  0.18016000  0.29431000  1.0
  C  C21  1  0.19953000  0.68016000  0.20569000  1.0
  C  C22  1  0.69955000  0.81984000  0.70569000  1.0
  C  C23  1  0.80047000  0.31984000  0.79431000  1.0
  C  C24  1  0.83862000  0.16732000  0.47463000  1.0
  C  C25  1  0.66136000  0.66733000  0.02537000  1.0
  C  C26  1  0.16138000  0.83268000  0.52537000  1.0
  C  C27  1  0.33865000  0.33267000  0.97463000  1.0
  C  C28  1  0.69222000  0.12706000  0.55407000  1.0
  C  C29  1  0.80776000  0.62707000  0.94593000  1.0
  C  C30  1  0.30778000  0.87294000  0.44593000  1.0
  C  C31  1  0.19223000  0.37294000  0.05407000  1.0
  C  C32  1  0.10441000  0.13124000  0.21897000  1.0
  C  C33  1  0.39556000  0.63123000  0.28103000  1.0
  C  C34  1  0.89560000  0.86876000  0.78103000  1.0
  C  C35  1  0.60442000  0.36876000  0.71897000  1.0
  N  N36  1  0.62709000  0.19952000  0.40188000  1.0
  N  N37  1  0.87288000  0.69953000  0.09812000  1.0
  N  N38  1  0.37290000  0.80048000  0.59812000  1.0
  N  N39  1  0.12711000  0.30047000  0.90188000  1.0
  N  N40  1  0.50747000  0.12396000  0.34316000  1.0
  N  N41  1  0.99252000  0.62396000  0.15683000  1.0
  N  N42  1  0.49254000  0.87604000  0.65684000  1.0
  N  N43  1  0.00748000  0.37604000  0.84317000  1.0
  N  N44  1  0.28278000  0.28763000  0.32045000  1.0
  N  N45  1  0.21718000  0.78763000  0.17955000  1.0
  N  N46  1  0.71720000  0.71236000  0.67955000  1.0
  N  N47  1  0.78282000  0.21236000  0.82045000  1.0
  O  O48  1  0.85164000  0.11219000  0.62702000  1.0
  O  O49  1  0.64836000  0.61219000  0.87298000  1.0
  O  O50  1  0.14837000  0.88781000  0.37298000  1.0
  O  O51  1  0.35165000  0.38781000  0.12702000  1.0
  O  O52  1  0.42183000  0.11314000  0.54477000  1.0
  O  O53  1  0.07816000  0.61315000  0.95523000  1.0
  O  O54  1  0.57818000  0.88686000  0.45523000  1.0
  O  O55  1  0.92185000  0.38685000  0.04477000  1.0
  O  O56  1  0.13862000  0.02949000  0.20218000  1.0
  O  O57  1  0.36136000  0.52949000  0.29781000  1.0
  O  O58  1  0.86138000  0.97050000  0.79782000  1.0
  O  O59  1  0.63863000  0.47051000  0.70219000  1.0
  O  O60  1  0.91638000  0.19587000  0.17976000  1.0
  O  O61  1  0.58360000  0.69586000  0.32024000  1.0
  O  O62  1  0.08365000  0.80413000  0.82023000  1.0
  O  O63  1  0.41639000  0.30413000  0.67976000  1.0
