# generated using pymatgen
data_CuH8C8N8(ClO2)2
_symmetry_space_group_name_H-M   'P 1'
_cell_length_a   3.87380000
_cell_length_b   10.14130000
_cell_length_c   17.34110000
_cell_angle_alpha   89.99990000
_cell_angle_beta   89.99990000
_cell_angle_gamma   90.52590000
_symmetry_Int_Tables_number   1
_chemical_formula_structural   CuH8C8N8(ClO2)2
_chemical_formula_sum   'Cu2 H16 C16 N16 Cl4 O8'
_cell_volume   681.22279705
_cell_formula_units_Z   2
loop_
 _symmetry_equiv_pos_site_id
 _symmetry_equiv_pos_as_xyz
  1  'x, y, z'
loop_
 _atom_site_type_symbol
 _atom_site_label
 _atom_site_symmetry_multiplicity
 _atom_site_fract_x
 _atom_site_fract_y
 _atom_site_fract_z
 _atom_site_occupancy
  Cu  Cu0  1  0.00000000  0.00000000  0.50000000  1.0
  Cu  Cu1  1  0.50000000  0.50000000  0.00000000  1.0
  H  H2  1  0.62003000  0.53820000  0.31659000  1.0
  H  H3  1  0.87997000  0.96180000  0.81659000  1.0
  H  H4  1  0.37997000  0.46180000  0.68341000  1.0
  H  H5  1  0.12003000  0.03820000  0.18341000  1.0
  H  H6  1  0.87105000  0.95252000  0.34105000  1.0
  H  H7  1  0.62896000  0.54748000  0.84105000  1.0
  H  H8  1  0.12895000  0.04748000  0.65895000  1.0
  H  H9  1  0.37105000  0.45252000  0.15895000  1.0
  H  H10  1  0.11025000  0.58042000  0.54934000  1.0
  H  H11  1  0.38975000  0.91958000  0.04934000  1.0
  H  H12  1  0.88975000  0.41958000  0.45066000  1.0
  H  H13  1  0.61025000  0.08042000  0.95066000  1.0
  H  H14  1  0.20244000  0.75121000  0.56312000  1.0
  H  H15  1  0.29756000  0.74879000  0.06312000  1.0
  H  H16  1  0.79756000  0.24879000  0.43688000  1.0
  H  H17  1  0.70244000  0.25121000  0.93688000  1.0
  C  C18  1  0.97404000  0.70277000  0.46101000  1.0
  C  C19  1  0.52597000  0.79723000  0.96101000  1.0
  C  C20  1  0.02597000  0.29724000  0.53899000  1.0
  C  C21  1  0.47404000  0.20276000  0.03899000  1.0
  C  C22  1  0.72467000  0.62162000  0.34907000  1.0
  C  C23  1  0.77533000  0.87838000  0.84907000  1.0
  C  C24  1  0.27533000  0.37838000  0.65093000  1.0
  C  C25  1  0.22467000  0.12162000  0.15093000  1.0
  C  C26  1  0.73034000  0.74918000  0.31781000  1.0
  C  C27  1  0.76967000  0.75082000  0.81781000  1.0
  C  C28  1  0.26966000  0.25083000  0.68219000  1.0
  C  C29  1  0.23033000  0.24917000  0.18219000  1.0
  C  C30  1  0.86075000  0.85186000  0.36276000  1.0
  C  C31  1  0.63926000  0.64814000  0.86276000  1.0
  C  C32  1  0.13926000  0.14814000  0.63724000  1.0
  C  C33  1  0.36074000  0.35186000  0.13724000  1.0
  N  N34  1  0.96668000  0.83103000  0.43483000  1.0
  N  N35  1  0.53332000  0.66897000  0.93483000  1.0
  N  N36  1  0.03331000  0.16897000  0.56517000  1.0
  N  N37  1  0.46668000  0.33103000  0.06517000  1.0
  N  N38  1  0.85259000  0.59843000  0.41840000  1.0
  N  N39  1  0.64741000  0.90157000  0.91840000  1.0
  N  N40  1  0.14741000  0.40157000  0.58160000  1.0
  N  N41  1  0.35259000  0.09843000  0.08160000  1.0
  N  N42  1  0.10473000  0.67680000  0.52960000  1.0
  N  N43  1  0.39527000  0.82320000  0.02960000  1.0
  N  N44  1  0.89527000  0.32320000  0.47040000  1.0
  N  N45  1  0.60473000  0.17680000  0.97040000  1.0
  N  N46  1  0.59058000  0.77651000  0.24276000  1.0
  N  N47  1  0.90942000  0.72349000  0.74276000  1.0
  N  N48  1  0.40942000  0.22349000  0.75724000  1.0
  N  N49  1  0.09059000  0.27651000  0.25724000  1.0
  Cl  Cl50  1  0.61116000  0.91550000  0.58508000  1.0
  Cl  Cl51  1  0.88884000  0.58450000  0.08508000  1.0
  Cl  Cl52  1  0.38884000  0.08450000  0.41492000  1.0
  Cl  Cl53  1  0.11116000  0.41550000  0.91492000  1.0
  O  O54  1  0.39085000  0.69318000  0.21416000  1.0
  O  O55  1  0.10915000  0.80682000  0.71416000  1.0
  O  O56  1  0.60915000  0.30682000  0.78584000  1.0
  O  O57  1  0.89086000  0.19318000  0.28584000  1.0
  O  O58  1  0.67056000  0.88314000  0.21122000  1.0
  O  O59  1  0.82944000  0.61686000  0.71122000  1.0
  O  O60  1  0.32943000  0.11686000  0.78878000  1.0
  O  O61  1  0.17056000  0.38314000  0.28878000  1.0
