# generated using pymatgen
data_ZnH24C22(N3O)2
_symmetry_space_group_name_H-M   'P 1'
_cell_length_a   7.49865000
_cell_length_b   7.73809000
_cell_length_c   9.98246000
_cell_angle_alpha   74.33350000
_cell_angle_beta   79.21750000
_cell_angle_gamma   75.69370000
_symmetry_Int_Tables_number   1
_chemical_formula_structural   ZnH24C22(N3O)2
_chemical_formula_sum   'Zn1 H24 C22 N6 O2'
_cell_volume   535.90501513
_cell_formula_units_Z   1
loop_
 _symmetry_equiv_pos_site_id
 _symmetry_equiv_pos_as_xyz
  1  'x, y, z'
loop_
 _atom_site_type_symbol
 _atom_site_label
 _atom_site_symmetry_multiplicity
 _atom_site_fract_x
 _atom_site_fract_y
 _atom_site_fract_z
 _atom_site_occupancy
  Zn  Zn0  1  0.50000000  0.50000000  0.00000000  1.0
  H  H1  1  0.31342000  0.57313000  0.25360000  1.0
  H  H2  1  0.68658000  0.42687000  0.74640000  1.0
  H  H3  1  0.50699000  0.86473000  0.13350000  1.0
  H  H4  1  0.49301000  0.13527000  0.86650000  1.0
  H  H5  1  0.29443000  0.85957000  0.24987000  1.0
  H  H6  1  0.70558000  0.14042000  0.75013000  1.0
  H  H7  1  0.29853000  0.87826000  0.06627000  1.0
  H  H8  1  0.70147000  0.12174000  0.93373000  1.0
  H  H9  1  0.29990000  0.07751000  0.37784000  1.0
  H  H10  1  0.70011000  0.92249000  0.62216000  1.0
  H  H11  1  0.71586000  0.11741000  0.38219000  1.0
  H  H12  1  0.28413000  0.88259000  0.61781000  1.0
  H  H13  1  0.46634000  0.35555000  0.43223000  1.0
  H  H14  1  0.53367000  0.64445000  0.56777000  1.0
  H  H15  1  0.39032000  0.18104000  0.57337000  1.0
  H  H16  1  0.60968000  0.81896000  0.42663000  1.0
  H  H17  1  0.42842000  0.37864000  0.60931000  1.0
  H  H18  1  0.57157000  0.62137000  0.39069000  1.0
  H  H19  1  0.87091000  0.85543000  0.22546000  1.0
  H  H20  1  0.12909000  0.14457000  0.77454000  1.0
  H  H21  1  0.80660000  0.66487000  0.19574000  1.0
  H  H22  1  0.19340000  0.33513000  0.80426000  1.0
  H  H23  1  0.04107000  0.69164000  0.14904000  1.0
  H  H24  1  0.95893000  0.30836000  0.85096000  1.0
  C  C25  1  0.86341000  0.27989000  0.14704000  1.0
  C  C26  1  0.13659000  0.72012000  0.85295000  1.0
  C  C27  1  0.00914000  0.11237000  0.36104000  1.0
  C  C28  1  0.99086000  0.88762000  0.63897000  1.0
  C  C29  1  0.18279000  0.27419000  0.14577000  1.0
  C  C30  1  0.81722000  0.72581000  0.85423000  1.0
  C  C31  1  0.37626000  0.81667000  0.15674000  1.0
  C  C32  1  0.62374000  0.18334000  0.84326000  1.0
  C  C33  1  0.16757000  0.04393000  0.43110000  1.0
  C  C34  1  0.83241000  0.95606000  0.56890000  1.0
  C  C35  1  0.01883000  0.22454000  0.21684000  1.0
  C  C36  1  0.98116000  0.77547000  0.78316000  1.0
  C  C37  1  0.84129000  0.06605000  0.43351000  1.0
  C  C38  1  0.15872000  0.93395000  0.56649000  1.0
  C  C39  1  0.96152000  0.59965000  0.37001000  1.0
  C  C40  1  0.03848000  0.40035000  0.62999000  1.0
  C  C41  1  0.37747000  0.33000000  0.53273000  1.0
  C  C42  1  0.62254000  0.67000000  0.46727000  1.0
  C  C43  1  0.17992000  0.42102000  0.51561000  1.0
  C  C44  1  0.82008000  0.57899000  0.48439000  1.0
  C  C45  1  0.91840000  0.70837000  0.22707000  1.0
  C  C46  1  0.08159000  0.29163000  0.77292000  1.0
  N  N47  1  0.32558000  0.31069000  0.08852000  1.0
  N  N48  1  0.67441000  0.68931000  0.91149000  1.0
  N  N49  1  0.72812000  0.31948000  0.09233000  1.0
  N  N50  1  0.27190000  0.68052000  0.90767000  1.0
  N  N51  1  0.13900000  0.52094000  0.38817000  1.0
  N  N52  1  0.86100000  0.47906000  0.61183000  1.0
  O  O53  1  0.41790000  0.61953000  0.18336000  1.0
  O  O54  1  0.58211000  0.38047000  0.81664000  1.0
