# generated using pymatgen
data_ZnH6C6(NO3)2
_symmetry_space_group_name_H-M   'P 1'
_cell_length_a   6.92861000
_cell_length_b   7.45713000
_cell_length_c   9.58119000
_cell_angle_alpha   70.53340000
_cell_angle_beta   68.89170000
_cell_angle_gamma   62.39370000
_symmetry_Int_Tables_number   1
_chemical_formula_structural   ZnH6C6(NO3)2
_chemical_formula_sum   'Zn2 H12 C12 N4 O12'
_cell_volume   400.86986027
_cell_formula_units_Z   2
loop_
 _symmetry_equiv_pos_site_id
 _symmetry_equiv_pos_as_xyz
  1  'x, y, z'
loop_
 _atom_site_type_symbol
 _atom_site_label
 _atom_site_symmetry_multiplicity
 _atom_site_fract_x
 _atom_site_fract_y
 _atom_site_fract_z
 _atom_site_occupancy
  Zn  Zn0  1  0.08176000  0.24989000  0.75013000  1.0
  Zn  Zn1  1  0.91824000  0.75011000  0.24987000  1.0
  H  H2  1  0.63469000  0.57098000  0.67476000  1.0
  H  H3  1  0.12000000  0.07152000  0.17470000  1.0
  H  H4  1  0.36531000  0.42902000  0.32524000  1.0
  H  H5  1  0.88001000  0.92848000  0.82529000  1.0
  H  H6  1  0.24193000  0.02032000  0.54830000  1.0
  H  H7  1  0.18898000  0.52020000  0.04838000  1.0
  H  H8  1  0.75807000  0.97967000  0.45170000  1.0
  H  H9  1  0.81102000  0.47980000  0.95161000  1.0
  H  H10  1  0.11370000  0.25088000  0.46582000  1.0
  H  H11  1  0.16918000  0.75075000  0.96587000  1.0
  H  H12  1  0.88631000  0.74911000  0.53418000  1.0
  H  H13  1  0.83082000  0.24925000  0.03413000  1.0
  C  C14  1  0.40968000  0.42654000  0.70270000  1.0
  C  C15  1  0.46134000  0.92690000  0.20245000  1.0
  C  C16  1  0.59031000  0.57347000  0.29730000  1.0
  C  C17  1  0.53866000  0.07310000  0.79755000  1.0
  C  C18  1  0.22179000  0.61104000  0.63990000  1.0
  C  C19  1  0.52781000  0.11140000  0.13970000  1.0
  C  C20  1  0.77822000  0.38895000  0.36011000  1.0
  C  C21  1  0.47219000  0.88859000  0.86030000  1.0
  C  C22  1  0.60814000  0.42792000  0.70757000  1.0
  C  C23  1  0.25648000  0.92841000  0.20746000  1.0
  C  C24  1  0.39186000  0.57209000  0.29243000  1.0
  C  C25  1  0.74352000  0.07159000  0.79254000  1.0
  N  N26  1  0.38048000  0.24985000  0.75016000  1.0
  N  N27  1  0.61951000  0.75016000  0.24984000  1.0
  N  N28  1  0.77385000  0.24972000  0.75006000  1.0
  N  N29  1  0.22614000  0.75028000  0.24994000  1.0
  O  O30  1  0.24461000  0.77899000  0.58488000  1.0
  O  O31  1  0.39222000  0.27950000  0.08489000  1.0
  O  O32  1  0.75539000  0.22101000  0.41513000  1.0
  O  O33  1  0.60778000  0.72050000  0.91511000  1.0
  O  O34  1  0.05653000  0.57293000  0.64379000  1.0
  O  O35  1  0.72731000  0.07308000  0.14348000  1.0
  O  O36  1  0.94347000  0.42708000  0.35621000  1.0
  O  O37  1  0.27269000  0.92692000  0.85652000  1.0
  O  O38  1  0.22035000  0.16575000  0.53368000  1.0
  O  O39  1  0.07990000  0.66552000  0.03362000  1.0
  O  O40  1  0.77966000  0.83425000  0.46632000  1.0
  O  O41  1  0.92010000  0.33448000  0.96638000  1.0
