# generated using pymatgen
data_CuH22C24N6Cl2O
_symmetry_space_group_name_H-M   'P 1'
_cell_length_a   6.74687000
_cell_length_b   12.45570000
_cell_length_c   14.84840000
_cell_angle_alpha   114.76900000
_cell_angle_beta   93.71310000
_cell_angle_gamma   90.05310000
_symmetry_Int_Tables_number   1
_chemical_formula_structural   CuH22C24N6Cl2O
_chemical_formula_sum   'Cu2 H44 C48 N12 Cl4 O2'
_cell_volume   1130.10058039
_cell_formula_units_Z   2
loop_
 _symmetry_equiv_pos_site_id
 _symmetry_equiv_pos_as_xyz
  1  'x, y, z'
loop_
 _atom_site_type_symbol
 _atom_site_label
 _atom_site_symmetry_multiplicity
 _atom_site_fract_x
 _atom_site_fract_y
 _atom_site_fract_z
 _atom_site_occupancy
  Cu  Cu0  1  0.00001000  0.00000000  0.50000000  1.0
  Cu  Cu1  1  0.50001000  0.50000000  0.50000000  1.0
  H  H2  1  0.16721000  0.16264000  0.45600000  1.0
  H  H3  1  0.33264000  0.70657000  0.54401000  1.0
  H  H4  1  0.83279000  0.83736000  0.54400000  1.0
  H  H5  1  0.66736000  0.29343000  0.45599000  1.0
  H  H6  1  0.32552000  0.05823000  0.45357000  1.0
  H  H7  1  0.17423000  0.60442000  0.54626000  1.0
  H  H8  1  0.67449000  0.94177000  0.54642000  1.0
  H  H9  1  0.82578000  0.39558000  0.45373000  1.0
  H  H10  1  0.26463000  0.01368000  0.67181000  1.0
  H  H11  1  0.23596000  0.34143000  0.32824000  1.0
  H  H12  1  0.73538000  0.98632000  0.32820000  1.0
  H  H13  1  0.76405000  0.65858000  0.67176000  1.0
  H  H14  1  0.34383000  0.87205000  0.30422000  1.0
  H  H15  1  0.15575000  0.56722000  0.69566000  1.0
  H  H16  1  0.65617000  0.12795000  0.69578000  1.0
  H  H17  1  0.84425000  0.43279000  0.30434000  1.0
  H  H18  1  0.04386000  0.41973000  0.76354000  1.0
  H  H19  1  0.45540000  0.65640000  0.23651000  1.0
  H  H20  1  0.95614000  0.58027000  0.23646000  1.0
  H  H21  1  0.54459000  0.34360000  0.76349000  1.0
  H  H22  1  0.99106000  0.16446000  0.31681000  1.0
  H  H23  1  0.50821000  0.84760000  0.68320000  1.0
  H  H24  1  0.00895000  0.83554000  0.68320000  1.0
  H  H25  1  0.49180000  0.15240000  0.31680000  1.0
  H  H26  1  0.93895000  0.07415000  0.13254000  1.0
  H  H27  1  0.56056000  0.94117000  0.86744000  1.0
  H  H28  1  0.06105000  0.92585000  0.86746000  1.0
  H  H29  1  0.43945000  0.05883000  0.13256000  1.0
  H  H30  1  0.96984000  0.25745000  0.59421000  1.0
  H  H31  1  0.52980000  0.66328000  0.40580000  1.0
  H  H32  1  0.03016000  0.74254000  0.40579000  1.0
  H  H33  1  0.47020000  0.33673000  0.59419000  1.0
  H  H34  1  0.32763000  0.16184000  0.84942000  1.0
  H  H35  1  0.17236000  0.31221000  0.15066000  1.0
  H  H36  1  0.67237000  0.83816000  0.15059000  1.0
  H  H37  1  0.82762000  0.68779000  0.84934000  1.0
  H  H38  1  0.08666000  0.87967000  0.03254000  1.0
  H  H39  1  0.41320000  0.84623000  0.96738000  1.0
  H  H40  1  0.91333000  0.12033000  0.96746000  1.0
  H  H41  1  0.58680000  0.15377000  0.03262000  1.0
  H  H42  1  0.28979000  0.77883000  0.11888000  1.0
  H  H43  1  0.20994000  0.65900000  0.88100000  1.0
  H  H44  1  0.71020000  0.22117000  0.88111000  1.0
  H  H45  1  0.79005000  0.34100000  0.11900000  1.0
  C  C46  1  0.17064000  0.02365000  0.32122000  1.0
  C  C47  1  0.32885000  0.70207000  0.67872000  1.0
  C  C48  1  0.82936000  0.97635000  0.67878000  1.0
  C  C49  1  0.67115000  0.29794000  0.32128000  1.0
  C  C50  1  0.21216000  0.10378000  0.69768000  1.0
  C  C51  1  0.28786000  0.40586000  0.30239000  1.0
  C  C52  1  0.78786000  0.89622000  0.30232000  1.0
  C  C53  1  0.71214000  0.59414000  0.69761000  1.0
  C  C54  1  0.25796000  0.91582000  0.26515000  1.0
  C  C55  1  0.24161000  0.65007000  0.73473000  1.0
  C  C56  1  0.74205000  0.08418000  0.73484000  1.0
  C  C57  1  0.75839000  0.34993000  0.26527000  1.0
  C  C58  1  0.09048000  0.33034000  0.74710000  1.0
  C  C59  1  0.40887000  0.58339000  0.25298000  1.0
  C  C60  1  0.90952000  0.66965000  0.25290000  1.0
  C  C61  1  0.59112000  0.41661000  0.74702000  1.0
  C  C62  1  0.18517000  0.30244000  0.82096000  1.0
  C  C63  1  0.31424000  0.48157000  0.17917000  1.0
  C  C64  1  0.81483000  0.69756000  0.17904000  1.0
  C  C65  1  0.68575000  0.51843000  0.82083000  1.0
  C  C66  1  0.05726000  0.08058000  0.27254000  1.0
  C  C67  1  0.44209000  0.80779000  0.72745000  1.0
  C  C68  1  0.94274000  0.91942000  0.72746000  1.0
  C  C69  1  0.55792000  0.19221000  0.27255000  1.0
  C  C70  1  0.21888000  0.39424000  0.92097000  1.0
  C  C71  1  0.28057000  0.47335000  0.07912000  1.0
  C  C72  1  0.78111000  0.60576000  0.07903000  1.0
  C  C73  1  0.71942000  0.52665000  0.92088000  1.0
  C  C74  1  0.02907000  0.02934000  0.16910000  1.0
  C  C75  1  0.47044000  0.85977000  0.83087000  1.0
  C  C76  1  0.97093000  0.97066000  0.83090000  1.0
  C  C77  1  0.52956000  0.14023000  0.16913000  1.0
  C  C78  1  0.05155000  0.24108000  0.65253000  1.0
  C  C79  1  0.44802000  0.58855000  0.34750000  1.0
  C  C80  1  0.94846000  0.75891000  0.34746000  1.0
  C  C81  1  0.55198000  0.41145000  0.65250000  1.0
  C  C82  1  0.24907000  0.18696000  0.79523000  1.0
  C  C83  1  0.25060000  0.39164000  0.20489000  1.0
  C  C84  1  0.75094000  0.81304000  0.20477000  1.0
  C  C85  1  0.74940000  0.60836000  0.79511000  1.0
  C  C86  1  0.11198000  0.92075000  0.11330000  1.0
  C  C87  1  0.38768000  0.80671000  0.88663000  1.0
  C  C88  1  0.88802000  0.07925000  0.88670000  1.0
  C  C89  1  0.61233000  0.19328000  0.11337000  1.0
  C  C90  1  0.22757000  0.86472000  0.16174000  1.0
  C  C91  1  0.27202000  0.70221000  0.83815000  1.0
  C  C92  1  0.77243000  0.13528000  0.83826000  1.0
  C  C93  1  0.72798000  0.29779000  0.16184000  1.0
  N  N94  1  0.18762000  0.07214000  0.42641000  1.0
  N  N95  1  0.31208000  0.64556000  0.57353000  1.0
  N  N96  1  0.81238000  0.92786000  0.57358000  1.0
  N  N97  1  0.68792000  0.35444000  0.42647000  1.0
  N  N98  1  0.22890000  0.50912000  0.94901000  1.0
  N  N99  1  0.27041000  0.56016000  0.05103000  1.0
  N  N100  1  0.77109000  0.49088000  0.05099000  1.0
  N  N101  1  0.72958000  0.43983000  0.94898000  1.0
  N  N102  1  0.10945000  0.12952000  0.62860000  1.0
  N  N103  1  0.39049000  0.50077000  0.37141000  1.0
  N  N104  1  0.89056000  0.87048000  0.37140000  1.0
  N  N105  1  0.60951000  0.49923000  0.62859000  1.0
  Cl  Cl106  1  0.34065000  0.86579000  0.50450000  1.0
  Cl  Cl107  1  0.15942000  0.36124000  0.49560000  1.0
  Cl  Cl108  1  0.65935000  0.13421000  0.49550000  1.0
  Cl  Cl109  1  0.84057000  0.63876000  0.50440000  1.0
  O  O110  1  0.24983000  0.36516000  0.00008000  1.0
  O  O111  1  0.75016000  0.63484000  0.99992000  1.0
