# generated using pymatgen
data_Cu2H5C6I2N5
_symmetry_space_group_name_H-M   'P 1'
_cell_length_a   4.11491000
_cell_length_b   9.54403000
_cell_length_c   13.57910000
_cell_angle_alpha   88.57980000
_cell_angle_beta   83.05740000
_cell_angle_gamma   77.63000000
_symmetry_Int_Tables_number   1
_chemical_formula_structural   Cu2H5C6I2N5
_chemical_formula_sum   'Cu4 H10 C12 I4 N10'
_cell_volume   517.08929151
_cell_formula_units_Z   2
loop_
 _symmetry_equiv_pos_site_id
 _symmetry_equiv_pos_as_xyz
  1  'x, y, z'
loop_
 _atom_site_type_symbol
 _atom_site_label
 _atom_site_symmetry_multiplicity
 _atom_site_fract_x
 _atom_site_fract_y
 _atom_site_fract_z
 _atom_site_occupancy
  Cu  Cu0  1  0.90874000  0.98531000  0.63776000  1.0
  Cu  Cu1  1  0.89497000  0.01480000  0.13802000  1.0
  Cu  Cu2  1  0.35784000  0.03385000  0.93555000  1.0
  Cu  Cu3  1  0.39019000  0.96595000  0.43541000  1.0
  H  H4  1  0.68807000  0.75947000  0.31157000  1.0
  H  H5  1  0.44951000  0.23998000  0.81158000  1.0
  H  H6  1  0.14915000  0.63728000  0.18613000  1.0
  H  H7  1  0.78945000  0.36237000  0.68647000  1.0
  H  H8  1  0.84788000  0.36868000  0.48615000  1.0
  H  H9  1  0.21469000  0.63173000  0.98600000  1.0
  H  H10  1  0.31350000  0.26401000  0.35515000  1.0
  H  H11  1  0.57666000  0.73652000  0.85539000  1.0
  H  H12  1  0.43798000  0.40069000  0.21439000  1.0
  H  H13  1  0.84008000  0.59943000  0.71482000  1.0
  C  C14  1  0.47546000  0.64039000  0.48883000  1.0
  C  C15  1  0.11596000  0.35948000  0.98868000  1.0
  C  C16  1  0.73338000  0.57464000  0.41107000  1.0
  C  C17  1  0.30820000  0.42530000  0.91098000  1.0
  C  C18  1  0.81903000  0.64993000  0.32453000  1.0
  C  C19  1  0.47001000  0.34982000  0.82452000  1.0
  C  C20  1  0.07261000  0.58394000  0.25405000  1.0
  C  C21  1  0.65873000  0.41580000  0.75434000  1.0
  C  C22  1  0.90698000  0.43203000  0.42137000  1.0
  C  C23  1  0.33855000  0.56815000  0.92139000  1.0
  C  C24  1  0.16221000  0.37195000  0.34943000  1.0
  C  C25  1  0.53369000  0.62841000  0.84955000  1.0
  I  I26  1  0.92681000  0.95838000  0.83007000  1.0
  I  I27  1  0.88427000  0.04182000  0.33028000  1.0
  I  I28  1  0.36353000  0.14465000  0.59093000  1.0
  I  I29  1  0.50783000  0.85545000  0.09091000  1.0
  N  N30  1  0.34190000  0.78274000  0.49969000  1.0
  N  N31  1  0.12584000  0.21705000  0.99986000  1.0
  N  N32  1  0.11732000  0.79385000  0.58116000  1.0
  N  N33  1  0.91181000  0.20602000  0.08117000  1.0
  N  N34  1  0.11491000  0.66272000  0.61784000  1.0
  N  N35  1  0.77661000  0.33731000  0.11747000  1.0
  N  N36  1  0.33669000  0.56576000  0.56223000  1.0
  N  N37  1  0.90106000  0.43428000  0.06175000  1.0
  N  N38  1  0.24073000  0.44838000  0.26829000  1.0
  N  N39  1  0.69026000  0.55167000  0.76860000  1.0
