# generated using pymatgen
data_Ni3H26C30(N6O7)2
_symmetry_space_group_name_H-M   'P 1'
_cell_length_a   13.61100000
_cell_length_b   13.77070000
_cell_length_c   17.71010000
_cell_angle_alpha   110.41300000
_cell_angle_beta   90.00000000
_cell_angle_gamma   90.00000000
_symmetry_Int_Tables_number   1
_chemical_formula_structural   Ni3H26C30(N6O7)2
_chemical_formula_sum   'Ni6 H52 C60 N24 O28'
_cell_volume   3111.00477431
_cell_formula_units_Z   2
loop_
 _symmetry_equiv_pos_site_id
 _symmetry_equiv_pos_as_xyz
  1  'x, y, z'
loop_
 _atom_site_type_symbol
 _atom_site_label
 _atom_site_symmetry_multiplicity
 _atom_site_fract_x
 _atom_site_fract_y
 _atom_site_fract_z
 _atom_site_occupancy
  Ni  Ni0  1  0.01350000  0.73926000  0.92568000  1.0
  Ni  Ni1  1  0.51350000  0.26074000  0.57432000  1.0
  Ni  Ni2  1  0.98650000  0.26074000  0.07432000  1.0
  Ni  Ni3  1  0.48650000  0.73926000  0.42568000  1.0
  Ni  Ni4  1  0.00000000  0.00000000  0.00000000  1.0
  Ni  Ni5  1  0.50000000  0.00000000  0.50000000  1.0
  H  H6  1  0.13784000  0.86247000  0.01220000  1.0
  H  H7  1  0.13538000  0.86560000  0.91286000  1.0
  H  H8  1  0.88379000  0.69045000  0.06926000  1.0
  H  H9  1  0.85740000  0.02003000  0.16498000  1.0
  H  H10  1  0.82632000  0.90853000  0.26527000  1.0
  H  H11  1  0.81594000  0.77206000  0.21810000  1.0
  H  H12  1  0.66087000  0.79422000  0.14929000  1.0
  H  H13  1  0.67472000  0.93116000  0.18895000  1.0
  H  H14  1  0.63842000  0.02836000  0.34685000  1.0
  H  H15  1  0.60347000  0.70010000  0.25063000  1.0
  H  H16  1  0.10079000  0.53725000  0.05041000  1.0
  H  H17  1  0.28048000  0.53004000  0.24832000  1.0
  H  H18  1  0.26404000  0.80775000  0.18911000  1.0
  H  H19  1  0.63784000  0.13752000  0.48780000  1.0
  H  H20  1  0.63539000  0.13440000  0.58714000  1.0
  H  H21  1  0.38379000  0.30955000  0.43074000  1.0
  H  H22  1  0.35740000  0.97997000  0.33502000  1.0
  H  H23  1  0.32632000  0.09147000  0.23473000  1.0
  H  H24  1  0.31594000  0.22794000  0.28189000  1.0
  H  H25  1  0.16087000  0.20578000  0.35071000  1.0
  H  H26  1  0.17472000  0.06884000  0.31105000  1.0
  H  H27  1  0.13842000  0.97164000  0.15315000  1.0
  H  H28  1  0.10347000  0.29990000  0.24937000  1.0
  H  H29  1  0.60079000  0.46275000  0.44958000  1.0
  H  H30  1  0.78048000  0.46996000  0.25168000  1.0
  H  H31  1  0.76404000  0.19225000  0.31089000  1.0
  H  H32  1  0.86216000  0.13752000  0.98780000  1.0
  H  H33  1  0.86461000  0.13440000  0.08714000  1.0
  H  H34  1  0.11621000  0.30955000  0.93075000  1.0
  H  H35  1  0.14260000  0.97997000  0.83502000  1.0
  H  H36  1  0.17368000  0.09148000  0.73473000  1.0
  H  H37  1  0.18406000  0.22794000  0.78190000  1.0
  H  H38  1  0.33913000  0.20578000  0.85071000  1.0
  H  H39  1  0.32528000  0.06884000  0.81105000  1.0
  H  H40  1  0.36158000  0.97164000  0.65315000  1.0
  H  H41  1  0.39653000  0.29990000  0.74937000  1.0
  H  H42  1  0.89921000  0.46275000  0.94959000  1.0
  H  H43  1  0.71952000  0.46996000  0.75168000  1.0
  H  H44  1  0.73596000  0.19225000  0.81089000  1.0
  H  H45  1  0.36216000  0.86247000  0.51220000  1.0
  H  H46  1  0.36462000  0.86560000  0.41286000  1.0
  H  H47  1  0.61620000  0.69045000  0.56926000  1.0
  H  H48  1  0.64260000  0.02003000  0.66498000  1.0
  H  H49  1  0.67368000  0.90853000  0.76527000  1.0
  H  H50  1  0.68406000  0.77206000  0.71810000  1.0
  H  H51  1  0.83913000  0.79422000  0.64929000  1.0
  H  H52  1  0.82528000  0.93116000  0.68895000  1.0
  H  H53  1  0.86158000  0.02836000  0.84685000  1.0
  H  H54  1  0.89653000  0.70010000  0.75063000  1.0
  H  H55  1  0.39921000  0.53725000  0.55042000  1.0
  H  H56  1  0.21952000  0.53004000  0.74832000  1.0
  H  H57  1  0.23596000  0.80775000  0.68911000  1.0
  C  C58  1  0.88825000  0.77204000  0.07693000  1.0
  C  C59  1  0.87595000  0.94095000  0.12673000  1.0
  C  C60  1  0.79985000  0.84661000  0.21114000  1.0
  C  C61  1  0.68901000  0.85915000  0.20057000  1.0
  C  C62  1  0.61684000  0.94892000  0.33877000  1.0
  C  C63  1  0.59808000  0.78049000  0.28930000  1.0
  C  C64  1  0.18298000  0.67649000  0.11166000  1.0
  C  C65  1  0.15226000  0.57484000  0.09890000  1.0
  C  C66  1  0.18649000  0.52228000  0.14850000  1.0
  C  C67  1  0.25216000  0.57176000  0.21083000  1.0
  C  C68  1  0.27840000  0.67536000  0.22704000  1.0
  C  C69  1  0.24375000  0.72733000  0.17720000  1.0
  C  C70  1  0.14842000  0.73142000  0.05705000  1.0
  C  C71  1  0.15104000  0.41414000  0.13853000  1.0
  C  C72  1  0.33886000  0.73193000  0.29975000  1.0
  C  C73  1  0.38825000  0.22796000  0.42307000  1.0
  C  C74  1  0.37595000  0.05905000  0.37327000  1.0
  C  C75  1  0.29985000  0.15339000  0.28886000  1.0
  C  C76  1  0.18901000  0.14085000  0.29943000  1.0
  C  C77  1  0.11683000  0.05108000  0.16123000  1.0
  C  C78  1  0.09808000  0.21951000  0.21070000  1.0
  C  C79  1  0.68298000  0.32352000  0.38834000  1.0
  C  C80  1  0.65226000  0.42516000  0.40110000  1.0
  C  C81  1  0.68649000  0.47772000  0.35149000  1.0
  C  C82  1  0.75217000  0.42824000  0.28916000  1.0
  C  C83  1  0.77839000  0.32464000  0.27296000  1.0
  C  C84  1  0.74375000  0.27267000  0.32280000  1.0
  C  C85  1  0.64842000  0.26858000  0.44295000  1.0
  C  C86  1  0.65103000  0.58586000  0.36147000  1.0
  C  C87  1  0.83886000  0.26807000  0.20025000  1.0
  C  C88  1  0.11175000  0.22796000  0.92307000  1.0
  C  C89  1  0.12405000  0.05905000  0.87327000  1.0
  C  C90  1  0.20015000  0.15339000  0.78886000  1.0
  C  C91  1  0.31099000  0.14085000  0.79943000  1.0
  C  C92  1  0.38317000  0.05108000  0.66123000  1.0
  C  C93  1  0.40192000  0.21951000  0.71070000  1.0
  C  C94  1  0.81702000  0.32352000  0.88834000  1.0
  C  C95  1  0.84774000  0.42516000  0.90110000  1.0
  C  C96  1  0.81351000  0.47772000  0.85150000  1.0
  C  C97  1  0.74784000  0.42823000  0.78916000  1.0
  C  C98  1  0.72161000  0.32464000  0.77296000  1.0
  C  C99  1  0.75625000  0.27267000  0.82280000  1.0
  C  C100  1  0.85158000  0.26858000  0.94295000  1.0
  C  C101  1  0.84896000  0.58586000  0.86147000  1.0
  C  C102  1  0.66114000  0.26807000  0.70025000  1.0
  C  C103  1  0.61175000  0.77204000  0.57693000  1.0
  C  C104  1  0.62405000  0.94095000  0.62673000  1.0
  C  C105  1  0.70015000  0.84661000  0.71114000  1.0
  C  C106  1  0.81098000  0.85915000  0.70057000  1.0
  C  C107  1  0.88317000  0.94892000  0.83877000  1.0
  C  C108  1  0.90192000  0.78049000  0.78931000  1.0
  C  C109  1  0.31702000  0.67649000  0.61166000  1.0
  C  C110  1  0.34774000  0.57484000  0.59890000  1.0
  C  C111  1  0.31351000  0.52228000  0.64850000  1.0
  C  C112  1  0.24784000  0.57176000  0.71083000  1.0
  C  C113  1  0.22161000  0.67536000  0.72704000  1.0
  C  C114  1  0.25625000  0.72733000  0.67720000  1.0
  C  C115  1  0.35158000  0.73142000  0.55705000  1.0
  C  C116  1  0.34896000  0.41415000  0.63854000  1.0
  C  C117  1  0.16114000  0.73193000  0.79975000  1.0
  N  N118  1  0.93010000  0.80968000  0.02598000  1.0
  N  N119  1  0.92274000  0.91551000  0.05721000  1.0
  N  N120  1  0.85360000  0.85246000  0.14166000  1.0
  N  N121  1  0.63512000  0.86289000  0.27237000  1.0
  N  N122  1  0.56958000  0.91979000  0.39239000  1.0
  N  N123  1  0.55829000  0.81425000  0.36143000  1.0
  N  N124  1  0.43010000  0.19032000  0.47402000  1.0
  N  N125  1  0.42274000  0.08449000  0.44279000  1.0
  N  N126  1  0.35360000  0.14754000  0.35834000  1.0
  N  N127  1  0.13512000  0.13711000  0.22763000  1.0
  N  N128  1  0.06958000  0.08021000  0.10761000  1.0
  N  N129  1  0.05829000  0.18575000  0.13857000  1.0
  N  N130  1  0.06990000  0.19032000  0.97402000  1.0
  N  N131  1  0.07726000  0.08449000  0.94279000  1.0
  N  N132  1  0.14640000  0.14754000  0.85835000  1.0
  N  N133  1  0.36488000  0.13711000  0.72763000  1.0
  N  N134  1  0.43042000  0.08021000  0.60761000  1.0
  N  N135  1  0.44171000  0.18575000  0.63857000  1.0
  N  N136  1  0.56990000  0.80968000  0.52598000  1.0
  N  N137  1  0.57726000  0.91551000  0.55721000  1.0
  N  N138  1  0.64640000  0.85246000  0.64166000  1.0
  N  N139  1  0.86488000  0.86289000  0.77237000  1.0
  N  N140  1  0.93042000  0.91979000  0.89239000  1.0
  N  N141  1  0.94171000  0.81425000  0.86143000  1.0
  O  O142  1  0.09886000  0.88089000  0.96750000  1.0
  O  O143  1  0.09770000  0.67951000  0.99621000  1.0
  O  O144  1  0.17166000  0.82778000  0.07577000  1.0
  O  O145  1  0.06953000  0.38921000  0.09908000  1.0
  O  O146  1  0.20069000  0.36080000  0.16943000  1.0
  O  O147  1  0.39217000  0.67822000  0.32928000  1.0
  O  O148  1  0.33076000  0.83137000  0.32835000  1.0
  O  O149  1  0.59886000  0.11911000  0.53250000  1.0
  O  O150  1  0.59770000  0.32049000  0.50379000  1.0
  O  O151  1  0.67166000  0.17222000  0.42423000  1.0
  O  O152  1  0.56952000  0.61079000  0.40092000  1.0
  O  O153  1  0.70069000  0.63920000  0.33056000  1.0
  O  O154  1  0.89217000  0.32178000  0.17072000  1.0
  O  O155  1  0.83076000  0.16863000  0.17165000  1.0
  O  O156  1  0.90114000  0.11911000  0.03249000  1.0
  O  O157  1  0.90229000  0.32049000  0.00379000  1.0
  O  O158  1  0.82834000  0.17222000  0.92423000  1.0
  O  O159  1  0.93047000  0.61079000  0.90092000  1.0
  O  O160  1  0.79931000  0.63920000  0.83057000  1.0
  O  O161  1  0.60783000  0.32178000  0.67072000  1.0
  O  O162  1  0.66924000  0.16863000  0.67165000  1.0
  O  O163  1  0.40114000  0.88089000  0.46751000  1.0
  O  O164  1  0.40230000  0.67951000  0.49621000  1.0
  O  O165  1  0.32834000  0.82778000  0.57577000  1.0
  O  O166  1  0.43047000  0.38921000  0.59908000  1.0
  O  O167  1  0.29931000  0.36080000  0.66944000  1.0
  O  O168  1  0.10783000  0.67822000  0.82928000  1.0
  O  O169  1  0.16924000  0.83137000  0.82835000  1.0
