# generated using pymatgen
data_MnP2H23C29Br2NO2
_symmetry_space_group_name_H-M   'P 1'
_cell_length_a   10.39140000
_cell_length_b   12.35170000
_cell_length_c   12.49790000
_cell_angle_alpha   85.41190000
_cell_angle_beta   68.46380000
_cell_angle_gamma   82.49470000
_symmetry_Int_Tables_number   1
_chemical_formula_structural   MnP2H23C29Br2NO2
_chemical_formula_sum   'Mn2 P4 H46 C58 Br4 N2 O4'
_cell_volume   1478.45637792
_cell_formula_units_Z   2
loop_
 _symmetry_equiv_pos_site_id
 _symmetry_equiv_pos_as_xyz
  1  'x, y, z'
loop_
 _atom_site_type_symbol
 _atom_site_label
 _atom_site_symmetry_multiplicity
 _atom_site_fract_x
 _atom_site_fract_y
 _atom_site_fract_z
 _atom_site_occupancy
  Mn  Mn0  1  0.93586000  0.85935000  0.88736000  1.0
  Mn  Mn1  1  0.06414000  0.14065000  0.11265000  1.0
  P  P2  1  0.78628000  0.68477000  0.78344000  1.0
  P  P3  1  0.21372000  0.31523000  0.21656000  1.0
  P  P4  1  0.28632000  0.76983000  0.74884000  1.0
  P  P5  1  0.71367000  0.23017000  0.25116000  1.0
  H  H6  1  0.24899000  0.91506000  0.93547000  1.0
  H  H7  1  0.75101000  0.08494000  0.06453000  1.0
  H  H8  1  0.40383000  0.93658000  0.04291000  1.0
  H  H9  1  0.59617000  0.06341000  0.95709000  1.0
  H  H10  1  0.64437000  0.83268000  0.97993000  1.0
  H  H11  1  0.35563000  0.16731000  0.02007000  1.0
  H  H12  1  0.94502000  0.77411000  0.30215000  1.0
  H  H13  1  0.05498000  0.22589000  0.69785000  1.0
  H  H14  1  0.15525000  0.61949000  0.93160000  1.0
  H  H15  1  0.84475000  0.38051000  0.06840000  1.0
  H  H16  1  0.47761000  0.92153000  0.28161000  1.0
  H  H17  1  0.52239000  0.07847000  0.71839000  1.0
  H  H18  1  0.57457000  0.53881000  0.79441000  1.0
  H  H19  1  0.42544000  0.46119000  0.20559000  1.0
  H  H20  1  0.16973000  0.41610000  0.94785000  1.0
  H  H21  1  0.83028000  0.58390000  0.05215000  1.0
  H  H22  1  0.64950000  0.86803000  0.37709000  1.0
  H  H23  1  0.35050000  0.13197000  0.62291000  1.0
  H  H24  1  0.96891000  0.31840000  0.87473000  1.0
  H  H25  1  0.03109000  0.68160000  0.12527000  1.0
  H  H26  1  0.57296000  0.33835000  0.83216000  1.0
  H  H27  1  0.42704000  0.66165000  0.16784000  1.0
  H  H28  1  0.57067000  0.80016000  0.58101000  1.0
  H  H29  1  0.42932000  0.19984000  0.41899000  1.0
  H  H30  1  0.91903000  0.58176000  0.37809000  1.0
  H  H31  1  0.08097000  0.41824000  0.62191000  1.0
  H  H32  1  0.43335000  0.60130000  0.57751000  1.0
  H  H33  1  0.56664000  0.39870000  0.42249000  1.0
  H  H34  1  0.77266000  0.22817000  0.86911000  1.0
  H  H35  1  0.22734000  0.77183000  0.13089000  1.0
  H  H36  1  0.14456000  0.84386000  0.59542000  1.0
  H  H37  1  0.85543000  0.15614000  0.40457000  1.0
  H  H38  1  0.83523000  0.88296000  0.64597000  1.0
  H  H39  1  0.16477000  0.11704000  0.35403000  1.0
  H  H40  1  0.96997000  0.52034000  0.83923000  1.0
  H  H41  1  0.03003000  0.47966000  0.16077000  1.0
  H  H42  1  0.90435000  0.92301000  0.43492000  1.0
  H  H43  1  0.09565000  0.07699000  0.56508000  1.0
  H  H44  1  0.22576000  0.90795000  0.38987000  1.0
  H  H45  1  0.77424000  0.09205000  0.61012000  1.0
  H  H46  1  0.85142000  0.53986000  0.58806000  1.0
  H  H47  1  0.14859000  0.46014000  0.41194000  1.0
  H  H48  1  0.31257000  0.30612000  0.77947000  1.0
  H  H49  1  0.68744000  0.69388000  0.22053000  1.0
  H  H50  1  0.44531000  0.39738000  0.59440000  1.0
  H  H51  1  0.55469000  0.60262000  0.40560000  1.0
  C  C52  1  0.61303000  0.75834000  0.84093000  1.0
  C  C53  1  0.38697000  0.24166000  0.15907000  1.0
  C  C54  1  0.35279000  0.87076000  0.91114000  1.0
  C  C55  1  0.64721000  0.12924000  0.08886000  1.0
  C  C56  1  0.40116000  0.79845000  0.82075000  1.0
  C  C57  1  0.59884000  0.20155000  0.17925000  1.0
  C  C58  1  0.44102000  0.88345000  0.96961000  1.0
  C  C59  1  0.55897000  0.11655000  0.03039000  1.0
  C  C60  1  0.57338000  0.82574000  0.93511000  1.0
  C  C61  1  0.42662000  0.17426000  0.06489000  1.0
  C  C62  1  0.91560000  0.75497000  0.39411000  1.0
  C  C63  1  0.08440000  0.24503000  0.60589000  1.0
  C  C64  1  0.21875000  0.57087000  0.85773000  1.0
  C  C65  1  0.78125000  0.42913000  0.14227000  1.0
  C  C66  1  0.44235000  0.89195000  0.37129000  1.0
  C  C67  1  0.55764000  0.10805000  0.62871000  1.0
  C  C68  1  0.66018000  0.49072000  0.81294000  1.0
  C  C69  1  0.33982000  0.50928000  0.18706000  1.0
  C  C70  1  0.22677000  0.45715000  0.86681000  1.0
  C  C71  1  0.77323000  0.54285000  0.13319000  1.0
  C  C72  1  0.53920000  0.86186000  0.42473000  1.0
  C  C73  1  0.46079000  0.13815000  0.57527000  1.0
  C  C74  1  0.83960000  0.70859000  0.63017000  1.0
  C  C75  1  0.16040000  0.29141000  0.36983000  1.0
  C  C76  1  0.88226000  0.36731000  0.85810000  1.0
  C  C77  1  0.11774000  0.63269000  0.14190000  1.0
  C  C78  1  0.65989000  0.37806000  0.83395000  1.0
  C  C79  1  0.34011000  0.62194000  0.16605000  1.0
  C  C80  1  0.49508000  0.82409000  0.53944000  1.0
  C  C81  1  0.50492000  0.17592000  0.46056000  1.0
  C  C82  1  0.77268000  0.54145000  0.81462000  1.0
  C  C83  1  0.22732000  0.45855000  0.18537000  1.0
  C  C84  1  0.90089000  0.64748000  0.43686000  1.0
  C  C85  1  0.09911000  0.35252000  0.56314000  1.0
  C  C86  1  0.29341000  0.62292000  0.75324000  1.0
  C  C87  1  0.70658000  0.37708000  0.24676000  1.0
  C  C88  1  0.37544000  0.56055000  0.65819000  1.0
  C  C89  1  0.62456000  0.43945000  0.34181000  1.0
  C  C90  1  0.77087000  0.31651000  0.85581000  1.0
  C  C91  1  0.22914000  0.68349000  0.14419000  1.0
  C  C92  1  0.35266000  0.81755000  0.60095000  1.0
  C  C93  1  0.64733000  0.18245000  0.39905000  1.0
  C  C94  1  0.25530000  0.84796000  0.54717000  1.0
  C  C95  1  0.74469000  0.15204000  0.45282000  1.0
  C  C96  1  0.85384000  0.81688000  0.58716000  1.0
  C  C97  1  0.14616000  0.18312000  0.41284000  1.0
  C  C98  1  0.88359000  0.47977000  0.83763000  1.0
  C  C99  1  0.11641000  0.52023000  0.16237000  1.0
  C  C100  1  0.89230000  0.83948000  0.46928000  1.0
  C  C101  1  0.10770000  0.16052000  0.53072000  1.0
  C  C102  1  0.30072000  0.88468000  0.43227000  1.0
  C  C103  1  0.69927000  0.11532000  0.56773000  1.0
  C  C104  1  0.86320000  0.62376000  0.55483000  1.0
  C  C105  1  0.13681000  0.37624000  0.44518000  1.0
  C  C106  1  0.30840000  0.39503000  0.77174000  1.0
  C  C107  1  0.69160000  0.60497000  0.22826000  1.0
  C  C108  1  0.38233000  0.44676000  0.66780000  1.0
  C  C109  1  0.61766000  0.55325000  0.33220000  1.0
  Br  Br110  1  0.86064000  0.02062000  0.78814000  1.0
  Br  Br111  1  0.13940000  0.97940000  0.21186000  1.0
  Br  Br112  1  0.84037000  0.86000000  0.09831000  1.0
  Br  Br113  1  0.15963000  0.14000000  0.90169000  1.0
  N  N114  1  0.52888000  0.74343000  0.78494000  1.0
  N  N115  1  0.47111000  0.25657000  0.21506000  1.0
  O  O116  1  0.88211000  0.72346000  0.83628000  1.0
  O  O117  1  0.11788000  0.27655000  0.16372000  1.0
  O  O118  1  0.14237000  0.82425000  0.81426000  1.0
  O  O119  1  0.85763000  0.17575000  0.18574000  1.0
