# generated using pymatgen
data_ZnH11C10(NO2)2
_symmetry_space_group_name_H-M   'P 1'
_cell_length_a   10.90350000
_cell_length_b   17.14020174
_cell_length_c   17.17430000
_cell_angle_alpha   119.41291444
_cell_angle_beta   91.57450000
_cell_angle_gamma   90.39213361
_symmetry_Int_Tables_number   1
_chemical_formula_structural   ZnH11C10(NO2)2
_chemical_formula_sum   'Zn6 H66 C60 N12 O24'
_cell_volume   2794.13890388
_cell_formula_units_Z   6
loop_
 _symmetry_equiv_pos_site_id
 _symmetry_equiv_pos_as_xyz
  1  'x, y, z'
loop_
 _atom_site_type_symbol
 _atom_site_label
 _atom_site_symmetry_multiplicity
 _atom_site_fract_x
 _atom_site_fract_y
 _atom_site_fract_z
 _atom_site_occupancy
  Zn  Zn0  1  0.85470000  0.07389000  0.53430000  1.0
  Zn  Zn1  1  0.66238000  0.54343000  0.46886000  1.0
  Zn  Zn2  1  0.49561000  0.47485000  0.93058000  1.0
  Zn  Zn3  1  0.33781000  0.92712000  0.46221000  1.0
  Zn  Zn4  1  0.22971000  0.46667000  0.54183000  1.0
  Zn  Zn5  1  0.06879000  0.53681000  0.06982000  1.0
  H  H6  1  0.58285000  0.69938000  0.46355000  1.0
  H  H7  1  0.40878000  0.48203000  0.77571000  1.0
  H  H8  1  0.24130000  0.77286000  0.29567000  1.0
  H  H9  1  0.11814000  0.31120000  0.55812000  1.0
  H  H10  1  0.96367000  0.56282000  0.24052000  1.0
  H  H11  1  0.76414000  0.23572000  0.68779000  1.0
  H  H12  1  0.90659000  0.65031000  0.56425000  1.0
  H  H13  1  0.74023000  0.57056000  0.92103000  1.0
  H  H14  1  0.57601000  0.91152000  0.36382000  1.0
  H  H15  1  0.42290000  0.35068000  0.44030000  1.0
  H  H16  1  0.25948000  0.42671000  0.08819000  1.0
  H  H17  1  0.08269000  0.09176000  0.64912000  1.0
  H  H18  1  0.81207000  0.98502000  0.64208000  1.0
  H  H19  1  0.64580000  0.64177000  0.65494000  1.0
  H  H20  1  0.47185000  0.66204000  0.02030000  1.0
  H  H21  1  0.29952000  0.01555000  0.35788000  1.0
  H  H22  1  0.13756000  0.35421000  0.34325000  1.0
  H  H23  1  0.98123000  0.33777000  0.98263000  1.0
  H  H24  1  0.96589000  0.94665000  0.62339000  1.0
  H  H25  1  0.79879000  0.61567000  0.67217000  1.0
  H  H26  1  0.62634000  0.67863000  0.06330000  1.0
  H  H27  1  0.45689000  0.05076000  0.37381000  1.0
  H  H28  1  0.29293000  0.37835000  0.33437000  1.0
  H  H29  1  0.13412000  0.32747000  0.94684000  1.0
  H  H30  1  0.97722000  0.83611000  0.44971000  1.0
  H  H31  1  0.72957000  0.42877000  0.62042000  1.0
  H  H32  1  0.56198000  0.62048000  0.19479000  1.0
  H  H33  1  0.48073000  0.16610000  0.55290000  1.0
  H  H34  1  0.29196000  0.55634000  0.38845000  1.0
  H  H35  1  0.12829000  0.38774000  0.82971000  1.0
  H  H36  1  0.98822000  0.80405000  0.61349000  1.0
  H  H37  1  0.82290000  0.61353000  0.81367000  1.0
  H  H38  1  0.65472000  0.81346000  0.21168000  1.0
  H  H39  1  0.48323000  0.19096000  0.37839000  1.0
  H  H40  1  0.31547000  0.36851000  0.19246000  1.0
  H  H41  1  0.15649000  0.19239000  0.80723000  1.0
  H  H42  1  0.65385000  0.85577000  0.50815000  1.0
  H  H43  1  0.47824000  0.52433000  0.66338000  1.0
  H  H44  1  0.30734000  0.66805000  0.13997000  1.0
  H  H45  1  0.16558000  0.14857000  0.49858000  1.0
  H  H46  1  0.00704000  0.50881000  0.34906000  1.0
  H  H47  1  0.82776000  0.34400000  0.84559000  1.0
  H  H48  1  0.80276000  0.81960000  0.34627000  1.0
  H  H49  1  0.63279000  0.30520000  0.48037000  1.0
  H  H50  1  0.46999000  0.47790000  0.17406000  1.0
  H  H51  1  0.31940000  0.17324000  0.65627000  1.0
  H  H52  1  0.13120000  0.65604000  0.48078000  1.0
  H  H53  1  0.96163000  0.47919000  0.82069000  1.0
  H  H54  1  0.94570000  0.82384000  0.29946000  1.0
  H  H55  1  0.79068000  0.31032000  0.46751000  1.0
  H  H56  1  0.62833000  0.46601000  0.15827000  1.0
  H  H57  1  0.46846000  0.16979000  0.70023000  1.0
  H  H58  1  0.27918000  0.70514000  0.52589000  1.0
  H  H59  1  0.10726000  0.52707000  0.81925000  1.0
  H  H60  1  0.84879000  0.91965000  0.34678000  1.0
  H  H61  1  0.68463000  0.35445000  0.41622000  1.0
  H  H62  1  0.52156000  0.41680000  0.06241000  1.0
  H  H63  1  0.36956000  0.07175000  0.64945000  1.0
  H  H64  1  0.19151000  0.65496000  0.57740000  1.0
  H  H65  1  0.01996000  0.57576000  0.91863000  1.0
  H  H66  1  0.75993000  0.14381000  0.36148000  1.0
  H  H67  1  0.61046000  0.36475000  0.22510000  1.0
  H  H68  1  0.44666000  0.22934000  0.86011000  1.0
  H  H69  1  0.26560000  0.85679000  0.63465000  1.0
  H  H70  1  0.08612000  0.62532000  0.76599000  1.0
  H  H71  1  0.91860000  0.76426000  0.14428000  1.0
  C  C72  1  0.67297000  0.72494000  0.49549000  1.0
  C  C73  1  0.50000000  0.51096000  0.78115000  1.0
  C  C74  1  0.33253000  0.77825000  0.27412000  1.0
  C  C75  1  0.19865000  0.28189000  0.51862000  1.0
  C  C76  1  0.04047000  0.51937000  0.23216000  1.0
  C  C77  1  0.85132000  0.22982000  0.71677000  1.0
  C  C78  1  0.85286000  0.69714000  0.55250000  1.0
  C  C79  1  0.68469000  0.56032000  0.86290000  1.0
  C  C80  1  0.51933000  0.85661000  0.31267000  1.0
  C  C81  1  0.36914000  0.30424000  0.45277000  1.0
  C  C82  1  0.20595000  0.44332000  0.14695000  1.0
  C  C83  1  0.02858000  0.14827000  0.69508000  1.0
  C  C84  1  0.87260000  0.93627000  0.59165000  1.0
  C  C85  1  0.70290000  0.59053000  0.65783000  1.0
  C  C86  1  0.53175000  0.66338000  0.07354000  1.0
  C  C87  1  0.36755000  0.06340000  0.40707000  1.0
  C  C88  1  0.20052000  0.40797000  0.34973000  1.0
  C  C89  1  0.04007000  0.34465000  0.93495000  1.0
  C  C90  1  0.94747000  0.89465000  0.44442000  1.0
  C  C91  1  0.71199000  0.43324000  0.55941000  1.0
  C  C92  1  0.54585000  0.56062000  0.12905000  1.0
  C  C93  1  0.45260000  0.10557000  0.55530000  1.0
  C  C94  1  0.27273000  0.55905000  0.45239000  1.0
  C  C95  1  0.10764000  0.45101000  0.89012000  1.0
  C  C96  1  0.89779000  0.78337000  0.58019000  1.0
  C  C97  1  0.73018000  0.58502000  0.80282000  1.0
  C  C98  1  0.56255000  0.80157000  0.22726000  1.0
  C  C99  1  0.40164000  0.21529000  0.41814000  1.0
  C  C100  1  0.23563000  0.41051000  0.20469000  1.0
  C  C101  1  0.06875000  0.20456000  0.78345000  1.0
  C  C102  1  0.06902000  0.94733000  0.44654000  1.0
  C  C103  1  0.95795000  0.44914000  0.47482000  1.0
  C  C104  1  0.79205000  0.47491000  0.02668000  1.0
  C  C105  1  0.58122000  0.05459000  0.55023000  1.0
  C  C106  1  0.39896000  0.55455000  0.49262000  1.0
  C  C107  1  0.23310000  0.49320000  0.93606000  1.0
  C  C108  1  0.71222000  0.81147000  0.52081000  1.0
  C  C109  1  0.53872000  0.53493000  0.71953000  1.0
  C  C110  1  0.36910000  0.72134000  0.18798000  1.0
  C  C111  1  0.22499000  0.19234000  0.48581000  1.0
  C  C112  1  0.06433000  0.48852000  0.29175000  1.0
  C  C113  1  0.88640000  0.28863000  0.80483000  1.0
  C  C114  1  0.82712000  0.84235000  0.56448000  1.0
  C  C115  1  0.65731000  0.57121000  0.72880000  1.0
  C  C116  1  0.48763000  0.73142000  0.16390000  1.0
  C  C117  1  0.33017000  0.15812000  0.43571000  1.0
  C  C118  1  0.16509000  0.43373000  0.27953000  1.0
  C  C119  1  0.99765000  0.27697000  0.84027000  1.0
  C  C120  1  0.88221000  0.86248000  0.35288000  1.0
  C  C121  1  0.70547000  0.34704000  0.47490000  1.0
  C  C122  1  0.54198000  0.47427000  0.12868000  1.0
  C  C123  1  0.39981000  0.13142000  0.64647000  1.0
  C  C124  1  0.21578000  0.64986000  0.51338000  1.0
  C  C125  1  0.04570000  0.51259000  0.86028000  1.0
  C  C126  1  0.76232000  0.10415000  0.39719000  1.0
  C  C127  1  0.60243000  0.40138000  0.29916000  1.0
  C  C128  1  0.43935000  0.30348000  0.89912000  1.0
  C  C129  1  0.26225000  0.89520000  0.59782000  1.0
  C  C130  1  0.08929000  0.58210000  0.69206000  1.0
  C  C131  1  0.92375000  0.68993000  0.11063000  1.0
  N  N132  1  0.87552000  0.95335000  0.51733000  1.0
  N  N133  1  0.69658000  0.51088000  0.56696000  1.0
  N  N134  1  0.52941000  0.57087000  0.06029000  1.0
  N  N135  1  0.37551000  0.04765000  0.48247000  1.0
  N  N136  1  0.19275000  0.48475000  0.43932000  1.0
  N  N137  1  0.03116000  0.43588000  0.94978000  1.0
  N  N138  1  0.74198000  0.66781000  0.51049000  1.0
  N  N139  1  0.57213000  0.52236000  0.85163000  1.0
  N  N140  1  0.40711000  0.84403000  0.33613000  1.0
  N  N141  1  0.27026000  0.33755000  0.50360000  1.0
  N  N142  1  0.11058000  0.49799000  0.16113000  1.0
  N  N143  1  0.92151000  0.16093000  0.66209000  1.0
  O  O144  1  0.06490000  0.03028000  0.47908000  1.0
  O  O145  1  0.90934000  0.49670000  0.45304000  1.0
  O  O146  1  0.74246000  0.45575000  0.95788000  1.0
  O  O147  1  0.57481000  0.97267000  0.52155000  1.0
  O  O148  1  0.40512000  0.52021000  0.54362000  1.0
  O  O149  1  0.23988000  0.54291000  0.02062000  1.0
  O  O150  1  0.15923000  0.89605000  0.41173000  1.0
  O  O151  1  0.99556000  0.39519000  0.49253000  1.0
  O  O152  1  0.83299000  0.48955000  0.09690000  1.0
  O  O153  1  0.67177000  0.10902000  0.57834000  1.0
  O  O154  1  0.49121000  0.58621000  0.47258000  1.0
  O  O155  1  0.32435000  0.47634000  0.88595000  1.0
  O  O156  1  0.84449000  0.13379000  0.46165000  1.0
  O  O157  1  0.68283000  0.46623000  0.33990000  1.0
  O  O158  1  0.51952000  0.34575000  0.87812000  1.0
  O  O159  1  0.34102000  0.86843000  0.53509667  1.0
  O  O160  1  0.18595000  0.53359000  0.66725000  1.0
  O  O161  1  0.02257000  0.66269000  0.13213000  1.0
  O  O162  1  0.69003000  0.03906000  0.37239333  1.0
  O  O163  1  0.52271000  0.37762000  0.33411000  1.0
  O  O164  1  0.36049000  0.33768000  0.95681000  1.0
  O  O165  1  0.18784000  0.95660000  0.61934000  1.0
  O  O166  1  0.00398000  0.58486000  0.64372000  1.0
  O  O167  1  0.83810000  0.64310000  0.05847000  1.0
