# generated using pymatgen
data_CuH18C18IN2
_symmetry_space_group_name_H-M   'P 1'
_cell_length_a   8.31252000
_cell_length_b   10.18090000
_cell_length_c   10.18090000
_cell_angle_alpha   80.43510000
_cell_angle_beta   86.38500000
_cell_angle_gamma   86.38490000
_symmetry_Int_Tables_number   1
_chemical_formula_structural   CuH18C18IN2
_chemical_formula_sum   'Cu2 H36 C36 I2 N4'
_cell_volume   846.71934615
_cell_formula_units_Z   2
loop_
 _symmetry_equiv_pos_site_id
 _symmetry_equiv_pos_as_xyz
  1  'x, y, z'
loop_
 _atom_site_type_symbol
 _atom_site_label
 _atom_site_symmetry_multiplicity
 _atom_site_fract_x
 _atom_site_fract_y
 _atom_site_fract_z
 _atom_site_occupancy
  Cu  Cu0  1  0.88320000  0.06379000  0.06379000  1.0
  Cu  Cu1  1  0.11681000  0.93620000  0.93620000  1.0
  H  H2  1  0.61778000  0.89078000  0.14872000  1.0
  H  H3  1  0.38222000  0.85128000  0.10922000  1.0
  H  H4  1  0.38222000  0.10922000  0.85128000  1.0
  H  H5  1  0.61778000  0.14872000  0.89078000  1.0
  H  H6  1  0.47314000  0.78980000  0.36131000  1.0
  H  H7  1  0.52686000  0.63869000  0.21020000  1.0
  H  H8  1  0.52687000  0.21020000  0.63869000  1.0
  H  H9  1  0.47314000  0.36131000  0.78980000  1.0
  H  H10  1  0.80706000  0.97215000  0.57327000  1.0
  H  H11  1  0.19294000  0.42673000  0.02785000  1.0
  H  H12  1  0.19294000  0.02785000  0.42673000  1.0
  H  H13  1  0.80706000  0.57327000  0.97215000  1.0
  H  H14  1  0.93419000  0.07015000  0.35117000  1.0
  H  H15  1  0.06581000  0.64883000  0.92985000  1.0
  H  H16  1  0.06581000  0.92985000  0.64883000  1.0
  H  H17  1  0.93419000  0.35117000  0.07015000  1.0
  H  H18  1  0.42600000  0.79101000  0.60237000  1.0
  H  H19  1  0.57400000  0.39763000  0.20899000  1.0
  H  H20  1  0.57400000  0.20899000  0.39763000  1.0
  H  H21  1  0.42600000  0.60237000  0.79101000  1.0
  H  H22  1  0.55554000  0.87376000  0.68972000  1.0
  H  H23  1  0.44446000  0.31028000  0.12624000  1.0
  H  H24  1  0.44446000  0.12624000  0.31028000  1.0
  H  H25  1  0.55554000  0.68972000  0.87376000  1.0
  H  H26  1  0.63706000  0.60164000  0.60164000  1.0
  H  H27  1  0.36294000  0.39836000  0.39836000  1.0
  H  H28  1  0.76527000  0.68690000  0.68690000  1.0
  H  H29  1  0.23473000  0.31310000  0.31310000  1.0
  H  H30  1  0.18561000  0.71258000  0.52377000  1.0
  H  H31  1  0.81439000  0.47623000  0.28742000  1.0
  H  H32  1  0.81439000  0.28742000  0.47623000  1.0
  H  H33  1  0.18561000  0.52377000  0.71258000  1.0
  H  H34  1  0.09289000  0.81634000  0.30028000  1.0
  H  H35  1  0.90711000  0.69972000  0.18366000  1.0
  H  H36  1  0.90711000  0.18366000  0.69972000  1.0
  H  H37  1  0.09289000  0.30028000  0.81634000  1.0
  C  C38  1  0.65461000  0.90681000  0.24553000  1.0
  C  C39  1  0.34539000  0.75447000  0.09318000  1.0
  C  C40  1  0.34539000  0.09319000  0.75447000  1.0
  C  C41  1  0.65461000  0.24553000  0.90682000  1.0
  C  C42  1  0.57662000  0.84993000  0.36396000  1.0
  C  C43  1  0.42338000  0.63604000  0.15007000  1.0
  C  C44  1  0.42338000  0.15007000  0.63604000  1.0
  C  C45  1  0.57662000  0.36396000  0.84993000  1.0
  C  C46  1  0.63054000  0.87035000  0.48600000  1.0
  C  C47  1  0.36946000  0.51399000  0.12965000  1.0
  C  C48  1  0.36946000  0.12965000  0.51400000  1.0
  C  C49  1  0.63054000  0.48600000  0.87035000  1.0
  C  C50  1  0.76154000  0.95160000  0.48092000  1.0
  C  C51  1  0.23846000  0.51908000  0.04840000  1.0
  C  C52  1  0.23846000  0.04840000  0.51908000  1.0
  C  C53  1  0.76154000  0.48092000  0.95160000  1.0
  C  C54  1  0.83230000  0.00623000  0.35844000  1.0
  C  C55  1  0.16770000  0.64156000  0.99378000  1.0
  C  C56  1  0.16770000  0.99378000  0.64156000  1.0
  C  C57  1  0.83230000  0.35844000  0.00623000  1.0
  C  C58  1  0.55342000  0.80648000  0.61577000  1.0
  C  C59  1  0.44658000  0.38423000  0.19352000  1.0
  C  C60  1  0.44658000  0.19352000  0.38423000  1.0
  C  C61  1  0.55342000  0.61577000  0.80648000  1.0
  C  C62  1  0.63786000  0.67245000  0.67245000  1.0
  C  C63  1  0.36214000  0.32755000  0.32755000  1.0
  C  C64  1  0.05352000  0.53404000  0.53404000  1.0
  C  C65  1  0.94648000  0.46596000  0.46596000  1.0
  C  C66  1  0.10454000  0.66107000  0.47150000  1.0
  C  C67  1  0.89545000  0.52850000  0.33893000  1.0
  C  C68  1  0.89545000  0.33893000  0.52849000  1.0
  C  C69  1  0.10454000  0.47151000  0.66107000  1.0
  C  C70  1  0.05296000  0.71890000  0.34790000  1.0
  C  C71  1  0.94703000  0.65210000  0.28110000  1.0
  C  C72  1  0.94703000  0.28110000  0.65210000  1.0
  C  C73  1  0.05296000  0.34790000  0.71890000  1.0
  I  I74  1  0.18520000  0.10281000  0.10281000  1.0
  I  I75  1  0.81481000  0.89719000  0.89719000  1.0
  N  N76  1  0.78179000  0.98371000  0.24101000  1.0
  N  N77  1  0.21822000  0.75898000  0.01629000  1.0
  N  N78  1  0.21822000  0.01629000  0.75898000  1.0
  N  N79  1  0.78179000  0.24101000  0.98371000  1.0
