# generated using pymatgen
data_Hg2H9C7NCl4O
_symmetry_space_group_name_H-M   'P 1'
_cell_length_a   7.46640000
_cell_length_b   9.56929000
_cell_length_c   9.65145000
_cell_angle_alpha   76.93570000
_cell_angle_beta   78.80740000
_cell_angle_gamma   87.29890000
_symmetry_Int_Tables_number   1
_chemical_formula_structural   Hg2H9C7NCl4O
_chemical_formula_sum   'Hg4 H18 C14 N2 Cl8 O2'
_cell_volume   658.94991120
_cell_formula_units_Z   2
loop_
 _symmetry_equiv_pos_site_id
 _symmetry_equiv_pos_as_xyz
  1  'x, y, z'
loop_
 _atom_site_type_symbol
 _atom_site_label
 _atom_site_symmetry_multiplicity
 _atom_site_fract_x
 _atom_site_fract_y
 _atom_site_fract_z
 _atom_site_occupancy
  Hg  Hg0  1  0.75495000  0.90064000  0.57828000  1.0
  Hg  Hg1  1  0.24504000  0.09936000  0.42171000  1.0
  Hg  Hg2  1  0.27178000  0.98142000  0.94567000  1.0
  Hg  Hg3  1  0.72822000  0.01858000  0.05432000  1.0
  H  H4  1  0.98920000  0.75128000  0.82629000  1.0
  H  H5  1  0.01081000  0.24873000  0.17370000  1.0
  H  H6  1  0.78645000  0.78567000  0.30688000  1.0
  H  H7  1  0.21352000  0.21433000  0.69311000  1.0
  H  H8  1  0.80133000  0.55169000  0.23217000  1.0
  H  H9  1  0.19867000  0.44831000  0.76783000  1.0
  H  H10  1  0.75047000  0.32384000  0.42713000  1.0
  H  H11  1  0.24955000  0.67616000  0.57287000  1.0
  H  H12  1  0.67285000  0.34393000  0.68556000  1.0
  H  H13  1  0.32718000  0.65607000  0.31444000  1.0
  H  H14  1  0.56432000  0.49715000  0.85418000  1.0
  H  H15  1  0.43569000  0.50285000  0.14582000  1.0
  H  H16  1  0.56914000  0.68730000  0.79728000  1.0
  H  H17  1  0.43087000  0.31270000  0.20273000  1.0
  H  H18  1  0.78337000  0.60541000  0.96160000  1.0
  H  H19  1  0.21664000  0.39459000  0.03840000  1.0
  H  H20  1  0.89267000  0.48617000  0.85260000  1.0
  H  H21  1  0.10734000  0.51383000  0.14740000  1.0
  C  C22  1  0.76135000  0.68479000  0.38636000  1.0
  C  C23  1  0.23862000  0.31520000  0.61365000  1.0
  C  C24  1  0.77031000  0.55394000  0.34653000  1.0
  C  C25  1  0.22968000  0.44607000  0.65347000  1.0
  C  C26  1  0.74055000  0.42857000  0.45466000  1.0
  C  C27  1  0.25945000  0.57142000  0.54535000  1.0
  C  C28  1  0.69868000  0.43963000  0.59869000  1.0
  C  C29  1  0.30133000  0.56037000  0.40131000  1.0
  C  C30  1  0.68871000  0.57395000  0.63394000  1.0
  C  C31  1  0.31129000  0.42605000  0.36605000  1.0
  C  C32  1  0.64810000  0.58864000  0.78814000  1.0
  C  C33  1  0.35190000  0.41136000  0.21187000  1.0
  C  C34  1  0.82180000  0.59008000  0.85004000  1.0
  C  C35  1  0.17821000  0.40992000  0.14996000  1.0
  N  N36  1  0.72207000  0.69381000  0.52647000  1.0
  N  N37  1  0.27792000  0.30620000  0.47352000  1.0
  Cl  Cl38  1  0.86471000  0.08776000  0.66041000  1.0
  Cl  Cl39  1  0.13529000  0.91224000  0.33959000  1.0
  Cl  Cl40  1  0.36123000  0.92987000  0.67978000  1.0
  Cl  Cl41  1  0.63877000  0.07013000  0.32022000  1.0
  Cl  Cl42  1  0.44942000  0.19160000  0.93456000  1.0
  Cl  Cl43  1  0.55058000  0.80839000  0.06544000  1.0
  Cl  Cl44  1  0.03931000  0.79713000  0.03247000  1.0
  Cl  Cl45  1  0.96069000  0.20287000  0.96753000  1.0
  O  O46  1  0.93904000  0.70365000  0.76187000  1.0
  O  O47  1  0.06097000  0.29635000  0.23813000  1.0
