# generated using pymatgen
data_CuH24C16N12(ClO5)2
_symmetry_space_group_name_H-M   'P 1'
_cell_length_a   8.57077000
_cell_length_b   9.17867000
_cell_length_c   10.21520000
_cell_angle_alpha   107.68200000
_cell_angle_beta   99.03660000
_cell_angle_gamma   116.42100000
_symmetry_Int_Tables_number   1
_chemical_formula_structural   CuH24C16N12(ClO5)2
_chemical_formula_sum   'Cu1 H24 C16 N12 Cl2 O10'
_cell_volume   644.20872257
_cell_formula_units_Z   1
loop_
 _symmetry_equiv_pos_site_id
 _symmetry_equiv_pos_as_xyz
  1  'x, y, z'
loop_
 _atom_site_type_symbol
 _atom_site_label
 _atom_site_symmetry_multiplicity
 _atom_site_fract_x
 _atom_site_fract_y
 _atom_site_fract_z
 _atom_site_occupancy
  Cu  Cu0  1  0.50000000  0.50000000  0.50000000  1.0
  H  H1  1  0.23465000  0.20806000  0.17096000  1.0
  H  H2  1  0.76535000  0.79195000  0.82904000  1.0
  H  H3  1  0.47525000  0.77018000  0.34922000  1.0
  H  H4  1  0.52475000  0.22982000  0.65078000  1.0
  H  H5  1  0.22623000  0.73937000  0.10069000  1.0
  H  H6  1  0.77377000  0.26064000  0.89931000  1.0
  H  H7  1  0.16642000  0.54745000  0.94172000  1.0
  H  H8  1  0.83358000  0.45255000  0.05828000  1.0
  H  H9  1  0.51311000  0.67697000  0.98796000  1.0
  H  H10  1  0.48688000  0.32303000  0.01204000  1.0
  H  H11  1  0.42671000  0.80617000  0.94133000  1.0
  H  H12  1  0.57329000  0.19384000  0.05867000  1.0
  H  H13  1  0.75696000  0.06244000  0.07487000  1.0
  H  H14  1  0.24304000  0.93756000  0.92512000  1.0
  H  H15  1  0.82514000  0.93107000  0.13938000  1.0
  H  H16  1  0.17486000  0.06893000  0.86061000  1.0
  H  H17  1  0.86921000  0.11547000  0.39512000  1.0
  H  H18  1  0.13079000  0.88453000  0.60488000  1.0
  H  H19  1  0.01932000  0.24444000  0.32003000  1.0
  H  H20  1  0.98067000  0.75555000  0.67996000  1.0
  H  H21  1  0.59925000  0.17651000  0.43297000  1.0
  H  H22  1  0.40074000  0.82349000  0.56702000  1.0
  H  H23  1  0.81206000  0.63873000  0.34917000  1.0
  H  H24  1  0.18795000  0.36127000  0.65083000  1.0
  C  C25  1  0.27159000  0.34192000  0.18196000  1.0
  C  C26  1  0.72841000  0.65808000  0.81804000  1.0
  C  C27  1  0.39631000  0.62816000  0.27710000  1.0
  C  C28  1  0.60369000  0.37184000  0.72289000  1.0
  C  C29  1  0.27333000  0.65135000  0.04727000  1.0
  C  C30  1  0.72667000  0.34866000  0.95273000  1.0
  C  C31  1  0.45377000  0.76024000  0.02575000  1.0
  C  C32  1  0.54623000  0.23976000  0.97425000  1.0
  C  C33  1  0.76071000  0.01247000  0.16043000  1.0
  C  C34  1  0.23929000  0.98753000  0.83956000  1.0
  C  C35  1  0.87440000  0.16678000  0.31101000  1.0
  C  C36  1  0.12560000  0.83322000  0.68899000  1.0
  C  C37  1  0.67666000  0.28229000  0.40110000  1.0
  C  C38  1  0.32334000  0.71771000  0.59890000  1.0
  C  C39  1  0.78654000  0.51456000  0.35530000  1.0
  C  C40  1  0.21347000  0.48544000  0.64470000  1.0
  N  N41  1  0.38409000  0.49334000  0.30965000  1.0
  N  N42  1  0.61591000  0.50666000  0.69035000  1.0
  N  N43  1  0.29464000  0.55839000  0.13568000  1.0
  N  N44  1  0.70536000  0.44161000  0.86433000  1.0
  N  N45  1  0.21474000  0.37660000  0.07314000  1.0
  N  N46  1  0.78526000  0.62341000  0.92686000  1.0
  N  N47  1  0.80905000  0.29118000  0.34368000  1.0
  N  N48  1  0.19095000  0.70882000  0.65632000  1.0
  N  N49  1  0.88083000  0.43800000  0.31351000  1.0
  N  N50  1  0.11918000  0.56200000  0.68649000  1.0
  N  N51  1  0.65938000  0.42293000  0.41030000  1.0
  N  N52  1  0.34062000  0.57706000  0.58970000  1.0
  Cl  Cl53  1  0.18956000  0.99651000  0.34602000  1.0
  Cl  Cl54  1  0.81043000  0.00349000  0.65399000  1.0
  O  O55  1  0.57835000  0.90941000  0.16197000  1.0
  O  O56  1  0.42166000  0.09059000  0.83803000  1.0
  O  O57  1  0.25596000  0.18532000  0.43740000  1.0
  O  O58  1  0.74404000  0.81468000  0.56261000  1.0
  O  O59  1  0.99925000  0.88406000  0.33433000  1.0
  O  O60  1  0.00074000  0.11594000  0.66567000  1.0
  O  O61  1  0.30854000  0.94574000  0.41455000  1.0
  O  O62  1  0.69146000  0.05426000  0.58545000  1.0
  O  O63  1  0.20095000  0.97894000  0.20121000  1.0
  O  O64  1  0.79904000  0.02105000  0.79879000  1.0
