# generated using pymatgen
data_Zn2H5C43N2(O2F5)4
_symmetry_space_group_name_H-M   'P 1'
_cell_length_a   16.68960000
_cell_length_b   17.88420000
_cell_length_c   30.97540000
_cell_angle_alpha   89.68730000
_cell_angle_beta   90.73760000
_cell_angle_gamma   89.95970000
_symmetry_Int_Tables_number   1
_chemical_formula_structural   Zn2H5C43N2(O2F5)4
_chemical_formula_sum   'Zn4 H10 C86 N4 O16 F40'
_cell_volume   9244.63530066
_cell_formula_units_Z   2
loop_
 _symmetry_equiv_pos_site_id
 _symmetry_equiv_pos_as_xyz
  1  'x, y, z'
loop_
 _atom_site_type_symbol
 _atom_site_label
 _atom_site_symmetry_multiplicity
 _atom_site_fract_x
 _atom_site_fract_y
 _atom_site_fract_z
 _atom_site_occupancy
  Zn  Zn0  1  0.42875000  0.50117000  0.50561000  1.0
  Zn  Zn1  1  0.59463000  0.50317000  0.50189000  1.0
  Zn  Zn2  1  0.57098000  0.49901000  0.92435000  1.0
  Zn  Zn3  1  0.40504000  0.50022000  0.92799000  1.0
  H  H4  1  0.60169000  0.50430000  0.78745000  1.0
  H  H5  1  0.34603000  0.49854000  0.79533000  1.0
  H  H6  1  0.39837000  0.50493000  0.64249000  1.0
  H  H7  1  0.65403000  0.49917000  0.63456000  1.0
  H  H8  1  0.70168000  0.54948000  0.74047000  1.0
  H  H9  1  0.70015000  0.45054000  0.74077000  1.0
  H  H10  1  0.73805000  0.49949000  0.69528000  1.0
  H  H11  1  0.29819000  0.54998000  0.68942000  1.0
  H  H12  1  0.30015000  0.45105000  0.68909000  1.0
  H  H13  1  0.26206000  0.49900000  0.73461000  1.0
  C  C14  1  0.51075000  0.35797000  0.50068000  1.0
  C  C15  1  0.51856000  0.50313000  0.58646000  1.0
  C  C16  1  0.51187000  0.64623000  0.50272000  1.0
  C  C17  1  0.50429000  0.49857000  0.42088000  1.0
  C  C18  1  0.48943000  0.35541000  0.92856000  1.0
  C  C19  1  0.48136000  0.50201000  0.84343000  1.0
  C  C20  1  0.48707000  0.64356000  0.92612000  1.0
  C  C21  1  0.49560000  0.49476000  0.00903000  1.0
  C  C22  1  0.76418000  0.45021000  0.52207000  1.0
  C  C23  1  0.84748000  0.44708000  0.52241000  1.0
  C  C24  1  0.89105000  0.49837000  0.49732000  1.0
  C  C25  1  0.84622000  0.55042000  0.47275000  1.0
  C  C26  1  0.76290000  0.54941000  0.47464000  1.0
  C  C27  1  0.97525000  0.49802000  0.49747000  1.0
  C  C28  1  0.04813000  0.49793000  0.49859000  1.0
  C  C29  1  0.13229000  0.49894000  0.50032000  1.0
  C  C30  1  0.17580000  0.45750000  0.53151000  1.0
  C  C31  1  0.25905000  0.46140000  0.53233000  1.0
  C  C32  1  0.26041000  0.54258000  0.47465000  1.0
  C  C33  1  0.17714000  0.54234000  0.47131000  1.0
  C  C34  1  0.50620000  0.27418000  0.49645000  1.0
  C  C35  1  0.43439000  0.23870000  0.48425000  1.0
  C  C36  1  0.42848000  0.16124000  0.48210000  1.0
  C  C37  1  0.49434000  0.11488000  0.49221000  1.0
  C  C38  1  0.56667000  0.15060000  0.50369000  1.0
  C  C39  1  0.57231000  0.22806000  0.50569000  1.0
  C  C40  1  0.48939000  0.03639000  0.49204000  1.0
  C  C41  1  0.48937000  0.96834000  0.49390000  1.0
  C  C42  1  0.49399000  0.88993000  0.49639000  1.0
  C  C43  1  0.42704000  0.84498000  0.50538000  1.0
  C  C44  1  0.43320000  0.76754000  0.50818000  1.0
  C  C45  1  0.50638000  0.73028000  0.50180000  1.0
  C  C46  1  0.57338000  0.77531000  0.49318000  1.0
  C  C47  1  0.56743000  0.85278000  0.49057000  1.0
  C  C48  1  0.54385000  0.50320000  0.77082000  1.0
  C  C49  1  0.39877000  0.50031000  0.77493000  1.0
  C  C50  1  0.39052000  0.50117000  0.73056000  1.0
  C  C51  1  0.46112000  0.50246000  0.70468000  1.0
  C  C52  1  0.45622000  0.50367000  0.65910000  1.0
  C  C53  1  0.60129000  0.50077000  0.65496000  1.0
  C  C54  1  0.60956000  0.50125000  0.69934000  1.0
  C  C55  1  0.53898000  0.50236000  0.72523000  1.0
  C  C56  1  0.47516000  0.50212000  0.79532000  1.0
  C  C57  1  0.52487000  0.50275000  0.63457000  1.0
  C  C58  1  0.49727000  0.49106000  0.05759000  1.0
  C  C59  1  0.56770000  0.50496000  0.08154000  1.0
  C  C60  1  0.56874000  0.50327000  0.12643000  1.0
  C  C61  1  0.49918000  0.48736000  0.14998000  1.0
  C  C62  1  0.42879000  0.47269000  0.12599000  1.0
  C  C63  1  0.42797000  0.47448000  0.08110000  1.0
  C  C64  1  0.49981000  0.48687000  0.19537000  1.0
  C  C65  1  0.50028000  0.48746000  0.23467000  1.0
  C  C66  1  0.50094000  0.48919000  0.28004000  1.0
  C  C67  1  0.57154000  0.47576000  0.30421000  1.0
  C  C68  1  0.57233000  0.47848000  0.34906000  1.0
  C  C69  1  0.50279000  0.49478000  0.37236000  1.0
  C  C70  1  0.43223000  0.50766000  0.34824000  1.0
  C  C71  1  0.43120000  0.50502000  0.30338000  1.0
  C  C72  1  0.23542000  0.44794000  0.90732000  1.0
  C  C73  1  0.15211000  0.44525000  0.90675000  1.0
  C  C74  1  0.10856000  0.49619000  0.93181000  1.0
  C  C75  1  0.15339000  0.54745000  0.95656000  1.0
  C  C76  1  0.23672000  0.54601000  0.95490000  1.0
  C  C77  1  0.02437000  0.49626000  0.93154000  1.0
  C  C78  1  0.95152000  0.49656000  0.93048000  1.0
  C  C79  1  0.86736000  0.49774000  0.92883000  1.0
  C  C80  1  0.82384000  0.45654000  0.89783000  1.0
  C  C81  1  0.74058000  0.46026000  0.89715000  1.0
  C  C82  1  0.73926000  0.54087000  0.95460000  1.0
  C  C83  1  0.82255000  0.54085000  0.95776000  1.0
  C  C84  1  0.49420000  0.27142000  0.93140000  1.0
  C  C85  1  0.56628000  0.23525000  0.94269000  1.0
  C  C86  1  0.57259000  0.15771000  0.94322000  1.0
  C  C87  1  0.50680000  0.11198000  0.93245000  1.0
  C  C88  1  0.43419000  0.14834000  0.92190000  1.0
  C  C89  1  0.42819000  0.22588000  0.92142000  1.0
  C  C90  1  0.51186000  0.03353000  0.93163000  1.0
  C  C91  1  0.51193000  0.96554000  0.92960000  1.0
  C  C92  1  0.50673000  0.88715000  0.92778000  1.0
  C  C93  1  0.57298000  0.84142000  0.91873000  1.0
  C  C94  1  0.56615000  0.76397000  0.91732000  1.0
  C  C95  1  0.49301000  0.72756000  0.92521000  1.0
  C  C96  1  0.42664000  0.77335000  0.93369000  1.0
  C  C97  1  0.43322000  0.85081000  0.93491000  1.0
  C  C98  1  0.69160000  0.50015000  0.72002000  1.0
  C  C99  1  0.30850000  0.50026000  0.70986000  1.0
  N  N100  1  0.72306000  0.50046000  0.49882000  1.0
  N  N101  1  0.30021000  0.50276000  0.50445000  1.0
  N  N102  1  0.27657000  0.49741000  0.93076000  1.0
  N  N103  1  0.69945000  0.50120000  0.92502000  1.0
  O  O104  1  0.44858000  0.38914000  0.51545000  1.0
  O  O105  1  0.57520000  0.38954000  0.48934000  1.0
  O  O106  1  0.58208000  0.48696000  0.56584000  1.0
  O  O107  1  0.45071000  0.51929000  0.56932000  1.0
  O  O108  1  0.57880000  0.61719000  0.51292000  1.0
  O  O109  1  0.44793000  0.61170000  0.49246000  1.0
  O  O110  1  0.44133000  0.47852000  0.44025000  1.0
  O  O111  1  0.56915000  0.52166000  0.43808000  1.0
  O  O112  1  0.55164000  0.38744000  0.91428000  1.0
  O  O113  1  0.42492000  0.38630000  0.94025000  1.0
  O  O114  1  0.41793000  0.48517000  0.86404000  1.0
  O  O115  1  0.54899000  0.51844000  0.86058000  1.0
  O  O116  1  0.42002000  0.61447000  0.91649000  1.0
  O  O117  1  0.55084000  0.60921000  0.93716000  1.0
  O  O118  1  0.55872000  0.47529000  0.98972000  1.0
  O  O119  1  0.43045000  0.51744000  0.99176000  1.0
  F  F120  1  0.72325000  0.40187000  0.54588000  1.0
  F  F121  1  0.72065000  0.59900000  0.45182000  1.0
  F  F122  1  0.88337000  0.60101000  0.44804000  1.0
  F  F123  1  0.88590000  0.39578000  0.54667000  1.0
  F  F124  1  0.13733000  0.41515000  0.56047000  1.0
  F  F125  1  0.14013000  0.58341000  0.44075000  1.0
  F  F126  1  0.30232000  0.58407000  0.44746000  1.0
  F  F127  1  0.30020000  0.42298000  0.56213000  1.0
  F  F128  1  0.36857000  0.27888000  0.47337000  1.0
  F  F129  1  0.64318000  0.25748000  0.51833000  1.0
  F  F130  1  0.63151000  0.10867000  0.51378000  1.0
  F  F131  1  0.35810000  0.12990000  0.47020000  1.0
  F  F132  1  0.35536000  0.87777000  0.51185000  1.0
  F  F133  1  0.63352000  0.89322000  0.48189000  1.0
  F  F134  1  0.64597000  0.74506000  0.48598000  1.0
  F  F135  1  0.36589000  0.72977000  0.51817000  1.0
  F  F136  1  0.63678000  0.52267000  0.06184000  1.0
  F  F137  1  0.35811000  0.45797000  0.06093000  1.0
  F  F138  1  0.36069000  0.45626000  0.14700000  1.0
  F  F139  1  0.63773000  0.51817000  0.14782000  1.0
  F  F140  1  0.63984000  0.45950000  0.28342000  1.0
  F  F141  1  0.36202000  0.51874000  0.28179000  1.0
  F  F142  1  0.36294000  0.52512000  0.36773000  1.0
  F  F143  1  0.64240000  0.46300000  0.36943000  1.0
  F  F144  1  0.27633000  0.39994000  0.88353000  1.0
  F  F145  1  0.27901000  0.59483000  0.97792000  1.0
  F  F146  1  0.11626000  0.59768000  0.98124000  1.0
  F  F147  1  0.11367000  0.39473000  0.88230000  1.0
  F  F148  1  0.86233000  0.41449000  0.86897000  1.0
  F  F149  1  0.85960000  0.58175000  0.98809000  1.0
  F  F150  1  0.69732000  0.58188000  0.98179000  1.0
  F  F151  1  0.69945000  0.42203000  0.86753000  1.0
  F  F152  1  0.63201000  0.27472000  0.95423000  1.0
  F  F153  1  0.35708000  0.25605000  0.90954000  1.0
  F  F154  1  0.36938000  0.10701000  0.91132000  1.0
  F  F155  1  0.64321000  0.12570000  0.95432000  1.0
  F  F156  1  0.64465000  0.87339000  0.91098000  1.0
  F  F157  1  0.36780000  0.89207000  0.94363000  1.0
  F  F158  1  0.35419000  0.74382000  0.94222000  1.0
  F  F159  1  0.63273000  0.72522000  0.90724000  1.0
