# generated using pymatgen
data_DyH6C6NO8
_symmetry_space_group_name_H-M   'P 1'
_cell_length_a   6.71755000
_cell_length_b   7.85629000
_cell_length_c   9.20412000
_cell_angle_alpha   95.73230000
_cell_angle_beta   111.16800000
_cell_angle_gamma   94.07070000
_symmetry_Int_Tables_number   1
_chemical_formula_structural   DyH6C6NO8
_chemical_formula_sum   'Dy2 H12 C12 N2 O16'
_cell_volume   447.69702439
_cell_formula_units_Z   2
loop_
 _symmetry_equiv_pos_site_id
 _symmetry_equiv_pos_as_xyz
  1  'x, y, z'
loop_
 _atom_site_type_symbol
 _atom_site_label
 _atom_site_symmetry_multiplicity
 _atom_site_fract_x
 _atom_site_fract_y
 _atom_site_fract_z
 _atom_site_occupancy
  Dy  Dy0  1  0.37365000  0.76330000  0.21595000  1.0
  Dy  Dy1  1  0.62635000  0.23670000  0.78405000  1.0
  H  H2  1  0.75494000  0.26406000  0.38481000  1.0
  H  H3  1  0.24505000  0.73594000  0.61518000  1.0
  H  H4  1  0.96616000  0.22935000  0.55840000  1.0
  H  H5  1  0.03382000  0.77065000  0.44160000  1.0
  H  H6  1  0.03353000  0.83717000  0.76978000  1.0
  H  H7  1  0.96647000  0.16283000  0.23023000  1.0
  H  H8  1  0.78874000  0.71503000  0.74117000  1.0
  H  H9  1  0.21126000  0.28497000  0.25884000  1.0
  H  H10  1  0.92876000  0.57452000  0.09233000  1.0
  H  H11  1  0.07124000  0.42549000  0.90767000  1.0
  H  H12  1  0.88852000  0.76961000  0.11598000  1.0
  H  H13  1  0.11148000  0.23040000  0.88402000  1.0
  C  C14  1  0.84510000  0.46737000  0.57143000  1.0
  C  C15  1  0.15489000  0.53264000  0.42856000  1.0
  C  C16  1  0.90481000  0.32526000  0.47881000  1.0
  C  C17  1  0.09519000  0.67474000  0.52119000  1.0
  C  C18  1  0.88604000  0.76856000  0.67944000  1.0
  C  C19  1  0.11397000  0.23144000  0.32057000  1.0
  C  C20  1  0.75978000  0.89584000  0.57675000  1.0
  C  C21  1  0.24022000  0.10416000  0.42325000  1.0
  C  C22  1  0.60953000  0.96488000  0.01662000  1.0
  C  C23  1  0.39050000  0.03510000  0.98339000  1.0
  C  C24  1  0.58567000  0.47354000  0.07402000  1.0
  C  C25  1  0.41432000  0.52647000  0.92597000  1.0
  N  N26  1  0.93905000  0.62745000  0.59011000  1.0
  N  N27  1  0.06095000  0.37255000  0.40990000  1.0
  O  O28  1  0.70882000  0.42941000  0.63131000  1.0
  O  O29  1  0.29117000  0.57059000  0.36868000  1.0
  O  O30  1  0.75019000  0.03976000  0.64662000  1.0
  O  O31  1  0.24981000  0.96024000  0.35337000  1.0
  O  O32  1  0.67588000  0.85112000  0.42947000  1.0
  O  O33  1  0.32412000  0.14887000  0.57054000  1.0
  O  O34  1  0.72100000  0.01407000  0.94092000  1.0
  O  O35  1  0.27901000  0.98592000  0.05909000  1.0
  O  O36  1  0.65976000  0.86173000  0.11903000  1.0
  O  O37  1  0.34026000  0.13827000  0.88097000  1.0
  O  O38  1  0.72397000  0.38345000  0.04964000  1.0
  O  O39  1  0.27603000  0.61656000  0.95035000  1.0
  O  O40  1  0.57869000  0.52647000  0.20555000  1.0
  O  O41  1  0.42130000  0.47354000  0.79445000  1.0
  O  O42  1  0.99559000  0.69307000  0.10398000  1.0
  O  O43  1  0.00442000  0.30693000  0.89602000  1.0
