# generated using pymatgen
data_BiH2C8NO6
_symmetry_space_group_name_H-M   'P 1'
_cell_length_a   5.27500000
_cell_length_b   9.80819000
_cell_length_c   15.08750000
_cell_angle_alpha   94.43140000
_cell_angle_beta   89.99950000
_cell_angle_gamma   89.99950000
_symmetry_Int_Tables_number   1
_chemical_formula_structural   BiH2C8NO6
_chemical_formula_sum   'Bi4 H8 C32 N4 O24'
_cell_volume   778.26656751
_cell_formula_units_Z   4
loop_
 _symmetry_equiv_pos_site_id
 _symmetry_equiv_pos_as_xyz
  1  'x, y, z'
loop_
 _atom_site_type_symbol
 _atom_site_label
 _atom_site_symmetry_multiplicity
 _atom_site_fract_x
 _atom_site_fract_y
 _atom_site_fract_z
 _atom_site_occupancy
  Bi  Bi0  1  0.81813000  0.64613000  0.41789000  1.0
  Bi  Bi1  1  0.31813000  0.85388000  0.08211000  1.0
  Bi  Bi2  1  0.18185000  0.35387000  0.58211000  1.0
  Bi  Bi3  1  0.68187000  0.14613000  0.91789000  1.0
  H  H4  1  0.78459000  0.46522000  0.06484000  1.0
  H  H5  1  0.28458000  0.03479000  0.43516000  1.0
  H  H6  1  0.21542000  0.53478000  0.93516000  1.0
  H  H7  1  0.71541000  0.96521000  0.56483000  1.0
  H  H8  1  0.42839000  0.31344000  0.20413000  1.0
  H  H9  1  0.92838000  0.18656000  0.29587000  1.0
  H  H10  1  0.57162000  0.68656000  0.79587000  1.0
  H  H11  1  0.07162000  0.81344000  0.70413000  1.0
  C  C12  1  0.61546000  0.63785000  0.20919000  1.0
  C  C13  1  0.11545000  0.86216000  0.29082000  1.0
  C  C14  1  0.38454000  0.36215000  0.79081000  1.0
  C  C15  1  0.88455000  0.13784000  0.70918000  1.0
  C  C16  1  0.83250000  0.53710000  0.20240000  1.0
  C  C17  1  0.33249000  0.96291000  0.29760000  1.0
  C  C18  1  0.16750000  0.46290000  0.79760000  1.0
  C  C19  1  0.66751000  0.03709000  0.70240000  1.0
  C  C20  1  0.89951000  0.46014000  0.12424000  1.0
  C  C21  1  0.39949000  0.03987000  0.37577000  1.0
  C  C22  1  0.10050000  0.53986000  0.87576000  1.0
  C  C23  1  0.60051000  0.96013000  0.62423000  1.0
  C  C24  1  0.11670000  0.37837000  0.12411000  1.0
  C  C25  1  0.61669000  0.12164000  0.37589000  1.0
  C  C26  1  0.88330000  0.62163000  0.87589000  1.0
  C  C27  1  0.38330000  0.87837000  0.62411000  1.0
  C  C28  1  0.20603000  0.29962000  0.03977000  1.0
  C  C29  1  0.70602000  0.20038000  0.46023000  1.0
  C  C30  1  0.79398000  0.70038000  0.96023000  1.0
  C  C31  1  0.29397000  0.79962000  0.53977000  1.0
  C  C32  1  0.25629000  0.37411000  0.20253000  1.0
  C  C33  1  0.75628000  0.12590000  0.29747000  1.0
  C  C34  1  0.74373000  0.62589000  0.79747000  1.0
  C  C35  1  0.24373000  0.87410000  0.70253000  1.0
  C  C36  1  0.17179000  0.44973000  0.27869000  1.0
  C  C37  1  0.67178000  0.05028000  0.22131000  1.0
  C  C38  1  0.82820000  0.55027000  0.72131000  1.0
  C  C39  1  0.32822000  0.94972000  0.77870000  1.0
  C  C40  1  0.31131000  0.45561000  0.36581000  1.0
  C  C41  1  0.81132000  0.04439000  0.13419000  1.0
  C  C42  1  0.68868000  0.54439000  0.63419000  1.0
  C  C43  1  0.18871000  0.95561000  0.86581000  1.0
  N  N44  1  0.96496000  0.52855000  0.27741000  1.0
  N  N45  1  0.46494000  0.97146000  0.22259000  1.0
  N  N46  1  0.03504000  0.47145000  0.72259000  1.0
  N  N47  1  0.53507000  0.02854000  0.77741000  1.0
  O  O48  1  0.55568000  0.69022000  0.28539000  1.0
  O  O49  1  0.05567000  0.80978000  0.21461000  1.0
  O  O50  1  0.44431000  0.30978000  0.71461000  1.0
  O  O51  1  0.94432000  0.19022000  0.78539000  1.0
  O  O52  1  0.50827000  0.66108000  0.13590000  1.0
  O  O53  1  0.00825000  0.83894000  0.36410000  1.0
  O  O54  1  0.49173000  0.33892000  0.86409000  1.0
  O  O55  1  0.99174000  0.16106000  0.63590000  1.0
  O  O56  1  0.04932000  0.27940000  0.97665000  1.0
  O  O57  1  0.54932000  0.22060000  0.52335000  1.0
  O  O58  1  0.95068000  0.72060000  0.02335000  1.0
  O  O59  1  0.45067000  0.77940000  0.47665000  1.0
  O  O60  1  0.43891000  0.26495000  0.03885000  1.0
  O  O61  1  0.93890000  0.23505000  0.46115000  1.0
  O  O62  1  0.56110000  0.73505000  0.96115000  1.0
  O  O63  1  0.06109000  0.76495000  0.53885000  1.0
  O  O64  1  0.53939000  0.41989000  0.36653000  1.0
  O  O65  1  0.03937000  0.08011000  0.13347000  1.0
  O  O66  1  0.46061000  0.58011000  0.63347000  1.0
  O  O67  1  0.96063000  0.91989000  0.86653000  1.0
  O  O68  1  0.18641000  0.50266000  0.43505000  1.0
  O  O69  1  0.68641000  0.99734000  0.06495000  1.0
  O  O70  1  0.81357000  0.49734000  0.56495000  1.0
  O  O71  1  0.31360000  0.00266000  0.93505000  1.0
