# generated using pymatgen
data_Zn3H18C20(NO2)4
_symmetry_space_group_name_H-M   'P 1'
_cell_length_a   9.01144000
_cell_length_b   11.20240000
_cell_length_c   16.69120000
_cell_angle_alpha   108.20500000
_cell_angle_beta   90.00000000
_cell_angle_gamma   113.71600000
_symmetry_Int_Tables_number   1
_chemical_formula_structural   Zn3H18C20(NO2)4
_chemical_formula_sum   'Zn6 H36 C40 N8 O16'
_cell_volume   1450.08260827
_cell_formula_units_Z   2
loop_
 _symmetry_equiv_pos_site_id
 _symmetry_equiv_pos_as_xyz
  1  'x, y, z'
loop_
 _atom_site_type_symbol
 _atom_site_label
 _atom_site_symmetry_multiplicity
 _atom_site_fract_x
 _atom_site_fract_y
 _atom_site_fract_z
 _atom_site_occupancy
  Zn  Zn0  1  0.84873000  0.32320000  0.77105000  1.0
  Zn  Zn1  1  0.52548000  0.67663000  0.72894000  1.0
  Zn  Zn2  1  0.15127000  0.67680000  0.22895000  1.0
  Zn  Zn3  1  0.47451000  0.32337000  0.27106000  1.0
  Zn  Zn4  1  0.75200000  0.99991000  0.74998000  1.0
  Zn  Zn5  1  0.24800000  0.00009000  0.25002000  1.0
  H  H6  1  0.45696000  0.57143000  0.37156000  1.0
  H  H7  1  0.88556000  0.42862000  0.12839000  1.0
  H  H8  1  0.54304000  0.42857000  0.62844000  1.0
  H  H9  1  0.11444000  0.57138000  0.87160000  1.0
  H  H10  1  0.07955000  0.47435000  0.02960000  1.0
  H  H11  1  0.60546000  0.52563000  0.47039000  1.0
  H  H12  1  0.92045000  0.52565000  0.97040000  1.0
  H  H13  1  0.39454000  0.47437000  0.52961000  1.0
  H  H14  1  0.10639000  0.07858000  0.94254000  1.0
  H  H15  1  0.02792000  0.92150000  0.55749000  1.0
  H  H16  1  0.89361000  0.92143000  0.05746000  1.0
  H  H17  1  0.97208000  0.07850000  0.44251000  1.0
  H  H18  1  0.27367000  0.13652000  0.07998000  1.0
  H  H19  1  0.13719000  0.86370000  0.42003000  1.0
  H  H20  1  0.72632000  0.86348000  0.92002000  1.0
  H  H21  1  0.86280000  0.13630000  0.57997000  1.0
  H  H22  1  0.54954000  0.80573000  0.29650000  1.0
  H  H23  1  0.74435000  0.19440000  0.20355000  1.0
  H  H24  1  0.45046000  0.19427000  0.70350000  1.0
  H  H25  1  0.25565000  0.80560000  0.79644000  1.0
  H  H26  1  0.66294000  0.70550000  0.29157000  1.0
  H  H27  1  0.95793000  0.29482000  0.20842000  1.0
  H  H28  1  0.33706000  0.29450000  0.70843000  1.0
  H  H29  1  0.04207000  0.70518000  0.79158000  1.0
  H  H30  1  0.64732000  0.81230000  0.39256000  1.0
  H  H31  1  0.83543000  0.18787000  0.10747000  1.0
  H  H32  1  0.35268000  0.18770000  0.60744000  1.0
  H  H33  1  0.16457000  0.81213000  0.89253000  1.0
  H  H34  1  0.65472000  0.10872000  0.65819000  1.0
  H  H35  1  0.54588000  0.89107000  0.84173000  1.0
  H  H36  1  0.34528000  0.89128000  0.34181000  1.0
  H  H37  1  0.45412000  0.10893000  0.15827000  1.0
  H  H38  1  0.23605000  0.61860000  0.39579000  1.0
  H  H39  1  0.61748000  0.38117000  0.10409000  1.0
  H  H40  1  0.76395000  0.38141000  0.60421000  1.0
  H  H41  1  0.38251000  0.61883000  0.89591000  1.0
  C  C42  1  0.42629000  0.62574000  0.33405000  1.0
  C  C43  1  0.80068000  0.37431000  0.16595000  1.0
  C  C44  1  0.57371000  0.37427000  0.66595000  1.0
  C  C45  1  0.19932000  0.62569000  0.83405000  1.0
  C  C46  1  0.34274000  0.52186000  0.24697000  1.0
  C  C47  1  0.82098000  0.47824000  0.25300000  1.0
  C  C48  1  0.65727000  0.47814000  0.75303000  1.0
  C  C49  1  0.17902000  0.52175000  0.74700000  1.0
  C  C50  1  0.21116000  0.43219000  0.11795000  1.0
  C  C51  1  0.77921000  0.56792000  0.38205000  1.0
  C  C52  1  0.78884000  0.56781000  0.88205000  1.0
  C  C53  1  0.22079000  0.43207000  0.61796000  1.0
  C  C54  1  0.27018000  0.33926000  0.13202000  1.0
  C  C55  1  0.93116000  0.66084000  0.36797000  1.0
  C  C56  1  0.72982000  0.66074000  0.86798000  1.0
  C  C57  1  0.06884000  0.33916000  0.63203000  1.0
  C  C58  1  0.12178000  0.40156000  0.04039000  1.0
  C  C59  1  0.72052000  0.59844000  0.45962000  1.0
  C  C60  1  0.87822000  0.59844000  0.95961000  1.0
  C  C61  1  0.27948000  0.40155000  0.54038000  1.0
  C  C62  1  0.14034000  0.17848000  0.99270000  1.0
  C  C63  1  0.96206000  0.82158000  0.50735000  1.0
  C  C64  1  0.85966000  0.82152000  0.00730000  1.0
  C  C65  1  0.03794000  0.17842000  0.49266000  1.0
  C  C66  1  0.98302000  0.23246000  0.89524000  1.0
  C  C67  1  0.75068000  0.76735000  0.60478000  1.0
  C  C68  1  0.01698000  0.76755000  0.10475000  1.0
  C  C69  1  0.24932000  0.23265000  0.39523000  1.0
  C  C70  1  0.08563000  0.27290000  0.97770000  1.0
  C  C71  1  0.81299000  0.72707000  0.52234000  1.0
  C  C72  1  0.91437000  0.72710000  0.02230000  1.0
  C  C73  1  0.18701000  0.27292000  0.47766000  1.0
  C  C74  1  0.23375000  0.21046000  0.06896000  1.0
  C  C75  1  0.02341000  0.78967000  0.43106000  1.0
  C  C76  1  0.76625000  0.78955000  0.93105000  1.0
  C  C77  1  0.97659000  0.21033000  0.56894000  1.0
  C  C78  1  0.58140000  0.74507000  0.32828000  1.0
  C  C79  1  0.83675000  0.25510000  0.17174000  1.0
  C  C80  1  0.41860000  0.25493000  0.67171000  1.0
  C  C81  1  0.16325000  0.74490000  0.82825000  1.0
  N  N82  1  0.25674000  0.54583000  0.19246000  1.0
  N  N83  1  0.71105000  0.45429000  0.30753000  1.0
  N  N84  1  0.74326000  0.45417000  0.80754000  1.0
  N  N85  1  0.28895000  0.54571000  0.69247000  1.0
  N  N86  1  0.35453000  0.39950000  0.21422000  1.0
  N  N87  1  0.95517000  0.60059000  0.28575000  1.0
  N  N88  1  0.64546000  0.60050000  0.78578000  1.0
  N  N89  1  0.04483000  0.39941000  0.71425000  1.0
  O  O90  1  0.93411000  0.10679000  0.84553000  1.0
  O  O91  1  0.82737000  0.89300000  0.65453000  1.0
  O  O92  1  0.06589000  0.89322000  0.15447000  1.0
  O  O93  1  0.17263000  0.10700000  0.34547000  1.0
  O  O94  1  0.94949000  0.32493000  0.88046000  1.0
  O  O95  1  0.62475000  0.67481000  0.61956000  1.0
  O  O96  1  0.05051000  0.67508000  0.11954000  1.0
  O  O97  1  0.37525000  0.32519000  0.38044000  1.0
  O  O98  1  0.69698000  0.13002000  0.71679000  1.0
  O  O99  1  0.56679000  0.86982000  0.78312000  1.0
  O  O100  1  0.30301000  0.86998000  0.28321000  1.0
  O  O101  1  0.43321000  0.13018000  0.21688000  1.0
  O  O102  1  0.32158000  0.68672000  0.37713000  1.0
  O  O103  1  0.63493000  0.31317000  0.12289000  1.0
  O  O104  1  0.67843000  0.31329000  0.62287000  1.0
  O  O105  1  0.36507000  0.68683000  0.87711000  1.0
