# generated using pymatgen
data_CdH26C24N4O7
_symmetry_space_group_name_H-M   'P 1'
_cell_length_a   17.66040000
_cell_length_b   17.72990000
_cell_length_c   17.71070000
_cell_angle_alpha   107.98300000
_cell_angle_beta   102.26400000
_cell_angle_gamma   118.46400000
_symmetry_Int_Tables_number   1
_chemical_formula_structural   CdH26C24N4O7
_chemical_formula_sum   'Cd6 H156 C144 N24 O42'
_cell_volume   4186.39752082
_cell_formula_units_Z   6
loop_
 _symmetry_equiv_pos_site_id
 _symmetry_equiv_pos_as_xyz
  1  'x, y, z'
loop_
 _atom_site_type_symbol
 _atom_site_label
 _atom_site_symmetry_multiplicity
 _atom_site_fract_x
 _atom_site_fract_y
 _atom_site_fract_z
 _atom_site_occupancy
  Cd  Cd0  1  0.40872000  0.16008000  0.75249000  1.0
  Cd  Cd1  1  0.59126000  0.83990000  0.24750000  1.0
  Cd  Cd2  1  0.03305000  0.41420000  0.76311000  1.0
  Cd  Cd3  1  0.65179000  0.77144000  0.73742000  1.0
  Cd  Cd4  1  0.96698000  0.58581000  0.23688000  1.0
  Cd  Cd5  1  0.34824000  0.22859000  0.26260000  1.0
  H  H6  1  0.04039000  0.88813000  0.36631000  1.0
  H  H7  1  0.52064000  0.17387000  0.13577000  1.0
  H  H8  1  0.95960000  0.11176000  0.63370000  1.0
  H  H9  1  0.47944000  0.82613000  0.86417000  1.0
  H  H10  1  0.81809000  0.40830000  0.40432000  1.0
  H  H11  1  0.00386000  0.91367000  0.09515000  1.0
  H  H12  1  0.18195000  0.59174000  0.59568000  1.0
  H  H13  1  0.99605000  0.08624000  0.90490000  1.0
  H  H14  1  0.32332000  0.47805000  0.11009000  1.0
  H  H15  1  0.36834000  0.71338000  0.38955000  1.0
  H  H16  1  0.67671000  0.52195000  0.88990000  1.0
  H  H17  1  0.63159000  0.28656000  0.61044000  1.0
  H  H18  1  0.44228000  0.18279000  0.59490000  1.0
  H  H19  1  0.58982000  0.34731000  0.90792000  1.0
  H  H20  1  0.55768000  0.81721000  0.40508000  1.0
  H  H21  1  0.41020000  0.65277000  0.09205000  1.0
  H  H22  1  0.35270000  0.13579000  0.43693000  1.0
  H  H23  1  0.70016000  0.41469000  0.06572000  1.0
  H  H24  1  0.64722000  0.86417000  0.56304000  1.0
  H  H25  1  0.29984000  0.58537000  0.93425000  1.0
  H  H26  1  0.17841000  0.01312000  0.36180000  1.0
  H  H27  1  0.65153000  0.31480000  0.14012000  1.0
  H  H28  1  0.82151000  0.98681000  0.63821000  1.0
  H  H29  1  0.34850000  0.68526000  0.85984000  1.0
  H  H30  1  0.19218000  0.98864000  0.59864000  1.0
  H  H31  1  0.39005000  0.09356000  0.90206000  1.0
  H  H32  1  0.80783000  0.01138000  0.40143000  1.0
  H  H33  1  0.60995000  0.90655000  0.09795000  1.0
  H  H34  1  0.89433000  0.88492000  0.38786000  1.0
  H  H35  1  0.49874000  0.00695000  0.11566000  1.0
  H  H36  1  0.10563000  0.11507000  0.61211000  1.0
  H  H37  1  0.50120000  0.99303000  0.88423000  1.0
  H  H38  1  0.89266000  0.77936000  0.35076000  1.0
  H  H39  1  0.42864000  0.04174000  0.15101000  1.0
  H  H40  1  0.10732000  0.22064000  0.64922000  1.0
  H  H41  1  0.57126000  0.95822000  0.84888000  1.0
  H  H42  1  0.76515000  0.76228000  0.40099000  1.0
  H  H43  1  0.36172000  0.86412000  0.10033000  1.0
  H  H44  1  0.23479000  0.23765000  0.59894000  1.0
  H  H45  1  0.63823000  0.13581000  0.89946000  1.0
  H  H46  1  0.85308000  0.85384000  0.50868000  1.0
  H  H47  1  0.34788000  0.84608000  0.99329000  1.0
  H  H48  1  0.14685000  0.14614000  0.49125000  1.0
  H  H49  1  0.65202000  0.15394000  0.00650000  1.0
  H  H50  1  0.84152000  0.66989000  0.41436000  1.0
  H  H51  1  0.25547000  0.92679000  0.08598000  1.0
  H  H52  1  0.15851000  0.33014000  0.58565000  1.0
  H  H53  1  0.74449000  0.07320000  0.91396000  1.0
  H  H54  1  0.90598000  0.75456000  0.52758000  1.0
  H  H55  1  0.22896000  0.87924000  0.97310000  1.0
  H  H56  1  0.09403000  0.24549000  0.47243000  1.0
  H  H57  1  0.77088000  0.12070000  0.02682000  1.0
  H  H58  1  0.68838000  0.61088000  0.42259000  1.0
  H  H59  1  0.18830000  0.76563000  0.07699000  1.0
  H  H60  1  0.31163000  0.38913000  0.57741000  1.0
  H  H61  1  0.81173000  0.23441000  0.92302000  1.0
  H  H62  1  0.74285000  0.70705000  0.52881000  1.0
  H  H63  1  0.17942000  0.71508000  0.97088000  1.0
  H  H64  1  0.25716000  0.29296000  0.47118000  1.0
  H  H65  1  0.82054000  0.28489000  0.02910000  1.0
  H  H66  1  0.82894000  0.64275000  0.58666000  1.0
  H  H67  1  0.05690000  0.74294000  0.91300000  1.0
  H  H68  1  0.17109000  0.35727000  0.41333000  1.0
  H  H69  1  0.94295000  0.25689000  0.08700000  1.0
  H  H70  1  0.70392000  0.55929000  0.54077000  1.0
  H  H71  1  0.01884000  0.66388000  0.95882000  1.0
  H  H72  1  0.29612000  0.44073000  0.45924000  1.0
  H  H73  1  0.98114000  0.33606000  0.04129000  1.0
  H  H74  1  0.69816000  0.45261000  0.41303000  1.0
  H  H75  1  0.03915000  0.78505000  0.08651000  1.0
  H  H76  1  0.30186000  0.54741000  0.58695000  1.0
  H  H77  1  0.96080000  0.21494000  0.91352000  1.0
  H  H78  1  0.81219000  0.54343000  0.42973000  1.0
  H  H79  1  0.11359000  0.88210000  0.06983000  1.0
  H  H80  1  0.18784000  0.45660000  0.57026000  1.0
  H  H81  1  0.88638000  0.11785000  0.93018000  1.0
  H  H82  1  0.83341000  0.27787000  0.36544000  1.0
  H  H83  1  0.90846000  0.96307000  0.13453000  1.0
  H  H84  1  0.16679000  0.72229000  0.63455000  1.0
  H  H85  1  0.09145000  0.03682000  0.86552000  1.0
  H  H86  1  0.90607000  0.20065000  0.41833000  1.0
  H  H87  1  0.77706000  0.98107000  0.08284000  1.0
  H  H88  1  0.09417000  0.79954000  0.58165000  1.0
  H  H89  1  0.22284000  0.01881000  0.91722000  1.0
  H  H90  1  0.98608000  0.26405000  0.58099000  1.0
  H  H91  1  0.68099000  0.90355000  0.91985000  1.0
  H  H92  1  0.01407000  0.73607000  0.41899000  1.0
  H  H93  1  0.31897000  0.09644000  0.08022000  1.0
  H  H94  1  0.93628000  0.47626000  0.63790000  1.0
  H  H95  1  0.83984000  0.80109000  0.86198000  1.0
  H  H96  1  0.06364000  0.52369000  0.36209000  1.0
  H  H97  1  0.16021000  0.19901000  0.13805000  1.0
  H  H98  1  0.05606000  0.54664000  0.95756000  1.0
  H  H99  1  0.58858000  0.59821000  0.54260000  1.0
  H  H100  1  0.94395000  0.45335000  0.04242000  1.0
  H  H101  1  0.41141000  0.40178000  0.45741000  1.0
  H  H102  1  0.14677000  0.60767000  0.11870000  1.0
  H  H103  1  0.48834000  0.52746000  0.38143000  1.0
  H  H104  1  0.85322000  0.39231000  0.88129000  1.0
  H  H105  1  0.51164000  0.47252000  0.61859000  1.0
  H  H106  1  0.25040000  0.55556000  0.16040000  1.0
  H  H107  1  0.39489000  0.58960000  0.33939000  1.0
  H  H108  1  0.74958000  0.44441000  0.83961000  1.0
  H  H109  1  0.60507000  0.41036000  0.66062000  1.0
  H  H110  1  0.15480000  0.37833000  0.88305000  1.0
  H  H111  1  0.49544000  0.77209000  0.61668000  1.0
  H  H112  1  0.84524000  0.62168000  0.11696000  1.0
  H  H113  1  0.50454000  0.22790000  0.38332000  1.0
  H  H114  1  0.31137000  0.26978000  0.02435000  1.0
  H  H115  1  0.24471000  0.78653000  0.47473000  1.0
  H  H116  1  0.68863000  0.73019000  0.97565000  1.0
  H  H117  1  0.75528000  0.21347000  0.52526000  1.0
  H  H118  1  0.37565000  0.39047000  0.11095000  1.0
  H  H119  1  0.28015000  0.76520000  0.38864000  1.0
  H  H120  1  0.62434000  0.60950000  0.88906000  1.0
  H  H121  1  0.71985000  0.23480000  0.61136000  1.0
  H  H122  1  0.47567000  0.37944000  0.03943000  1.0
  H  H123  1  0.33944000  0.93558000  0.46025000  1.0
  H  H124  1  0.52430000  0.62053000  0.96055000  1.0
  H  H125  1  0.66056000  0.06443000  0.53976000  1.0
  H  H126  1  0.38537000  0.32399000  0.93346000  1.0
  H  H127  1  0.38972000  0.95108000  0.56631000  1.0
  H  H128  1  0.61460000  0.67600000  0.06654000  1.0
  H  H129  1  0.61029000  0.04892000  0.43370000  1.0
  H  H130  1  0.40011000  0.47572000  0.96189000  1.0
  H  H131  1  0.51426000  0.93879000  0.53831000  1.0
  H  H132  1  0.59988000  0.52428000  0.03812000  1.0
  H  H133  1  0.48574000  0.06120000  0.46168000  1.0
  H  H134  1  0.47315000  0.53176000  0.07469000  1.0
  H  H135  1  0.45794000  0.89913000  0.42542000  1.0
  H  H136  1  0.52684000  0.46822000  0.92531000  1.0
  H  H137  1  0.54205000  0.10086000  0.57457000  1.0
  H  H138  1  0.70878000  0.25532000  0.74394000  1.0
  H  H139  1  0.51285000  0.46672000  0.75605000  1.0
  H  H140  1  0.29134000  0.74474000  0.25607000  1.0
  H  H141  1  0.48719000  0.53331000  0.24396000  1.0
  H  H142  1  0.83443000  0.09969000  0.74881000  1.0
  H  H143  1  0.35032000  0.58544000  0.75052000  1.0
  H  H144  1  0.16561000  0.90029000  0.25121000  1.0
  H  H145  1  0.64969000  0.41457000  0.24947000  1.0
  H  H146  1  0.54738000  0.97196000  0.72525000  1.0
  H  H147  1  0.24618000  0.32228000  0.77285000  1.0
  H  H148  1  0.45263000  0.02806000  0.27467000  1.0
  H  H149  1  0.75383000  0.67771000  0.22712000  1.0
  H  H150  1  0.97729000  0.55294000  0.80716000  1.0
  H  H151  1  0.74510000  0.67106000  0.69450000  1.0
  H  H152  1  0.02271000  0.44701000  0.19284000  1.0
  H  H153  1  0.25494000  0.32899000  0.30558000  1.0
  H  H154  1  0.08769000  0.62290000  0.84490000  1.0
  H  H155  1  0.77749000  0.74097000  0.65417000  1.0
  H  H156  1  0.91231000  0.37708000  0.15514000  1.0
  H  H157  1  0.22247000  0.25898000  0.34580000  1.0
  H  H158  1  0.20731000  0.01076000  0.72781000  1.0
  H  H159  1  0.26141000  0.96218000  0.72939000  1.0
  H  H160  1  0.79243000  0.98868000  0.27233000  1.0
  H  H161  1  0.73884000  0.03781000  0.27147000  1.0
  C  C162  1  0.36536000  0.12837000  0.55806000  1.0
  C  C163  1  0.57195000  0.30702000  0.94451000  1.0
  C  C164  1  0.63459000  0.87162000  0.44194000  1.0
  C  C165  1  0.42807000  0.69306000  0.05546000  1.0
  C  C166  1  0.31567000  0.10183000  0.47136000  1.0
  C  C167  1  0.63175000  0.34350000  0.03108000  1.0
  C  C168  1  0.68427000  0.89813000  0.52862000  1.0
  C  C169  1  0.36827000  0.65656000  0.96889000  1.0
  C  C170  1  0.21742000  0.03219000  0.42907000  1.0
  C  C171  1  0.60376000  0.28716000  0.07289000  1.0
  C  C172  1  0.78252000  0.96776000  0.57093000  1.0
  C  C173  1  0.39627000  0.71289000  0.92708000  1.0
  C  C174  1  0.17049000  0.98925000  0.47433000  1.0
  C  C175  1  0.51555000  0.19535000  0.02745000  1.0
  C  C176  1  0.82947000  0.01070000  0.52570000  1.0
  C  C177  1  0.48448000  0.80470000  0.97252000  1.0
  C  C178  1  0.22596000  0.01934000  0.56118000  1.0
  C  C179  1  0.45876000  0.16405000  0.94052000  1.0
  C  C180  1  0.77401000  0.98066000  0.43886000  1.0
  C  C181  1  0.54125000  0.83604000  0.05947000  1.0
  C  C182  1  0.01032000  0.89980000  0.47332000  1.0
  C  C183  1  0.42958000  0.03683000  0.02879000  1.0
  C  C184  1  0.98963000  0.10020000  0.52668000  1.0
  C  C185  1  0.57038000  0.96319000  0.97112000  1.0
  C  C186  1  0.90612000  0.83798000  0.40979000  1.0
  C  C187  1  0.42971000  0.99669000  0.09278000  1.0
  C  C188  1  0.09385000  0.16202000  0.59019000  1.0
  C  C189  1  0.57023000  0.00330000  0.90711000  1.0
  C  C190  1  0.83732000  0.79500000  0.44860000  1.0
  C  C191  1  0.34791000  0.88940000  0.05312000  1.0
  C  C192  1  0.16262000  0.20497000  0.55136000  1.0
  C  C193  1  0.65202000  0.11059000  0.94672000  1.0
  C  C194  1  0.83944000  0.71817000  0.46924000  1.0
  C  C195  1  0.24991000  0.87054000  0.03134000  1.0
  C  C196  1  0.16056000  0.28185000  0.53075000  1.0
  C  C197  1  0.75002000  0.12943000  0.96858000  1.0
  C  C198  1  0.75362000  0.65716000  0.48471000  1.0
  C  C199  1  0.17307000  0.76932000  0.01509000  1.0
  C  C200  1  0.24638000  0.34284000  0.51528000  1.0
  C  C201  1  0.82689000  0.23066000  0.98490000  1.0
  C  C202  1  0.76383000  0.59500000  0.52420000  1.0
  C  C203  1  0.07121000  0.74008000  0.97540000  1.0
  C  C204  1  0.23620000  0.40501000  0.47579000  1.0
  C  C205  1  0.92873000  0.25985000  0.02464000  1.0
  C  C206  1  0.76963000  0.51632000  0.46458000  1.0
  C  C207  1  0.05160000  0.80502000  0.03497000  1.0
  C  C208  1  0.23039000  0.48371000  0.53540000  1.0
  C  C209  1  0.94835000  0.19494000  0.96504000  1.0
  C  C210  1  0.81349000  0.48159000  0.51597000  1.0
  C  C211  1  0.96534000  0.79755000  0.98367000  1.0
  C  C212  1  0.18653000  0.51843000  0.48401000  1.0
  C  C213  1  0.03465000  0.20245000  0.01634000  1.0
  C  C214  1  0.87862000  0.38313000  0.49759000  1.0
  C  C215  1  0.88479000  0.88063000  0.00227000  1.0
  C  C216  1  0.12141000  0.61691000  0.50241000  1.0
  C  C217  1  0.11518000  0.11934000  0.99777000  1.0
  C  C218  1  0.87105000  0.30483000  0.43553000  1.0
  C  C219  1  0.86665000  0.93254000  0.06452000  1.0
  C  C220  1  0.12908000  0.69529000  0.56445000  1.0
  C  C221  1  0.13328000  0.06737000  0.93552000  1.0
  C  C222  1  0.91032000  0.26145000  0.46448000  1.0
  C  C223  1  0.79374000  0.94241000  0.03609000  1.0
  C  C224  1  0.08987000  0.73871000  0.53551000  1.0
  C  C225  1  0.20619000  0.05752000  0.96397000  1.0
  C  C226  1  0.95545000  0.29611000  0.55449000  1.0
  C  C227  1  0.73997000  0.89972000  0.94605000  1.0
  C  C228  1  0.04466000  0.70397000  0.44549000  1.0
  C  C229  1  0.26000000  0.10028000  0.05400000  1.0
  C  C230  1  0.92726000  0.41518000  0.58722000  1.0
  C  C231  1  0.82832000  0.84127000  0.91277000  1.0
  C  C232  1  0.07274000  0.58482000  0.41277000  1.0
  C  C233  1  0.17169000  0.15879000  0.08727000  1.0
  C  C234  1  0.10086000  0.52441000  0.97905000  1.0
  C  C235  1  0.54503000  0.62165000  0.52099000  1.0
  C  C236  1  0.89914000  0.47558000  0.02094000  1.0
  C  C237  1  0.45495000  0.37834000  0.47901000  1.0
  C  C238  1  0.15179000  0.55885000  0.06794000  1.0
  C  C239  1  0.49046000  0.58347000  0.43206000  1.0
  C  C240  1  0.84820000  0.44113000  0.93205000  1.0
  C  C241  1  0.50951000  0.41652000  0.56794000  1.0
  C  C242  1  0.20820000  0.52828000  0.09123000  1.0
  C  C243  1  0.43677000  0.61669000  0.40860000  1.0
  C  C244  1  0.79180000  0.47171000  0.90877000  1.0
  C  C245  1  0.56320000  0.38330000  0.59141000  1.0
  C  C246  1  0.21050000  0.46193000  0.02517000  1.0
  C  C247  1  0.43669000  0.68530000  0.47458000  1.0
  C  C248  1  0.78951000  0.53807000  0.97483000  1.0
  C  C249  1  0.56328000  0.31469000  0.52543000  1.0
  C  C250  1  0.15594000  0.42988000  0.93699000  1.0
  C  C251  1  0.49286000  0.71907000  0.56279000  1.0
  C  C252  1  0.84409000  0.57014000  0.06301000  1.0
  C  C253  1  0.50712000  0.28090000  0.43722000  1.0
  C  C254  1  0.26052000  0.34982000  0.99783000  1.0
  C  C255  1  0.35181000  0.76276000  0.50180000  1.0
  C  C256  1  0.73946000  0.65016000  0.00219000  1.0
  C  C257  1  0.64818000  0.23724000  0.49821000  1.0
  C  C258  1  0.34177000  0.34572000  0.03908000  1.0
  C  C259  1  0.30659000  0.80269000  0.46045000  1.0
  C  C260  1  0.65822000  0.65425000  0.96092000  1.0
  C  C261  1  0.69340000  0.19732000  0.53954000  1.0
  C  C262  1  0.41673000  0.37900000  0.00238000  1.0
  C  C263  1  0.37624000  0.91397000  0.49739000  1.0
  C  C264  1  0.58325000  0.62099000  0.99761000  1.0
  C  C265  1  0.62377000  0.08605000  0.50262000  1.0
  C  C266  1  0.45585000  0.47981000  0.00904000  1.0
  C  C267  1  0.47101000  0.94702000  0.49098000  1.0
  C  C268  1  0.54414000  0.52018000  0.99096000  1.0
  C  C269  1  0.52900000  0.05298000  0.50901000  1.0
  C  C270  1  0.53944000  0.12364000  0.73089000  1.0
  C  C271  1  0.39359000  0.31027000  0.76818000  1.0
  C  C272  1  0.46063000  0.87643000  0.26910000  1.0
  C  C273  1  0.60645000  0.68975000  0.23181000  1.0
  C  C274  1  0.86873000  0.26438000  0.74847000  1.0
  C  C275  1  0.51624000  0.62072000  0.75074000  1.0
  C  C276  1  0.13134000  0.73562000  0.25155000  1.0
  C  C277  1  0.48380000  0.37930000  0.24927000  1.0
  C  C278  1  0.68651000  0.94207000  0.74227000  1.0
  C  C279  1  0.19843000  0.44337000  0.75596000  1.0
  C  C280  1  0.31346000  0.05791000  0.25771000  1.0
  C  C281  1  0.80158000  0.55662000  0.24402000  1.0
  C  C282  1  0.61970000  0.11411000  0.73339000  1.0
  C  C283  1  0.38115000  0.38734000  0.76549000  1.0
  C  C284  1  0.38036000  0.88594000  0.26658000  1.0
  C  C285  1  0.61888000  0.61267000  0.23449000  1.0
  C  C286  1  0.70380000  0.19083000  0.74101000  1.0
  C  C287  1  0.45063000  0.46405000  0.75847000  1.0
  C  C288  1  0.29627000  0.80920000  0.25897000  1.0
  C  C289  1  0.54939000  0.53597000  0.24152000  1.0
  C  C290  1  0.78037000  0.18494000  0.74457000  1.0
  C  C291  1  0.44066000  0.53644000  0.75475000  1.0
  C  C292  1  0.21969000  0.81507000  0.25542000  1.0
  C  C293  1  0.55938000  0.46358000  0.24525000  1.0
  C  C294  1  0.77382000  0.10306000  0.74383000  1.0
  C  C295  1  0.35887000  0.53004000  0.75522000  1.0
  C  C296  1  0.22623000  0.89694000  0.25617000  1.0
  C  C297  1  0.64116000  0.46998000  0.24478000  1.0
  C  C298  1  0.69112000  0.02707000  0.73848000  1.0
  C  C299  1  0.28790000  0.45247000  0.76006000  1.0
  C  C300  1  0.30890000  0.97293000  0.26148000  1.0
  C  C301  1  0.71211000  0.54752000  0.23991000  1.0
  C  C302  1  0.61311000  0.03177000  0.73140000  1.0
  C  C303  1  0.30002000  0.38196000  0.76698000  1.0
  C  C304  1  0.38691000  0.96825000  0.26853000  1.0
  C  C305  1  0.70000000  0.61804000  0.23301000  1.0
  N  N306  1  0.32040000  0.08736000  0.60141000  1.0
  N  N307  1  0.48749000  0.21903000  0.90103000  1.0
  N  N308  1  0.67957000  0.91264000  0.39860000  1.0
  N  N309  1  0.51253000  0.78105000  0.09896000  1.0
  N  N310  1  0.07132000  0.92060000  0.43316000  1.0
  N  N311  1  0.48769000  0.13780000  0.06887000  1.0
  N  N312  1  0.92864000  0.07933000  0.56685000  1.0
  N  N313  1  0.51234000  0.86222000  0.93108000  1.0
  N  N314  1  0.84004000  0.42765000  0.46933000  1.0
  N  N315  1  0.95809000  0.87063000  0.03023000  1.0
  N  N316  1  0.15998000  0.57238000  0.53066000  1.0
  N  N317  1  0.04187000  0.12934000  0.96981000  1.0
  N  N318  1  0.96369000  0.37174000  0.61381000  1.0
  N  N319  1  0.75779000  0.85074000  0.88641000  1.0
  N  N320  1  0.03634000  0.62828000  0.38618000  1.0
  N  N321  1  0.24221000  0.14930000  0.11363000  1.0
  N  N322  1  0.10417000  0.46243000  0.91545000  1.0
  N  N323  1  0.54691000  0.68885000  0.58449000  1.0
  N  N324  1  0.89586000  0.53758000  0.08455000  1.0
  N  N325  1  0.45308000  0.31113000  0.41551000  1.0
  N  N326  1  0.26917000  0.43336000  0.04847000  1.0
  N  N327  1  0.38511000  0.72094000  0.45125000  1.0
  N  N328  1  0.73084000  0.56664000  0.95154000  1.0
  N  N329  1  0.61485000  0.27903000  0.54875000  1.0
  O  O330  1  0.03930000  0.93120000  0.55394000  1.0
  O  O331  1  0.38406000  0.98521000  0.94804000  1.0
  O  O332  1  0.96064000  0.06886000  0.44606000  1.0
  O  O333  1  0.61587000  0.01486000  0.05187000  1.0
  O  O334  1  0.82587000  0.50066000  0.59248000  1.0
  O  O335  1  0.90777000  0.73344000  0.90731000  1.0
  O  O336  1  0.17413000  0.49934000  0.40750000  1.0
  O  O337  1  0.09225000  0.26661000  0.09267000  1.0
  O  O338  1  0.19341000  0.28645000  0.92478000  1.0
  O  O339  1  0.36082000  0.76846000  0.57478000  1.0
  O  O340  1  0.80653000  0.71351000  0.07526000  1.0
  O  O341  1  0.63920000  0.23157000  0.42524000  1.0
  O  O342  1  0.46844000  0.06028000  0.73661000  1.0
  O  O343  1  0.32341000  0.23279000  0.76034000  1.0
  O  O344  1  0.53164000  0.93981000  0.26341000  1.0
  O  O345  1  0.67665000  0.76726000  0.23970000  1.0
  O  O346  1  0.54774000  0.19717000  0.72526000  1.0
  O  O347  1  0.47391000  0.32526000  0.77640000  1.0
  O  O348  1  0.45233000  0.80288000  0.27469000  1.0
  O  O349  1  0.52611000  0.67473000  0.22354000  1.0
  O  O350  1  0.88104000  0.34651000  0.76607000  1.0
  O  O351  1  0.58150000  0.61602000  0.73360000  1.0
  O  O352  1  0.11906000  0.65351000  0.23396000  1.0
  O  O353  1  0.41854000  0.38402000  0.26641000  1.0
  O  O354  1  0.92791000  0.24742000  0.73404000  1.0
  O  O355  1  0.51282000  0.69351000  0.76456000  1.0
  O  O356  1  0.07213000  0.75255000  0.26595000  1.0
  O  O357  1  0.48722000  0.30652000  0.23548000  1.0
  O  O358  1  0.74771000  0.92690000  0.73009000  1.0
  O  O359  1  0.19494000  0.51622000  0.76835000  1.0
  O  O360  1  0.25228000  0.07309000  0.26993000  1.0
  O  O361  1  0.80506000  0.48376000  0.23161000  1.0
  O  O362  1  0.61906000  0.88686000  0.75752000  1.0
  O  O363  1  0.12791000  0.36065000  0.74027000  1.0
  O  O364  1  0.38089000  0.11312000  0.24244000  1.0
  O  O365  1  0.87212000  0.63936000  0.25975000  1.0
  O  O366  1  0.26669000  0.02166000  0.76023000  1.0
  O  O367  1  0.73329000  0.97829000  0.24011000  1.0
  O  O368  1  0.03168000  0.56068000  0.79619000  1.0
  O  O369  1  0.76491000  0.73605000  0.70402000  1.0
  O  O370  1  0.96834000  0.43933000  0.20382000  1.0
  O  O371  1  0.23513000  0.26398000  0.29600000  1.0
