# generated using pymatgen
data_ZnH10C18(NO2)2
_symmetry_space_group_name_H-M   'P 1'
_cell_length_a   7.47871000
_cell_length_b   13.04040000
_cell_length_c   16.73050000
_cell_angle_alpha   102.46000000
_cell_angle_beta   89.99980000
_cell_angle_gamma   89.99970000
_symmetry_Int_Tables_number   1
_chemical_formula_structural   ZnH10C18(NO2)2
_chemical_formula_sum   'Zn4 H40 C72 N8 O16'
_cell_volume   1593.21778277
_cell_formula_units_Z   4
loop_
 _symmetry_equiv_pos_site_id
 _symmetry_equiv_pos_as_xyz
  1  'x, y, z'
loop_
 _atom_site_type_symbol
 _atom_site_label
 _atom_site_symmetry_multiplicity
 _atom_site_fract_x
 _atom_site_fract_y
 _atom_site_fract_z
 _atom_site_occupancy
  Zn  Zn0  1  0.53547000  0.06578000  0.23719000  1.0
  Zn  Zn1  1  0.03545000  0.93423000  0.26282000  1.0
  Zn  Zn2  1  0.46455000  0.93422000  0.76281000  1.0
  Zn  Zn3  1  0.96453000  0.06577000  0.73718000  1.0
  H  H4  1  0.40461000  0.90172000  0.07930000  1.0
  H  H5  1  0.90455000  0.09828000  0.42070000  1.0
  H  H6  1  0.59544000  0.09827000  0.92069000  1.0
  H  H7  1  0.09541000  0.90172000  0.57930000  1.0
  H  H8  1  0.21979000  0.90634000  0.95519000  1.0
  H  H9  1  0.71974000  0.09366000  0.54481000  1.0
  H  H10  1  0.78026000  0.09366000  0.04480000  1.0
  H  H11  1  0.28024000  0.90633000  0.45519000  1.0
  H  H12  1  0.10516000  0.07906000  0.93492000  1.0
  H  H13  1  0.60511000  0.92092000  0.56507000  1.0
  H  H14  1  0.89488000  0.92093000  0.06507000  1.0
  H  H15  1  0.39486000  0.07907000  0.43493000  1.0
  H  H16  1  0.17075000  0.24040000  0.04062000  1.0
  H  H17  1  0.67073000  0.75959000  0.45937000  1.0
  H  H18  1  0.82927000  0.75959000  0.95937000  1.0
  H  H19  1  0.32924000  0.24040000  0.54062000  1.0
  H  H20  1  0.30439000  0.37650000  0.12774000  1.0
  H  H21  1  0.80438000  0.62349000  0.37225000  1.0
  H  H22  1  0.69561000  0.62349000  0.87225000  1.0
  H  H23  1  0.19559000  0.37650000  0.62774000  1.0
  H  H24  1  0.50218000  0.44835000  0.37720000  1.0
  H  H25  1  0.00219000  0.55166000  0.12279000  1.0
  H  H26  1  0.49781000  0.55165000  0.62280000  1.0
  H  H27  1  0.99781000  0.44835000  0.87721000  1.0
  H  H28  1  0.29701000  0.58576000  0.37679000  1.0
  H  H29  1  0.79708000  0.41424000  0.12319000  1.0
  H  H30  1  0.70295000  0.41423000  0.62319000  1.0
  H  H31  1  0.20297000  0.58576000  0.87680000  1.0
  H  H32  1  0.29628000  0.77469000  0.37929000  1.0
  H  H33  1  0.79633000  0.22531000  0.12070000  1.0
  H  H34  1  0.70368000  0.22530000  0.62070000  1.0
  H  H35  1  0.20371000  0.77469000  0.87929000  1.0
  H  H36  1  0.52232000  0.71589000  0.13709000  1.0
  H  H37  1  0.02228000  0.28412000  0.36292000  1.0
  H  H38  1  0.47769000  0.28411000  0.86291000  1.0
  H  H39  1  0.97769000  0.71589000  0.63710000  1.0
  H  H40  1  0.50406000  0.52371000  0.13004000  1.0
  H  H41  1  0.00404000  0.47629000  0.36996000  1.0
  H  H42  1  0.49595000  0.47629000  0.86995000  1.0
  H  H43  1  0.99594000  0.52372000  0.63005000  1.0
  C  C44  1  0.35200000  0.97512000  0.06812000  1.0
  C  C45  1  0.85195000  0.02488000  0.43189000  1.0
  C  C46  1  0.64804000  0.02488000  0.93189000  1.0
  C  C47  1  0.14802000  0.97512000  0.56811000  1.0
  C  C48  1  0.25013000  0.97836000  0.99908000  1.0
  C  C49  1  0.75009000  0.02164000  0.50093000  1.0
  C  C50  1  0.74991000  0.02164000  0.00092000  1.0
  C  C51  1  0.24989000  0.97836000  0.49908000  1.0
  C  C52  1  0.18672000  0.07445000  0.98796000  1.0
  C  C53  1  0.68668000  0.92554000  0.51204000  1.0
  C  C54  1  0.81331000  0.92554000  0.01204000  1.0
  C  C55  1  0.31329000  0.07445000  0.48796000  1.0
  C  C56  1  0.22535000  0.16511000  0.04699000  1.0
  C  C57  1  0.72533000  0.83489000  0.45301000  1.0
  C  C58  1  0.77467000  0.83489000  0.95301000  1.0
  C  C59  1  0.27464000  0.16510000  0.54699000  1.0
  C  C60  1  0.32765000  0.15596000  0.11479000  1.0
  C  C61  1  0.82762000  0.84404000  0.38521000  1.0
  C  C62  1  0.67237000  0.84404000  0.88521000  1.0
  C  C63  1  0.17235000  0.15596000  0.61479000  1.0
  C  C64  1  0.37207000  0.24561000  0.18271000  1.0
  C  C65  1  0.87206000  0.75439000  0.31730000  1.0
  C  C66  1  0.62794000  0.75439000  0.81729000  1.0
  C  C67  1  0.12792000  0.24560000  0.68271000  1.0
  C  C68  1  0.35436000  0.35201000  0.18185000  1.0
  C  C69  1  0.85437000  0.64799000  0.31815000  1.0
  C  C70  1  0.64564000  0.64798000  0.81815000  1.0
  C  C71  1  0.14561000  0.35201000  0.68185000  1.0
  C  C72  1  0.40293000  0.42756000  0.25181000  1.0
  C  C73  1  0.90294000  0.57243000  0.24819000  1.0
  C  C74  1  0.59708000  0.57243000  0.74819000  1.0
  C  C75  1  0.09707000  0.42756000  0.75181000  1.0
  C  C76  1  0.46286000  0.39329000  0.32137000  1.0
  C  C77  1  0.96287000  0.60671000  0.17863000  1.0
  C  C78  1  0.53714000  0.60671000  0.67863000  1.0
  C  C79  1  0.03713000  0.39329000  0.82137000  1.0
  C  C80  1  0.48284000  0.28621000  0.31665000  1.0
  C  C81  1  0.98284000  0.71379000  0.18335000  1.0
  C  C82  1  0.51716000  0.71379000  0.68335000  1.0
  C  C83  1  0.01715000  0.28621000  0.81665000  1.0
  C  C84  1  0.56163000  0.23716000  0.38377000  1.0
  C  C85  1  0.06163000  0.76286000  0.11624000  1.0
  C  C86  1  0.43838000  0.76284000  0.61623000  1.0
  C  C87  1  0.93838000  0.23714000  0.88377000  1.0
  C  C88  1  0.39913000  0.54085000  0.25271000  1.0
  C  C89  1  0.89913000  0.45916000  0.24728000  1.0
  C  C90  1  0.60087000  0.45915000  0.74728000  1.0
  C  C91  1  0.10086000  0.54084000  0.75272000  1.0
  C  C92  1  0.34332000  0.61308000  0.32322000  1.0
  C  C93  1  0.84335000  0.38692000  0.17677000  1.0
  C  C94  1  0.65667000  0.38692000  0.67677000  1.0
  C  C95  1  0.15668000  0.61307000  0.82322000  1.0
  C  C96  1  0.34432000  0.71998000  0.32503000  1.0
  C  C97  1  0.84434000  0.28002000  0.17496000  1.0
  C  C98  1  0.65566000  0.28002000  0.67496000  1.0
  C  C99  1  0.15568000  0.71998000  0.82504000  1.0
  C  C100  1  0.41033000  0.75795000  0.25854000  1.0
  C  C101  1  0.91034000  0.24206000  0.24146000  1.0
  C  C102  1  0.58966000  0.24205000  0.74146000  1.0
  C  C103  1  0.08967000  0.75795000  0.75854000  1.0
  C  C104  1  0.46926000  0.68647000  0.18849000  1.0
  C  C105  1  0.96924000  0.31354000  0.31151000  1.0
  C  C106  1  0.53075000  0.31353000  0.81150000  1.0
  C  C107  1  0.03074000  0.68647000  0.68850000  1.0
  C  C108  1  0.45877000  0.57898000  0.18488000  1.0
  C  C109  1  0.95877000  0.42102000  0.31512000  1.0
  C  C110  1  0.54123000  0.42102000  0.81512000  1.0
  C  C111  1  0.04123000  0.57899000  0.68488000  1.0
  C  C112  1  0.41704000  0.87376000  0.26374000  1.0
  C  C113  1  0.91704000  0.12625000  0.23626000  1.0
  C  C114  1  0.58296000  0.12624000  0.73626000  1.0
  C  C115  1  0.08296000  0.87376000  0.76374000  1.0
  N  N116  1  0.39038000  0.06171000  0.12432000  1.0
  N  N117  1  0.89035000  0.93830000  0.37569000  1.0
  N  N118  1  0.60964000  0.93830000  0.87569000  1.0
  N  N119  1  0.10962000  0.06170000  0.62431000  1.0
  N  N120  1  0.43898000  0.21652000  0.24870000  1.0
  N  N121  1  0.93898000  0.78348000  0.25130000  1.0
  N  N122  1  0.56102000  0.78348000  0.75130000  1.0
  N  N123  1  0.06101000  0.21652000  0.74870000  1.0
  O  O124  1  0.59682000  0.13818000  0.36071000  1.0
  O  O125  1  0.09681000  0.86184000  0.13930000  1.0
  O  O126  1  0.40318000  0.86182000  0.63929000  1.0
  O  O127  1  0.90319000  0.13817000  0.86071000  1.0
  O  O128  1  0.58456000  0.29372000  0.45334000  1.0
  O  O129  1  0.08456000  0.70629000  0.04666000  1.0
  O  O130  1  0.41544000  0.70627000  0.54667000  1.0
  O  O131  1  0.91546000  0.29372000  0.95334000  1.0
  O  O132  1  0.54826000  0.90975000  0.22942000  1.0
  O  O133  1  0.04825000  0.09027000  0.27060000  1.0
  O  O134  1  0.45174000  0.09026000  0.77059000  1.0
  O  O135  1  0.95175000  0.90974000  0.72941000  1.0
  O  O136  1  0.29567000  0.93229000  0.30308000  1.0
  O  O137  1  0.79567000  0.06772000  0.19693000  1.0
  O  O138  1  0.70432000  0.06771000  0.69692000  1.0
  O  O139  1  0.20433000  0.93229000  0.80307000  1.0
