# generated using pymatgen
data_AgP3H34C30(SO)2
_symmetry_space_group_name_H-M   'P 1'
_cell_length_a   11.75540000
_cell_length_b   12.74780000
_cell_length_c   13.05840000
_cell_angle_alpha   60.96260000
_cell_angle_beta   77.30440000
_cell_angle_gamma   69.32780000
_symmetry_Int_Tables_number   1
_chemical_formula_structural   AgP3H34C30(SO)2
_chemical_formula_sum   'Ag2 P6 H68 C60 S4 O4'
_cell_volume   1597.93744222
_cell_formula_units_Z   2
loop_
 _symmetry_equiv_pos_site_id
 _symmetry_equiv_pos_as_xyz
  1  'x, y, z'
loop_
 _atom_site_type_symbol
 _atom_site_label
 _atom_site_symmetry_multiplicity
 _atom_site_fract_x
 _atom_site_fract_y
 _atom_site_fract_z
 _atom_site_occupancy
  Ag  Ag0  1  0.81386000  0.80266000  0.59434000  1.0
  Ag  Ag1  1  0.18614000  0.19734000  0.40566000  1.0
  P  P2  1  0.74211000  0.72344000  0.85796000  1.0
  P  P3  1  0.25789000  0.27656000  0.14203000  1.0
  P  P4  1  0.67549000  0.89507000  0.43995000  1.0
  P  P5  1  0.32451000  0.10493000  0.56005000  1.0
  P  P6  1  0.01983000  0.81121000  0.52068000  1.0
  P  P7  1  0.98017000  0.18879000  0.47932000  1.0
  H  H8  1  0.50875000  0.74033000  0.83915000  1.0
  H  H9  1  0.49125000  0.25967000  0.16085000  1.0
  H  H10  1  0.47675000  0.86183000  0.88207000  1.0
  H  H11  1  0.52325000  0.13818000  0.11792000  1.0
  H  H12  1  0.32956000  0.73942000  0.98954000  1.0
  H  H13  1  0.67044000  0.26059000  0.01046000  1.0
  H  H14  1  0.43097000  0.70700000  0.09172000  1.0
  H  H15  1  0.56903000  0.29301000  0.90828000  1.0
  H  H16  1  0.44863000  0.59588000  0.03953000  1.0
  H  H17  1  0.55137000  0.40412000  0.96047000  1.0
  H  H18  1  0.88051000  0.81977000  0.93751000  1.0
  H  H19  1  0.11949000  0.18023000  0.06250000  1.0
  H  H20  1  0.76309000  0.76526000  0.04245000  1.0
  H  H21  1  0.23690000  0.23474000  0.95755000  1.0
  H  H22  1  0.95398000  0.70348000  0.14113000  1.0
  H  H23  1  0.04601000  0.29652000  0.85888000  1.0
  H  H24  1  0.03613000  0.61702000  0.06081000  1.0
  H  H25  1  0.96387000  0.38298000  0.93920000  1.0
  H  H26  1  0.91656000  0.56987000  0.16482000  1.0
  H  H27  1  0.08343000  0.43013000  0.83518000  1.0
  H  H28  1  0.75265000  0.62523000  0.54091000  1.0
  H  H29  1  0.24735000  0.37476000  0.45909000  1.0
  H  H30  1  0.70067000  0.47261000  0.50574000  1.0
  H  H31  1  0.29933000  0.52739000  0.49426000  1.0
  H  H32  1  0.53850000  0.54778000  0.37119000  1.0
  H  H33  1  0.46150000  0.45222000  0.62881000  1.0
  H  H34  1  0.42797000  0.77551000  0.27218000  1.0
  H  H35  1  0.57204000  0.22449000  0.72782000  1.0
  H  H36  1  0.48200000  0.92761000  0.30335000  1.0
  H  H37  1  0.51801000  0.07239000  0.69665000  1.0
  H  H38  1  0.75486000  0.83545000  0.23614000  1.0
  H  H39  1  0.24515000  0.16456000  0.76385000  1.0
  H  H40  1  0.86735000  0.93273000  0.04747000  1.0
  H  H41  1  0.13265000  0.06728000  0.95252000  1.0
  H  H42  1  0.93117000  0.11859000  0.99940000  1.0
  H  H43  1  0.06883000  0.88142000  0.00060000  1.0
  H  H44  1  0.87733000  0.20995000  0.14117000  1.0
  H  H45  1  0.12266000  0.79005000  0.85883000  1.0
  H  H46  1  0.76212000  0.11646000  0.32766000  1.0
  H  H47  1  0.23787000  0.88354000  0.67235000  1.0
  H  H48  1  0.99497000  0.61474000  0.48839000  1.0
  H  H49  1  0.00502000  0.38526000  0.51161000  1.0
  H  H50  1  0.07565000  0.53807000  0.33553000  1.0
  H  H51  1  0.92435000  0.46193000  0.66447000  1.0
  H  H52  1  0.20181000  0.64646000  0.16379000  1.0
  H  H53  1  0.79819000  0.35354000  0.83621000  1.0
  H  H54  1  0.24256000  0.83694000  0.13969000  1.0
  H  H55  1  0.75744000  0.16306000  0.86031000  1.0
  H  H56  1  0.16374000  0.91371000  0.28966000  1.0
  H  H57  1  0.83627000  0.08628000  0.71034000  1.0
  H  H58  1  0.28641000  0.78195000  0.47893000  1.0
  H  H59  1  0.71359000  0.21805000  0.52107000  1.0
  H  H60  1  0.45428000  0.66808000  0.61326000  1.0
  H  H61  1  0.54572000  0.33192000  0.38675000  1.0
  H  H62  1  0.41235000  0.54388000  0.82785000  1.0
  H  H63  1  0.58765000  0.45612000  0.17215000  1.0
  H  H64  1  0.20151000  0.53495000  0.90654000  1.0
  H  H65  1  0.79849000  0.46504000  0.09347000  1.0
  H  H66  1  0.03123000  0.65300000  0.77216000  1.0
  H  H67  1  0.96877000  0.34699000  0.22785000  1.0
  H  H68  1  0.57058000  0.09831000  0.43073000  1.0
  H  H69  1  0.42941000  0.90169000  0.56927000  1.0
  H  H70  1  0.48310000  0.05908000  0.36691000  1.0
  H  H71  1  0.51690000  0.94091000  0.63309000  1.0
  H  H72  1  0.12022000  0.97776000  0.42668000  1.0
  H  H73  1  0.87978000  0.02223000  0.57333000  1.0
  H  H74  1  0.97327000  0.02716000  0.37725000  1.0
  H  H75  1  0.02673000  0.97284000  0.62275000  1.0
  C  C76  1  0.50620000  0.75954000  0.91347000  1.0
  C  C77  1  0.49380000  0.24046000  0.08653000  1.0
  C  C78  1  0.42426000  0.69636000  0.01484000  1.0
  C  C79  1  0.57574000  0.30365000  0.98516000  1.0
  C  C80  1  0.85471000  0.73539000  0.00434000  1.0
  C  C81  1  0.14529000  0.26461000  0.99566000  1.0
  C  C82  1  0.94572000  0.65144000  0.09769000  1.0
  C  C83  1  0.05427000  0.34856000  0.90231000  1.0
  C  C84  1  0.62186000  0.78625000  0.42430000  1.0
  C  C85  1  0.37814000  0.21374000  0.57570000  1.0
  C  C86  1  0.68227000  0.65773000  0.48124000  1.0
  C  C87  1  0.31774000  0.34227000  0.51875000  1.0
  C  C88  1  0.65256000  0.57220000  0.46185000  1.0
  C  C89  1  0.34744000  0.42780000  0.53815000  1.0
  C  C90  1  0.56149000  0.61461000  0.38624000  1.0
  C  C91  1  0.43851000  0.38539000  0.61376000  1.0
  C  C92  1  0.49980000  0.74228000  0.33057000  1.0
  C  C93  1  0.50020000  0.25772000  0.66943000  1.0
  C  C94  1  0.53008000  0.82806000  0.34885000  1.0
  C  C95  1  0.46992000  0.17194000  0.65115000  1.0
  C  C96  1  0.74987000  0.96905000  0.29543000  1.0
  C  C97  1  0.25012000  0.03095000  0.70457000  1.0
  C  C98  1  0.78110000  0.91779000  0.21563000  1.0
  C  C99  1  0.21890000  0.08222000  0.78436000  1.0
  C  C100  1  0.84566000  0.97192000  0.10971000  1.0
  C  C101  1  0.15434000  0.02809000  0.89028000  1.0
  C  C102  1  0.88150000  0.07633000  0.08262000  1.0
  C  C103  1  0.11850000  0.92368000  0.91738000  1.0
  C  C104  1  0.85109000  0.12769000  0.16164000  1.0
  C  C105  1  0.14890000  0.87232000  0.83837000  1.0
  C  C106  1  0.78541000  0.07484000  0.26711000  1.0
  C  C107  1  0.21458000  0.92516000  0.73289000  1.0
  C  C108  1  0.07648000  0.76680000  0.40142000  1.0
  C  C109  1  0.92352000  0.23320000  0.59858000  1.0
  C  C110  1  0.05107000  0.66192000  0.41246000  1.0
  C  C111  1  0.94893000  0.33809000  0.58754000  1.0
  C  C112  1  0.09599000  0.61909000  0.32730000  1.0
  C  C113  1  0.90400000  0.38091000  0.67270000  1.0
  C  C114  1  0.16645000  0.68099000  0.22969000  1.0
  C  C115  1  0.83355000  0.31901000  0.77031000  1.0
  C  C116  1  0.18966000  0.78698000  0.21689000  1.0
  C  C117  1  0.81034000  0.21302000  0.78311000  1.0
  C  C118  1  0.14489000  0.83027000  0.30201000  1.0
  C  C119  1  0.85511000  0.16973000  0.69799000  1.0
  C  C120  1  0.14713000  0.72558000  0.61704000  1.0
  C  C121  1  0.85287000  0.27442000  0.38296000  1.0
  C  C122  1  0.26669000  0.72934000  0.57274000  1.0
  C  C123  1  0.73331000  0.27065000  0.42726000  1.0
  C  C124  1  0.36166000  0.66492000  0.64839000  1.0
  C  C125  1  0.63834000  0.33508000  0.35161000  1.0
  C  C126  1  0.33811000  0.59538000  0.76870000  1.0
  C  C127  1  0.66189000  0.40462000  0.23130000  1.0
  C  C128  1  0.21974000  0.59054000  0.81314000  1.0
  C  C129  1  0.78026000  0.40945000  0.18686000  1.0
  C  C130  1  0.12417000  0.65598000  0.73758000  1.0
  C  C131  1  0.87583000  0.34402000  0.26243000  1.0
  C  C132  1  0.53779000  0.02227000  0.44199000  1.0
  C  C133  1  0.46220000  0.97773000  0.55801000  1.0
  C  C134  1  0.02624000  0.97323000  0.45591000  1.0
  C  C135  1  0.97376000  0.02677000  0.54409000  1.0
  S  S136  1  0.76697000  0.61087000  0.78555000  1.0
  S  S137  1  0.23303000  0.38913000  0.21445000  1.0
  S  S138  1  0.72529000  0.90358000  0.74683000  1.0
  S  S139  1  0.27472000  0.09642000  0.25317000  1.0
  O  O140  1  0.62806000  0.71038000  0.95432000  1.0
  O  O141  1  0.37194000  0.28962000  0.04567000  1.0
  O  O142  1  0.84999000  0.66530000  0.94478000  1.0
  O  O143  1  0.15001000  0.33470000  0.05522000  1.0
