# generated using pymatgen
data_ZnH12(C2O)4
_symmetry_space_group_name_H-M   'P 1'
_cell_length_a   4.76400000
_cell_length_b   9.34985000
_cell_length_c   21.20830000
_cell_angle_alpha   93.71960000
_cell_angle_beta   89.99970000
_cell_angle_gamma   89.99880000
_symmetry_Int_Tables_number   1
_chemical_formula_structural   ZnH12(C2O)4
_chemical_formula_sum   'Zn4 H48 C32 O16'
_cell_volume   942.68466267
_cell_formula_units_Z   4
loop_
 _symmetry_equiv_pos_site_id
 _symmetry_equiv_pos_as_xyz
  1  'x, y, z'
loop_
 _atom_site_type_symbol
 _atom_site_label
 _atom_site_symmetry_multiplicity
 _atom_site_fract_x
 _atom_site_fract_y
 _atom_site_fract_z
 _atom_site_occupancy
  Zn  Zn0  1  0.54010000  0.17790000  0.73782000  1.0
  Zn  Zn1  1  0.54008000  0.32209000  0.26218000  1.0
  Zn  Zn2  1  0.45991000  0.82210000  0.26218000  1.0
  Zn  Zn3  1  0.45991000  0.67791000  0.73782000  1.0
  H  H4  1  0.92191000  0.07039000  0.83935000  1.0
  H  H5  1  0.92191000  0.42959000  0.16064000  1.0
  H  H6  1  0.07810000  0.92961000  0.16065000  1.0
  H  H7  1  0.07809000  0.57041000  0.83936000  1.0
  H  H8  1  0.59501000  0.10172000  0.87520000  1.0
  H  H9  1  0.59500000  0.39827000  0.12479000  1.0
  H  H10  1  0.40500000  0.89827000  0.12479000  1.0
  H  H11  1  0.40499000  0.60174000  0.87521000  1.0
  H  H12  1  0.66569000  0.87310000  0.93491000  1.0
  H  H13  1  0.66569000  0.62689000  0.06509000  1.0
  H  H14  1  0.33430000  0.12690000  0.06509000  1.0
  H  H15  1  0.33432000  0.37310000  0.93490000  1.0
  H  H16  1  0.00604000  0.85881000  0.90302000  1.0
  H  H17  1  0.00603000  0.64118000  0.09698000  1.0
  H  H18  1  0.99396000  0.14119000  0.09698000  1.0
  H  H19  1  0.99397000  0.35882000  0.90301000  1.0
  H  H20  1  0.78095000  0.11465000  0.98657000  1.0
  H  H21  1  0.78096000  0.38534000  0.01343000  1.0
  H  H22  1  0.21905000  0.88535000  0.01343000  1.0
  H  H23  1  0.21904000  0.61465000  0.98657000  1.0
  H  H24  1  0.12096000  0.10479000  0.95413000  1.0
  H  H25  1  0.12096000  0.39520000  0.04587000  1.0
  H  H26  1  0.87904000  0.89521000  0.04587000  1.0
  H  H27  1  0.87903000  0.60479000  0.95413000  1.0
  H  H28  1  0.75385000  0.25047000  0.59899000  1.0
  H  H29  1  0.75383000  0.24953000  0.40101000  1.0
  H  H30  1  0.24615000  0.74953000  0.40102000  1.0
  H  H31  1  0.24616000  0.75047000  0.59898000  1.0
  H  H32  1  0.77747000  0.40345000  0.64985000  1.0
  H  H33  1  0.77744000  0.09655000  0.35015000  1.0
  H  H34  1  0.22253000  0.59655000  0.35015000  1.0
  H  H35  1  0.22257000  0.90346000  0.64985000  1.0
  H  H36  1  0.22794000  0.47463000  0.59880000  1.0
  H  H37  1  0.22792000  0.02536000  0.40121000  1.0
  H  H38  1  0.77207000  0.52536000  0.40121000  1.0
  H  H39  1  0.77207000  0.97465000  0.59879000  1.0
  H  H40  1  0.22880000  0.31450000  0.55079000  1.0
  H  H41  1  0.22878000  0.18550000  0.44921000  1.0
  H  H42  1  0.77120000  0.68549000  0.44921000  1.0
  H  H43  1  0.77122000  0.81451000  0.55079000  1.0
  H  H44  1  0.77358000  0.54741000  0.54868000  1.0
  H  H45  1  0.77357000  0.95259000  0.45132000  1.0
  H  H46  1  0.22642000  0.45259000  0.45132000  1.0
  H  H47  1  0.22642000  0.04743000  0.54868000  1.0
  H  H48  1  0.77038000  0.38514000  0.50189000  1.0
  H  H49  1  0.77036000  0.11487000  0.49811000  1.0
  H  H50  1  0.22964000  0.61485000  0.49811000  1.0
  H  H51  1  0.22964000  0.88515000  0.50189000  1.0
  C  C52  1  0.60720000  0.92192000  0.80926000  1.0
  C  C53  1  0.60720000  0.57807000  0.19073000  1.0
  C  C54  1  0.39281000  0.07808000  0.19073000  1.0
  C  C55  1  0.39280000  0.42194000  0.80927000  1.0
  C  C56  1  0.74458000  0.01557000  0.86105000  1.0
  C  C57  1  0.74457000  0.48442000  0.13894000  1.0
  C  C58  1  0.25544000  0.98443000  0.13895000  1.0
  C  C59  1  0.25543000  0.51559000  0.86105000  1.0
  C  C60  1  0.84145000  0.93665000  0.91781000  1.0
  C  C61  1  0.84143000  0.56334000  0.08219000  1.0
  C  C62  1  0.15856000  0.06335000  0.08219000  1.0
  C  C63  1  0.15856000  0.43665000  0.91781000  1.0
  C  C64  1  0.94918000  0.03866000  0.97152000  1.0
  C  C65  1  0.94918000  0.46132000  0.02848000  1.0
  C  C66  1  0.05082000  0.96133000  0.02848000  1.0
  C  C67  1  0.05081000  0.53866000  0.97152000  1.0
  C  C68  1  0.06542000  0.24102000  0.66984000  1.0
  C  C69  1  0.06539000  0.25897000  0.33016000  1.0
  C  C70  1  0.93459000  0.75897000  0.33017000  1.0
  C  C71  1  0.93460000  0.74104000  0.66983000  1.0
  C  C72  1  0.90724000  0.32399000  0.62261000  1.0
  C  C73  1  0.90722000  0.17600000  0.37740000  1.0
  C  C74  1  0.09276000  0.67601000  0.37740000  1.0
  C  C75  1  0.09278000  0.82400000  0.62260000  1.0
  C  C76  1  0.08879000  0.39486000  0.57438000  1.0
  C  C77  1  0.08878000  0.10514000  0.42562000  1.0
  C  C78  1  0.91122000  0.60514000  0.42562000  1.0
  C  C79  1  0.91122000  0.89487000  0.57438000  1.0
  C  C80  1  0.91190000  0.46586000  0.52508000  1.0
  C  C81  1  0.91189000  0.03414000  0.47493000  1.0
  C  C82  1  0.08811000  0.53414000  0.47493000  1.0
  C  C83  1  0.08810000  0.96587000  0.52508000  1.0
  O  O84  1  0.51615000  0.97544000  0.75917000  1.0
  O  O85  1  0.51616000  0.52455000  0.24083000  1.0
  O  O86  1  0.48385000  0.02455000  0.24083000  1.0
  O  O87  1  0.48384000  0.47546000  0.75917000  1.0
  O  O88  1  0.58453000  0.78789000  0.81631000  1.0
  O  O89  1  0.58454000  0.71210000  0.18368000  1.0
  O  O90  1  0.41547000  0.21211000  0.18368000  1.0
  O  O91  1  0.41547000  0.28791000  0.81632000  1.0
  O  O92  1  0.94188000  0.19376000  0.71775000  1.0
  O  O93  1  0.94186000  0.30622000  0.28225000  1.0
  O  O94  1  0.05812000  0.80624000  0.28226000  1.0
  O  O95  1  0.05812000  0.69378000  0.71775000  1.0
  O  O96  1  0.32817000  0.22044000  0.66129000  1.0
  O  O97  1  0.32813000  0.27956000  0.33871000  1.0
  O  O98  1  0.67184000  0.77956000  0.33871000  1.0
  O  O99  1  0.67185000  0.72045000  0.66129000  1.0
