# generated using pymatgen
data_Zn2H19C20NO11
_symmetry_space_group_name_H-M   'P 1'
_cell_length_a   13.63060000
_cell_length_b   14.05490000
_cell_length_c   17.55260000
_cell_angle_alpha   95.52520000
_cell_angle_beta   89.99990000
_cell_angle_gamma   90.00000000
_symmetry_Int_Tables_number   1
_chemical_formula_structural   Zn2H19C20NO11
_chemical_formula_sum   'Zn8 H76 C80 N4 O44'
_cell_volume   3347.04639329
_cell_formula_units_Z   4
loop_
 _symmetry_equiv_pos_site_id
 _symmetry_equiv_pos_as_xyz
  1  'x, y, z'
loop_
 _atom_site_type_symbol
 _atom_site_label
 _atom_site_symmetry_multiplicity
 _atom_site_fract_x
 _atom_site_fract_y
 _atom_site_fract_z
 _atom_site_occupancy
  Zn  Zn0  1  0.54897000  0.98496000  0.27263000  1.0
  Zn  Zn1  1  0.04897000  0.51504000  0.22737000  1.0
  Zn  Zn2  1  0.45103000  0.01504000  0.72737000  1.0
  Zn  Zn3  1  0.95103000  0.48496000  0.77262000  1.0
  Zn  Zn4  1  0.69600000  0.92348000  0.13703000  1.0
  Zn  Zn5  1  0.19600000  0.57652000  0.36297000  1.0
  Zn  Zn6  1  0.30400000  0.07652000  0.86297000  1.0
  Zn  Zn7  1  0.80400000  0.42348000  0.63703000  1.0
  H  H8  1  0.56194000  0.19029000  0.99932000  1.0
  H  H9  1  0.06194000  0.30971000  0.50068000  1.0
  H  H10  1  0.43806000  0.80971000  0.00068000  1.0
  H  H11  1  0.93806000  0.69029000  0.49932000  1.0
  H  H12  1  0.82044000  0.35501000  0.95604000  1.0
  H  H13  1  0.32044000  0.14498000  0.54395000  1.0
  H  H14  1  0.17956000  0.64499000  0.04396000  1.0
  H  H15  1  0.67956000  0.85502000  0.45605000  1.0
  H  H16  1  0.62303000  0.26712000  0.77313000  1.0
  H  H17  1  0.12302000  0.23286000  0.72687000  1.0
  H  H18  1  0.37697000  0.73288000  0.22687000  1.0
  H  H19  1  0.87698000  0.76713000  0.27313000  1.0
  H  H20  1  0.64365000  0.14098000  0.08647000  1.0
  H  H21  1  0.14365000  0.35902000  0.41353000  1.0
  H  H22  1  0.35634000  0.85902000  0.91353000  1.0
  H  H23  1  0.85635000  0.64098000  0.58647000  1.0
  H  H24  1  0.82259000  0.39303000  0.07344000  1.0
  H  H25  1  0.32259000  0.10696000  0.42655000  1.0
  H  H26  1  0.17741000  0.60696000  0.92656000  1.0
  H  H27  1  0.67741000  0.89304000  0.57344000  1.0
  H  H28  1  0.72690000  0.67982000  0.92225000  1.0
  H  H29  1  0.22690000  0.82018000  0.57775000  1.0
  H  H30  1  0.27310000  0.32018000  0.07775000  1.0
  H  H31  1  0.77310000  0.17982000  0.42225000  1.0
  H  H32  1  0.72322000  0.80627000  0.93540000  1.0
  H  H33  1  0.22322000  0.69373000  0.56460000  1.0
  H  H34  1  0.27678000  0.19373000  0.06461000  1.0
  H  H35  1  0.77678000  0.30627000  0.43540000  1.0
  H  H36  1  0.64330000  0.74031000  0.98995000  1.0
  H  H37  1  0.14331000  0.75969000  0.51005000  1.0
  H  H38  1  0.35669000  0.25969000  0.01006000  1.0
  H  H39  1  0.85669000  0.24032000  0.48995000  1.0
  H  H40  1  0.91746000  0.54403000  0.99775000  1.0
  H  H41  1  0.41746000  0.95596000  0.50225000  1.0
  H  H42  1  0.08254000  0.45596000  0.00225000  1.0
  H  H43  1  0.58254000  0.04404000  0.49775000  1.0
  H  H44  1  0.86187000  0.60305000  0.92381000  1.0
  H  H45  1  0.36187000  0.89695000  0.57619000  1.0
  H  H46  1  0.13813000  0.39695000  0.07619000  1.0
  H  H47  1  0.63813000  0.10305000  0.42381000  1.0
  H  H48  1  0.78767000  0.54410000  0.98895000  1.0
  H  H49  1  0.28767000  0.95590000  0.51105000  1.0
  H  H50  1  0.21233000  0.45590000  0.01105000  1.0
  H  H51  1  0.71233000  0.04410000  0.48895000  1.0
  H  H52  1  0.97310000  0.62331000  0.09457000  1.0
  H  H53  1  0.47311000  0.87668000  0.40543000  1.0
  H  H54  1  0.02690000  0.37669000  0.90543000  1.0
  H  H55  1  0.52689000  0.12332000  0.59457000  1.0
  H  H56  1  0.87803000  0.67290000  0.15550000  1.0
  H  H57  1  0.37803000  0.82710000  0.34450000  1.0
  H  H58  1  0.12197000  0.32710000  0.84450000  1.0
  H  H59  1  0.62197000  0.17290000  0.65550000  1.0
  H  H60  1  0.95675000  0.74972000  0.10851000  1.0
  H  H61  1  0.45676000  0.75028000  0.39149000  1.0
  H  H62  1  0.04324000  0.25028000  0.89149000  1.0
  H  H63  1  0.54324000  0.24972000  0.60851000  1.0
  H  H64  1  0.80299000  0.26234000  0.28334000  1.0
  H  H65  1  0.30299000  0.23767000  0.21666000  1.0
  H  H66  1  0.19701000  0.73766000  0.71666000  1.0
  H  H67  1  0.69701000  0.76233000  0.78334000  1.0
  H  H68  1  0.60959000  0.93947000  0.00831000  1.0
  H  H69  1  0.10958000  0.56053000  0.49169000  1.0
  H  H70  1  0.39042000  0.06053000  0.99169000  1.0
  H  H71  1  0.89042000  0.43947000  0.50831000  1.0
  H  H72  1  0.70831000  0.98132000  0.98125000  1.0
  H  H73  1  0.20831000  0.51868000  0.51875000  1.0
  H  H74  1  0.29169000  0.01868000  0.01875000  1.0
  H  H75  1  0.79169000  0.48132000  0.48125000  1.0
  H  H76  1  0.86998000  0.92371000  0.11908000  1.0
  H  H77  1  0.36999000  0.57629000  0.38091000  1.0
  H  H78  1  0.13002000  0.07629000  0.88092000  1.0
  H  H79  1  0.63002000  0.42372000  0.61908000  1.0
  H  H80  1  0.86105000  0.98565000  0.19688000  1.0
  H  H81  1  0.36105000  0.51435000  0.30312000  1.0
  H  H82  1  0.13896000  0.01436000  0.80312000  1.0
  H  H83  1  0.63895000  0.48566000  0.69688000  1.0
  C  C84  1  0.89504000  0.40293000  0.21638000  1.0
  C  C85  1  0.39504000  0.09707000  0.28362000  1.0
  C  C86  1  0.10496000  0.59706000  0.78362000  1.0
  C  C87  1  0.60496000  0.90293000  0.71638000  1.0
  C  C88  1  0.82103000  0.33333333  0.18076000  1.0
  C  C89  1  0.32104000  0.16670000  0.31924000  1.0
  C  C90  1  0.17896000  0.66666667  0.81924000  1.0
  C  C91  1  0.67896000  0.83330000  0.68076000  1.0
  C  C92  1  0.78684000  0.37316000  0.80837000  1.0
  C  C93  1  0.28684000  0.12683000  0.69163000  1.0
  C  C94  1  0.21316000  0.62684000  0.19164000  1.0
  C  C95  1  0.71316000  0.87317000  0.30837000  1.0
  C  C96  1  0.49967000  0.16394000  0.85248000  1.0
  C  C97  1  0.99967000  0.33606000  0.64752000  1.0
  C  C98  1  0.50033000  0.83606000  0.14752000  1.0
  C  C99  1  0.00033000  0.66394000  0.35248000  1.0
  C  C100  1  0.58419000  0.22286000  0.88384000  1.0
  C  C101  1  0.08419000  0.27713000  0.61616000  1.0
  C  C102  1  0.41581000  0.77714000  0.11616000  1.0
  C  C103  1  0.91581000  0.72286000  0.38384000  1.0
  C  C104  1  0.60943000  0.22608000  0.96114000  1.0
  C  C105  1  0.10943000  0.27391000  0.53886000  1.0
  C  C106  1  0.39057000  0.77391000  0.03886000  1.0
  C  C107  1  0.89057000  0.72609000  0.46114000  1.0
  C  C108  1  0.69560000  0.27215000  0.98893000  1.0
  C  C109  1  0.19559000  0.22785000  0.51107000  1.0
  C  C110  1  0.30440000  0.72785000  0.01107000  1.0
  C  C111  1  0.80440000  0.77215000  0.48893000  1.0
  C  C112  1  0.75242000  0.31931000  0.93763000  1.0
  C  C113  1  0.25241000  0.18069000  0.56237000  1.0
  C  C114  1  0.24758000  0.68069000  0.06237000  1.0
  C  C115  1  0.74759000  0.81931000  0.43763000  1.0
  C  C116  1  0.72512000  0.32015000  0.86087000  1.0
  C  C117  1  0.22512000  0.17984000  0.63912000  1.0
  C  C118  1  0.27488000  0.67985000  0.13913000  1.0
  C  C119  1  0.77488000  0.82015000  0.36087000  1.0
  C  C120  1  0.64210000  0.27001000  0.83347000  1.0
  C  C121  1  0.14210000  0.22998000  0.66653000  1.0
  C  C122  1  0.35790000  0.72999000  0.16653000  1.0
  C  C123  1  0.85790000  0.77002000  0.33347000  1.0
  C  C124  1  0.72649000  0.26913000  0.06940000  1.0
  C  C125  1  0.22649000  0.23087000  0.43060000  1.0
  C  C126  1  0.27351000  0.73087000  0.93060000  1.0
  C  C127  1  0.77352000  0.76913000  0.56940000  1.0
  C  C128  1  0.69158000  0.19700000  0.11219000  1.0
  C  C129  1  0.19158000  0.30300000  0.38781000  1.0
  C  C130  1  0.30842000  0.80300000  0.88781000  1.0
  C  C131  1  0.80842000  0.69700000  0.61219000  1.0
  C  C132  1  0.71836000  0.19450000  0.18874000  1.0
  C  C133  1  0.21835000  0.30550000  0.31126000  1.0
  C  C134  1  0.28164000  0.80550000  0.81126000  1.0
  C  C135  1  0.78164000  0.69450000  0.68874000  1.0
  C  C136  1  0.78223000  0.26343000  0.22355000  1.0
  C  C137  1  0.28223000  0.23657000  0.27645000  1.0
  C  C138  1  0.21777000  0.73657000  0.77646000  1.0
  C  C139  1  0.71777000  0.76343000  0.72355000  1.0
  C  C140  1  0.79239000  0.33633000  0.10452000  1.0
  C  C141  1  0.29239000  0.16367000  0.39548000  1.0
  C  C142  1  0.20761000  0.66366000  0.89548000  1.0
  C  C143  1  0.70761000  0.83634000  0.60452000  1.0
  C  C144  1  0.67463000  0.12144000  0.23453000  1.0
  C  C145  1  0.17462000  0.37856000  0.26548000  1.0
  C  C146  1  0.32537000  0.87856000  0.76548000  1.0
  C  C147  1  0.82537000  0.62144000  0.73453000  1.0
  C  C148  1  0.79046000  0.74645000  0.02905000  1.0
  C  C149  1  0.29047000  0.75354000  0.47095000  1.0
  C  C150  1  0.20953000  0.25354000  0.97095000  1.0
  C  C151  1  0.70953000  0.24646000  0.52905000  1.0
  C  C152  1  0.71721000  0.74103000  0.96487000  1.0
  C  C153  1  0.21721000  0.75897000  0.53513000  1.0
  C  C154  1  0.28279000  0.25897000  0.03514000  1.0
  C  C155  1  0.78279000  0.24103000  0.46487000  1.0
  C  C156  1  0.85436000  0.58684000  0.98329000  1.0
  C  C157  1  0.35437000  0.91315000  0.51671000  1.0
  C  C158  1  0.14564000  0.41316000  0.01671000  1.0
  C  C159  1  0.64564000  0.08685000  0.48329000  1.0
  C  C160  1  0.91883000  0.68059000  0.10250000  1.0
  C  C161  1  0.41884000  0.81940000  0.39750000  1.0
  C  C162  1  0.08116000  0.31941000  0.89750000  1.0
  C  C163  1  0.58116000  0.18060000  0.60250000  1.0
  N  N164  1  0.85288000  0.67436000  0.03628000  1.0
  N  N165  1  0.35289000  0.82564000  0.46372000  1.0
  N  N166  1  0.14712000  0.32564000  0.96373000  1.0
  N  N167  1  0.64712000  0.17436000  0.53628000  1.0
  O  O168  1  0.94460000  0.44944000  0.16791000  1.0
  O  O169  1  0.44460000  0.05057000  0.33208000  1.0
  O  O170  1  0.05540000  0.55056000  0.83209000  1.0
  O  O171  1  0.55540000  0.94943000  0.66792000  1.0
  O  O172  1  0.90872000  0.41235000  0.28708000  1.0
  O  O173  1  0.40872000  0.08765000  0.21291000  1.0
  O  O174  1  0.09128000  0.58765000  0.71292000  1.0
  O  O175  1  0.59128000  0.91235000  0.78709000  1.0
  O  O176  1  0.86081000  0.41763000  0.83871000  1.0
  O  O177  1  0.36081000  0.08237000  0.66129000  1.0
  O  O178  1  0.13919000  0.58237000  0.16129000  1.0
  O  O179  1  0.63919000  0.91764000  0.33871000  1.0
  O  O180  1  0.76026000  0.37034000  0.73847000  1.0
  O  O181  1  0.26026000  0.12965000  0.76153000  1.0
  O  O182  1  0.23974000  0.62966000  0.26153000  1.0
  O  O183  1  0.73974000  0.87035000  0.23847000  1.0
  O  O184  1  0.84581000  0.98583000  0.14258000  1.0
  O  O185  1  0.34581000  0.51417000  0.35742000  1.0
  O  O186  1  0.15419000  0.01417000  0.85742000  1.0
  O  O187  1  0.65419000  0.48584000  0.64258000  1.0
  O  O188  1  0.43119000  0.14330000  0.89838000  1.0
  O  O189  1  0.93118000  0.35670000  0.60162000  1.0
  O  O190  1  0.56881000  0.85671000  0.10162000  1.0
  O  O191  1  0.06882000  0.64330000  0.39838000  1.0
  O  O192  1  0.63360000  0.04589000  0.19585000  1.0
  O  O193  1  0.13360000  0.45411000  0.30415000  1.0
  O  O194  1  0.36640000  0.95411000  0.80415000  1.0
  O  O195  1  0.86640000  0.54589000  0.69585000  1.0
  O  O196  1  0.50281000  0.13724000  0.78151000  1.0
  O  O197  1  0.00281000  0.36276000  0.71849000  1.0
  O  O198  1  0.49719000  0.86276000  0.21849000  1.0
  O  O199  1  0.99719000  0.63724000  0.28152000  1.0
  O  O200  1  0.66223000  0.98444000  0.02377000  1.0
  O  O201  1  0.16223000  0.51556000  0.47622000  1.0
  O  O202  1  0.33777000  0.01556000  0.97623000  1.0
  O  O203  1  0.83777000  0.48444000  0.52377000  1.0
  O  O204  1  0.79345000  0.82000000  0.07756000  1.0
  O  O205  1  0.29346000  0.68000000  0.42244000  1.0
  O  O206  1  0.20655000  0.18000000  0.92245000  1.0
  O  O207  1  0.70654000  0.32000000  0.57755000  1.0
  O  O208  1  0.67244000  0.13325000  0.30554000  1.0
  O  O209  1  0.17243000  0.36675000  0.19444000  1.0
  O  O210  1  0.32757000  0.86674000  0.69445000  1.0
  O  O211  1  0.82757000  0.63325000  0.80554000  1.0
