# generated using pymatgen
data_Zn6H25C56(I3O8)3
_symmetry_space_group_name_H-M   'P 1'
_cell_length_a   18.70350000
_cell_length_b   18.74070000
_cell_length_c   18.89196346
_cell_angle_alpha   108.86983665
_cell_angle_beta   109.35357062
_cell_angle_gamma   109.66200000
_symmetry_Int_Tables_number   1
_chemical_formula_structural   Zn6H25C56(I3O8)3
_chemical_formula_sum   'Zn6 H25 C56 I9 O24'
_cell_volume   5130.35494869
_cell_formula_units_Z   1
loop_
 _symmetry_equiv_pos_site_id
 _symmetry_equiv_pos_as_xyz
  1  'x, y, z'
loop_
 _atom_site_type_symbol
 _atom_site_label
 _atom_site_symmetry_multiplicity
 _atom_site_fract_x
 _atom_site_fract_y
 _atom_site_fract_z
 _atom_site_occupancy
  Zn  Zn0  1  0.56894000  0.05943000  0.00830000  1.0
  Zn  Zn1  1  0.43622000  0.93804000  0.00601000  1.0
  Zn  Zn2  1  0.55712000  0.49740000  0.55774000  1.0
  Zn  Zn3  1  0.43406000  0.49522000  0.43018000  1.0
  Zn  Zn4  1  0.00772000  0.94282000  0.44517000  1.0
  Zn  Zn5  1  0.00832000  0.06340000  0.57415000  1.0
  H  H6  1  0.37368000  0.08700000  0.18956000  1.0
  H  H7  1  0.38835000  0.20583000  0.30964000  1.0
  H  H8  1  0.72136000  0.40529000  0.39650000  1.0
  H  H9  1  0.79974000  0.05670000  0.39717000  1.0
  H  H10  1  0.46039000  0.69215000  0.66509000  1.0
  H  H11  1  0.78994000  0.96314000  0.06343000  1.0
  H  H12  1  0.70040000  0.86323000  0.03271000  1.0
  H  H13  1  0.18164000  0.26504000  0.35940000  1.0
  H  H14  1  0.43801000  0.37866000  0.67116000  1.0
  H  H15  1  0.73544000  0.89872000  0.51721000  1.0
  H  H16  1  0.37418000  0.94228000  0.70826000  1.0
  H  H17  1  0.61887000  0.71185000  0.80856000  1.0
  H  H18  1  0.25941000  0.06421000  0.91570000  1.0
  H  H19  1  0.66478000  0.43459000  0.32422000  1.0
  H  H20  1  0.64815000  0.31522000  0.20047000  1.0
  H  H21  1  0.70265000  0.28378000  0.27144000  1.0
  H  H22  1  0.89230000  0.93787000  0.16471000  1.0
  H  H23  1  0.80271000  0.83790000  0.13370000  1.0
  H  H24  1  0.08061000  0.15995000  0.38086000  1.0
  H  H25  1  0.29603000  0.35814000  0.72402000  1.0
  H  H26  1  0.33212000  0.28153000  0.69773000  1.0
  H  H27  1  0.40408000  0.45675000  0.69996000  1.0
  H  H28  1  0.60394000  0.77193000  0.48380000  1.0
  H  H29  1  0.74745000  0.56839000  0.43307000  1.0
  H  H30  1  0.79767000  0.62305000  0.54802000  1.0
  C  C31  1  0.41963000  0.01701000  0.88103000  1.0
  C  C32  1  0.35419000  0.01485000  0.80717000  1.0
  C  C33  1  0.33551000  0.97134000  0.72207000  1.0
  C  C34  1  0.26600000  0.96157000  0.65279000  1.0
  C  C35  1  0.21232000  0.99714000  0.66494000  1.0
  C  C36  1  0.23661000  0.04497000  0.75167000  1.0
  C  C37  1  0.21490000  0.09857000  0.81135000  1.0
  C  C38  1  0.28731000  0.10015000  0.88727000  1.0
  C  C39  1  0.56779000  0.24746000  0.24636000  1.0
  C  C40  1  0.49463000  0.16449000  0.19795000  1.0
  C  C41  1  0.43146000  0.15114000  0.22470000  1.0
  C  C42  1  0.48367000  0.85128000  0.90978000  1.0
  C  C43  1  0.44023000  0.21831000  0.29307000  1.0
  C  C44  1  0.51405000  0.30236000  0.34075000  1.0
  C  C45  1  0.57789000  0.31398000  0.31650000  1.0
  C  C46  1  0.66488000  0.37995000  0.33407000  1.0
  C  C47  1  0.65363000  0.30424000  0.25526000  1.0
  C  C48  1  0.75032000  0.96920000  0.16282000  1.0
  C  C49  1  0.70803000  0.01278000  0.18708000  1.0
  C  C50  1  0.72702000  0.04330000  0.27349000  1.0
  C  C51  1  0.78501000  0.03092000  0.33045000  1.0
  C  C52  1  0.82627000  0.98538000  0.30423000  1.0
  C  C53  1  0.64233000  0.01978000  0.12271000  1.0
  C  C54  1  0.80682000  0.95461000  0.21882000  1.0
  C  C55  1  0.82447000  0.90631000  0.15111000  1.0
  C  C56  1  0.76021000  0.92238000  0.08748000  1.0
  C  C57  1  0.35356000  0.39050000  0.47745000  1.0
  C  C58  1  0.51859000  0.61341000  0.63185000  1.0
  C  C59  1  0.58918000  0.61529000  0.47274000  1.0
  C  C60  1  0.51758000  0.37562000  0.40739000  1.0
  C  C61  1  0.88880000  0.90719000  0.52763000  1.0
  C  C62  1  0.13557000  0.98881000  0.59718000  1.0
  C  C63  1  0.10934000  0.14784000  0.52579000  1.0
  C  C64  1  0.48426000  0.09548000  0.12269000  1.0
  C  C65  1  0.88938000  0.97702000  0.36883000  1.0
  C  C66  1  0.30832000  0.34032000  0.57081000  1.0
  C  C67  1  0.28702000  0.33481000  0.49047000  1.0
  C  C68  1  0.20158000  0.27068000  0.42302000  1.0
  C  C69  1  0.14436000  0.21212000  0.43545000  1.0
  C  C70  1  0.16713000  0.21759000  0.51690000  1.0
  C  C71  1  0.24913000  0.28519000  0.58441000  1.0
  C  C72  1  0.31391000  0.32516000  0.67891000  1.0
  C  C73  1  0.38105000  0.38711000  0.66319000  1.0
  C  C74  1  0.73712000  0.68691000  0.48954000  1.0
  C  C75  1  0.56541000  0.72305000  0.77950000  1.0
  C  C76  1  0.66149000  0.68951000  0.48192000  1.0
  C  C77  1  0.66179000  0.76689000  0.48957000  1.0
  C  C78  1  0.73585000  0.83835000  0.50778000  1.0
  C  C79  1  0.81100000  0.83425000  0.51286000  1.0
  C  C80  1  0.80740000  0.75524000  0.50000000  1.0
  C  C81  1  0.85752000  0.70717000  0.49785000  1.0
  C  C82  1  0.77987000  0.63139000  0.49094000  1.0
  C  C83  1  0.51190000  0.67888000  0.69403000  1.0
  C  C84  1  0.55764000  0.79274000  0.83454000  1.0
  C  C85  1  0.49850000  0.78213000  0.86191000  1.0
  C  C86  1  0.30294000  0.05149000  0.81943000  1.0
  I  I87  1  0.66984000  0.11263000  0.32103000  1.0
  I  I88  1  0.65253000  0.91257000  0.85926000  1.0
  I  I89  1  0.87014000  0.66630000  0.38287000  1.0
  I  I90  1  0.98255000  0.77020000  0.61288000  1.0
  I  I91  1  0.41944000  0.65578000  0.83731000  1.0
  I  I92  1  0.25106000  0.89088000  0.53168000  1.0
  I  I93  1  0.23948000  0.22089000  0.81419000  1.0
  I  I94  1  0.08681000  0.03122000  0.79697000  1.0
  I  I95  1  0.39751000  0.22000000  0.99798000  1.0
  O  O96  1  0.50104000  0.06518000  0.90893000  1.0
  O  O97  1  0.32894000  0.41129000  0.41852000  1.0
  O  O98  1  0.57321000  0.58808000  0.65918000  1.0
  O  O99  1  0.46823000  0.58645000  0.55317000  1.0
  O  O100  1  0.61330000  0.58160000  0.51789000  1.0
  O  O101  1  0.50957000  0.58974000  0.42103000  1.0
  O  O102  1  0.57107000  0.40615000  0.48713000  1.0
  O  O103  1  0.46662000  0.40247000  0.37886000  1.0
  O  O104  1  0.92650000  0.88557000  0.48668000  1.0
  O  O105  1  0.91264000  0.98549000  0.57974000  1.0
  O  O106  1  0.10603000  0.93760000  0.51754000  1.0
  O  O107  1  0.38765000  0.97114000  0.91082000  1.0
  O  O108  1  0.10411000  0.03462000  0.62514000  1.0
  O  O109  1  0.08701000  0.07075000  0.47538000  1.0
  O  O110  1  0.08721000  0.16972000  0.58374000  1.0
  O  O111  1  0.91761000  0.92554000  0.34173000  1.0
  O  O112  1  0.91286000  0.02207000  0.44722000  1.0
  O  O113  1  0.52919000  0.92735000  0.92474000  1.0
  O  O114  1  0.42546000  0.82984000  0.93263000  1.0
  O  O115  1  0.67083000  0.06975000  0.09346000  1.0
  O  O116  1  0.56311000  0.97340000  0.09936000  1.0
  O  O117  1  0.53560000  0.11848000  0.09386000  1.0
  O  O118  1  0.42444000  0.01641000  0.09103000  1.0
  O  O119  1  0.43243000  0.41448000  0.52705000  1.0
