# generated using pymatgen
data_Zn3H42C68(N3O7)2
_symmetry_space_group_name_H-M   'P 1'
_cell_length_a   9.77023000
_cell_length_b   11.58248017
_cell_length_c   16.29912041
_cell_angle_alpha   74.76898983
_cell_angle_beta   72.87116704
_cell_angle_gamma   65.10370174
_symmetry_Int_Tables_number   1
_chemical_formula_structural   Zn3H42C68(N3O7)2
_chemical_formula_sum   'Zn3 H42 C68 N6 O14'
_cell_volume   1578.24558192
_cell_formula_units_Z   1
loop_
 _symmetry_equiv_pos_site_id
 _symmetry_equiv_pos_as_xyz
  1  'x, y, z'
loop_
 _atom_site_type_symbol
 _atom_site_label
 _atom_site_symmetry_multiplicity
 _atom_site_fract_x
 _atom_site_fract_y
 _atom_site_fract_z
 _atom_site_occupancy
  Zn  Zn0  1  0.46167000  0.59337000  0.64127000  1.0
  Zn  Zn1  1  0.69683000  0.40649000  0.35768000  1.0
  Zn  Zn2  1  0.91306000  0.00069000  0.99902000  1.0
  H  H3  1  0.19443000  0.30417000  0.84021000  1.0
  H  H4  1  0.33829000  0.69662000  0.15941000  1.0
  H  H5  1  0.20879000  0.99321000  0.73610000  1.0
  H  H6  1  0.93814000  0.00659000  0.26321000  1.0
  H  H7  1  0.44388000  0.24563000  0.57908000  1.0
  H  H8  1  0.26845000  0.75359000  0.42149000  1.0
  H  H9  1  0.43068000  0.93387000  0.59563000  1.0
  H  H10  1  0.96019000  0.06565000  0.40410000  1.0
  H  H11  1  0.26730000  0.05459000  0.55664000  1.0
  H  H12  1  0.87921000  0.94480000  0.44254000  1.0
  H  H13  1  0.69929000  0.12219000  0.21940000  1.0
  H  H14  1  0.04156000  0.87714000  0.78131000  1.0
  H  H15  1  0.59255000  0.97844000  0.19003000  1.0
  H  H16  1  0.76215000  0.02038000  0.80980000  1.0
  H  H17  1  0.41531000  0.89417000  0.31077000  1.0
  H  H18  1  0.62156000  0.10514000  0.68815000  1.0
  H  H19  1  0.35817000  0.93987000  0.45827000  1.0
  H  H20  1  0.75710000  0.06002000  0.54077000  1.0
  H  H21  1  0.50691000  0.47017000  0.83552000  1.0
  H  H22  1  0.81220000  0.53012000  0.16363000  1.0
  H  H23  1  0.72365000  0.40908000  0.91378000  1.0
  H  H24  1  0.04570000  0.59037000  0.08633000  1.0
  H  H25  1  0.95799000  0.45756000  0.83311000  1.0
  H  H26  1  0.24781000  0.54167000  0.16803000  1.0
  H  H27  1  0.09561000  0.55892000  0.69366000  1.0
  H  H28  1  0.34719000  0.44076000  0.30827000  1.0
  H  H29  1  0.11253000  0.64717000  0.53806000  1.0
  H  H30  1  0.29732000  0.35279000  0.46377000  1.0
  H  H31  1  0.99749000  0.70937000  0.40289000  1.0
  H  H32  1  0.10992000  0.29056000  0.59828000  1.0
  H  H33  1  0.77223000  0.74851000  0.34109000  1.0
  H  H34  1  0.86259000  0.25199000  0.65889000  1.0
  H  H35  1  0.54792000  0.69533000  0.43956000  1.0
  H  H36  1  0.68361000  0.30535000  0.55935000  1.0
  H  H37  1  0.01614000  0.72212000  0.95303000  1.0
  H  H38  1  0.69245000  0.27867000  0.04624000  1.0
  H  H39  1  0.87713000  0.59639000  0.93065000  1.0
  H  H40  1  0.40578000  0.40373000  0.06965000  1.0
  H  H41  1  0.58922000  0.69576000  0.94833000  1.0
  H  H42  1  0.23449000  0.30415000  0.05215000  1.0
  H  H43  1  0.33993000  0.88959000  0.98253000  1.0
  H  H44  1  0.21236000  0.11039000  0.01784000  1.0
  C  C45  1  0.36993000  0.39717000  0.70233000  1.0
  C  C46  1  0.46900000  0.60286000  0.29781000  1.0
  C  C47  1  0.32700000  0.28416000  0.70991000  1.0
  C  C48  1  0.32076000  0.71585000  0.29021000  1.0
  C  C49  1  0.23288000  0.24990000  0.78699000  1.0
  C  C50  1  0.26940000  0.75058000  0.21271000  1.0
  C  C51  1  0.18736000  0.14710000  0.79599000  1.0
  C  C52  1  0.13023000  0.85326000  0.20343000  1.0
  C  C53  1  0.07666000  0.11887000  0.87680000  1.0
  C  C54  1  0.07217000  0.88176000  0.12217000  1.0
  C  C55  1  0.24108000  0.07550000  0.72807000  1.0
  C  C56  1  0.04464000  0.92439000  0.27146000  1.0
  C  C57  1  0.33313000  0.11063000  0.64971000  1.0
  C  C58  1  0.09350000  0.88891000  0.35023000  1.0
  C  C59  1  0.37507000  0.21574000  0.64041000  1.0
  C  C60  1  0.23107000  0.78376000  0.35985000  1.0
  C  C61  1  0.37427000  0.03860000  0.57561000  1.0
  C  C62  1  0.98871000  0.96091000  0.42416000  1.0
  C  C63  1  0.49455000  0.05987000  0.42324000  1.0
  C  C64  1  0.97806000  0.93976000  0.57681000  1.0
  C  C65  1  0.58834000  0.11434000  0.35401000  1.0
  C  C66  1  0.05711000  0.88518000  0.64646000  1.0
  C  C67  1  0.64109000  0.21338000  0.36257000  1.0
  C  C68  1  0.21742000  0.78661000  0.63830000  1.0
  C  C69  1  0.62385000  0.08201000  0.27110000  1.0
  C  C70  1  0.97762000  0.91726000  0.72927000  1.0
  C  C71  1  0.56350000  0.00266000  0.25484000  1.0
  C  C72  1  0.82197000  0.99648000  0.74500000  1.0
  C  C73  1  0.46532000  0.95494000  0.32248000  1.0
  C  C74  1  0.74379000  0.04449000  0.67685000  1.0
  C  C75  1  0.43169000  0.98175000  0.40647000  1.0
  C  C76  1  0.82071000  0.01793000  0.59293000  1.0
  C  C77  1  0.61204000  0.48940000  0.80359000  1.0
  C  C78  1  0.90459000  0.51069000  0.19606000  1.0
  C  C79  1  0.73181000  0.45745000  0.84658000  1.0
  C  C80  1  0.03520000  0.54218000  0.15357000  1.0
  C  C81  1  0.86196000  0.48451000  0.80191000  1.0
  C  C82  1  0.14768000  0.51504000  0.19883000  1.0
  C  C83  1  0.87338000  0.54352000  0.71384000  1.0
  C  C84  1  0.13015000  0.45639000  0.28697000  1.0
  C  C85  1  0.74873000  0.56933000  0.67533000  1.0
  C  C86  1  0.99311000  0.43083000  0.32490000  1.0
  C  C87  1  0.00340000  0.57483000  0.66230000  1.0
  C  C88  1  0.23978000  0.42509000  0.33916000  1.0
  C  C89  1  0.01236000  0.62372000  0.57564000  1.0
  C  C90  1  0.21130000  0.37625000  0.42579000  1.0
  C  C91  1  0.89076000  0.64671000  0.53418000  1.0
  C  C92  1  0.07161000  0.35341000  0.46663000  1.0
  C  C93  1  0.75787000  0.62155000  0.58431000  1.0
  C  C94  1  0.96380000  0.37866000  0.41589000  1.0
  C  C95  1  0.89564000  0.69200000  0.44424000  1.0
  C  C96  1  0.03205000  0.30815000  0.55648000  1.0
  C  C97  1  0.77253000  0.71213000  0.40986000  1.0
  C  C98  1  0.89498000  0.28831000  0.59020000  1.0
  C  C99  1  0.64470000  0.68516000  0.46471000  1.0
  C  C100  1  0.79508000  0.31542000  0.53476000  1.0
  C  C101  1  0.89092000  0.76144000  0.96053000  1.0
  C  C102  1  0.61390000  0.23925000  0.03881000  1.0
  C  C103  1  0.81193000  0.69226000  0.94814000  1.0
  C  C104  1  0.45356000  0.30804000  0.05185000  1.0
  C  C105  1  0.65304000  0.74749000  0.95777000  1.0
  C  C106  1  0.35929000  0.25270000  0.04235000  1.0
  C  C107  1  0.57225000  0.87320000  0.97908000  1.0
  C  C108  1  0.42501000  0.12717000  0.02074000  1.0
  C  C109  1  0.40821000  0.93904000  0.98989000  1.0
  C  C110  1  0.33727000  0.06108000  0.01029000  1.0
  C  C111  1  0.66199000  0.93573000  0.98973000  1.0
  C  C112  1  0.58773000  0.06497000  0.00955000  1.0
  N  N113  1  0.62135000  0.54322000  0.72025000  1.0
  N  N114  1  0.88456000  0.45708000  0.27942000  1.0
  N  N115  1  0.63874000  0.64044000  0.54918000  1.0
  N  N116  1  0.82883000  0.35990000  0.45034000  1.0
  N  N117  1  0.81747000  0.87916000  0.98161000  1.0
  N  N118  1  0.67877000  0.12179000  0.01731000  1.0
  O  O119  1  0.31572000  0.46293000  0.76309000  1.0
  O  O120  1  0.54094000  0.53780000  0.23671000  1.0
  O  O121  1  0.46033000  0.42419000  0.63065000  1.0
  O  O122  1  0.51524000  0.57488000  0.36979000  1.0
  O  O123  1  0.00927000  0.19563000  0.93104000  1.0
  O  O124  1  0.13518000  0.80497000  0.06793000  1.0
  O  O125  1  0.05437000  0.01273000  0.88624000  1.0
  O  O126  1  0.95383000  0.98826000  0.11239000  1.0
  O  O127  1  0.47306000  0.08586000  0.50388000  1.0
  O  O128  1  0.06301000  0.91384000  0.49634000  1.0
  O  O129  1  0.56842000  0.28319000  0.42266000  1.0
  O  O130  1  0.27385000  0.71602000  0.57849000  1.0
  O  O131  1  0.75433000  0.23378000  0.30546000  1.0
  O  O132  1  0.29474000  0.76749000  0.69504000  1.0
