# generated using pymatgen
data_LiH12C3SeN3
_symmetry_space_group_name_H-M   'P 1'
_cell_length_a   6.94478000
_cell_length_b   7.04724000
_cell_length_c   7.41593000
_cell_angle_alpha   86.72090000
_cell_angle_beta   72.57880000
_cell_angle_gamma   89.57920000
_symmetry_Int_Tables_number   1
_chemical_formula_structural   LiH12C3SeN3
_chemical_formula_sum   'Li2 H24 C6 Se2 N6'
_cell_volume   345.71324977
_cell_formula_units_Z   2
loop_
 _symmetry_equiv_pos_site_id
 _symmetry_equiv_pos_as_xyz
  1  'x, y, z'
loop_
 _atom_site_type_symbol
 _atom_site_label
 _atom_site_symmetry_multiplicity
 _atom_site_fract_x
 _atom_site_fract_y
 _atom_site_fract_z
 _atom_site_occupancy
  Li  Li0  1  0.81192000  0.81681000  0.79335000  1.0
  Li  Li1  1  0.18808000  0.18319000  0.20665000  1.0
  H  H2  1  0.63897000  0.80756000  0.11856000  1.0
  H  H3  1  0.36105000  0.19245000  0.88146000  1.0
  H  H4  1  0.43634000  0.81677000  0.04118000  1.0
  H  H5  1  0.56368000  0.18324000  0.95883000  1.0
  H  H6  1  0.42890000  0.51251000  0.21508000  1.0
  H  H7  1  0.57111000  0.48751000  0.78494000  1.0
  H  H8  1  0.68182000  0.48028000  0.07569000  1.0
  H  H9  1  0.31818000  0.51972000  0.92435000  1.0
  H  H10  1  0.13964000  0.67898000  0.74701000  1.0
  H  H11  1  0.86036000  0.32100000  0.25299000  1.0
  H  H12  1  0.99656000  0.49079000  0.81088000  1.0
  H  H13  1  0.00341000  0.50918000  0.18913000  1.0
  H  H14  1  0.21256000  0.44115000  0.49982000  1.0
  H  H15  1  0.78744000  0.55884000  0.50017000  1.0
  H  H16  1  0.14300000  0.66849000  0.42406000  1.0
  H  H17  1  0.85697000  0.33151000  0.57595000  1.0
  H  H18  1  0.76680000  0.06950000  0.59862000  1.0
  H  H19  1  0.23321000  0.93046000  0.40135000  1.0
  H  H20  1  0.83499000  0.92190000  0.42720000  1.0
  H  H21  1  0.16500000  0.07810000  0.57283000  1.0
  H  H22  1  0.42743000  0.92047000  0.70689000  1.0
  H  H23  1  0.57258000  0.07956000  0.29304000  1.0
  H  H24  1  0.51072000  0.78210000  0.50712000  1.0
  H  H25  1  0.48928000  0.21795000  0.49285000  1.0
  C  C26  1  0.53770000  0.54550000  0.07406000  1.0
  C  C27  1  0.46230000  0.45451000  0.92596000  1.0
  C  C28  1  0.08843000  0.54453000  0.52374000  1.0
  C  C29  1  0.91154000  0.45545000  0.47624000  1.0
  C  C30  1  0.53050000  0.92123000  0.56107000  1.0
  C  C31  1  0.46960000  0.07873000  0.43897000  1.0
  Se  Se32  1  0.95488000  0.12500000  0.90212000  1.0
  Se  Se33  1  0.04517000  0.87499000  0.09787000  1.0
  N  N34  1  0.57241000  0.75025000  0.02751000  1.0
  N  N35  1  0.42761000  0.24977000  0.97250000  1.0
  N  N36  1  0.02467000  0.60873000  0.71771000  1.0
  N  N37  1  0.97528000  0.39127000  0.28231000  1.0
  N  N38  1  0.74010000  0.93573000  0.56353000  1.0
  N  N39  1  0.25983000  0.06432000  0.43641000  1.0
