# generated using pymatgen
data_AlH8C12O5F
_symmetry_space_group_name_H-M   'P 1'
_cell_length_a   6.67936000
_cell_length_b   11.10830000
_cell_length_c   15.26332102
_cell_angle_alpha   89.95003915
_cell_angle_beta   79.00902177
_cell_angle_gamma   72.78170000
_symmetry_Int_Tables_number   1
_chemical_formula_structural   AlH8C12O5F
_chemical_formula_sum   'Al2 H16 C24 O10 F2'
_cell_volume   1060.02100055
_cell_formula_units_Z   2
loop_
 _symmetry_equiv_pos_site_id
 _symmetry_equiv_pos_as_xyz
  1  'x, y, z'
loop_
 _atom_site_type_symbol
 _atom_site_label
 _atom_site_symmetry_multiplicity
 _atom_site_fract_x
 _atom_site_fract_y
 _atom_site_fract_z
 _atom_site_occupancy
  Al  Al0  1  0.99999000  0.50000000  0.50001000  1.0
  Al  Al1  1  0.49999000  0.50000000  0.50000000  1.0
  H  H2  1  0.33312000  0.42732000  0.39219000  1.0
  H  H3  1  0.66685000  0.57268000  0.60782000  1.0
  H  H4  1  0.74640000  0.88372000  0.55922000  1.0
  H  H5  1  0.25359000  0.11627000  0.44075000  1.0
  H  H6  1  0.32753000  0.54374000  0.94357000  1.0
  H  H7  1  0.67253000  0.45623000  0.05644000  1.0
  H  H8  1  0.14213000  0.56505000  0.23726000  1.0
  H  H9  1  0.24445000  0.55625000  0.07406000  1.0
  H  H10  1  0.85787000  0.43496000  0.76275000  1.0
  H  H11  1  0.75556000  0.44374000  0.92595000  1.0
  H  H12  1  0.46587000  0.06414000  0.59851000  1.0
  H  H13  1  0.52666000  0.20378000  0.62584000  1.0
  H  H14  1  0.46239000  0.18544000  0.52180000  1.0
  H  H15  1  0.53762000  0.81457000  0.47818000  1.0
  H  H16  1  0.47335000  0.79621000  0.37413000  1.0
  H  H17  1  0.53411000  0.93587000  0.40146000  1.0
  C  C18  1  0.80410000  0.51960000  0.33995000  1.0
  C  C19  1  0.86821000  0.27166000  0.49427000  1.0
  C  C20  1  0.19589000  0.48041000  0.66006000  1.0
  C  C21  1  0.13179000  0.72834000  0.50572000  1.0
  C  C22  1  0.92877000  0.13158000  0.49882000  1.0
  C  C23  1  0.07124000  0.86841000  0.50116000  1.0
  C  C24  1  0.77840000  0.06815000  0.53340000  1.0
  C  C25  1  0.22160000  0.93184000  0.46658000  1.0
  C  C26  1  0.85632000  0.93677000  0.53312000  1.0
  C  C27  1  0.14368000  0.06323000  0.46687000  1.0
  C  C28  1  0.14855000  0.48096000  0.75959000  1.0
  C  C29  1  0.85145000  0.51905000  0.24042000  1.0
  C  C30  1  0.27610000  0.50994000  0.81440000  1.0
  C  C31  1  0.22052000  0.51754000  0.90697000  1.0
  C  C32  1  0.72390000  0.49007000  0.18561000  1.0
  C  C33  1  0.77948000  0.48244000  0.09305000  1.0
  C  C34  1  0.03956000  0.54270000  0.19634000  1.0
  C  C35  1  0.09665000  0.53676000  0.10384000  1.0
  C  C36  1  0.96045000  0.45731000  0.80367000  1.0
  C  C37  1  0.90337000  0.46324000  0.89617000  1.0
  C  C38  1  0.03105000  0.49487000  0.95054000  1.0
  C  C39  1  0.96898000  0.50510000  0.04947000  1.0
  C  C40  1  0.54611000  0.13335000  0.57184000  1.0
  C  C41  1  0.45390000  0.86665000  0.42813000  1.0
  O  O42  1  0.96220000  0.50824000  0.37797000  1.0
  O  O43  1  0.67906000  0.32857000  0.48379000  1.0
  O  O44  1  0.38631000  0.47031000  0.62089000  1.0
  O  O45  1  0.98833000  0.67560000  0.50057000  1.0
  O  O46  1  0.03779000  0.49178000  0.62204000  1.0
  O  O47  1  0.32094000  0.67144000  0.51620000  1.0
  O  O48  1  0.61369000  0.52970000  0.37911000  1.0
  O  O49  1  0.01166000  0.32441000  0.49943000  1.0
  O  O50  1  0.29391000  0.44941000  0.45592000  1.0
  O  O51  1  0.70608000  0.55058000  0.54408000  1.0
  F  F52  1  0.46020000  0.53648000  0.77843000  1.0
  F  F53  1  0.53980000  0.46353000  0.22157000  1.0
