# generated using pymatgen
data_Cu2H2C2N3Cl2
_symmetry_space_group_name_H-M   'P 1'
_cell_length_a   6.86187000
_cell_length_b   6.91583000
_cell_length_c   7.70287964
_cell_angle_alpha   114.38789861
_cell_angle_beta   114.06084067
_cell_angle_gamma   94.68990000
_symmetry_Int_Tables_number   1
_chemical_formula_structural   Cu2H2C2N3Cl2
_chemical_formula_sum   'Cu4 H4 C4 N6 Cl4'
_cell_volume   289.92630099
_cell_formula_units_Z   2
loop_
 _symmetry_equiv_pos_site_id
 _symmetry_equiv_pos_as_xyz
  1  'x, y, z'
loop_
 _atom_site_type_symbol
 _atom_site_label
 _atom_site_symmetry_multiplicity
 _atom_site_fract_x
 _atom_site_fract_y
 _atom_site_fract_z
 _atom_site_occupancy
  Cu  Cu0  1  0.21301000  0.96369000  0.42725000  1.0
  Cu  Cu1  1  0.78698000  0.03631000  0.57274000  1.0
  Cu  Cu2  1  0.50001000  0.50001000  0.50001000  1.0
  Cu  Cu3  1  1.00000000  0.49998000  0.49998000  1.0
  H  H4  1  0.31848000  0.75189000  0.02754000  1.0
  H  H5  1  0.70806000  0.77648000  0.02774000  1.0
  H  H6  1  0.68158000  0.24809000  0.97248000  1.0
  H  H7  1  0.29199000  0.22354000  0.97224000  1.0
  C  C8  1  0.14228000  0.73158000  0.97509000  1.0
  C  C9  1  0.83177000  0.74411000  0.97516000  1.0
  C  C10  1  0.85773000  0.26842000  0.02493000  1.0
  C  C11  1  0.16821000  0.25588000  0.02481000  1.0
  N  N12  1  0.98269000  0.63041000  0.76739000  1.0
  N  N13  1  0.78395000  0.63731000  0.76744000  1.0
  N  N14  1  0.01726000  0.36957000  0.23261000  1.0
  N  N15  1  0.21600000  0.36270000  0.23256000  1.0
  N  N16  1  0.05498000  0.80601000  0.11126000  1.0
  N  N17  1  0.94497000  0.19399000  0.88873000  1.0
  Cl  Cl18  1  0.38412000  0.83274000  0.64929000  1.0
  Cl  Cl19  1  0.26507000  0.31734000  0.64951000  1.0
  Cl  Cl20  1  0.73495000  0.68267000  0.35050000  1.0
  Cl  Cl21  1  0.61589000  0.16725000  0.35072000  1.0
