# generated using pymatgen
data_ZnH4C8(N2O)2
_symmetry_space_group_name_H-M   'P 1'
_cell_length_a   4.84558000
_cell_length_b   8.20708000
_cell_length_c   10.57620000
_cell_angle_alpha   89.99980000
_cell_angle_beta   97.17570000
_cell_angle_gamma   90.00000000
_symmetry_Int_Tables_number   1
_chemical_formula_structural   ZnH4C8(N2O)2
_chemical_formula_sum   'Zn2 H8 C16 N8 O4'
_cell_volume   417.30078721
_cell_formula_units_Z   2
loop_
 _symmetry_equiv_pos_site_id
 _symmetry_equiv_pos_as_xyz
  1  'x, y, z'
loop_
 _atom_site_type_symbol
 _atom_site_label
 _atom_site_symmetry_multiplicity
 _atom_site_fract_x
 _atom_site_fract_y
 _atom_site_fract_z
 _atom_site_occupancy
  Zn  Zn0  1  0.81644000  0.18778000  0.54007000  1.0
  Zn  Zn1  1  0.81644000  0.81222000  0.04007000  1.0
  H  H2  1  0.62117000  0.38612000  0.32780000  1.0
  H  H3  1  0.62118000  0.61388000  0.82780000  1.0
  H  H4  1  0.84726000  0.62407000  0.24694000  1.0
  H  H5  1  0.84725000  0.37593000  0.74694000  1.0
  H  H6  1  0.41461000  0.93768000  0.48713000  1.0
  H  H7  1  0.41462000  0.06232000  0.98713000  1.0
  H  H8  1  0.20125000  0.69646000  0.57251000  1.0
  H  H9  1  0.20126000  0.30354000  0.07251000  1.0
  C  C10  1  0.40446000  0.52448000  0.45946000  1.0
  C  C11  1  0.40447000  0.47553000  0.95946000  1.0
  C  C12  1  0.57906000  0.50636000  0.36440000  1.0
  C  C13  1  0.57906000  0.49365000  0.86440000  1.0
  C  C14  1  0.70134000  0.64201000  0.31614000  1.0
  C  C15  1  0.70133000  0.35799000  0.81614000  1.0
  C  C16  1  0.64866000  0.79879000  0.36115000  1.0
  C  C17  1  0.64866000  0.20121000  0.86115000  1.0
  C  C18  1  0.46606000  0.81711000  0.45353000  1.0
  C  C19  1  0.46606000  0.18288000  0.95353000  1.0
  C  C20  1  0.34398000  0.68083000  0.50173000  1.0
  C  C21  1  0.34398000  0.31917000  0.00173000  1.0
  C  C22  1  0.28136000  0.37821000  0.51413000  1.0
  C  C23  1  0.28137000  0.62179000  0.01413000  1.0
  C  C24  1  0.78836000  0.93889000  0.31229000  1.0
  C  C25  1  0.78836000  0.06111000  0.81228000  1.0
  N  N26  1  0.87796000  0.94691000  0.19665000  1.0
  N  N27  1  0.87796000  0.05308000  0.69664000  1.0
  N  N28  1  0.00404000  0.09308000  0.18827000  1.0
  N  N29  1  0.00404000  0.90692000  0.68827000  1.0
  N  N30  1  0.99290000  0.17273000  0.29339000  1.0
  N  N31  1  0.99290000  0.82727000  0.79339000  1.0
  N  N32  1  0.85942000  0.07981000  0.37339000  1.0
  N  N33  1  0.85941000  0.92019000  0.87339000  1.0
  O  O34  1  0.41484000  0.24391000  0.52820000  1.0
  O  O35  1  0.41485000  0.75609000  0.02820000  1.0
  O  O36  1  0.03485000  0.39191000  0.54413000  1.0
  O  O37  1  0.03485000  0.60809000  0.04413000  1.0
