# generated using pymatgen
data_Tb2H10C15(N3O7)2
_symmetry_space_group_name_H-M   'P 1'
_cell_length_a   13.13590000
_cell_length_b   13.19070000
_cell_length_c   31.33070000
_cell_angle_alpha   89.99980000
_cell_angle_beta   89.99990000
_cell_angle_gamma   89.99960000
_symmetry_Int_Tables_number   1
_chemical_formula_structural   Tb2H10C15(N3O7)2
_chemical_formula_sum   'Tb16 H80 C120 N48 O112'
_cell_volume   5428.72415638
_cell_formula_units_Z   8
loop_
 _symmetry_equiv_pos_site_id
 _symmetry_equiv_pos_as_xyz
  1  'x, y, z'
loop_
 _atom_site_type_symbol
 _atom_site_label
 _atom_site_symmetry_multiplicity
 _atom_site_fract_x
 _atom_site_fract_y
 _atom_site_fract_z
 _atom_site_occupancy
  Tb  Tb0  1  0.80129000  0.03816000  0.53355000  1.0
  Tb  Tb1  1  0.69871000  0.96185000  0.03355000  1.0
  Tb  Tb2  1  0.19871000  0.53815000  0.96645000  1.0
  Tb  Tb3  1  0.30129000  0.46185000  0.46645000  1.0
  Tb  Tb4  1  0.19872000  0.96185000  0.46645000  1.0
  Tb  Tb5  1  0.30129000  0.03815000  0.96645000  1.0
  Tb  Tb6  1  0.80128000  0.46185000  0.03355000  1.0
  Tb  Tb7  1  0.69872000  0.53816000  0.53355000  1.0
  Tb  Tb8  1  0.04081000  0.94952000  0.26108000  1.0
  Tb  Tb9  1  0.45918000  0.05048000  0.76108000  1.0
  Tb  Tb10  1  0.95919000  0.44952000  0.23892000  1.0
  Tb  Tb11  1  0.54081000  0.55048000  0.73892000  1.0
  Tb  Tb12  1  0.95919000  0.05048000  0.73892000  1.0
  Tb  Tb13  1  0.54081000  0.94952000  0.23892000  1.0
  Tb  Tb14  1  0.04081000  0.55048000  0.76108000  1.0
  Tb  Tb15  1  0.45919000  0.44952000  0.26108000  1.0
  H  H16  1  0.65016000  0.73799000  0.21213000  1.0
  H  H17  1  0.84984000  0.26201000  0.71213000  1.0
  H  H18  1  0.34984000  0.23799000  0.28787000  1.0
  H  H19  1  0.15016000  0.76201000  0.78787000  1.0
  H  H20  1  0.34984000  0.26201000  0.78787000  1.0
  H  H21  1  0.15016000  0.73799000  0.28787000  1.0
  H  H22  1  0.65016000  0.76201000  0.71213000  1.0
  H  H23  1  0.84985000  0.23799000  0.21213000  1.0
  H  H24  1  0.42083000  0.82341000  0.47813000  1.0
  H  H25  1  0.07917000  0.17660000  0.97812000  1.0
  H  H26  1  0.57918000  0.32340000  0.02188000  1.0
  H  H27  1  0.92082000  0.67659000  0.52188000  1.0
  H  H28  1  0.57918000  0.17660000  0.52188000  1.0
  H  H29  1  0.92082000  0.82340000  0.02187000  1.0
  H  H30  1  0.42083000  0.67659000  0.97813000  1.0
  H  H31  1  0.07917000  0.32341000  0.47812000  1.0
  H  H32  1  0.78659000  0.07279000  0.39437000  1.0
  H  H33  1  0.71341000  0.92721000  0.89437000  1.0
  H  H34  1  0.21342000  0.57278000  0.10563000  1.0
  H  H35  1  0.28658000  0.42722000  0.60563000  1.0
  H  H36  1  0.21341000  0.92721000  0.60563000  1.0
  H  H37  1  0.28658000  0.07279000  0.10563000  1.0
  H  H38  1  0.78659000  0.42721000  0.89437000  1.0
  H  H39  1  0.71340000  0.57279000  0.39437000  1.0
  H  H40  1  0.43235000  0.65539000  0.51376000  1.0
  H  H41  1  0.06765000  0.34462000  0.01376000  1.0
  H  H42  1  0.56766000  0.15538000  0.98624000  1.0
  H  H43  1  0.93234000  0.84462000  0.48624000  1.0
  H  H44  1  0.56765000  0.34462000  0.48624000  1.0
  H  H45  1  0.93234000  0.65538000  0.98624000  1.0
  H  H46  1  0.43235000  0.84462000  0.01376000  1.0
  H  H47  1  0.06766000  0.15538000  0.51376000  1.0
  H  H48  1  0.70729000  0.55725000  0.19396000  1.0
  H  H49  1  0.79270000  0.44275000  0.69396000  1.0
  H  H50  1  0.29271000  0.05725000  0.30604000  1.0
  H  H51  1  0.20729000  0.94275000  0.80604000  1.0
  H  H52  1  0.29270000  0.44275000  0.80604000  1.0
  H  H53  1  0.20729000  0.55725000  0.30604000  1.0
  H  H54  1  0.70729000  0.94275000  0.69396000  1.0
  H  H55  1  0.79271000  0.05724000  0.19395000  1.0
  H  H56  1  0.79967000  0.05783000  0.31084000  1.0
  H  H57  1  0.70032000  0.94217000  0.81084000  1.0
  H  H58  1  0.20033000  0.55783000  0.18916000  1.0
  H  H59  1  0.29967000  0.44218000  0.68916000  1.0
  H  H60  1  0.20033000  0.94217000  0.68916000  1.0
  H  H61  1  0.29967000  0.05783000  0.18916000  1.0
  H  H62  1  0.79968000  0.44218000  0.81084000  1.0
  H  H63  1  0.70033000  0.55783000  0.31084000  1.0
  H  H64  1  0.00355000  0.95906000  0.16178000  1.0
  H  H65  1  0.49645000  0.04094000  0.66178000  1.0
  H  H66  1  0.99644000  0.45906000  0.33822000  1.0
  H  H67  1  0.50355000  0.54094000  0.83822000  1.0
  H  H68  1  0.99645000  0.04094000  0.83822000  1.0
  H  H69  1  0.50355000  0.95906000  0.33822000  1.0
  H  H70  1  0.00355000  0.54094000  0.66178000  1.0
  H  H71  1  0.49644000  0.45906000  0.16178000  1.0
  H  H72  1  0.10072000  0.89470000  0.17173000  1.0
  H  H73  1  0.39928000  0.10530000  0.67173000  1.0
  H  H74  1  0.89927000  0.39470000  0.32827000  1.0
  H  H75  1  0.60073000  0.60530000  0.82827000  1.0
  H  H76  1  0.89927000  0.10530000  0.82827000  1.0
  H  H77  1  0.60073000  0.89471000  0.32827000  1.0
  H  H78  1  0.10072000  0.60530000  0.67173000  1.0
  H  H79  1  0.39927000  0.39470000  0.17173000  1.0
  H  H80  1  0.66989000  0.05604000  0.60334000  1.0
  H  H81  1  0.83011000  0.94396000  0.10333000  1.0
  H  H82  1  0.33011000  0.55605000  0.89666000  1.0
  H  H83  1  0.16989000  0.44397000  0.39667000  1.0
  H  H84  1  0.33011000  0.94395000  0.39666000  1.0
  H  H85  1  0.16989000  0.05605000  0.89666000  1.0
  H  H86  1  0.66989000  0.44396000  0.10334000  1.0
  H  H87  1  0.83011000  0.55605000  0.60334000  1.0
  H  H88  1  0.58213000  0.02038000  0.57110000  1.0
  H  H89  1  0.91787000  0.97962000  0.07110000  1.0
  H  H90  1  0.41787000  0.52039000  0.92889000  1.0
  H  H91  1  0.08213000  0.47962000  0.42890000  1.0
  H  H92  1  0.41787000  0.97961000  0.42889000  1.0
  H  H93  1  0.08213000  0.02039000  0.92889000  1.0
  H  H94  1  0.58213000  0.47962000  0.07110000  1.0
  H  H95  1  0.91787000  0.52039000  0.57111000  1.0
  C  C96  1  0.74940000  0.78244000  0.53037000  1.0
  C  C97  1  0.75061000  0.21757000  0.03038000  1.0
  C  C98  1  0.25061000  0.28244000  0.96962000  1.0
  C  C99  1  0.24940000  0.71757000  0.46964000  1.0
  C  C100  1  0.25061000  0.21756000  0.46962000  1.0
  C  C101  1  0.24939000  0.78243000  0.96963000  1.0
  C  C102  1  0.74940000  0.71756000  0.03038000  1.0
  C  C103  1  0.75061000  0.28244000  0.53038000  1.0
  C  C104  1  0.97847000  0.69162000  0.26278000  1.0
  C  C105  1  0.52152000  0.30838000  0.76278000  1.0
  C  C106  1  0.02153000  0.19161000  0.23722000  1.0
  C  C107  1  0.47847000  0.80838000  0.73722000  1.0
  C  C108  1  0.02152000  0.30838000  0.73722000  1.0
  C  C109  1  0.47847000  0.69161000  0.23722000  1.0
  C  C110  1  0.97847000  0.80838000  0.76278000  1.0
  C  C111  1  0.52153000  0.19161000  0.26278000  1.0
  C  C112  1  0.80090000  0.76180000  0.23642000  1.0
  C  C113  1  0.69910000  0.23820000  0.73642000  1.0
  C  C114  1  0.19911000  0.26180000  0.26358000  1.0
  C  C115  1  0.30089000  0.73820000  0.76358000  1.0
  C  C116  1  0.19910000  0.23820000  0.76358000  1.0
  C  C117  1  0.30089000  0.76180000  0.26358000  1.0
  C  C118  1  0.80089000  0.73820000  0.73642000  1.0
  C  C119  1  0.69911000  0.26180000  0.23642000  1.0
  C  C120  1  0.87929000  0.69135000  0.24080000  1.0
  C  C121  1  0.62071000  0.30864000  0.74080000  1.0
  C  C122  1  0.12071000  0.19135000  0.25920000  1.0
  C  C123  1  0.37929000  0.80864000  0.75920000  1.0
  C  C124  1  0.12070000  0.30864000  0.75920000  1.0
  C  C125  1  0.37929000  0.69135000  0.25920000  1.0
  C  C126  1  0.87929000  0.80864000  0.74080000  1.0
  C  C127  1  0.62071000  0.19135000  0.24079000  1.0
  C  C128  1  0.10613000  0.94762000  0.36088000  1.0
  C  C129  1  0.39387000  0.05238000  0.86088000  1.0
  C  C130  1  0.89387000  0.44763000  0.13913000  1.0
  C  C131  1  0.60613000  0.55237000  0.63913000  1.0
  C  C132  1  0.89387000  0.05238000  0.63913000  1.0
  C  C133  1  0.60612000  0.94762000  0.13913000  1.0
  C  C134  1  0.10613000  0.55239000  0.86087000  1.0
  C  C135  1  0.39387000  0.44763000  0.36087000  1.0
  C  C136  1  0.78846000  0.86790000  0.25106000  1.0
  C  C137  1  0.71153000  0.13210000  0.75106000  1.0
  C  C138  1  0.21154000  0.36790000  0.24894000  1.0
  C  C139  1  0.28846000  0.63211000  0.74894000  1.0
  C  C140  1  0.21153000  0.13210000  0.74894000  1.0
  C  C141  1  0.28846000  0.86789000  0.24894000  1.0
  C  C142  1  0.78846000  0.63210000  0.75106000  1.0
  C  C143  1  0.71153000  0.36789000  0.25106000  1.0
  C  C144  1  0.59560000  0.94872000  0.47394000  1.0
  C  C145  1  0.90440000  0.05129000  0.97394000  1.0
  C  C146  1  0.40440000  0.44872000  0.02606000  1.0
  C  C147  1  0.09560000  0.55128000  0.52606000  1.0
  C  C148  1  0.40441000  0.05129000  0.52606000  1.0
  C  C149  1  0.09560000  0.94872000  0.02606000  1.0
  C  C150  1  0.59560000  0.55129000  0.97394000  1.0
  C  C151  1  0.90440000  0.44872000  0.47394000  1.0
  C  C152  1  0.93827000  0.02341000  0.39617000  1.0
  C  C153  1  0.56174000  0.97660000  0.89617000  1.0
  C  C154  1  0.06173000  0.52340000  0.10383000  1.0
  C  C155  1  0.43827000  0.47660000  0.60383000  1.0
  C  C156  1  0.06174000  0.97659000  0.60383000  1.0
  C  C157  1  0.43826000  0.02341000  0.10383000  1.0
  C  C158  1  0.93826000  0.47660000  0.89617000  1.0
  C  C159  1  0.56173000  0.52341000  0.39617000  1.0
  C  C160  1  0.57831000  0.84999000  0.49634000  1.0
  C  C161  1  0.92168000  0.15001000  0.99634000  1.0
  C  C162  1  0.42169000  0.34999000  0.00366000  1.0
  C  C163  1  0.07831000  0.65001000  0.50367000  1.0
  C  C164  1  0.42170000  0.15001000  0.50366000  1.0
  C  C165  1  0.07831000  0.84998000  0.00366000  1.0
  C  C166  1  0.57831000  0.65001000  0.99634000  1.0
  C  C167  1  0.92170000  0.34999000  0.49634000  1.0
  C  C168  1  0.94658000  0.02776000  0.44322000  1.0
  C  C169  1  0.55343000  0.97224000  0.94322000  1.0
  C  C170  1  0.05343000  0.52775000  0.05678000  1.0
  C  C171  1  0.44657000  0.47224000  0.55678000  1.0
  C  C172  1  0.05343000  0.97225000  0.55678000  1.0
  C  C173  1  0.44657000  0.02776000  0.05678000  1.0
  C  C174  1  0.94657000  0.47224000  0.94322000  1.0
  C  C175  1  0.55343000  0.52776000  0.44322000  1.0
  C  C176  1  0.64089000  0.78279000  0.51876000  1.0
  C  C177  1  0.85911000  0.21721000  0.01876000  1.0
  C  C178  1  0.35912000  0.28279000  0.98123000  1.0
  C  C179  1  0.14088000  0.71722000  0.48124000  1.0
  C  C180  1  0.35913000  0.21722000  0.48123000  1.0
  C  C181  1  0.14087000  0.78279000  0.98123000  1.0
  C  C182  1  0.64089000  0.71722000  0.01876000  1.0
  C  C183  1  0.85912000  0.28279000  0.51877000  1.0
  C  C184  1  0.49447000  0.70912000  0.51279000  1.0
  C  C185  1  0.00553000  0.29089000  0.01279000  1.0
  C  C186  1  0.50554000  0.20911000  0.98721000  1.0
  C  C187  1  0.99446000  0.79089000  0.48721000  1.0
  C  C188  1  0.50554000  0.29089000  0.48721000  1.0
  C  C189  1  0.99446000  0.70911000  0.98721000  1.0
  C  C190  1  0.49447000  0.79089000  0.01279000  1.0
  C  C191  1  0.00554000  0.20912000  0.51279000  1.0
  C  C192  1  0.75419000  0.61392000  0.20935000  1.0
  C  C193  1  0.74581000  0.38607000  0.70935000  1.0
  C  C194  1  0.24582000  0.11392000  0.29065000  1.0
  C  C195  1  0.25419000  0.88608000  0.79065000  1.0
  C  C196  1  0.24581000  0.38607000  0.79065000  1.0
  C  C197  1  0.25418000  0.61392000  0.29065000  1.0
  C  C198  1  0.75419000  0.88608000  0.70935000  1.0
  C  C199  1  0.74582000  0.11392000  0.20935000  1.0
  C  C200  1  0.00264000  0.99455000  0.36319000  1.0
  C  C201  1  0.49737000  0.00546000  0.86319000  1.0
  C  C202  1  0.99736000  0.49453000  0.13681000  1.0
  C  C203  1  0.50264000  0.50546000  0.63681000  1.0
  C  C204  1  0.99737000  0.00546000  0.63681000  1.0
  C  C205  1  0.50263000  0.99455000  0.13681000  1.0
  C  C206  1  0.00263000  0.50547000  0.86319000  1.0
  C  C207  1  0.49737000  0.49454000  0.36319000  1.0
  C  C208  1  0.85887000  0.04178000  0.33405000  1.0
  C  C209  1  0.64113000  0.95822000  0.83405000  1.0
  C  C210  1  0.14113000  0.54177000  0.16595000  1.0
  C  C211  1  0.35886000  0.45823000  0.66595000  1.0
  C  C212  1  0.14114000  0.95822000  0.66595000  1.0
  C  C213  1  0.35887000  0.04178000  0.16595000  1.0
  C  C214  1  0.85887000  0.45822000  0.83405000  1.0
  C  C215  1  0.64114000  0.54177000  0.33405000  1.0
  N  N216  1  0.95135000  0.00698000  0.32496000  1.0
  N  N217  1  0.54865000  0.99302000  0.82496000  1.0
  N  N218  1  0.04865000  0.50698000  0.17504000  1.0
  N  N219  1  0.45134000  0.49302000  0.67504000  1.0
  N  N220  1  0.04866000  0.99302000  0.67504000  1.0
  N  N221  1  0.45135000  0.00698000  0.17504000  1.0
  N  N222  1  0.95135000  0.49303000  0.82496000  1.0
  N  N223  1  0.54866000  0.50697000  0.32496000  1.0
  N  N224  1  0.72316000  0.70989000  0.21684000  1.0
  N  N225  1  0.77684000  0.29011000  0.71684000  1.0
  N  N226  1  0.27684000  0.20989000  0.28316000  1.0
  N  N227  1  0.22316000  0.79011000  0.78316000  1.0
  N  N228  1  0.27683000  0.29011000  0.78316000  1.0
  N  N229  1  0.22316000  0.70989000  0.28316000  1.0
  N  N230  1  0.72316000  0.79011000  0.71684000  1.0
  N  N231  1  0.77684000  0.20989000  0.21684000  1.0
  N  N232  1  0.58776000  0.69506000  0.52789000  1.0
  N  N233  1  0.91223000  0.30494000  0.02789000  1.0
  N  N234  1  0.41224000  0.19506000  0.97211000  1.0
  N  N235  1  0.08776000  0.80494000  0.47211000  1.0
  N  N236  1  0.41224000  0.30494000  0.47210000  1.0
  N  N237  1  0.08776000  0.69506000  0.97210000  1.0
  N  N238  1  0.58777000  0.80494000  0.02789000  1.0
  N  N239  1  0.91223000  0.19506000  0.52789000  1.0
  N  N240  1  0.84800000  0.59973000  0.22414000  1.0
  N  N241  1  0.65199000  0.40026000  0.72414000  1.0
  N  N242  1  0.15200000  0.09973000  0.27586000  1.0
  N  N243  1  0.34800000  0.90026000  0.77586000  1.0
  N  N244  1  0.15199000  0.40026000  0.77586000  1.0
  N  N245  1  0.34800000  0.59973000  0.27586000  1.0
  N  N246  1  0.84801000  0.90026000  0.72414000  1.0
  N  N247  1  0.65200000  0.09973000  0.22414000  1.0
  N  N248  1  0.48682000  0.79986000  0.49307000  1.0
  N  N249  1  0.01318000  0.20015000  0.99307000  1.0
  N  N250  1  0.51318000  0.29985000  0.00693000  1.0
  N  N251  1  0.98682000  0.70014000  0.50693000  1.0
  N  N252  1  0.51319000  0.20015000  0.50693000  1.0
  N  N253  1  0.98681000  0.79985000  0.00693000  1.0
  N  N254  1  0.48682000  0.70015000  0.99307000  1.0
  N  N255  1  0.01318000  0.29986000  0.49307000  1.0
  N  N256  1  0.84861000  0.05193000  0.37683000  1.0
  N  N257  1  0.65140000  0.94807000  0.87683000  1.0
  N  N258  1  0.15140000  0.55193000  0.12317000  1.0
  N  N259  1  0.34860000  0.44807000  0.62317000  1.0
  N  N260  1  0.15140000  0.94807000  0.62317000  1.0
  N  N261  1  0.34860000  0.05194000  0.12317000  1.0
  N  N262  1  0.84860000  0.44807000  0.87683000  1.0
  N  N263  1  0.65139000  0.55193000  0.37683000  1.0
  O  O264  1  0.03327000  0.01690000  0.45921000  1.0
  O  O265  1  0.46674000  0.98310000  0.95920000  1.0
  O  O266  1  0.96675000  0.51689000  0.04079000  1.0
  O  O267  1  0.53326000  0.48311000  0.54079000  1.0
  O  O268  1  0.96675000  0.98311000  0.54080000  1.0
  O  O269  1  0.53325000  0.01689000  0.04080000  1.0
  O  O270  1  0.03326000  0.48310000  0.95920000  1.0
  O  O271  1  0.46674000  0.51690000  0.45921000  1.0
  O  O272  1  0.66551000  0.00680000  0.48793000  1.0
  O  O273  1  0.83449000  0.99320000  0.98793000  1.0
  O  O274  1  0.33449000  0.50680000  0.01206000  1.0
  O  O275  1  0.16551000  0.49320000  0.51207000  1.0
  O  O276  1  0.33449000  0.99321000  0.51206000  1.0
  O  O277  1  0.16551000  0.00679000  0.01206000  1.0
  O  O278  1  0.66551000  0.49320000  0.98793000  1.0
  O  O279  1  0.83449000  0.50680000  0.48794000  1.0
  O  O280  1  0.86273000  0.04355000  0.46260000  1.0
  O  O281  1  0.63728000  0.95646000  0.96260000  1.0
  O  O282  1  0.13728000  0.54355000  0.03740000  1.0
  O  O283  1  0.36272000  0.45645000  0.53740000  1.0
  O  O284  1  0.13729000  0.95645000  0.53740000  1.0
  O  O285  1  0.36271000  0.04355000  0.03740000  1.0
  O  O286  1  0.86272000  0.45645000  0.96260000  1.0
  O  O287  1  0.63728000  0.54355000  0.46260000  1.0
  O  O288  1  0.69971000  0.89464000  0.26359000  1.0
  O  O289  1  0.80029000  0.10535000  0.76360000  1.0
  O  O290  1  0.30029000  0.39464000  0.23640000  1.0
  O  O291  1  0.19971000  0.60535000  0.73640000  1.0
  O  O292  1  0.30028000  0.10536000  0.73641000  1.0
  O  O293  1  0.19971000  0.89465000  0.23641000  1.0
  O  O294  1  0.69971000  0.60535000  0.76359000  1.0
  O  O295  1  0.80029000  0.39464000  0.26359000  1.0
  O  O296  1  0.02117000  0.77436000  0.27399000  1.0
  O  O297  1  0.47882000  0.22563000  0.77399000  1.0
  O  O298  1  0.97883000  0.27437000  0.22601000  1.0
  O  O299  1  0.52117000  0.72563000  0.72601000  1.0
  O  O300  1  0.97882000  0.22563000  0.72601000  1.0
  O  O301  1  0.52117000  0.77436000  0.22602000  1.0
  O  O302  1  0.02118000  0.72563000  0.77398000  1.0
  O  O303  1  0.47882000  0.27436000  0.27398000  1.0
  O  O304  1  0.16266000  0.93932000  0.39311000  1.0
  O  O305  1  0.33734000  0.06068000  0.89311000  1.0
  O  O306  1  0.83733000  0.43933000  0.10689000  1.0
  O  O307  1  0.66267000  0.56067000  0.60690000  1.0
  O  O308  1  0.83733000  0.06068000  0.60690000  1.0
  O  O309  1  0.66266000  0.93933000  0.10690000  1.0
  O  O310  1  0.16267000  0.56068000  0.89311000  1.0
  O  O311  1  0.33734000  0.43933000  0.39310000  1.0
  O  O312  1  0.13135000  0.91677000  0.32356000  1.0
  O  O313  1  0.36864000  0.08323000  0.82356000  1.0
  O  O314  1  0.86865000  0.41677000  0.17644000  1.0
  O  O315  1  0.63136000  0.58323000  0.67644000  1.0
  O  O316  1  0.86865000  0.08323000  0.67644000  1.0
  O  O317  1  0.63135000  0.91677000  0.17644000  1.0
  O  O318  1  0.13135000  0.58323000  0.82355000  1.0
  O  O319  1  0.36865000  0.41677000  0.32356000  1.0
  O  O320  1  0.80103000  0.86302000  0.53226000  1.0
  O  O321  1  0.69898000  0.13698000  0.03227000  1.0
  O  O322  1  0.19898000  0.36302000  0.96773000  1.0
  O  O323  1  0.30103000  0.63698000  0.46774000  1.0
  O  O324  1  0.19898000  0.13697000  0.46773000  1.0
  O  O325  1  0.30102000  0.86302000  0.96774000  1.0
  O  O326  1  0.80103000  0.63698000  0.03227000  1.0
  O  O327  1  0.69897000  0.36303000  0.53227000  1.0
  O  O328  1  0.78757000  0.69429000  0.53804000  1.0
  O  O329  1  0.71243000  0.30572000  0.03804000  1.0
  O  O330  1  0.21243000  0.19429000  0.96196000  1.0
  O  O331  1  0.28757000  0.80572000  0.46197000  1.0
  O  O332  1  0.21244000  0.30572000  0.46196000  1.0
  O  O333  1  0.28756000  0.69429000  0.96196000  1.0
  O  O334  1  0.78757000  0.80572000  0.03804000  1.0
  O  O335  1  0.71244000  0.19429000  0.53804000  1.0
  O  O336  1  0.01752000  0.60458000  0.26981000  1.0
  O  O337  1  0.48248000  0.39542000  0.76981000  1.0
  O  O338  1  0.98249000  0.10458000  0.23019000  1.0
  O  O339  1  0.51752000  0.89541000  0.73019000  1.0
  O  O340  1  0.98248000  0.39542000  0.73019000  1.0
  O  O341  1  0.51752000  0.60458000  0.23019000  1.0
  O  O342  1  0.01751000  0.89542000  0.76981000  1.0
  O  O343  1  0.48248000  0.10458000  0.26981000  1.0
  O  O344  1  0.86529000  0.92541000  0.25087000  1.0
  O  O345  1  0.63471000  0.07459000  0.75087000  1.0
  O  O346  1  0.13471000  0.42540000  0.24913000  1.0
  O  O347  1  0.36529000  0.57459000  0.74913000  1.0
  O  O348  1  0.13471000  0.07459000  0.74913000  1.0
  O  O349  1  0.36529000  0.92540000  0.24913000  1.0
  O  O350  1  0.86529000  0.57459000  0.75087000  1.0
  O  O351  1  0.63471000  0.42540000  0.25087000  1.0
  O  O352  1  0.54023000  0.96788000  0.44183000  1.0
  O  O353  1  0.95977000  0.03213000  0.94183000  1.0
  O  O354  1  0.45978000  0.46788000  0.05817000  1.0
  O  O355  1  0.04022000  0.53211000  0.55817000  1.0
  O  O356  1  0.45978000  0.03213000  0.55817000  1.0
  O  O357  1  0.04022000  0.96787000  0.05817000  1.0
  O  O358  1  0.54022000  0.53212000  0.94183000  1.0
  O  O359  1  0.95978000  0.46788000  0.44183000  1.0
  O  O360  1  0.03500000  0.91543000  0.18312000  1.0
  O  O361  1  0.46500000  0.08457000  0.68312000  1.0
  O  O362  1  0.96499000  0.41543000  0.31688000  1.0
  O  O363  1  0.53500000  0.58457000  0.81688000  1.0
  O  O364  1  0.96499000  0.08457000  0.81688000  1.0
  O  O365  1  0.53501000  0.91543000  0.31688000  1.0
  O  O366  1  0.03501000  0.58457000  0.68312000  1.0
  O  O367  1  0.46499000  0.41543000  0.18312000  1.0
  O  O368  1  0.65342000  0.00696000  0.58113000  1.0
  O  O369  1  0.84658000  0.99304000  0.08113000  1.0
  O  O370  1  0.34658000  0.50697000  0.91887000  1.0
  O  O371  1  0.15342000  0.49304000  0.41887000  1.0
  O  O372  1  0.34658000  0.99303000  0.41887000  1.0
  O  O373  1  0.15342000  0.00697000  0.91887000  1.0
  O  O374  1  0.65341000  0.49304000  0.08113000  1.0
  O  O375  1  0.84659000  0.50697000  0.58113000  1.0
