# generated using pymatgen
data_ZnH3C6INO4
_symmetry_space_group_name_H-M   'P 1'
_cell_length_a   8.07499000
_cell_length_b   8.99742000
_cell_length_c   11.92400000
_cell_angle_alpha   87.86780000
_cell_angle_beta   84.16430000
_cell_angle_gamma   88.07680000
_symmetry_Int_Tables_number   1
_chemical_formula_structural   ZnH3C6INO4
_chemical_formula_sum   'Zn2 H6 C12 I2 N2 O8'
_cell_volume   860.85438326
_cell_formula_units_Z   2
loop_
 _symmetry_equiv_pos_site_id
 _symmetry_equiv_pos_as_xyz
  1  'x, y, z'
loop_
 _atom_site_type_symbol
 _atom_site_label
 _atom_site_symmetry_multiplicity
 _atom_site_fract_x
 _atom_site_fract_y
 _atom_site_fract_z
 _atom_site_occupancy
  Zn  Zn0  1  0.32765000  0.51873000  0.51115000  1.0
  Zn  Zn1  1  0.67233000  0.48131000  0.48888000  1.0
  H  H2  1  0.66632000  0.91103000  0.30120000  1.0
  H  H3  1  0.65921000  0.10234000  0.33818000  1.0
  H  H4  1  0.79865000  0.97309000  0.39772000  1.0
  H  H5  1  0.33383000  0.08907000  0.69879000  1.0
  H  H6  1  0.20149000  0.02695000  0.60228000  1.0
  H  H7  1  0.34094000  0.89776000  0.66187000  1.0
  C  C8  1  0.51755000  0.78677000  0.48423000  1.0
  C  C9  1  0.45680000  0.04965000  0.53382000  1.0
  C  C10  1  0.67294000  0.98756000  0.37019000  1.0
  C  C11  1  0.32723000  0.01252000  0.62980000  1.0
  C  C12  1  0.48271000  0.21321000  0.51577000  1.0
  C  C13  1  0.48947000  0.49921000  0.72041000  1.0
  C  C14  1  0.51020000  0.50074000  0.27959000  1.0
  C  C15  1  0.49262000  0.49929000  0.84134000  1.0
  C  C16  1  0.50708000  0.50056000  0.15867000  1.0
  C  C17  1  0.49726000  0.49978000  0.94358000  1.0
  C  C18  1  0.50244000  0.50003000  0.05641000  1.0
  C  C19  1  0.54342000  0.95034000  0.46620000  1.0
  I  I20  1  0.03230000  0.30425000  0.35983000  1.0
  I  I21  1  0.96770000  0.69582000  0.64013000  1.0
  N  N22  1  0.94617000  0.46831000  0.47808000  1.0
  N  N23  1  0.05383000  0.53175000  0.52188000  1.0
  O  O24  1  0.36977000  0.73972000  0.50200000  1.0
  O  O25  1  0.63052000  0.26026000  0.49829000  1.0
  O  O26  1  0.65051000  0.70500000  0.47694000  1.0
  O  O27  1  0.34973000  0.29496000  0.52274000  1.0
  O  O28  1  0.34782000  0.51971000  0.68332000  1.0
  O  O29  1  0.65179000  0.47988000  0.31672000  1.0
  O  O30  1  0.62985000  0.47895000  0.66291000  1.0
  O  O31  1  0.36990000  0.52146000  0.33708000  1.0
