# generated using pymatgen
data_FeH11C17N3O4
_symmetry_space_group_name_H-M   'P 1'
_cell_length_a   8.61442000
_cell_length_b   8.91312000
_cell_length_c   11.07510000
_cell_angle_alpha   76.58910000
_cell_angle_beta   80.82070000
_cell_angle_gamma   81.04220000
_symmetry_Int_Tables_number   1
_chemical_formula_structural   FeH11C17N3O4
_chemical_formula_sum   'Fe2 H22 C34 N6 O8'
_cell_volume   810.31722987
_cell_formula_units_Z   2
loop_
 _symmetry_equiv_pos_site_id
 _symmetry_equiv_pos_as_xyz
  1  'x, y, z'
loop_
 _atom_site_type_symbol
 _atom_site_label
 _atom_site_symmetry_multiplicity
 _atom_site_fract_x
 _atom_site_fract_y
 _atom_site_fract_z
 _atom_site_occupancy
  Fe  Fe0  1  0.18131000  0.29693000  0.07307000  1.0
  Fe  Fe1  1  0.81560000  0.70562000  0.93000000  1.0
  H  H2  1  0.59004000  0.88733000  0.23436000  1.0
  H  H3  1  0.41600000  0.10650000  0.74642000  1.0
  H  H4  1  0.81446000  0.05828000  0.18670000  1.0
  H  H5  1  0.19177000  0.93569000  0.79579000  1.0
  H  H6  1  0.49863000  0.41624000  0.98653000  1.0
  H  H7  1  0.49222000  0.59477000  0.02470000  1.0
  H  H8  1  0.99009000  0.16677000  0.93339000  1.0
  H  H9  1  0.01082000  0.83197000  0.06962000  1.0
  H  H10  1  0.95287000  0.19307000  0.71682000  1.0
  H  H11  1  0.04963000  0.80444000  0.28592000  1.0
  H  H12  1  0.36150000  0.44882000  0.61087000  1.0
  H  H13  1  0.64301000  0.54609000  0.39286000  1.0
  H  H14  1  0.37117000  0.42448000  0.83397000  1.0
  H  H15  1  0.63070000  0.57296000  0.16989000  1.0
  H  H16  1  0.00887000  0.13545000  0.53852000  1.0
  H  H17  1  0.98958000  0.86514000  0.46425000  1.0
  H  H18  1  0.02492000  0.13521000  0.31247000  1.0
  H  H19  1  0.96994000  0.86848000  0.69001000  1.0
  H  H20  1  0.29167000  0.50330000  0.21063000  1.0
  H  H21  1  0.70636000  0.49808000  0.79256000  1.0
  H  H22  1  0.28466000  0.52350000  0.42868000  1.0
  H  H23  1  0.71918000  0.47312000  0.57512000  1.0
  C  C24  1  0.42980000  0.06704000  0.14287000  1.0
  C  C25  1  0.57033000  0.93356000  0.85129000  1.0
  C  C26  1  0.57672000  0.00679000  0.18171000  1.0
  C  C27  1  0.42663000  0.99034000  0.80542000  1.0
  C  C28  1  0.69915000  0.09968000  0.15489000  1.0
  C  C29  1  0.30397000  0.89772000  0.83343000  1.0
  C  C30  1  0.67251000  0.25005000  0.08267000  1.0
  C  C31  1  0.32583000  0.75255000  0.91463000  1.0
  C  C32  1  0.52344000  0.30157000  0.04380000  1.0
  C  C33  1  0.47169000  0.70481000  0.95996000  1.0
  C  C34  1  0.29130000  0.97575000  0.16676000  1.0
  C  C35  1  0.70885000  0.02478000  0.82787000  1.0
  C  C36  1  0.79588000  0.36001000  0.05343000  1.0
  C  C37  1  0.20138000  0.64336000  0.94650000  1.0
  C  C38  1  0.06721000  0.23274000  0.85951000  1.0
  C  C39  1  0.93419000  0.76547000  0.14360000  1.0
  C  C40  1  0.05135000  0.24421000  0.73518000  1.0
  C  C41  1  0.95108000  0.75314000  0.26790000  1.0
  C  C42  1  0.15635000  0.32228000  0.63941000  1.0
  C  C43  1  0.84651000  0.67474000  0.36389000  1.0
  C  C44  1  0.27246000  0.38930000  0.67809000  1.0
  C  C45  1  0.73097000  0.60690000  0.32540000  1.0
  C  C46  1  0.27971000  0.37535000  0.80407000  1.0
  C  C47  1  0.72239000  0.62205000  0.19945000  1.0
  C  C48  1  0.07382000  0.21947000  0.46954000  1.0
  C  C49  1  0.92533000  0.78071000  0.53334000  1.0
  C  C50  1  0.08215000  0.21722000  0.34399000  1.0
  C  C51  1  0.91472000  0.78488000  0.65872000  1.0
  C  C52  1  0.23378000  0.42137000  0.28642000  1.0
  C  C53  1  0.76512000  0.57924000  0.71666000  1.0
  C  C54  1  0.22918000  0.43091000  0.40992000  1.0
  C  C55  1  0.77259000  0.56734000  0.59336000  1.0
  C  C56  1  0.15161000  0.32568000  0.50690000  1.0
  C  C57  1  0.85013000  0.67243000  0.49629000  1.0
  N  N58  1  0.40121000  0.21725000  0.07876000  1.0
  N  N59  1  0.59549000  0.78681000  0.92283000  1.0
  N  N60  1  0.17859000  0.29874000  0.89609000  1.0
  N  N61  1  0.82182000  0.70056000  0.10709000  1.0
  N  N62  1  0.16423000  0.31411000  0.25203000  1.0
  N  N63  1  0.83250000  0.68818000  0.75076000  1.0
  O  O64  1  0.16154000  0.05701000  0.12956000  1.0
  O  O65  1  0.83595000  0.94573000  0.87169000  1.0
  O  O66  1  0.30623000  0.83441000  0.21642000  1.0
  O  O67  1  0.69609000  0.16430000  0.77282000  1.0
  O  O68  1  0.91658000  0.31901000  0.10971000  1.0
  O  O69  1  0.08095000  0.68295000  0.88974000  1.0
  O  O70  1  0.75923000  0.48780000  0.97666000  1.0
  O  O71  1  0.23644000  0.51748000  0.02583000  1.0
