# generated using pymatgen
data_Zn2H2C12S2N2O11
_symmetry_space_group_name_H-M   'P 1'
_cell_length_a   19.58520000
_cell_length_b   19.61220000
_cell_length_c   33.30460000
_cell_angle_alpha   79.01260000
_cell_angle_beta   79.09660000
_cell_angle_gamma   63.84010000
_symmetry_Int_Tables_number   1
_chemical_formula_structural   Zn2H2C12S2N2O11
_chemical_formula_sum   'Zn16 H16 C96 S16 N16 O88'
_cell_volume   11191.21826158
_cell_formula_units_Z   8
loop_
 _symmetry_equiv_pos_site_id
 _symmetry_equiv_pos_as_xyz
  1  'x, y, z'
loop_
 _atom_site_type_symbol
 _atom_site_label
 _atom_site_symmetry_multiplicity
 _atom_site_fract_x
 _atom_site_fract_y
 _atom_site_fract_z
 _atom_site_occupancy
  Zn  Zn0  1  0.60035000  0.94547000  0.52234000  1.0
  Zn  Zn1  1  0.51810000  0.01121000  0.44028000  1.0
  Zn  Zn2  1  0.43642000  0.94211000  0.51880000  1.0
  Zn  Zn3  1  0.44508000  0.09769000  0.52220000  1.0
  Zn  Zn4  1  0.65134000  0.30547000  0.72817000  1.0
  Zn  Zn5  1  0.81001000  0.30989000  0.73620000  1.0
  Zn  Zn6  1  0.73525000  0.22780000  0.81098000  1.0
  Zn  Zn7  1  0.80309000  0.14957000  0.72903000  1.0
  Zn  Zn8  1  0.23667000  0.73127000  0.31142000  1.0
  Zn  Zn9  1  0.30323000  0.64923000  0.22996000  1.0
  Zn  Zn10  1  0.15245000  0.80624000  0.22865000  1.0
  Zn  Zn11  1  0.31197000  0.80957000  0.23552000  1.0
  Zn  Zn12  1  0.93711000  0.44132000  0.01761000  1.0
  Zn  Zn13  1  0.94631000  0.59686000  0.02378000  1.0
  Zn  Zn14  1  0.10042000  0.44484000  0.02209000  1.0
  Zn  Zn15  1  0.01494000  0.51383000  0.94022000  1.0
  H  H16  1  0.75401000  0.04743000  0.64782000  1.0
  H  H17  1  0.54608000  0.25582000  0.64877000  1.0
  H  H18  1  0.70310000  0.00074000  0.60037000  1.0
  H  H19  1  0.39889000  0.90644000  0.30200000  1.0
  H  H20  1  0.29810000  0.79529000  0.40401000  1.0
  H  H21  1  0.44393000  0.95388000  0.35189000  1.0
  H  H22  1  0.94922000  0.44650000  0.84943000  1.0
  H  H23  1  0.84304000  0.34730000  0.95472000  1.0
  H  H24  1  0.90082000  0.39576000  0.80280000  1.0
  H  H25  1  0.20887000  0.49895000  0.10011000  1.0
  H  H26  1  0.99862000  0.70495000  0.09867000  1.0
  H  H27  1  0.25390000  0.55025000  0.14816000  1.0
  H  H28  1  0.47447000  0.19771000  0.57842000  1.0
  H  H29  1  0.36973000  0.84976000  0.47611000  1.0
  H  H30  1  0.76359000  0.28335000  0.89114000  1.0
  H  H31  1  0.05507000  0.77706000  0.16968000  1.0
  C  C32  1  0.68423000  0.93483000  0.43966000  1.0
  C  C33  1  0.42748000  0.92796000  0.43356000  1.0
  C  C34  1  0.55996000  0.82042000  0.56296000  1.0
  C  C35  1  0.31474000  0.06370000  0.56179000  1.0
  C  C36  1  0.57027000  0.07246000  0.56910000  1.0
  C  C37  1  0.44216000  0.17768000  0.43906000  1.0
  C  C38  1  0.69038000  0.43281000  0.68995000  1.0
  C  C39  1  0.81644000  0.31671000  0.82339000  1.0
  C  C40  1  0.56880000  0.30849000  0.81067000  1.0
  C  C41  1  0.81118000  0.06324000  0.81115000  1.0
  C  C42  1  0.68117000  0.18229000  0.68011000  1.0
  C  C43  1  0.93117000  0.18922000  0.69248000  1.0
  C  C44  1  0.31308000  0.56507000  0.31201000  1.0
  C  C45  1  0.17961000  0.68205000  0.18014000  1.0
  C  C46  1  0.07004000  0.80615000  0.31109000  1.0
  C  C47  1  0.19027000  0.93364000  0.19039000  1.0
  C  C48  1  0.31798000  0.81998000  0.32100000  1.0
  C  C49  1  0.43052000  0.68847000  0.19020000  1.0
  C  C50  1  0.81680000  0.56184000  0.06227000  1.0
  C  C51  1  0.07323000  0.56961000  0.06803000  1.0
  C  C52  1  0.05981000  0.31944000  0.06186000  1.0
  C  C53  1  0.18251000  0.43768000  0.93872000  1.0
  C  C54  1  0.92844000  0.42856000  0.93279000  1.0
  C  C55  1  0.93827000  0.67853000  0.94054000  1.0
  C  C56  1  0.59773000  0.10218000  0.59706000  1.0
  C  C57  1  0.65255000  0.15423000  0.65113000  1.0
  C  C58  1  0.55302000  0.17563000  0.61043000  1.0
  C  C59  1  0.69794000  0.08208000  0.63742000  1.0
  C  C60  1  0.58095000  0.20017000  0.63803000  1.0
  C  C61  1  0.66983000  0.05666000  0.61108000  1.0
  C  C62  1  0.39917000  0.89920000  0.40557000  1.0
  C  C63  1  0.34574000  0.84828000  0.35028000  1.0
  C  C64  1  0.35841000  0.85296000  0.42060000  1.0
  C  C65  1  0.38748000  0.89267000  0.33508000  1.0
  C  C66  1  0.33069000  0.82931000  0.39244000  1.0
  C  C67  1  0.41266000  0.91838000  0.36270000  1.0
  C  C68  1  0.54742000  0.69432000  0.59802000  1.0
  C  C69  1  0.70792000  0.55289000  0.64862000  1.0
  C  C70  1  0.58522000  0.74197000  0.58531000  1.0
  C  C71  1  0.66924000  0.50632000  0.66248000  1.0
  C  C72  1  0.66224000  0.62305000  0.62677000  1.0
  C  C73  1  0.59057000  0.62691000  0.62274000  1.0
  C  C74  1  0.42299000  0.27054000  0.37000000  1.0
  C  C75  1  0.32433000  0.47159000  0.38047000  1.0
  C  C76  1  0.41455000  0.25211000  0.41263000  1.0
  C  C77  1  0.33400000  0.49003000  0.33792000  1.0
  C  C78  1  0.36000000  0.39170000  0.39241000  1.0
  C  C79  1  0.39347000  0.35060000  0.35833000  1.0
  C  C80  1  0.77663000  0.92463000  0.37103000  1.0
  C  C81  1  0.97832000  0.82562000  0.38051000  1.0
  C  C82  1  0.75900000  0.91469000  0.41364000  1.0
  C  C83  1  0.99588000  0.83402000  0.33783000  1.0
  C  C84  1  0.89831000  0.85543000  0.39259000  1.0
  C  C85  1  0.85639000  0.88899000  0.35875000  1.0
  C  C86  1  0.19342000  0.16122000  0.60183000  1.0
  C  C87  1  0.04687000  0.09653000  0.64683000  1.0
  C  C88  1  0.23729000  0.09267000  0.58514000  1.0
  C  C89  1  0.00405000  0.16418000  0.66455000  1.0
  C  C90  1  0.11763000  0.09387000  0.62560000  1.0
  C  C91  1  0.12566000  0.16138000  0.62601000  1.0
  C  C92  1  0.84318000  0.34546000  0.85217000  1.0
  C  C93  1  0.89900000  0.39944000  0.90476000  1.0
  C  C94  1  0.82543000  0.33251000  0.89558000  1.0
  C  C95  1  0.91531000  0.41409000  0.86177000  1.0
  C  C96  1  0.85525000  0.35868000  0.92148000  1.0
  C  C97  1  0.88821000  0.38635000  0.83614000  1.0
  C  C98  1  0.47672000  0.32881000  0.87979000  1.0
  C  C99  1  0.27522000  0.42802000  0.87000000  1.0
  C  C100  1  0.49452000  0.33736000  0.83716000  1.0
  C  C101  1  0.25729000  0.41787000  0.91255000  1.0
  C  C102  1  0.35507000  0.39243000  0.85788000  1.0
  C  C103  1  0.39668000  0.35869000  0.89180000  1.0
  C  C104  1  0.88120000  0.91389000  0.82315000  1.0
  C  C105  1  0.87808000  0.82840000  0.92878000  1.0
  C  C106  1  0.84132000  0.98679000  0.83542000  1.0
  C  C107  1  0.91648000  0.75538000  0.91653000  1.0
  C  C108  1  0.86206000  0.88611000  0.89467000  1.0
  C  C109  1  0.89158000  0.85580000  0.85700000  1.0
  C  C110  1  0.15131000  0.65467000  0.15137000  1.0
  C  C111  1  0.10111000  0.59916000  0.09666000  1.0
  C  C112  1  0.07804000  0.69876000  0.13751000  1.0
  C  C113  1  0.17338000  0.55468000  0.11059000  1.0
  C  C114  1  0.05430000  0.67057000  0.10965000  1.0
  C  C115  1  0.19792000  0.58298000  0.13726000  1.0
  C  C116  1  0.54722000  0.59545000  0.14527000  1.0
  C  C117  1  0.69443000  0.65976000  0.10150000  1.0
  C  C118  1  0.50355000  0.66356000  0.16245000  1.0
  C  C119  1  0.73886000  0.59101000  0.08520000  1.0
  C  C120  1  0.62606000  0.66022000  0.12505000  1.0
  C  C121  1  0.61844000  0.59248000  0.12467000  1.0
  C  C122  1  0.20771000  0.05359000  0.14878000  1.0
  C  C123  1  0.04700000  0.19391000  0.09798000  1.0
  C  C124  1  0.16906000  0.00705000  0.16297000  1.0
  C  C125  1  0.08490000  0.24133000  0.08465000  1.0
  C  C126  1  0.09022000  0.12707000  0.12301000  1.0
  C  C127  1  0.16194000  0.12343000  0.12674000  1.0
  S  S128  1  0.67459000  0.70295000  0.60255000  1.0
  S  S129  1  0.57783000  0.54750000  0.64753000  1.0
  S  S130  1  0.36848000  0.33292000  0.43822000  1.0
  S  S131  1  0.38497000  0.40938000  0.31249000  1.0
  S  S132  1  0.84041000  0.86368000  0.43866000  1.0
  S  S133  1  0.91436000  0.88037000  0.31269000  1.0
  S  S134  1  0.19424000  0.02941000  0.59803000  1.0
  S  S135  1  0.04937000  0.22539000  0.65401000  1.0
  S  S136  1  0.41324000  0.38394000  0.81188000  1.0
  S  S137  1  0.33841000  0.36674000  0.93775000  1.0
  S  S138  1  0.81846000  0.98421000  0.88851000  1.0
  S  S139  1  0.93486000  0.75762000  0.86335000  1.0
  S  S140  1  0.54881000  0.72476000  0.15226000  1.0
  S  S141  1  0.69594000  0.52768000  0.09772000  1.0
  S  S142  1  0.07749000  0.04796000  0.14823000  1.0
  S  S143  1  0.17429000  0.20292000  0.10180000  1.0
  N  N144  1  0.47500000  0.70424000  0.58669000  1.0
  N  N145  1  0.78725000  0.53523000  0.65198000  1.0
  N  N146  1  0.45157000  0.21918000  0.33830000  1.0
  N  N147  1  0.27891000  0.52299000  0.41140000  1.0
  N  N148  1  0.72465000  0.97023000  0.34029000  1.0
  N  N149  1  0.03052000  0.79672000  0.41189000  1.0
  N  N150  1  0.20734000  0.22996000  0.59491000  1.0
  N  N151  1  0.02490000  0.03506000  0.64541000  1.0
  N  N152  1  0.52913000  0.29882000  0.91103000  1.0
  N  N153  1  0.22349000  0.47298000  0.83909000  1.0
  N  N154  1  0.91529000  0.89357000  0.78182000  1.0
  N  N155  1  0.85936000  0.84999000  0.97038000  1.0
  N  N156  1  0.52586000  0.53352000  0.14417000  1.0
  N  N157  1  0.70846000  0.72842000  0.09461000  1.0
  N  N158  1  0.28708000  0.03627000  0.15192000  1.0
  N  N159  1  0.97447000  0.20341000  0.08704000  1.0
  O  O160  1  0.50053000  0.99850000  0.50103000  1.0
  O  O161  1  0.68623000  0.93390000  0.47797000  1.0
  O  O162  1  0.45682000  0.97505000  0.41813000  1.0
  O  O163  1  0.48869000  0.85988000  0.56152000  1.0
  O  O164  1  0.62629000  0.94864000  0.42238000  1.0
  O  O165  1  0.61400000  0.84139000  0.54826000  1.0
  O  O166  1  0.42051000  0.90361000  0.47260000  1.0
  O  O167  1  0.33265000  0.00443000  0.54417000  1.0
  O  O168  1  0.50687000  0.11903000  0.55405000  1.0
  O  O169  1  0.35688000  0.09751000  0.56212000  1.0
  O  O170  1  0.60932000  0.00365000  0.56129000  1.0
  O  O171  1  0.49457000  0.12001000  0.42330000  1.0
  O  O172  1  0.41079000  0.18016000  0.47654000  1.0
  O  O173  1  0.74958000  0.24933000  0.75088000  1.0
  O  O174  1  0.64886000  0.39742000  0.69015000  1.0
  O  O175  1  0.84094000  0.32384000  0.78525000  1.0
  O  O176  1  0.62511000  0.25324000  0.82625000  1.0
  O  O177  1  0.74472000  0.41321000  0.71129000  1.0
  O  O178  1  0.56756000  0.34147000  0.77356000  1.0
  O  O179  1  0.76954000  0.28526000  0.83877000  1.0
  O  O180  1  0.79207000  0.11939000  0.83158000  1.0
  O  O181  1  0.75133000  0.14397000  0.68627000  1.0
  O  O182  1  0.80460000  0.06708000  0.77354000  1.0
  O  O183  1  0.63329000  0.24222000  0.69642000  1.0
  O  O184  1  0.89912000  0.26089000  0.69604000  1.0
  O  O185  1  0.90872000  0.13862000  0.71097000  1.0
  O  O186  1  0.25054000  0.74951000  0.25063000  1.0
  O  O187  1  0.29976000  0.62285000  0.32916000  1.0
  O  O188  1  0.24762000  0.64221000  0.18920000  1.0
  O  O189  1  0.06743000  0.83839000  0.27376000  1.0
  O  O190  1  0.31289000  0.56323000  0.27383000  1.0
  O  O191  1  0.12748000  0.75269000  0.32659000  1.0
  O  O192  1  0.13285000  0.74586000  0.19463000  1.0
  O  O193  1  0.14776000  0.89896000  0.19113000  1.0
  O  O194  1  0.34575000  0.82504000  0.28315000  1.0
  O  O195  1  0.24554000  0.91308000  0.21115000  1.0
  O  O196  1  0.26886000  0.79266000  0.33609000  1.0
  O  O197  1  0.40809000  0.63765000  0.20840000  1.0
  O  O198  1  0.39844000  0.75998000  0.19405000  1.0
  O  O199  1  0.00094000  0.49854000  0.00070000  1.0
  O  O200  1  0.83382000  0.50419000  0.04352000  1.0
  O  O201  1  0.01259000  0.61673000  0.05203000  1.0
  O  O202  1  0.11407000  0.33983000  0.04666000  1.0
  O  O203  1  0.85964000  0.59398000  0.06418000  1.0
  O  O204  1  0.98856000  0.35908000  0.06066000  1.0
  O  O205  1  0.11201000  0.49949000  0.06193000  1.0
  O  O206  1  0.18566000  0.43403000  0.97713000  1.0
  O  O207  1  0.95681000  0.47622000  0.91609000  1.0
  O  O208  1  0.12413000  0.45371000  0.92135000  1.0
  O  O209  1  0.92285000  0.40385000  0.97110000  1.0
  O  O210  1  0.90525000  0.67402000  0.97692000  1.0
  O  O211  1  0.98755000  0.62330000  0.92095000  1.0
  O  O212  1  0.48415000  0.22367000  0.59821000  1.0
  O  O213  1  0.34434000  0.83034000  0.46085000  1.0
  O  O214  1  0.78137000  0.29580000  0.91367000  1.0
  O  O215  1  0.02934000  0.76733000  0.14974000  1.0
  O  O216  1  0.44218000  0.66817000  0.61102000  1.0
  O  O217  1  0.45281000  0.74341000  0.55411000  1.0
  O  O218  1  0.80067000  0.59211000  0.65105000  1.0
  O  O219  1  0.83520000  0.46810000  0.65357000  1.0
  O  O220  1  0.47474000  0.24558000  0.30414000  1.0
  O  O221  1  0.44781000  0.15682000  0.34617000  1.0
  O  O222  1  0.29893000  0.49941000  0.44668000  1.0
  O  O223  1  0.22348000  0.58261000  0.40165000  1.0
  O  O224  1  0.74721000  0.94993000  0.30509000  1.0
  O  O225  1  0.66563000  0.02612000  0.35008000  1.0
  O  O226  1  0.00421000  0.77445000  0.44636000  1.0
  O  O227  1  0.09343000  0.79930000  0.40350000  1.0
  O  O228  1  0.17783000  0.27180000  0.62303000  1.0
  O  O229  1  0.24311000  0.24392000  0.56216000  1.0
  O  O230  1  0.07963000  0.97231000  0.63920000  1.0
  O  O231  1  0.95647000  0.04895000  0.64823000  1.0
  O  O232  1  0.50306000  0.27604000  0.94540000  1.0
  O  O233  1  0.59252000  0.30057000  0.90262000  1.0
  O  O234  1  0.24646000  0.45215000  0.80398000  1.0
  O  O235  1  0.16416000  0.52881000  0.84856000  1.0
  O  O236  1  0.92331000  0.82951000  0.77573000  1.0
  O  O237  1  0.93643000  0.93768000  0.75690000  1.0
  O  O238  1  0.80647000  0.91484000  0.97419000  1.0
  O  O239  1  0.89762000  0.80644000  0.99774000  1.0
  O  O240  1  0.58083000  0.47020000  0.13952000  1.0
  O  O241  1  0.45758000  0.54730000  0.14595000  1.0
  O  O242  1  0.67756000  0.77109000  0.12233000  1.0
  O  O243  1  0.74572000  0.74136000  0.06225000  1.0
  O  O244  1  0.30035000  0.09334000  0.15065000  1.0
  O  O245  1  0.33519000  0.96919000  0.15365000  1.0
  O  O246  1  0.94170000  0.16785000  0.11191000  1.0
  O  O247  1  0.95214000  0.24171000  0.05434000  1.0
