# generated using pymatgen
data_CuH7C9NCl
_symmetry_space_group_name_H-M   'P 1'
_cell_length_a   3.73589000
_cell_length_b   13.89830000
_cell_length_c   15.33750000
_cell_angle_alpha   90.00120000
_cell_angle_beta   89.99940000
_cell_angle_gamma   89.99910000
_symmetry_Int_Tables_number   1
_chemical_formula_structural   CuH7C9NCl
_chemical_formula_sum   'Cu4 H28 C36 N4 Cl4'
_cell_volume   796.36164998
_cell_formula_units_Z   4
loop_
 _symmetry_equiv_pos_site_id
 _symmetry_equiv_pos_as_xyz
  1  'x, y, z'
loop_
 _atom_site_type_symbol
 _atom_site_label
 _atom_site_symmetry_multiplicity
 _atom_site_fract_x
 _atom_site_fract_y
 _atom_site_fract_z
 _atom_site_occupancy
  Cu  Cu0  1  0.16801000  0.07649000  0.76640000  1.0
  Cu  Cu1  1  0.66804000  0.92351000  0.73361000  1.0
  Cu  Cu2  1  0.83198000  0.42353000  0.26640000  1.0
  Cu  Cu3  1  0.33200000  0.57649000  0.23362000  1.0
  H  H4  1  0.85890000  0.04009000  0.93507000  1.0
  H  H5  1  0.35895000  0.95992000  0.56493000  1.0
  H  H6  1  0.14116000  0.45991000  0.43505000  1.0
  H  H7  1  0.64112000  0.54006000  0.06495000  1.0
  H  H8  1  0.67858000  0.13307000  0.06771000  1.0
  H  H9  1  0.17870000  0.86694000  0.43229000  1.0
  H  H10  1  0.32135000  0.36693000  0.56770000  1.0
  H  H11  1  0.82144000  0.63303000  0.93231000  1.0
  H  H12  1  0.81006000  0.31053000  0.07416000  1.0
  H  H13  1  0.31012000  0.68948000  0.42585000  1.0
  H  H14  1  0.18992000  0.18948000  0.57415000  1.0
  H  H15  1  0.69000000  0.81048000  0.92584000  1.0
  H  H16  1  0.08448000  0.45378000  0.00206000  1.0
  H  H17  1  0.58452000  0.54623000  0.49794000  1.0
  H  H18  1  0.91550000  0.04621000  0.50204000  1.0
  H  H19  1  0.41566000  0.95377000  0.99795000  1.0
  H  H20  1  0.37303000  0.52727000  0.87186000  1.0
  H  H21  1  0.87315000  0.47274000  0.62814000  1.0
  H  H22  1  0.62674000  0.97275000  0.37184000  1.0
  H  H23  1  0.12704000  0.02727000  0.12815000  1.0
  H  H24  1  0.50340000  0.42692000  0.74130000  1.0
  H  H25  1  0.00343000  0.57309000  0.75870000  1.0
  H  H26  1  0.49646000  0.07310000  0.24129000  1.0
  H  H27  1  0.99664000  0.92692000  0.25870000  1.0
  H  H28  1  0.36728000  0.25108000  0.74242000  1.0
  H  H29  1  0.86733000  0.74893000  0.75757000  1.0
  H  H30  1  0.63271000  0.24894000  0.24241000  1.0
  H  H31  1  0.13277000  0.75108000  0.25758000  1.0
  C  C32  1  0.90973000  0.11725000  0.93947000  1.0
  C  C33  1  0.40977000  0.88276000  0.56053000  1.0
  C  C34  1  0.09026000  0.38276000  0.43946000  1.0
  C  C35  1  0.59023000  0.61723000  0.06054000  1.0
  C  C36  1  0.81257000  0.16996000  0.01417000  1.0
  C  C37  1  0.31264000  0.83005000  0.48583000  1.0
  C  C38  1  0.18738000  0.33005000  0.51416000  1.0
  C  C39  1  0.68739000  0.66992000  0.98583000  1.0
  C  C40  1  0.88369000  0.26721000  0.01770000  1.0
  C  C41  1  0.38372000  0.73280000  0.48230000  1.0
  C  C42  1  0.11627000  0.23280000  0.51770000  1.0
  C  C43  1  0.61631000  0.76717000  0.98230000  1.0
  C  C44  1  0.05315000  0.31161000  0.94562000  1.0
  C  C45  1  0.55318000  0.68840000  0.55438000  1.0
  C  C46  1  0.94676000  0.18840000  0.44561000  1.0
  C  C47  1  0.44685000  0.81159000  0.05438000  1.0
  C  C48  1  0.14051000  0.41095000  0.94413000  1.0
  C  C49  1  0.64054000  0.58905000  0.55588000  1.0
  C  C50  1  0.85941000  0.08905000  0.44411000  1.0
  C  C51  1  0.35955000  0.91093000  0.05588000  1.0
  C  C52  1  0.30065000  0.45123000  0.87190000  1.0
  C  C53  1  0.80069000  0.54878000  0.62811000  1.0
  C  C54  1  0.69921000  0.04878000  0.37188000  1.0
  C  C55  1  0.19938000  0.95122000  0.12811000  1.0
  C  C56  1  0.37759000  0.39405000  0.79801000  1.0
  C  C57  1  0.87764000  0.60596000  0.70200000  1.0
  C  C58  1  0.62227000  0.10596000  0.29800000  1.0
  C  C59  1  0.12239000  0.89404000  0.20200000  1.0
  C  C60  1  0.30131000  0.29701000  0.79788000  1.0
  C  C61  1  0.80137000  0.70299000  0.70213000  1.0
  C  C62  1  0.69859000  0.20300000  0.29787000  1.0
  C  C63  1  0.19866000  0.79700000  0.20212000  1.0
  C  C64  1  0.13923000  0.25366000  0.87137000  1.0
  C  C65  1  0.63925000  0.74634000  0.62862000  1.0
  C  C66  1  0.86070000  0.24634000  0.37138000  1.0
  C  C67  1  0.36074000  0.75365000  0.12862000  1.0
  N  N68  1  0.06795000  0.15632000  0.86998000  1.0
  N  N69  1  0.56797000  0.84369000  0.63003000  1.0
  N  N70  1  0.93202000  0.34369000  0.36997000  1.0
  N  N71  1  0.43201000  0.65631000  0.13003000  1.0
  Cl  Cl72  1  0.64855000  0.08805000  0.67347000  1.0
  Cl  Cl73  1  0.14858000  0.91195000  0.82654000  1.0
  Cl  Cl74  1  0.35146000  0.41196000  0.17347000  1.0
  Cl  Cl75  1  0.85145000  0.58807000  0.32654000  1.0
