# generated using pymatgen
data_Cd3H28C26(N2Cl3)2
_symmetry_space_group_name_H-M   'P 1'
_cell_length_a   8.12053000
_cell_length_b   11.99360000
_cell_length_c   15.96440000
_cell_angle_alpha   99.22270000
_cell_angle_beta   104.66200000
_cell_angle_gamma   90.01210000
_symmetry_Int_Tables_number   1
_chemical_formula_structural   Cd3H28C26(N2Cl3)2
_chemical_formula_sum   'Cd6 H56 C52 N8 Cl12'
_cell_volume   1483.41124148
_cell_formula_units_Z   2
loop_
 _symmetry_equiv_pos_site_id
 _symmetry_equiv_pos_as_xyz
  1  'x, y, z'
loop_
 _atom_site_type_symbol
 _atom_site_label
 _atom_site_symmetry_multiplicity
 _atom_site_fract_x
 _atom_site_fract_y
 _atom_site_fract_z
 _atom_site_occupancy
  Cd  Cd0  1  0.19239000  0.98931000  0.10627000  1.0
  Cd  Cd1  1  0.08623000  0.51061000  0.89355000  1.0
  Cd  Cd2  1  0.80762000  0.01069000  0.89374000  1.0
  Cd  Cd3  1  0.91377000  0.48939000  0.10645000  1.0
  Cd  Cd4  1  0.86048000  0.74996000  0.00012000  1.0
  Cd  Cd5  1  0.13952000  0.25004000  0.99988000  1.0
  H  H6  1  0.30814000  0.19328000  0.21457000  1.0
  H  H7  1  0.09375000  0.30679000  0.78517000  1.0
  H  H8  1  0.69186000  0.80672000  0.78543000  1.0
  H  H9  1  0.90624000  0.69321000  0.21483000  1.0
  H  H10  1  0.44720000  0.09729000  0.24549000  1.0
  H  H11  1  0.20207000  0.40262000  0.75409000  1.0
  H  H12  1  0.55280000  0.90271000  0.75451000  1.0
  H  H13  1  0.79792000  0.59738000  0.24590000  1.0
  H  H14  1  0.41145000  0.97868000  0.35591000  1.0
  H  H15  1  0.05499000  0.52183000  0.64387000  1.0
  H  H16  1  0.58855000  0.02132000  0.64409000  1.0
  H  H17  1  0.94500000  0.47817000  0.35612000  1.0
  H  H18  1  0.02998000  0.27973000  0.43338000  1.0
  H  H19  1  0.59777000  0.21985000  0.56711000  1.0
  H  H20  1  0.97002000  0.72027000  0.56662000  1.0
  H  H21  1  0.40222000  0.78014000  0.43289000  1.0
  H  H22  1  0.12027000  0.26872000  0.29483000  1.0
  H  H23  1  0.82642000  0.23144000  0.70552000  1.0
  H  H24  1  0.87972000  0.73128000  0.70517000  1.0
  H  H25  1  0.17358000  0.76856000  0.29448000  1.0
  H  H26  1  0.32246000  0.99110000  0.49466000  1.0
  H  H27  1  0.82703000  0.50912000  0.50542000  1.0
  H  H28  1  0.67753000  0.00891000  0.50534000  1.0
  H  H29  1  0.17297000  0.49088000  0.49457000  1.0
  H  H30  1  0.00680000  0.07385000  0.54595000  1.0
  H  H31  1  0.46108000  0.42592000  0.45466000  1.0
  H  H32  1  0.99320000  0.92615000  0.45405000  1.0
  H  H33  1  0.53892000  0.57408000  0.54534000  1.0
  H  H34  1  0.03637000  0.22090000  0.56291000  1.0
  H  H35  1  0.47348000  0.27885000  0.43784000  1.0
  H  H36  1  0.96363000  0.77910000  0.43710000  1.0
  H  H37  1  0.52651000  0.72115000  0.56216000  1.0
  H  H38  1  0.37644000  0.28791000  0.63328000  1.0
  H  H39  1  0.74339000  0.21188000  0.36674000  1.0
  H  H40  1  0.62356000  0.71209000  0.36672000  1.0
  H  H41  1  0.25661000  0.78812000  0.63326000  1.0
  H  H42  1  0.12679000  0.98823000  0.66736000  1.0
  H  H43  1  0.45904000  0.51134000  0.33326000  1.0
  H  H44  1  0.87321000  0.01177000  0.33264000  1.0
  H  H45  1  0.54097000  0.48866000  0.66674000  1.0
  H  H46  1  0.58430000  0.29068000  0.77754000  1.0
  H  H47  1  0.80654000  0.20936000  0.22226000  1.0
  H  H48  1  0.41570000  0.70932000  0.22246000  1.0
  H  H49  1  0.19346000  0.79063000  0.77774000  1.0
  H  H50  1  0.33258000  0.99200000  0.81245000  1.0
  H  H51  1  0.51947000  0.50784000  0.18798000  1.0
  H  H52  1  0.66743000  0.00800000  0.18755000  1.0
  H  H53  1  0.48054000  0.49216000  0.81202000  1.0
  H  H54  1  0.65251000  0.22055000  0.90919000  1.0
  H  H55  1  0.74296000  0.27965000  0.09068000  1.0
  H  H56  1  0.34750000  0.77945000  0.09081000  1.0
  H  H57  1  0.25704000  0.72035000  0.90932000  1.0
  H  H58  1  0.52866000  0.12534000  0.93331000  1.0
  H  H59  1  0.59529000  0.37505000  0.06680000  1.0
  H  H60  1  0.47135000  0.87466000  0.06669000  1.0
  H  H61  1  0.40471000  0.62495000  0.93320000  1.0
  C  C62  1  0.27006000  0.12265000  0.31636000  1.0
  C  C63  1  0.95408000  0.37757000  0.68361000  1.0
  C  C64  1  0.72994000  0.87735000  0.68364000  1.0
  C  C65  1  0.04591000  0.62243000  0.31638000  1.0
  C  C66  1  0.16756000  0.13570000  0.47357000  1.0
  C  C67  1  0.69417000  0.36417000  0.52673000  1.0
  C  C68  1  0.83244000  0.86431000  0.52644000  1.0
  C  C69  1  0.30583000  0.63583000  0.47327000  1.0
  C  C70  1  0.32717000  0.04461000  0.37294000  1.0
  C  C71  1  0.95411000  0.45567000  0.62702000  1.0
  C  C72  1  0.67283000  0.95539000  0.62707000  1.0
  C  C73  1  0.04589000  0.54432000  0.37298000  1.0
  C  C74  1  0.11245000  0.21282000  0.41616000  1.0
  C  C75  1  0.69709000  0.28697000  0.58418000  1.0
  C  C76  1  0.88754000  0.78718000  0.58384000  1.0
  C  C77  1  0.30291000  0.71303000  0.41582000  1.0
  C  C78  1  0.16151000  0.20663000  0.33805000  1.0
  C  C79  1  0.82418000  0.29345000  0.66218000  1.0
  C  C80  1  0.83849000  0.79337000  0.66195000  1.0
  C  C81  1  0.17582000  0.70655000  0.33782000  1.0
  C  C82  1  0.27652000  0.05188000  0.45078000  1.0
  C  C83  1  0.82541000  0.44830000  0.54936000  1.0
  C  C84  1  0.72347000  0.94813000  0.54922000  1.0
  C  C85  1  0.17458000  0.55170000  0.45064000  1.0
  C  C86  1  0.10379000  0.14195000  0.55519000  1.0
  C  C87  1  0.54861000  0.35775000  0.44531000  1.0
  C  C88  1  0.89621000  0.85805000  0.44482000  1.0
  C  C89  1  0.45138000  0.64225000  0.55469000  1.0
  C  C90  1  0.23762000  0.13701000  0.63933000  1.0
  C  C91  1  0.59794000  0.36255000  0.36094000  1.0
  C  C92  1  0.76238000  0.86299000  0.36067000  1.0
  C  C93  1  0.40206000  0.63744000  0.63906000  1.0
  C  C94  1  0.36830000  0.22134000  0.67158000  1.0
  C  C95  1  0.69649000  0.27836000  0.32847000  1.0
  C  C96  1  0.63170000  0.77866000  0.32843000  1.0
  C  C97  1  0.30351000  0.72164000  0.67153000  1.0
  C  C98  1  0.22973000  0.05315000  0.69002000  1.0
  C  C99  1  0.53914000  0.44644000  0.31034000  1.0
  C  C100  1  0.77027000  0.94685000  0.30998000  1.0
  C  C101  1  0.46087000  0.55356000  0.68966000  1.0
  C  C102  1  0.48508000  0.22358000  0.75247000  1.0
  C  C103  1  0.73218000  0.27627000  0.24746000  1.0
  C  C104  1  0.51492000  0.77642000  0.24753000  1.0
  C  C105  1  0.26782000  0.72373000  0.75254000  1.0
  C  C106  1  0.34556000  0.05451000  0.77149000  1.0
  C  C107  1  0.57337000  0.44522000  0.22878000  1.0
  C  C108  1  0.65444000  0.94549000  0.22852000  1.0
  C  C109  1  0.42663000  0.55478000  0.77122000  1.0
  C  C110  1  0.47233000  0.14083000  0.80366000  1.0
  C  C111  1  0.66808000  0.35906000  0.19639000  1.0
  C  C112  1  0.52767000  0.85917000  0.19634000  1.0
  C  C113  1  0.33192000  0.64094000  0.80361000  1.0
  N  N114  1  0.32223000  0.11746000  0.23708000  1.0
  N  N115  1  0.08556000  0.38264000  0.76270000  1.0
  N  N116  1  0.67776000  0.88254000  0.76292000  1.0
  N  N117  1  0.91443000  0.61736000  0.23730000  1.0
  N  N118  1  0.58866000  0.14345000  0.88718000  1.0
  N  N119  1  0.70112000  0.35669000  0.11286000  1.0
  N  N120  1  0.41135000  0.85655000  0.11282000  1.0
  N  N121  1  0.29888000  0.64331000  0.88714000  1.0
  Cl  Cl122  1  0.07398000  0.87762000  0.94091000  1.0
  Cl  Cl123  1  0.13284000  0.62236000  0.05896000  1.0
  Cl  Cl124  1  0.92602000  0.12238000  0.05909000  1.0
  Cl  Cl125  1  0.86717000  0.37764000  0.94104000  1.0
  Cl  Cl126  1  0.99252000  0.86739000  0.15880000  1.0
  Cl  Cl127  1  0.83405000  0.63263000  0.84136000  1.0
  Cl  Cl128  1  0.00749000  0.13261000  0.84120000  1.0
  Cl  Cl129  1  0.16595000  0.36737000  0.15864000  1.0
  Cl  Cl130  1  0.65786000  0.62119000  0.04785000  1.0
  Cl  Cl131  1  0.61057000  0.87884000  0.95263000  1.0
  Cl  Cl132  1  0.34214000  0.37881000  0.95215000  1.0
  Cl  Cl133  1  0.38943000  0.12116000  0.04737000  1.0
