# generated using pymatgen
data_LiH22(C5N)2
_symmetry_space_group_name_H-M   'P 1'
_cell_length_a   7.80408000
_cell_length_b   8.72905000
_cell_length_c   9.19139000
_cell_angle_alpha   107.75800000
_cell_angle_beta   113.08200000
_cell_angle_gamma   90.90910000
_symmetry_Int_Tables_number   1
_chemical_formula_structural   LiH22(C5N)2
_chemical_formula_sum   'Li2 H44 C20 N4'
_cell_volume   541.97235613
_cell_formula_units_Z   2
loop_
 _symmetry_equiv_pos_site_id
 _symmetry_equiv_pos_as_xyz
  1  'x, y, z'
loop_
 _atom_site_type_symbol
 _atom_site_label
 _atom_site_symmetry_multiplicity
 _atom_site_fract_x
 _atom_site_fract_y
 _atom_site_fract_z
 _atom_site_occupancy
  Li  Li0  1  0.44700000  0.62419000  0.48932000  1.0
  Li  Li1  1  0.55300000  0.37581000  0.51068000  1.0
  H  H2  1  0.58682000  0.50412000  0.89848000  1.0
  H  H3  1  0.41318000  0.49588000  0.10152000  1.0
  H  H4  1  0.36975000  0.77808000  0.82546000  1.0
  H  H5  1  0.63025000  0.22193000  0.17454000  1.0
  H  H6  1  0.38971000  0.69546000  0.98416000  1.0
  H  H7  1  0.61029000  0.30454000  0.01584000  1.0
  H  H8  1  0.62428000  0.95598000  0.09412000  1.0
  H  H9  1  0.37572000  0.04402000  0.90588000  1.0
  H  H10  1  0.73246000  0.78571000  0.12664000  1.0
  H  H11  1  0.26754000  0.21429000  0.87335000  1.0
  H  H12  1  0.90337000  0.92269000  0.01575000  1.0
  H  H13  1  0.09663000  0.07731000  0.98425000  1.0
  H  H14  1  0.69152000  0.91840000  0.84343000  1.0
  H  H15  1  0.30848000  0.08160000  0.15657000  1.0
  H  H16  1  0.85648000  0.62208000  0.91695000  1.0
  H  H17  1  0.14352000  0.37792000  0.08306000  1.0
  H  H18  1  0.04623000  0.77073000  0.83159000  1.0
  H  H19  1  0.95377000  0.22927000  0.16841000  1.0
  H  H20  1  0.84643000  0.77045000  0.65122000  1.0
  H  H21  1  0.15357000  0.22955000  0.34878000  1.0
  H  H22  1  0.92787000  0.58458000  0.66588000  1.0
  H  H23  1  0.07214000  0.41542000  0.33412000  1.0
  H  H24  1  0.24430000  0.42765000  0.77720000  1.0
  H  H25  1  0.75570000  0.57235000  0.22280000  1.0
  H  H26  1  0.32858000  0.32677000  0.62563000  1.0
  H  H27  1  0.67142000  0.67323000  0.37437000  1.0
  H  H28  1  0.21380000  0.49896000  0.60835000  1.0
  H  H29  1  0.78620000  0.50104000  0.39165000  1.0
  H  H30  1  0.44486000  0.02332000  0.64775000  1.0
  H  H31  1  0.55514000  0.97668000  0.35225000  1.0
  H  H32  1  0.31515000  0.07229000  0.46478000  1.0
  H  H33  1  0.68485000  0.92771000  0.53522000  1.0
  H  H34  1  0.35394000  0.76531000  0.20884000  1.0
  H  H35  1  0.64606000  0.23469000  0.79116000  1.0
  H  H36  1  0.14296000  0.84874000  0.19739000  1.0
  H  H37  1  0.85704000  0.15126000  0.80261000  1.0
  H  H38  1  0.16136000  0.64332000  0.19446000  1.0
  H  H39  1  0.83864000  0.35668000  0.80555000  1.0
  H  H40  1  0.20601000  0.84846000  0.61699000  1.0
  H  H41  1  0.79399000  0.15154000  0.38301000  1.0
  H  H42  1  0.08354000  0.68151000  0.42698000  1.0
  H  H43  1  0.91646000  0.31849000  0.57303000  1.0
  H  H44  1  0.04711000  0.88341000  0.43141000  1.0
  H  H45  1  0.95289000  0.11659000  0.56859000  1.0
  C  C46  1  0.49833000  0.56067000  0.80551000  1.0
  C  C47  1  0.50167000  0.43933000  0.19449000  1.0
  C  C48  1  0.46417000  0.72113000  0.91210000  1.0
  C  C49  1  0.53583000  0.27887000  0.08790000  1.0
  C  C50  1  0.64927000  0.83597000  0.02853000  1.0
  C  C51  1  0.35073000  0.16402000  0.97147000  1.0
  C  C52  1  0.76251000  0.85184000  0.92978000  1.0
  C  C53  1  0.23749000  0.14816000  0.07023000  1.0
  C  C54  1  0.77958000  0.68269000  0.82329000  1.0
  C  C55  1  0.22042000  0.31731000  0.17671000  1.0
  C  C56  1  0.90689000  0.70289000  0.73824000  1.0
  C  C57  1  0.09311000  0.29711000  0.26176000  1.0
  C  C58  1  0.31144000  0.44711000  0.69787000  1.0
  C  C59  1  0.68856000  0.55289000  0.30213000  1.0
  C  C60  1  0.41055000  0.98913000  0.51301000  1.0
  C  C61  1  0.58945000  0.01087000  0.48699000  1.0
  C  C62  1  0.23850000  0.76763000  0.24858000  1.0
  C  C63  1  0.76151000  0.23237000  0.75142000  1.0
  C  C64  1  0.15385000  0.80826000  0.47972000  1.0
  C  C65  1  0.84615000  0.19174000  0.52028000  1.0
  N  N66  1  0.59692000  0.58401000  0.70583000  1.0
  N  N67  1  0.40308000  0.41599000  0.29417000  1.0
  N  N68  1  0.31190000  0.82012000  0.43286000  1.0
  N  N69  1  0.68810000  0.17988000  0.56714000  1.0
