# generated using pymatgen
data_Zn8H51C60N9O26
_symmetry_space_group_name_H-M   'P 1'
_cell_length_a   18.38021678
_cell_length_b   18.39770000
_cell_length_c   18.40470000
_cell_angle_alpha   60.29300000
_cell_angle_beta   89.76863940
_cell_angle_gamma   119.90619733
_symmetry_Int_Tables_number   1
_chemical_formula_structural   Zn8H51C60N9O26
_chemical_formula_sum   'Zn8 H51 C60 N9 O26'
_cell_volume   4417.54253609
_cell_formula_units_Z   1
loop_
 _symmetry_equiv_pos_site_id
 _symmetry_equiv_pos_as_xyz
  1  'x, y, z'
loop_
 _atom_site_type_symbol
 _atom_site_label
 _atom_site_symmetry_multiplicity
 _atom_site_fract_x
 _atom_site_fract_y
 _atom_site_fract_z
 _atom_site_occupancy
  Zn  Zn0  1  0.13262000  0.08710000  0.45569000  1.0
  Zn  Zn1  1  0.95872000  0.08900000  0.45942000  1.0
  Zn  Zn2  1  0.95767000  0.91430000  0.62790000  1.0
  Zn  Zn3  1  0.95993000  0.91550000  0.45428000  1.0
  Zn  Zn4  1  0.36654000  0.91152000  0.04922000  1.0
  Zn  Zn5  1  0.54178000  0.08665000  0.87341000  1.0
  Zn  Zn6  1  0.54278000  0.91495000  0.04580000  1.0
  Zn  Zn7  1  0.54297000  0.08956000  0.04441000  1.0
  H  H8  1  0.40028000  0.15995000  0.15177000  1.0
  H  H9  1  0.75089000  0.39258000  0.63560000  1.0
  H  H10  1  0.65948000  0.40227000  0.62584000  1.0
  H  H11  1  0.85742000  0.58624000  0.53565000  1.0
  H  H12  1  0.76520000  0.59507000  0.52586000  1.0
  H  H13  1  0.71393000  0.12954000  0.19507000  1.0
  H  H14  1  0.74446000  0.87004000  0.16631000  1.0
  H  H15  1  0.72927000  0.77168000  0.36274000  1.0
  H  H16  1  0.29359000  0.87893000  0.32453000  1.0
  H  H17  1  0.83003000  0.85692000  0.27153000  1.0
  H  H18  1  0.82329000  0.23777000  0.67010000  1.0
  H  H19  1  0.27572000  0.09830000  0.09555000  1.0
  H  H20  1  0.82154000  0.19289000  0.52965000  1.0
  H  H21  1  0.91027000  0.23111000  0.57258000  1.0
  H  H22  1  0.41792000  0.59790000  0.19975000  1.0
  H  H23  1  0.20583000  0.83652000  0.28356000  1.0
  H  H24  1  0.12729000  0.59329000  0.16885000  1.0
  H  H25  1  0.03912000  0.40047000  0.35925000  1.0
  H  H26  1  0.10508000  0.94528000  0.24318000  1.0
  H  H27  1  0.30823000  0.16026000  0.23935000  1.0
  H  H28  1  0.31607000  0.07500000  0.33458000  1.0
  H  H29  1  0.07477000  0.79557000  0.34917000  1.0
  H  H30  1  0.08556000  0.89825000  0.81796000  1.0
  H  H31  1  0.05770000  0.80046000  0.43360000  1.0
  H  H32  1  0.11756000  0.09234000  0.20474000  1.0
  H  H33  1  0.22453000  0.16817000  0.14660000  1.0
  H  H34  1  0.52066000  0.10182000  0.67408000  1.0
  H  H35  1  0.44928000  0.02315000  0.65167000  1.0
  H  H36  1  0.35708000  0.02188000  0.55921000  1.0
  H  H37  1  0.32506000  0.08985000  0.49022000  1.0
  H  H38  1  0.80714000  0.12592000  0.29298000  1.0
  H  H39  1  0.58634000  0.76341000  0.22504000  1.0
  H  H40  1  0.58668000  0.72842000  0.32605000  1.0
  H  H41  1  0.17929000  0.89274000  0.91513000  1.0
  H  H42  1  0.77246000  0.80959000  0.79079000  1.0
  H  H43  1  0.69182000  0.75260000  0.88826000  1.0
  H  H44  1  0.64102000  0.83873000  0.90619000  1.0
  H  H45  1  0.67998000  0.17707000  0.59544000  1.0
  H  H46  1  0.75715000  0.29433000  0.56412000  1.0
  H  H47  1  0.32439000  0.40789000  0.28626000  1.0
  H  H48  1  0.07689000  0.60825000  0.27585000  1.0
  H  H49  1  0.13705000  0.57865000  0.33509000  1.0
  H  H50  1  0.04160000  0.41478000  0.19230000  1.0
  H  H51  1  0.95836000  0.38492000  0.26175000  1.0
  H  H52  1  0.46897000  0.20276000  0.62750000  1.0
  H  H53  1  0.20115000  0.96676000  0.14071000  1.0
  H  H54  1  0.40708000  0.07321000  0.24772000  1.0
  H  H55  1  0.37907000  0.20432000  0.53164000  1.0
  H  H56  1  0.80115000  0.60086000  0.81211000  1.0
  H  H57  1  0.21634000  0.89281000  0.41010000  1.0
  H  H58  1  0.69815000  0.41074000  0.91019000  1.0
  C  C59  1  0.86046000  0.99937000  0.36639000  1.0
  C  C60  1  0.21004000  0.93951000  0.84333000  1.0
  C  C61  1  0.30347000  0.99671000  0.80775000  1.0
  C  C62  1  0.13894000  0.00670000  0.63817000  1.0
  C  C63  1  0.34023000  0.05446000  0.71560000  1.0
  C  C64  1  0.42755000  0.12779000  0.63775000  1.0
  C  C65  1  0.36672000  0.12863000  0.57540000  1.0
  C  C66  1  0.78415000  0.55240000  0.65645000  1.0
  C  C67  1  0.81291000  0.61124000  0.69038000  1.0
  C  C68  1  0.78001000  0.55699000  0.78358000  1.0
  C  C69  1  0.72228000  0.45061000  0.83849000  1.0
  C  C70  1  0.29912000  0.08592000  0.27452000  1.0
  C  C71  1  0.69350000  0.39163000  0.80356000  1.0
  C  C72  1  0.72585000  0.44559000  0.71158000  1.0
  C  C73  1  0.72459000  0.43492000  0.63501000  1.0
  C  C74  1  0.14377000  0.27646000  0.35722000  1.0
  C  C75  1  0.79074000  0.55576000  0.57252000  1.0
  C  C76  1  0.77112000  0.93233000  0.28406000  1.0
  C  C77  1  0.80449000  0.00064000  0.30833000  1.0
  C  C78  1  0.78232000  0.07185000  0.27479000  1.0
  C  C79  1  0.73027000  0.07396000  0.21990000  1.0
  C  C80  1  0.69790000  0.00544000  0.19463000  1.0
  C  C81  1  0.20065000  0.00090000  0.30193000  1.0
  C  C82  1  0.71990000  0.93531000  0.22830000  1.0
  C  C83  1  0.70923000  0.84570000  0.23089000  1.0
  C  C84  1  0.76620000  0.84247000  0.29523000  1.0
  C  C85  1  0.79156000  0.07174000  0.66804000  1.0
  C  C86  1  0.87305000  0.72496000  0.63351000  1.0
  C  C87  1  0.79359000  0.98642000  0.69863000  1.0
  C  C88  1  0.73536000  0.89885000  0.78720000  1.0
  C  C89  1  0.68353000  0.90495000  0.83830000  1.0
  C  C90  1  0.68476000  0.99218000  0.80624000  1.0
  C  C91  1  0.73939000  0.07615000  0.71840000  1.0
  C  C92  1  0.30281000  0.00146000  0.20251000  1.0
  C  C93  1  0.78038000  0.18948000  0.64873000  1.0
  C  C94  1  0.83749000  0.18208000  0.59020000  1.0
  C  C95  1  0.16202000  0.44565000  0.27969000  1.0
  C  C96  1  0.19933000  0.39051000  0.30079000  1.0
  C  C97  1  0.29306000  0.44846000  0.27054000  1.0
  C  C98  1  0.85383000  0.99028000  0.64183000  1.0
  C  C99  1  0.34557000  0.55515000  0.22233000  1.0
  C  C100  1  0.30743000  0.61019000  0.20141000  1.0
  C  C101  1  0.21452000  0.55217000  0.23149000  1.0
  C  C102  1  0.13567000  0.55937000  0.23422000  1.0
  C  C103  1  0.23762000  0.02120000  0.15811000  1.0
  C  C104  1  0.07432000  0.43519000  0.29029000  1.0
  C  C105  1  0.63353000  0.27797000  0.86249000  1.0
  C  C106  1  0.36431000  0.72430000  0.14603000  1.0
  C  C107  1  0.35931000  0.99594000  0.86604000  1.0
  C  C108  1  0.64303000  0.00804000  0.13548000  1.0
  C  C109  1  0.63123000  0.99404000  0.86548000  1.0
  C  C110  1  0.14166000  0.99931000  0.36127000  1.0
  C  C111  1  0.35994000  0.99928000  0.14428000  1.0
  C  C112  1  0.18989000  0.89511000  0.35591000  1.0
  C  C113  1  0.24850000  0.89674000  0.29343000  1.0
  C  C114  1  0.35989000  0.08577000  0.21666000  1.0
  C  C115  1  0.17244000  0.01419000  0.21887000  1.0
  C  C116  1  0.28767000  0.05717000  0.66115000  1.0
  C  C117  1  0.19542000  0.00297000  0.69568000  1.0
  C  C118  1  0.15756000  0.94266000  0.78890000  1.0
  N  N119  1  0.10025000  0.80139000  0.39672000  1.0
  N  N120  1  0.16583000  0.10061000  0.16728000  1.0
  N  N121  1  0.48536000  0.09750000  0.63187000  1.0
  N  N122  1  0.37168000  0.09394000  0.52108000  1.0
  N  N123  1  0.62169000  0.75124000  0.26695000  1.0
  N  N124  1  0.72692000  0.80881000  0.82318000  1.0
  N  N125  1  0.72132000  0.21918000  0.61662000  1.0
  N  N126  1  0.13361000  0.61088000  0.27252000  1.0
  N  N127  1  0.01238000  0.38260000  0.25721000  1.0
  O  O128  1  0.00235000  0.00173000  0.49843000  1.0
  O  O129  1  0.62431000  0.94897000  0.11038000  1.0
  O  O130  1  0.62172000  0.06692000  0.82768000  1.0
  O  O131  1  0.88027000  0.93535000  0.38902000  1.0
  O  O132  1  0.44405000  0.06140000  0.11994000  1.0
  O  O133  1  0.59980000  0.92347000  0.94871000  1.0
  O  O134  1  0.31879000  0.93510000  0.12466000  1.0
  O  O135  1  0.31964000  0.93988000  0.94957000  1.0
  O  O136  1  0.61917000  0.06814000  0.11485000  1.0
  O  O137  1  0.60779000  0.23261000  0.82368000  1.0
  O  O138  1  0.44762000  0.76899000  0.13470000  1.0
  O  O139  1  0.18328000  0.23265000  0.36811000  1.0
  O  O140  1  0.17997000  0.06734000  0.55441000  1.0
  O  O141  1  0.06112000  0.23238000  0.39136000  1.0
  O  O142  1  0.89588000  0.76954000  0.67306000  1.0
  O  O143  1  0.89310000  0.06722000  0.56062000  1.0
  O  O144  1  0.05871000  0.95182000  0.37009000  1.0
  O  O145  1  0.86430000  0.91694000  0.67693000  1.0
  O  O146  1  0.17750000  0.04297000  0.39992000  1.0
  O  O147  1  0.89661000  0.76882000  0.54950000  1.0
  O  O148  1  0.88381000  0.06154000  0.38846000  1.0
  O  O149  1  0.05471000  0.94956000  0.67665000  1.0
  O  O150  1  0.49772000  0.99999000  0.00364000  1.0
  O  O151  1  0.61341000  0.23538000  0.94614000  1.0
  O  O152  1  0.32489000  0.76755000  0.11332000  1.0
  O  O153  1  0.44335000  0.05286000  0.82631000  1.0
