# generated using pymatgen
data_Rb2H10C12N2O7
_symmetry_space_group_name_H-M   'P 1'
_cell_length_a   5.29692000
_cell_length_b   12.19580000
_cell_length_c   12.92540000
_cell_angle_alpha   74.76500000
_cell_angle_beta   78.21100000
_cell_angle_gamma   89.98110000
_symmetry_Int_Tables_number   1
_chemical_formula_structural   Rb2H10C12N2O7
_chemical_formula_sum   'Rb4 H20 C24 N4 O14'
_cell_volume   787.38550165
_cell_formula_units_Z   2
loop_
 _symmetry_equiv_pos_site_id
 _symmetry_equiv_pos_as_xyz
  1  'x, y, z'
loop_
 _atom_site_type_symbol
 _atom_site_label
 _atom_site_symmetry_multiplicity
 _atom_site_fract_x
 _atom_site_fract_y
 _atom_site_fract_z
 _atom_site_occupancy
  Rb  Rb0  1  0.15236000  0.07662000  0.08675000  1.0
  Rb  Rb1  1  0.23951000  0.42340000  0.91317000  1.0
  Rb  Rb2  1  0.84763000  0.92337000  0.91325000  1.0
  Rb  Rb3  1  0.76050000  0.57660000  0.08683000  1.0
  H  H4  1  0.38038000  0.76589000  0.42190000  1.0
  H  H5  1  0.80285000  0.73402000  0.57800000  1.0
  H  H6  1  0.61962000  0.23411000  0.57810000  1.0
  H  H7  1  0.19715000  0.26599000  0.42201000  1.0
  H  H8  1  0.58143000  0.59290000  0.51296000  1.0
  H  H9  1  0.09456000  0.90699000  0.48710000  1.0
  H  H10  1  0.41857000  0.40710000  0.48704000  1.0
  H  H11  1  0.90543000  0.09302000  0.51290000  1.0
  H  H12  1  0.99697000  0.53532000  0.41172000  1.0
  H  H13  1  0.40852000  0.96463000  0.58857000  1.0
  H  H14  1  0.00302000  0.46468000  0.58828000  1.0
  H  H15  1  0.59148000  0.03538000  0.41143000  1.0
  H  H16  1  0.20356000  0.65038000  0.22751000  1.0
  H  H17  1  0.43082000  0.84955000  0.77293000  1.0
  H  H18  1  0.79643000  0.34961000  0.77249000  1.0
  H  H19  1  0.56918000  0.15045000  0.22707000  1.0
  H  H20  1  0.65487000  0.27958000  0.04788000  1.0
  H  H21  1  0.70274000  0.22038000  0.95199000  1.0
  H  H22  1  0.34513000  0.72041000  0.95212000  1.0
  H  H23  1  0.29726000  0.77961000  0.04801000  1.0
  C  C24  1  0.91512000  0.77547000  0.21254000  1.0
  C  C25  1  0.12791000  0.72440000  0.78769000  1.0
  C  C26  1  0.08487000  0.22452000  0.78746000  1.0
  C  C27  1  0.87210000  0.27560000  0.21231000  1.0
  C  C28  1  0.67401000  0.80508000  0.27353000  1.0
  C  C29  1  0.94809000  0.69480000  0.72652000  1.0
  C  C30  1  0.32599000  0.19491000  0.72647000  1.0
  C  C31  1  0.05192000  0.30519000  0.27349000  1.0
  C  C32  1  0.56010000  0.73905000  0.38061000  1.0
  C  C33  1  0.94119000  0.76088000  0.61938000  1.0
  C  C34  1  0.43990000  0.26095000  0.61939000  1.0
  C  C35  1  0.05881000  0.23912000  0.38062000  1.0
  C  C36  1  0.67156000  0.64296000  0.43057000  1.0
  C  C37  1  0.10248000  0.85694000  0.56952000  1.0
  C  C38  1  0.32843000  0.35703000  0.56943000  1.0
  C  C39  1  0.89752000  0.14306000  0.43048000  1.0
  C  C40  1  0.90542000  0.61124000  0.37371000  1.0
  C  C41  1  0.27917000  0.88870000  0.62656000  1.0
  C  C42  1  0.09457000  0.38876000  0.62629000  1.0
  C  C43  1  0.72083000  0.11130000  0.37344000  1.0
  C  C44  1  0.02194000  0.67498000  0.27007000  1.0
  C  C45  1  0.29189000  0.82496000  0.73028000  1.0
  C  C46  1  0.97805000  0.32502000  0.72993000  1.0
  C  C47  1  0.70811000  0.17504000  0.26972000  1.0
  N  N48  1  0.54111000  0.90122000  0.22861000  1.0
  N  N49  1  0.77038000  0.59874000  0.77136000  1.0
  N  N50  1  0.45889000  0.09878000  0.77139000  1.0
  N  N51  1  0.22963000  0.40126000  0.22864000  1.0
  O  O52  1  0.03035000  0.83068000  0.11485000  1.0
  O  O53  1  0.14563000  0.66916000  0.88540000  1.0
  O  O54  1  0.96964000  0.16931000  0.88515000  1.0
  O  O55  1  0.85439000  0.33083000  0.11460000  1.0
  O  O56  1  0.62439000  0.96104000  0.13109000  1.0
  O  O57  1  0.75594000  0.53900000  0.86895000  1.0
  O  O58  1  0.37560000  0.03896000  0.86891000  1.0
  O  O59  1  0.24407000  0.46099000  0.13105000  1.0
  O  O60  1  0.33976000  0.92702000  0.28606000  1.0
  O  O61  1  0.62669000  0.57296000  0.71379000  1.0
  O  O62  1  0.66023000  0.07297000  0.71394000  1.0
  O  O63  1  0.37332000  0.42704000  0.28621000  1.0
  O  O64  1  0.56173000  0.24990000  0.99998000  1.0
  O  O65  1  0.43828000  0.75009000  0.00003000  1.0
