# generated using pymatgen
data_Cd3H10(C9O7)2
_symmetry_space_group_name_H-M   'P 1'
_cell_length_a   6.28886000
_cell_length_b   9.67157000
_cell_length_c   9.79346000
_cell_angle_alpha   63.66380000
_cell_angle_beta   81.92600000
_cell_angle_gamma   77.94280000
_symmetry_Int_Tables_number   1
_chemical_formula_structural   Cd3H10(C9O7)2
_chemical_formula_sum   'Cd3 H10 C18 O14'
_cell_volume   521.28917340
_cell_formula_units_Z   1
loop_
 _symmetry_equiv_pos_site_id
 _symmetry_equiv_pos_as_xyz
  1  'x, y, z'
loop_
 _atom_site_type_symbol
 _atom_site_label
 _atom_site_symmetry_multiplicity
 _atom_site_fract_x
 _atom_site_fract_y
 _atom_site_fract_z
 _atom_site_occupancy
  Cd  Cd0  1  0.21105000  0.43627000  0.36011000  1.0
  Cd  Cd1  1  0.78895000  0.56373000  0.63990000  1.0
  Cd  Cd2  1  0.50000000  0.50000000  0.00000000  1.0
  H  H3  1  0.14326000  0.39054000  0.90538000  1.0
  H  H4  1  0.85675000  0.60946000  0.09462000  1.0
  H  H5  1  0.29934000  0.97979000  0.82097000  1.0
  H  H6  1  0.70065000  0.02022000  0.17903000  1.0
  H  H7  1  0.19205000  0.93475000  0.28259000  1.0
  H  H8  1  0.80795000  0.06525000  0.71741000  1.0
  H  H9  1  0.31693000  0.53581000  0.69961000  1.0
  H  H10  1  0.68308000  0.46419000  0.30040000  1.0
  H  H11  1  0.27789000  0.69915000  0.70003000  1.0
  H  H12  1  0.72211000  0.30085000  0.29997000  1.0
  C  C13  1  0.12415000  0.25086000  0.20791000  1.0
  C  C14  1  0.87585000  0.74914000  0.79209000  1.0
  C  C15  1  0.22194000  0.29763000  0.67800000  1.0
  C  C16  1  0.77806000  0.70237000  0.32200000  1.0
  C  C17  1  0.29167000  0.76574000  0.11215000  1.0
  C  C18  1  0.70833000  0.23426000  0.88785000  1.0
  C  C19  1  0.17123000  0.17106000  0.10430000  1.0
  C  C20  1  0.82877000  0.82894000  0.89570000  1.0
  C  C21  1  0.17902000  0.26399000  0.94721000  1.0
  C  C22  1  0.82098000  0.73601000  0.05279000  1.0
  C  C23  1  0.22326000  0.19645000  0.84454000  1.0
  C  C24  1  0.77674000  0.80355000  0.15546000  1.0
  C  C25  1  0.26377000  0.03340000  0.90027000  1.0
  C  C26  1  0.73623000  0.96660000  0.09973000  1.0
  C  C27  1  0.25386000  0.93957000  0.05727000  1.0
  C  C28  1  0.74614000  0.06043000  0.94273000  1.0
  C  C29  1  0.20413000  0.00810000  0.16019000  1.0
  C  C30  1  0.79587000  0.99190000  0.83981000  1.0
  O  O31  1  0.26895000  0.23439000  0.58623000  1.0
  O  O32  1  0.73105000  0.76561000  0.41377000  1.0
  O  O33  1  0.17068000  0.44824000  0.62975000  1.0
  O  O34  1  0.82933000  0.55176000  0.37025000  1.0
  O  O35  1  0.00985000  0.19996000  0.32899000  1.0
  O  O36  1  0.99015000  0.80004000  0.67101000  1.0
  O  O37  1  0.20805000  0.37898000  0.16168000  1.0
  O  O38  1  0.79196000  0.62101000  0.83832000  1.0
  O  O39  1  0.33112000  0.71678000  0.00822000  1.0
  O  O40  1  0.66888000  0.28322000  0.99178000  1.0
  O  O41  1  0.27903000  0.68136000  0.25557000  1.0
  O  O42  1  0.72097000  0.31864000  0.74443000  1.0
  O  O43  1  0.38518000  0.60094000  0.73131000  1.0
  O  O44  1  0.61482000  0.39906000  0.26869000  1.0
