# generated using pymatgen
data_SrH10C8SO10
_symmetry_space_group_name_H-M   'P 1'
_cell_length_a   7.20544000
_cell_length_b   8.34181000
_cell_length_c   11.93468156
_cell_angle_alpha   110.44130785
_cell_angle_beta   89.99996988
_cell_angle_gamma   89.99990000
_symmetry_Int_Tables_number   1
_chemical_formula_structural   SrH10C8SO10
_chemical_formula_sum   'Sr2 H20 C16 S2 O20'
_cell_volume   672.17961123
_cell_formula_units_Z   2
loop_
 _symmetry_equiv_pos_site_id
 _symmetry_equiv_pos_as_xyz
  1  'x, y, z'
loop_
 _atom_site_type_symbol
 _atom_site_label
 _atom_site_symmetry_multiplicity
 _atom_site_fract_x
 _atom_site_fract_y
 _atom_site_fract_z
 _atom_site_occupancy
  Sr  Sr0  1  0.25000000  0.60412000  0.36265000  1.0
  Sr  Sr1  1  0.75000000  0.24174000  0.63746000  1.0
  H  H2  1  0.25000000  0.31044000  0.05463000  1.0
  H  H3  1  0.75000000  0.25612000  0.94534000  1.0
  H  H4  1  0.06755000  0.21972000  0.31601000  1.0
  H  H5  1  0.93240000  0.90372000  0.68392000  1.0
  H  H6  1  0.56760000  0.90372000  0.68392000  1.0
  H  H7  1  0.43245000  0.21972000  0.31601000  1.0
  H  H8  1  0.93333000  0.31498000  0.25637000  1.0
  H  H9  1  0.06666000  0.05854000  0.74359000  1.0
  H  H10  1  0.43335000  0.05854000  0.74359000  1.0
  H  H11  1  0.56667000  0.31498000  0.25637000  1.0
  H  H12  1  0.14127000  0.95866000  0.55456000  1.0
  H  H13  1  0.85873000  0.40439000  0.44547000  1.0
  H  H14  1  0.64127000  0.40439000  0.44547000  1.0
  H  H15  1  0.35873000  0.95866000  0.55456000  1.0
  H  H16  1  0.25000000  0.40752000  0.87703000  1.0
  H  H17  1  0.75000000  0.53077000  0.12310000  1.0
  H  H18  1  0.25000000  0.93786000  0.10054000  1.0
  H  H19  1  0.75000000  0.83755000  0.89949000  1.0
  H  H20  1  0.25000000  0.79609000  0.71585000  1.0
  H  H21  1  0.75000000  0.08047000  0.28421000  1.0
  C  C22  1  0.25000000  0.63792000  0.11739000  1.0
  C  C23  1  0.75000000  0.52107000  0.88257000  1.0
  C  C24  1  0.25000000  0.07439000  0.92757000  1.0
  C  C25  1  0.75000000  0.14710000  0.07242000  1.0
  C  C26  1  0.25000000  0.59120000  0.78575000  1.0
  C  C27  1  0.75000000  0.80571000  0.21430000  1.0
  C  C28  1  0.25000000  0.54270000  0.88713000  1.0
  C  C29  1  0.75000000  0.65583000  0.11292000  1.0
  C  C30  1  0.25000000  0.66992000  0.00081000  1.0
  C  C31  1  0.75000000  0.66940000  0.99923000  1.0
  C  C32  1  0.25000000  0.84172000  0.01139000  1.0
  C  C33  1  0.75000000  0.83066000  0.98868000  1.0
  C  C34  1  0.25000000  0.88958000  0.91070000  1.0
  C  C35  1  0.75001000  0.97921000  0.08933000  1.0
  C  C36  1  0.25000000  0.76290000  0.79642000  1.0
  C  C37  1  0.75000000  0.96676000  0.20363000  1.0
  S  S38  1  0.25000000  0.43087000  0.63893000  1.0
  S  S39  1  0.75000000  0.79196000  0.36104000  1.0
  O  O40  1  0.25000000  0.52559000  0.55584000  1.0
  O  O41  1  0.75000000  0.96963000  0.44419000  1.0
  O  O42  1  0.08217000  0.32831000  0.63130000  1.0
  O  O43  1  0.91783000  0.69699000  0.36861000  1.0
  O  O44  1  0.58217000  0.69699000  0.36861000  1.0
  O  O45  1  0.41782000  0.32831000  0.63130000  1.0
  O  O46  1  0.25001000  0.76615000  0.21234000  1.0
  O  O47  1  0.75000000  0.55452000  0.78766000  1.0
  O  O48  1  0.25000000  0.48449000  0.11991000  1.0
  O  O49  1  0.75000000  0.36504000  0.87997000  1.0
  O  O50  1  0.25000000  0.17577000  0.03885000  1.0
  O  O51  1  0.75000000  0.13728000  0.96113000  1.0
  O  O52  1  0.25000000  0.12778000  0.84100000  1.0
  O  O53  1  0.75000000  0.28702000  0.15897000  1.0
  O  O54  1  0.02984000  0.33317000  0.31922000  1.0
  O  O55  1  0.97014000  0.01397000  0.68074000  1.0
  O  O56  1  0.52986000  0.01397000  0.68074000  1.0
  O  O57  1  0.47016000  0.33317000  0.31922000  1.0
  O  O58  1  0.25000000  0.90936000  0.50451000  1.0
  O  O59  1  0.75000000  0.40525000  0.49555000  1.0
