# generated using pymatgen
data_ZnH22C23(NO3)2
_symmetry_space_group_name_H-M   'P 1'
_cell_length_a   13.93800000
_cell_length_b   17.25440000
_cell_length_c   20.13820000
_cell_angle_alpha   89.99990000
_cell_angle_beta   89.99990000
_cell_angle_gamma   89.99990000
_symmetry_Int_Tables_number   1
_chemical_formula_structural   ZnH22C23(NO3)2
_chemical_formula_sum   'Zn8 H176 C184 N16 O48'
_cell_volume   4843.07251450
_cell_formula_units_Z   8
loop_
 _symmetry_equiv_pos_site_id
 _symmetry_equiv_pos_as_xyz
  1  'x, y, z'
loop_
 _atom_site_type_symbol
 _atom_site_label
 _atom_site_symmetry_multiplicity
 _atom_site_fract_x
 _atom_site_fract_y
 _atom_site_fract_z
 _atom_site_occupancy
  Zn  Zn0  1  0.31777000  0.12855000  0.41961000  1.0
  Zn  Zn1  1  0.18224000  0.37145000  0.91961000  1.0
  Zn  Zn2  1  0.81777000  0.37145000  0.58039000  1.0
  Zn  Zn3  1  0.68223000  0.12855000  0.08039000  1.0
  Zn  Zn4  1  0.68223000  0.87145000  0.58039000  1.0
  Zn  Zn5  1  0.81777000  0.62855000  0.08039000  1.0
  Zn  Zn6  1  0.18223000  0.62855000  0.41961000  1.0
  Zn  Zn7  1  0.31777000  0.87145000  0.91961000  1.0
  H  H8  1  0.34464000  0.22822000  0.63431000  1.0
  H  H9  1  0.15536000  0.27178000  0.13431000  1.0
  H  H10  1  0.84464000  0.27178000  0.36569000  1.0
  H  H11  1  0.65536000  0.22822000  0.86569000  1.0
  H  H12  1  0.65536000  0.77179000  0.36569000  1.0
  H  H13  1  0.84464000  0.72822000  0.86569000  1.0
  H  H14  1  0.15536000  0.72822000  0.63431000  1.0
  H  H15  1  0.34464000  0.77179000  0.13431000  1.0
  H  H16  1  0.43314000  0.27200000  0.58225000  1.0
  H  H17  1  0.06685000  0.22800000  0.08225000  1.0
  H  H18  1  0.93315000  0.22800000  0.41775000  1.0
  H  H19  1  0.56685000  0.27200000  0.91775000  1.0
  H  H20  1  0.56686000  0.72800000  0.41775000  1.0
  H  H21  1  0.93315000  0.77200000  0.91775000  1.0
  H  H22  1  0.06685000  0.77200000  0.58225000  1.0
  H  H23  1  0.43314000  0.72800000  0.08225000  1.0
  H  H24  1  0.18716000  0.53902000  0.68562000  1.0
  H  H25  1  0.31284000  0.96097000  0.18562000  1.0
  H  H26  1  0.68716000  0.96098000  0.31438000  1.0
  H  H27  1  0.81284000  0.53902000  0.81438000  1.0
  H  H28  1  0.81284000  0.46098000  0.31438000  1.0
  H  H29  1  0.68717000  0.03903000  0.81438000  1.0
  H  H30  1  0.31283000  0.03902000  0.68562000  1.0
  H  H31  1  0.18716000  0.46098000  0.18562000  1.0
  H  H32  1  0.30162000  0.52412000  0.77973000  1.0
  H  H33  1  0.19838000  0.97588000  0.27974000  1.0
  H  H34  1  0.80162000  0.97588000  0.22026000  1.0
  H  H35  1  0.69838000  0.52412000  0.72027000  1.0
  H  H36  1  0.69838000  0.47588000  0.22027000  1.0
  H  H37  1  0.80162000  0.02412000  0.72027000  1.0
  H  H38  1  0.19838000  0.02412000  0.77974000  1.0
  H  H39  1  0.30162000  0.47588000  0.27973000  1.0
  H  H40  1  0.41818000  0.41542000  0.78020000  1.0
  H  H41  1  0.08181000  0.08458000  0.28020000  1.0
  H  H42  1  0.91819000  0.08458000  0.21980000  1.0
  H  H43  1  0.58182000  0.41542000  0.71980000  1.0
  H  H44  1  0.58181000  0.58458000  0.21980000  1.0
  H  H45  1  0.91819000  0.91542000  0.71980000  1.0
  H  H46  1  0.08181000  0.91542000  0.78020000  1.0
  H  H47  1  0.41819000  0.58458000  0.28020000  1.0
  H  H48  1  0.41861000  0.31998000  0.68845000  1.0
  H  H49  1  0.08140000  0.18002000  0.18845000  1.0
  H  H50  1  0.91861000  0.18002000  0.31155000  1.0
  H  H51  1  0.58139000  0.31998000  0.81155000  1.0
  H  H52  1  0.58140000  0.68002000  0.31155000  1.0
  H  H53  1  0.91861000  0.81998000  0.81155000  1.0
  H  H54  1  0.08139000  0.81998000  0.68845000  1.0
  H  H55  1  0.41861000  0.68003000  0.18845000  1.0
  H  H56  1  0.07839000  0.51257000  0.54005000  1.0
  H  H57  1  0.42162000  0.98743000  0.04005000  1.0
  H  H58  1  0.57839000  0.98743000  0.45995000  1.0
  H  H59  1  0.92161000  0.51257000  0.95995000  1.0
  H  H60  1  0.92162000  0.48743000  0.45995000  1.0
  H  H61  1  0.57838000  0.01257000  0.95995000  1.0
  H  H62  1  0.42161000  0.01257000  0.54005000  1.0
  H  H63  1  0.07838000  0.48743000  0.04005000  1.0
  H  H64  1  0.07959000  0.51501000  0.62703000  1.0
  H  H65  1  0.42041000  0.98498000  0.12704000  1.0
  H  H66  1  0.57959000  0.98499000  0.37297000  1.0
  H  H67  1  0.92041000  0.51501000  0.87296000  1.0
  H  H68  1  0.92041000  0.48499000  0.37297000  1.0
  H  H69  1  0.57959000  0.01501000  0.87296000  1.0
  H  H70  1  0.42040000  0.01501000  0.62704000  1.0
  H  H71  1  0.07960000  0.48499000  0.12704000  1.0
  H  H72  1  0.39861000  0.10148000  0.28664000  1.0
  H  H73  1  0.10139000  0.39852000  0.78664000  1.0
  H  H74  1  0.89861000  0.39852000  0.71336000  1.0
  H  H75  1  0.60139000  0.10148000  0.21336000  1.0
  H  H76  1  0.60139000  0.89852000  0.71336000  1.0
  H  H77  1  0.89861000  0.60147000  0.21336000  1.0
  H  H78  1  0.10139000  0.60148000  0.28664000  1.0
  H  H79  1  0.39861000  0.89852000  0.78664000  1.0
  H  H80  1  0.42304000  0.17536000  0.17989000  1.0
  H  H81  1  0.07696000  0.32464000  0.67989000  1.0
  H  H82  1  0.92305000  0.32463000  0.82011000  1.0
  H  H83  1  0.57696000  0.17536000  0.32011000  1.0
  H  H84  1  0.57696000  0.82464000  0.82011000  1.0
  H  H85  1  0.92305000  0.67536000  0.32011000  1.0
  H  H86  1  0.07695000  0.67536000  0.17989000  1.0
  H  H87  1  0.42304000  0.82464000  0.67989000  1.0
  H  H88  1  0.24870000  0.35731000  0.26254000  1.0
  H  H89  1  0.25130000  0.14269000  0.76254000  1.0
  H  H90  1  0.74870000  0.14269000  0.73746000  1.0
  H  H91  1  0.75130000  0.35731000  0.23746000  1.0
  H  H92  1  0.75130000  0.64269000  0.73746000  1.0
  H  H93  1  0.74871000  0.85731000  0.23746000  1.0
  H  H94  1  0.25130000  0.85731000  0.26254000  1.0
  H  H95  1  0.24870000  0.64269000  0.76254000  1.0
  H  H96  1  0.23500000  0.27851000  0.36627000  1.0
  H  H97  1  0.26501000  0.22149000  0.86627000  1.0
  H  H98  1  0.73500000  0.22149000  0.63374000  1.0
  H  H99  1  0.76500000  0.27851000  0.13373000  1.0
  H  H100  1  0.76500000  0.72149000  0.63374000  1.0
  H  H101  1  0.73500000  0.77851000  0.13374000  1.0
  H  H102  1  0.26500000  0.77851000  0.36626000  1.0
  H  H103  1  0.23500000  0.72149000  0.86626000  1.0
  H  H104  1  0.29418000  0.35730000  0.14063000  1.0
  H  H105  1  0.20582000  0.14270000  0.64063000  1.0
  H  H106  1  0.79418000  0.14270000  0.85937000  1.0
  H  H107  1  0.70582000  0.35730000  0.35937000  1.0
  H  H108  1  0.70582000  0.64270000  0.85938000  1.0
  H  H109  1  0.79418000  0.85730000  0.35937000  1.0
  H  H110  1  0.20582000  0.85730000  0.14063000  1.0
  H  H111  1  0.29418000  0.64270000  0.64062000  1.0
  H  H112  1  0.35406000  0.27454000  0.10795000  1.0
  H  H113  1  0.14594000  0.22546000  0.60795000  1.0
  H  H114  1  0.85406000  0.22546000  0.89205000  1.0
  H  H115  1  0.64594000  0.27454000  0.39205000  1.0
  H  H116  1  0.64594000  0.72546000  0.89205000  1.0
  H  H117  1  0.85406000  0.77454000  0.39205000  1.0
  H  H118  1  0.14594000  0.77454000  0.10795000  1.0
  H  H119  1  0.35406000  0.72546000  0.60795000  1.0
  H  H120  1  0.44753000  0.40751000  0.18570000  1.0
  H  H121  1  0.05247000  0.09249000  0.68570000  1.0
  H  H122  1  0.94752000  0.09249000  0.81430000  1.0
  H  H123  1  0.55248000  0.40751000  0.31430000  1.0
  H  H124  1  0.55248000  0.59249000  0.81430000  1.0
  H  H125  1  0.94752000  0.90751000  0.31430000  1.0
  H  H126  1  0.05248000  0.90751000  0.18570000  1.0
  H  H127  1  0.44753000  0.59249000  0.68570000  1.0
  H  H128  1  0.50869000  0.32272000  0.15910000  1.0
  H  H129  1  0.99131000  0.17728000  0.65910000  1.0
  H  H130  1  0.00868000  0.17728000  0.84090000  1.0
  H  H131  1  0.49131000  0.32272000  0.34090000  1.0
  H  H132  1  0.49131000  0.67728000  0.84090000  1.0
  H  H133  1  0.00869000  0.82272000  0.34090000  1.0
  H  H134  1  0.99131000  0.82273000  0.15910000  1.0
  H  H135  1  0.50869000  0.67728000  0.65910000  1.0
  H  H136  1  0.39685000  0.42950000  0.06504000  1.0
  H  H137  1  0.10315000  0.07050000  0.56504000  1.0
  H  H138  1  0.89685000  0.07050000  0.93496000  1.0
  H  H139  1  0.60315000  0.42950000  0.43496000  1.0
  H  H140  1  0.60315000  0.57050000  0.93496000  1.0
  H  H141  1  0.89685000  0.92950000  0.43496000  1.0
  H  H142  1  0.10315000  0.92950000  0.06504000  1.0
  H  H143  1  0.39685000  0.57050000  0.56504000  1.0
  H  H144  1  0.47139000  0.35031000  0.04224000  1.0
  H  H145  1  0.02861000  0.14970000  0.54224000  1.0
  H  H146  1  0.97139000  0.14970000  0.95776000  1.0
  H  H147  1  0.52861000  0.35030000  0.45776000  1.0
  H  H148  1  0.52861000  0.64969000  0.95776000  1.0
  H  H149  1  0.97139000  0.85031000  0.45776000  1.0
  H  H150  1  0.02861000  0.85031000  0.04224000  1.0
  H  H151  1  0.47139000  0.64970000  0.54224000  1.0
  H  H152  1  0.65452000  0.36606000  0.04830000  1.0
  H  H153  1  0.84548000  0.13394000  0.54830000  1.0
  H  H154  1  0.15453000  0.13394000  0.95170000  1.0
  H  H155  1  0.34547000  0.36606000  0.45170000  1.0
  H  H156  1  0.34548000  0.63394000  0.95169000  1.0
  H  H157  1  0.15452000  0.86606000  0.45170000  1.0
  H  H158  1  0.84547000  0.86606000  0.04830000  1.0
  H  H159  1  0.65453000  0.63394000  0.54830000  1.0
  H  H160  1  0.78800000  0.46248000  0.04979000  1.0
  H  H161  1  0.71200000  0.03752000  0.54979000  1.0
  H  H162  1  0.28800000  0.03752000  0.95021000  1.0
  H  H163  1  0.21200000  0.46248000  0.45021000  1.0
  H  H164  1  0.21200000  0.53752000  0.95021000  1.0
  H  H165  1  0.28800000  0.96248000  0.45020000  1.0
  H  H166  1  0.71200000  0.96248000  0.04979000  1.0
  H  H167  1  0.78800000  0.53752000  0.54979000  1.0
  H  H168  1  0.60374000  0.64222000  0.09826000  1.0
  H  H169  1  0.89626000  0.85779000  0.59826000  1.0
  H  H170  1  0.10373000  0.85779000  0.90174000  1.0
  H  H171  1  0.39627000  0.64221000  0.40174000  1.0
  H  H172  1  0.39627000  0.35778000  0.90174000  1.0
  H  H173  1  0.10374000  0.14222000  0.40174000  1.0
  H  H174  1  0.89626000  0.14222000  0.09826000  1.0
  H  H175  1  0.60373000  0.35779000  0.59826000  1.0
  H  H176  1  0.46251000  0.55342000  0.10016000  1.0
  H  H177  1  0.03749000  0.94659000  0.60015000  1.0
  H  H178  1  0.96251000  0.94659000  0.89984000  1.0
  H  H179  1  0.53749000  0.55341000  0.39984000  1.0
  H  H180  1  0.53749000  0.44659000  0.89984000  1.0
  H  H181  1  0.96251000  0.05341000  0.39984000  1.0
  H  H182  1  0.03749000  0.05341000  0.10016000  1.0
  H  H183  1  0.46251000  0.44659000  0.60016000  1.0
  C  C184  1  0.33225000  0.20125000  0.53105000  1.0
  C  C185  1  0.16776000  0.29875000  0.03105000  1.0
  C  C186  1  0.83225000  0.29875000  0.46895000  1.0
  C  C187  1  0.66775000  0.20125000  0.96895000  1.0
  C  C188  1  0.66775000  0.79875000  0.46896000  1.0
  C  C189  1  0.83225000  0.70125000  0.96895000  1.0
  C  C190  1  0.16775000  0.70125000  0.53105000  1.0
  C  C191  1  0.33224000  0.79875000  0.03104000  1.0
  C  C192  1  0.35595000  0.25762000  0.58650000  1.0
  C  C193  1  0.14405000  0.24238000  0.08650000  1.0
  C  C194  1  0.85595000  0.24238000  0.41350000  1.0
  C  C195  1  0.64405000  0.25762000  0.91350000  1.0
  C  C196  1  0.64405000  0.74238000  0.41350000  1.0
  C  C197  1  0.85595000  0.75762000  0.91350000  1.0
  C  C198  1  0.14405000  0.75762000  0.58650000  1.0
  C  C199  1  0.35595000  0.74238000  0.08650000  1.0
  C  C200  1  0.30352000  0.37533000  0.63474000  1.0
  C  C201  1  0.19648000  0.12467000  0.13474000  1.0
  C  C202  1  0.80352000  0.12467000  0.36526000  1.0
  C  C203  1  0.69648000  0.37533000  0.86526000  1.0
  C  C204  1  0.69648000  0.62467000  0.36526000  1.0
  C  C205  1  0.80352000  0.87533000  0.86526000  1.0
  C  C206  1  0.19648000  0.87533000  0.63474000  1.0
  C  C207  1  0.30352000  0.62467000  0.13474000  1.0
  C  C208  1  0.23639000  0.43729000  0.63402000  1.0
  C  C209  1  0.26361000  0.06271000  0.13402000  1.0
  C  C210  1  0.73639000  0.06271000  0.36598000  1.0
  C  C211  1  0.76361000  0.43729000  0.86598000  1.0
  C  C212  1  0.76361000  0.56271000  0.36598000  1.0
  C  C213  1  0.73639000  0.93729000  0.86598000  1.0
  C  C214  1  0.26361000  0.93729000  0.63403000  1.0
  C  C215  1  0.23639000  0.56271000  0.13402000  1.0
  C  C216  1  0.23739000  0.49067000  0.68620000  1.0
  C  C217  1  0.26261000  0.00932000  0.18620000  1.0
  C  C218  1  0.73739000  0.00933000  0.31380000  1.0
  C  C219  1  0.76261000  0.49068000  0.81380000  1.0
  C  C220  1  0.76261000  0.50933000  0.31380000  1.0
  C  C221  1  0.73739000  0.99068000  0.81380000  1.0
  C  C222  1  0.26261000  0.99067000  0.68620000  1.0
  C  C223  1  0.23739000  0.50933000  0.18620000  1.0
  C  C224  1  0.30222000  0.48259000  0.73897000  1.0
  C  C225  1  0.19777000  0.01741000  0.23898000  1.0
  C  C226  1  0.80223000  0.01741000  0.26102000  1.0
  C  C227  1  0.69777000  0.48259000  0.76102000  1.0
  C  C228  1  0.69778000  0.51741000  0.26103000  1.0
  C  C229  1  0.80223000  0.98259000  0.76102000  1.0
  C  C230  1  0.19777000  0.98259000  0.73898000  1.0
  C  C231  1  0.30223000  0.51741000  0.23897000  1.0
  C  C232  1  0.36726000  0.42158000  0.73963000  1.0
  C  C233  1  0.13274000  0.07843000  0.23963000  1.0
  C  C234  1  0.86726000  0.07843000  0.26037000  1.0
  C  C235  1  0.63274000  0.42158000  0.76037000  1.0
  C  C236  1  0.63274000  0.57843000  0.26037000  1.0
  C  C237  1  0.86726000  0.92158000  0.76037000  1.0
  C  C238  1  0.13274000  0.92157000  0.73963000  1.0
  C  C239  1  0.36726000  0.57843000  0.23963000  1.0
  C  C240  1  0.36784000  0.36793000  0.68752000  1.0
  C  C241  1  0.13216000  0.13207000  0.18752000  1.0
  C  C242  1  0.86784000  0.13207000  0.31248000  1.0
  C  C243  1  0.63216000  0.36793000  0.81248000  1.0
  C  C244  1  0.63216000  0.63207000  0.31248000  1.0
  C  C245  1  0.86784000  0.86793000  0.81248000  1.0
  C  C246  1  0.13215000  0.86793000  0.68753000  1.0
  C  C247  1  0.36784000  0.63207000  0.18752000  1.0
  C  C248  1  0.08564000  0.47597000  0.58427000  1.0
  C  C249  1  0.41436000  0.02402000  0.08427000  1.0
  C  C250  1  0.58564000  0.02403000  0.41573000  1.0
  C  C251  1  0.91436000  0.47597000  0.91573000  1.0
  C  C252  1  0.91436000  0.52403000  0.41573000  1.0
  C  C253  1  0.58564000  0.97597000  0.91573000  1.0
  C  C254  1  0.41436000  0.97597000  0.58427000  1.0
  C  C255  1  0.08564000  0.52403000  0.08427000  1.0
  C  C256  1  0.00338000  0.41756000  0.58589000  1.0
  C  C257  1  0.49662000  0.08243000  0.08590000  1.0
  C  C258  1  0.50339000  0.08244000  0.41411000  1.0
  C  C259  1  0.99662000  0.41756000  0.91411000  1.0
  C  C260  1  0.99662000  0.58244000  0.41410000  1.0
  C  C261  1  0.50339000  0.91756000  0.91411000  1.0
  C  C262  1  0.49661000  0.91756000  0.58589000  1.0
  C  C263  1  0.00338000  0.58244000  0.08590000  1.0
  C  C264  1  0.36752000  0.15878000  0.27908000  1.0
  C  C265  1  0.13248000  0.34122000  0.77909000  1.0
  C  C266  1  0.86752000  0.34121000  0.72092000  1.0
  C  C267  1  0.63248000  0.15878000  0.22091000  1.0
  C  C268  1  0.63248000  0.84122000  0.72092000  1.0
  C  C269  1  0.86752000  0.65878000  0.22092000  1.0
  C  C270  1  0.13248000  0.65878000  0.27909000  1.0
  C  C271  1  0.36752000  0.84122000  0.77908000  1.0
  C  C272  1  0.38107000  0.19962000  0.22060000  1.0
  C  C273  1  0.11893000  0.30038000  0.72060000  1.0
  C  C274  1  0.88107000  0.30038000  0.77940000  1.0
  C  C275  1  0.61893000  0.19962000  0.27940000  1.0
  C  C276  1  0.61893000  0.80038000  0.77940000  1.0
  C  C277  1  0.88107000  0.69962000  0.27940000  1.0
  C  C278  1  0.11893000  0.69962000  0.22060000  1.0
  C  C279  1  0.38107000  0.80038000  0.72060000  1.0
  C  C280  1  0.33874000  0.27268000  0.21264000  1.0
  C  C281  1  0.16126000  0.22732000  0.71265000  1.0
  C  C282  1  0.83874000  0.22732000  0.78736000  1.0
  C  C283  1  0.66126000  0.27268000  0.28736000  1.0
  C  C284  1  0.66126000  0.72732000  0.78736000  1.0
  C  C285  1  0.83875000  0.77268000  0.28736000  1.0
  C  C286  1  0.16126000  0.77268000  0.21264000  1.0
  C  C287  1  0.33874000  0.72732000  0.71264000  1.0
  C  C288  1  0.28410000  0.30111000  0.26574000  1.0
  C  C289  1  0.21590000  0.19889000  0.76574000  1.0
  C  C290  1  0.78410000  0.19889000  0.73426000  1.0
  C  C291  1  0.71590000  0.30111000  0.23426000  1.0
  C  C292  1  0.71590000  0.69889000  0.73426000  1.0
  C  C293  1  0.78410000  0.80110000  0.23426000  1.0
  C  C294  1  0.21590000  0.80110000  0.26574000  1.0
  C  C295  1  0.28410000  0.69890000  0.76574000  1.0
  C  C296  1  0.27481000  0.25729000  0.32335000  1.0
  C  C297  1  0.22519000  0.24271000  0.82335000  1.0
  C  C298  1  0.77481000  0.24271000  0.67665000  1.0
  C  C299  1  0.72519000  0.25729000  0.17665000  1.0
  C  C300  1  0.72519000  0.74271000  0.67665000  1.0
  C  C301  1  0.77482000  0.75729000  0.17665000  1.0
  C  C302  1  0.22519000  0.75729000  0.32335000  1.0
  C  C303  1  0.27481000  0.74271000  0.82335000  1.0
  C  C304  1  0.35342000  0.31646000  0.14914000  1.0
  C  C305  1  0.14658000  0.18354000  0.64914000  1.0
  C  C306  1  0.85342000  0.18354000  0.85086000  1.0
  C  C307  1  0.64658000  0.31646000  0.35086000  1.0
  C  C308  1  0.64658000  0.68354000  0.85086000  1.0
  C  C309  1  0.85342000  0.81646000  0.35086000  1.0
  C  C310  1  0.14658000  0.81646000  0.14914000  1.0
  C  C311  1  0.35342000  0.68354000  0.64914000  1.0
  C  C312  1  0.44838000  0.36166000  0.14765000  1.0
  C  C313  1  0.05161000  0.13834000  0.64765000  1.0
  C  C314  1  0.94838000  0.13834000  0.85235000  1.0
  C  C315  1  0.55162000  0.36166000  0.35235000  1.0
  C  C316  1  0.55162000  0.63834000  0.85235000  1.0
  C  C317  1  0.94839000  0.86166000  0.35235000  1.0
  C  C318  1  0.05162000  0.86166000  0.14765000  1.0
  C  C319  1  0.44839000  0.63834000  0.64765000  1.0
  C  C320  1  0.46243000  0.39754000  0.07837000  1.0
  C  C321  1  0.03756000  0.10246000  0.57837000  1.0
  C  C322  1  0.96243000  0.10246000  0.92163000  1.0
  C  C323  1  0.53757000  0.39754000  0.42163000  1.0
  C  C324  1  0.53757000  0.60246000  0.92163000  1.0
  C  C325  1  0.96244000  0.89754000  0.42163000  1.0
  C  C326  1  0.03756000  0.89754000  0.07837000  1.0
  C  C327  1  0.46243000  0.60246000  0.57837000  1.0
  C  C328  1  0.54641000  0.45173000  0.07552000  1.0
  C  C329  1  0.95359000  0.04827000  0.57552000  1.0
  C  C330  1  0.04641000  0.04827000  0.92448000  1.0
  C  C331  1  0.45359000  0.45173000  0.42448000  1.0
  C  C332  1  0.45360000  0.54827000  0.92448000  1.0
  C  C333  1  0.04641000  0.95173000  0.42448000  1.0
  C  C334  1  0.95359000  0.95173000  0.07552000  1.0
  C  C335  1  0.54641000  0.54827000  0.57552000  1.0
  C  C336  1  0.63966000  0.42655000  0.06079000  1.0
  C  C337  1  0.86034000  0.07345000  0.56078000  1.0
  C  C338  1  0.13966000  0.07345000  0.93921000  1.0
  C  C339  1  0.36034000  0.42655000  0.43921000  1.0
  C  C340  1  0.36034000  0.57345000  0.93921000  1.0
  C  C341  1  0.13966000  0.92655000  0.43921000  1.0
  C  C342  1  0.86034000  0.92655000  0.06079000  1.0
  C  C343  1  0.63966000  0.57345000  0.56079000  1.0
  C  C344  1  0.71469000  0.47982000  0.06109000  1.0
  C  C345  1  0.78530000  0.02018000  0.56109000  1.0
  C  C346  1  0.21469000  0.02018000  0.93891000  1.0
  C  C347  1  0.28531000  0.47982000  0.43891000  1.0
  C  C348  1  0.28531000  0.52018000  0.93891000  1.0
  C  C349  1  0.21469000  0.97982000  0.43891000  1.0
  C  C350  1  0.78530000  0.97982000  0.06109000  1.0
  C  C351  1  0.71469000  0.52018000  0.56109000  1.0
  C  C352  1  0.61180000  0.58041000  0.08813000  1.0
  C  C353  1  0.88820000  0.91959000  0.58813000  1.0
  C  C354  1  0.11180000  0.91959000  0.91187000  1.0
  C  C355  1  0.38820000  0.58041000  0.41187000  1.0
  C  C356  1  0.38820000  0.41959000  0.91187000  1.0
  C  C357  1  0.11180000  0.08041000  0.41187000  1.0
  C  C358  1  0.88820000  0.08041000  0.08813000  1.0
  C  C359  1  0.61180000  0.41959000  0.58813000  1.0
  C  C360  1  0.53362000  0.53079000  0.08892000  1.0
  C  C361  1  0.96638000  0.96921000  0.58891000  1.0
  C  C362  1  0.03362000  0.96921000  0.91108000  1.0
  C  C363  1  0.46638000  0.53079000  0.41108000  1.0
  C  C364  1  0.46638000  0.46921000  0.91109000  1.0
  C  C365  1  0.03362000  0.03079000  0.41108000  1.0
  C  C366  1  0.96638000  0.03079000  0.08891000  1.0
  C  C367  1  0.53362000  0.46921000  0.58891000  1.0
  N  N368  1  0.31566000  0.18700000  0.33008000  1.0
  N  N369  1  0.18434000  0.31300000  0.83008000  1.0
  N  N370  1  0.81567000  0.31300000  0.66992000  1.0
  N  N371  1  0.68434000  0.18700000  0.16992000  1.0
  N  N372  1  0.68434000  0.81300000  0.66992000  1.0
  N  N373  1  0.81567000  0.68700000  0.16992000  1.0
  N  N374  1  0.18434000  0.68700000  0.33008000  1.0
  N  N375  1  0.31566000  0.81300000  0.83008000  1.0
  N  N376  1  0.70147000  0.55565000  0.07499000  1.0
  N  N377  1  0.79853000  0.94435000  0.57499000  1.0
  N  N378  1  0.20147000  0.94435000  0.92500000  1.0
  N  N379  1  0.29853000  0.55565000  0.42501000  1.0
  N  N380  1  0.29853000  0.44435000  0.92501000  1.0
  N  N381  1  0.20147000  0.05565000  0.42500000  1.0
  N  N382  1  0.79853000  0.05565000  0.07499000  1.0
  N  N383  1  0.70147000  0.44435000  0.57499000  1.0
  O  O384  1  0.30563000  0.22799000  0.47428000  1.0
  O  O385  1  0.19438000  0.27201000  0.97429000  1.0
  O  O386  1  0.80563000  0.27201000  0.52572000  1.0
  O  O387  1  0.69437000  0.22799000  0.02571000  1.0
  O  O388  1  0.69438000  0.77201000  0.52572000  1.0
  O  O389  1  0.80563000  0.72799000  0.02571000  1.0
  O  O390  1  0.19437000  0.72799000  0.47429000  1.0
  O  O391  1  0.30562000  0.77201000  0.97428000  1.0
  O  O392  1  0.34473000  0.13066000  0.54297000  1.0
  O  O393  1  0.15527000  0.36934000  0.04297000  1.0
  O  O394  1  0.84473000  0.36934000  0.45703000  1.0
  O  O395  1  0.65526000  0.13066000  0.95703000  1.0
  O  O396  1  0.65526000  0.86934000  0.45703000  1.0
  O  O397  1  0.84473000  0.63066000  0.95703000  1.0
  O  O398  1  0.15527000  0.63066000  0.54297000  1.0
  O  O399  1  0.34473000  0.86934000  0.04296000  1.0
  O  O400  1  0.29856000  0.32567000  0.58202000  1.0
  O  O401  1  0.20144000  0.17433000  0.08202000  1.0
  O  O402  1  0.79856000  0.17433000  0.41798000  1.0
  O  O403  1  0.70144000  0.32567000  0.91798000  1.0
  O  O404  1  0.70145000  0.67433000  0.41798000  1.0
  O  O405  1  0.79856000  0.82567000  0.91798000  1.0
  O  O406  1  0.20144000  0.82567000  0.58202000  1.0
  O  O407  1  0.29856000  0.67434000  0.08202000  1.0
  O  O408  1  0.17730000  0.43910000  0.58030000  1.0
  O  O409  1  0.32270000  0.06089000  0.08030000  1.0
  O  O410  1  0.67731000  0.06090000  0.41970000  1.0
  O  O411  1  0.82270000  0.43910000  0.91970000  1.0
  O  O412  1  0.82270000  0.56090000  0.41970000  1.0
  O  O413  1  0.67731000  0.93910000  0.91970000  1.0
  O  O414  1  0.32269000  0.93910000  0.58030000  1.0
  O  O415  1  0.17730000  0.56090000  0.08030000  1.0
  O  O416  1  0.01610000  0.34623000  0.58357000  1.0
  O  O417  1  0.48390000  0.15376000  0.08357000  1.0
  O  O418  1  0.51611000  0.15377000  0.41643000  1.0
  O  O419  1  0.98390000  0.34623000  0.91643000  1.0
  O  O420  1  0.98390000  0.65377000  0.41643000  1.0
  O  O421  1  0.51611000  0.84623000  0.91643000  1.0
  O  O422  1  0.48389000  0.84623000  0.58357000  1.0
  O  O423  1  0.01610000  0.65377000  0.08357000  1.0
  O  O424  1  0.91995000  0.45134000  0.58952000  1.0
  O  O425  1  0.58005000  0.04865000  0.08952000  1.0
  O  O426  1  0.41996000  0.04866000  0.41048000  1.0
  O  O427  1  0.08005000  0.45134000  0.91048000  1.0
  O  O428  1  0.08005000  0.54865000  0.41048000  1.0
  O  O429  1  0.41996000  0.95134000  0.91048000  1.0
  O  O430  1  0.58004000  0.95134000  0.58952000  1.0
  O  O431  1  0.91995000  0.54865000  0.08952000  1.0
