# generated using pymatgen
data_Eu2H63C63NO14
_symmetry_space_group_name_H-M   'P 1'
_cell_length_a   14.57340000
_cell_length_b   15.45770000
_cell_length_c   17.37690000
_cell_angle_alpha   98.07620000
_cell_angle_beta   105.48700000
_cell_angle_gamma   98.77640000
_symmetry_Int_Tables_number   1
_chemical_formula_structural   Eu2H63C63NO14
_chemical_formula_sum   'Eu4 H126 C126 N2 O28'
_cell_volume   3660.09370267
_cell_formula_units_Z   2
loop_
 _symmetry_equiv_pos_site_id
 _symmetry_equiv_pos_as_xyz
  1  'x, y, z'
loop_
 _atom_site_type_symbol
 _atom_site_label
 _atom_site_symmetry_multiplicity
 _atom_site_fract_x
 _atom_site_fract_y
 _atom_site_fract_z
 _atom_site_occupancy
  Eu  Eu0  1  0.10688000  0.91981000  0.50749000  1.0
  Eu  Eu1  1  0.89312000  0.08019000  0.49251000  1.0
  Eu  Eu2  1  0.38979000  0.94438000  0.54158000  1.0
  Eu  Eu3  1  0.61021000  0.05562000  0.45842000  1.0
  H  H4  1  0.51696000  0.83762000  0.60327000  1.0
  H  H5  1  0.48304000  0.16239000  0.39673000  1.0
  H  H6  1  0.59105000  0.91696000  0.59127000  1.0
  H  H7  1  0.40895000  0.08304000  0.40873000  1.0
  H  H8  1  0.27121000  0.52571000  0.96834000  1.0
  H  H9  1  0.72879000  0.47429000  0.03166000  1.0
  H  H10  1  0.16090000  0.54437000  0.90546000  1.0
  H  H11  1  0.83910000  0.45563000  0.09454000  1.0
  H  H12  1  0.15971000  0.45246000  0.95540000  1.0
  H  H13  1  0.84030000  0.54754000  0.04460000  1.0
  H  H14  1  0.30839000  0.68587000  0.22871000  1.0
  H  H15  1  0.69161000  0.31413000  0.77129000  1.0
  H  H16  1  0.32978000  0.59613000  0.10876000  1.0
  H  H17  1  0.67022000  0.40387000  0.89124000  1.0
  H  H18  1  0.02859000  0.57691000  0.97938000  1.0
  H  H19  1  0.97142000  0.42309000  0.02062000  1.0
  H  H20  1  0.00678000  0.66656000  0.10061000  1.0
  H  H21  1  0.99322000  0.33344000  0.89939000  1.0
  H  H22  1  0.06338000  0.74075000  0.23724000  1.0
  H  H23  1  0.93662000  0.25925000  0.76276000  1.0
  H  H24  1  0.28177000  0.77319000  0.32813000  1.0
  H  H25  1  0.71823000  0.22681000  0.67187000  1.0
  H  H26  1  0.97085000  0.25308000  0.07650000  1.0
  H  H27  1  0.02915000  0.74692000  0.92350000  1.0
  H  H28  1  0.03777000  0.18510000  0.13466000  1.0
  H  H29  1  0.96223000  0.81490000  0.86534000  1.0
  H  H30  1  0.91087000  0.14969000  0.08791000  1.0
  H  H31  1  0.08913000  0.85031000  0.91208000  1.0
  H  H32  1  0.89617000  0.09178000  0.79796000  1.0
  H  H33  1  0.10383000  0.90822000  0.20204000  1.0
  H  H34  1  0.86819000  0.16557000  0.92269000  1.0
  H  H35  1  0.13181000  0.83443000  0.07731000  1.0
  H  H36  1  0.12663000  0.09808000  0.06811000  1.0
  H  H37  1  0.87337000  0.90192000  0.93189000  1.0
  H  H38  1  0.15551000  0.02437000  0.94308000  1.0
  H  H39  1  0.84449000  0.97563000  0.05692000  1.0
  H  H40  1  0.09926000  0.96731000  0.79496000  1.0
  H  H41  1  0.90074000  0.03269000  0.20504000  1.0
  H  H42  1  0.97686000  0.08786000  0.70319000  1.0
  H  H43  1  0.02314000  0.91214000  0.29681000  1.0
  H  H44  1  0.99384000  0.46198000  0.17248000  1.0
  H  H45  1  0.00616000  0.53802000  0.82752000  1.0
  H  H46  1  0.10773000  0.47384000  0.15078000  1.0
  H  H47  1  0.89227000  0.52616000  0.84922000  1.0
  H  H48  1  0.09982000  0.52761000  0.24450000  1.0
  H  H49  1  0.90018000  0.47239000  0.75550000  1.0
  H  H50  1  0.27715000  0.27500000  0.29528000  1.0
  H  H51  1  0.72285000  0.72500000  0.70472000  1.0
  H  H52  1  0.24041000  0.40354000  0.23067000  1.0
  H  H53  1  0.75959000  0.59646000  0.76933000  1.0
  H  H54  1  0.94865000  0.34874000  0.24705000  1.0
  H  H55  1  0.05136000  0.65126000  0.75295000  1.0
  H  H56  1  0.98539000  0.22021000  0.31350000  1.0
  H  H57  1  0.01461000  0.77979000  0.68650000  1.0
  H  H58  1  0.09080000  0.13430000  0.37055000  1.0
  H  H59  1  0.90920000  0.86570000  0.62945000  1.0
  H  H60  1  0.30333000  0.16919000  0.36757000  1.0
  H  H61  1  0.69667000  0.83080000  0.63243000  1.0
  H  H62  1  0.18001000  0.28358000  0.73939000  1.0
  H  H63  1  0.81999000  0.71642000  0.26061000  1.0
  H  H64  1  0.05089000  0.26336000  0.69514000  1.0
  H  H65  1  0.94911000  0.73664000  0.30486000  1.0
  H  H66  1  0.10640000  0.32335000  0.79642000  1.0
  H  H67  1  0.89360000  0.67665000  0.20358000  1.0
  H  H68  1  0.30361000  0.57614000  0.71669000  1.0
  H  H69  1  0.69639000  0.42386000  0.28331000  1.0
  H  H70  1  0.28022000  0.43391000  0.76438000  1.0
  H  H71  1  0.71978000  0.56609000  0.23562000  1.0
  H  H72  1  0.97534000  0.38181000  0.63590000  1.0
  H  H73  1  0.02466000  0.61819000  0.36410000  1.0
  H  H74  1  0.99771000  0.52621000  0.58880000  1.0
  H  H75  1  0.00229000  0.47379000  0.41120000  1.0
  H  H76  1  0.09722000  0.66499000  0.58596000  1.0
  H  H77  1  0.90278000  0.33501000  0.41404000  1.0
  H  H78  1  0.31873000  0.68600000  0.65612000  1.0
  H  H79  1  0.68127000  0.31400000  0.34388000  1.0
  H  H80  1  0.30934000  0.38895000  0.09019000  1.0
  H  H81  1  0.69066000  0.61105000  0.90981000  1.0
  H  H82  1  0.33474000  0.30248000  0.14464000  1.0
  H  H83  1  0.66526000  0.69752000  0.85536000  1.0
  H  H84  1  0.21388000  0.30073000  0.08617000  1.0
  H  H85  1  0.78612000  0.69927000  0.91383000  1.0
  H  H86  1  0.47500000  0.15771000  0.95822000  1.0
  H  H87  1  0.52500000  0.84229000  0.04178000  1.0
  H  H88  1  0.44886000  0.24390000  0.07920000  1.0
  H  H89  1  0.55114000  0.75610000  0.92080000  1.0
  H  H90  1  0.16794000  0.26816000  0.93338000  1.0
  H  H91  1  0.83206000  0.73184000  0.06662000  1.0
  H  H92  1  0.19234000  0.18057000  0.81374000  1.0
  H  H93  1  0.80766000  0.81943000  0.18626000  1.0
  H  H94  1  0.42486000  0.09261000  0.81778000  1.0
  H  H95  1  0.57514000  0.90739000  0.18222000  1.0
  H  H96  1  0.21851000  0.09610000  0.71432000  1.0
  H  H97  1  0.78149000  0.90390000  0.28568000  1.0
  H  H98  1  0.48227000  0.42350000  0.04784000  1.0
  H  H99  1  0.51773000  0.57650000  0.95216000  1.0
  H  H100  1  0.58370000  0.40509000  0.12141000  1.0
  H  H101  1  0.41630000  0.59490000  0.87859000  1.0
  H  H102  1  0.59832000  0.49128000  0.06510000  1.0
  H  H103  1  0.40168000  0.50872000  0.93490000  1.0
  H  H104  1  0.53437000  0.74453000  0.21212000  1.0
  H  H105  1  0.46563000  0.25547000  0.78788000  1.0
  H  H106  1  0.56806000  0.63882000  0.10875000  1.0
  H  H107  1  0.43194000  0.36118000  0.89125000  1.0
  H  H108  1  0.48988000  0.42261000  0.22560000  1.0
  H  H109  1  0.51012000  0.57739000  0.77440000  1.0
  H  H110  1  0.45505000  0.52900000  0.32940000  1.0
  H  H111  1  0.54495000  0.47100000  0.67059000  1.0
  H  H112  1  0.44387000  0.67256000  0.38597000  1.0
  H  H113  1  0.55613000  0.32745000  0.61403000  1.0
  H  H114  1  0.51337000  0.83504000  0.31633000  1.0
  H  H115  1  0.48663000  0.16496000  0.68367000  1.0
  H  H116  1  0.84641000  0.84554000  0.42523000  1.0
  H  H117  1  0.15359000  0.15446000  0.57477000  1.0
  H  H118  1  0.67102000  0.71278000  0.46090000  1.0
  H  H119  1  0.32898000  0.28722000  0.53910000  1.0
  H  H120  1  0.68312000  0.65365000  0.36907000  1.0
  H  H121  1  0.31688000  0.34635000  0.63093000  1.0
  H  H122  1  0.69952000  0.77252000  0.38712000  1.0
  H  H123  1  0.30048000  0.22748000  0.61288000  1.0
  H  H124  1  0.92357000  0.66426000  0.51736000  1.0
  H  H125  1  0.07643000  0.33573000  0.48264000  1.0
  H  H126  1  0.81963000  0.58692000  0.44916000  1.0
  H  H127  1  0.18037000  0.41308000  0.55084000  1.0
  H  H128  1  0.81291000  0.64408000  0.54410000  1.0
  H  H129  1  0.18709000  0.35592000  0.45590000  1.0
  C  C130  1  0.19391000  0.52293000  0.96244000  1.0
  C  C131  1  0.80609000  0.47707000  0.03756000  1.0
  C  C132  1  0.24647000  0.66204000  0.17442000  1.0
  C  C133  1  0.75353000  0.33796000  0.82558000  1.0
  C  C134  1  0.25840000  0.61116000  0.10647000  1.0
  C  C135  1  0.74160000  0.38884000  0.89353000  1.0
  C  C136  1  0.18062000  0.57925000  0.03506000  1.0
  C  C137  1  0.81938000  0.42075000  0.96494000  1.0
  C  C138  1  0.09010000  0.60054000  0.03413000  1.0
  C  C139  1  0.90990000  0.39946000  0.96587000  1.0
  C  C140  1  0.07772000  0.65069000  0.10234000  1.0
  C  C141  1  0.92228000  0.34931000  0.89766000  1.0
  C  C142  1  0.15554000  0.68259000  0.17407000  1.0
  C  C143  1  0.84446000  0.31741000  0.82593000  1.0
  C  C144  1  0.13856000  0.73405000  0.24405000  1.0
  C  C145  1  0.86144000  0.26595000  0.75595000  1.0
  C  C146  1  0.20474000  0.77464000  0.31551000  1.0
  C  C147  1  0.79526000  0.22536000  0.68449000  1.0
  C  C148  1  0.17692000  0.82585000  0.38093000  1.0
  C  C149  1  0.82308000  0.17415000  0.61907000  1.0
  C  C150  1  0.97870000  0.18392000  0.07982000  1.0
  C  C151  1  0.02130000  0.81608000  0.92018000  1.0
  C  C152  1  0.94782000  0.09422000  0.85703000  1.0
  C  C153  1  0.05218000  0.90578000  0.14297000  1.0
  C  C154  1  0.93193000  0.13535000  0.92733000  1.0
  C  C155  1  0.06807000  0.86465000  0.07267000  1.0
  C  C156  1  0.99663000  0.13884000  0.00448000  1.0
  C  C157  1  0.00336000  0.86116000  0.99552000  1.0
  C  C158  1  0.07668000  0.09779000  0.00875000  1.0
  C  C159  1  0.92332000  0.90221000  0.99125000  1.0
  C  C160  1  0.09230000  0.05543000  0.93851000  1.0
  C  C161  1  0.90770000  0.94457000  0.06149000  1.0
  C  C162  1  0.02939000  0.05433000  0.86118000  1.0
  C  C163  1  0.97061000  0.94567000  0.13882000  1.0
  C  C164  1  0.05107000  0.01537000  0.78840000  1.0
  C  C165  1  0.94892000  0.98463000  0.21160000  1.0
  C  C166  1  0.02028000  0.03689000  0.71435000  1.0
  C  C167  1  0.97972000  0.96311000  0.28565000  1.0
  C  C168  1  0.04868000  0.99649000  0.64469000  1.0
  C  C169  1  0.95132000  0.00351000  0.35531000  1.0
  C  C170  1  0.07209000  0.46582000  0.19838000  1.0
  C  C171  1  0.92792000  0.53418000  0.80162000  1.0
  C  C172  1  0.20504000  0.29122000  0.28528000  1.0
  C  C173  1  0.79496000  0.70878000  0.71472000  1.0
  C  C174  1  0.18441000  0.36331000  0.24892000  1.0
  C  C175  1  0.81559000  0.63669000  0.75108000  1.0
  C  C176  1  0.09226000  0.38599000  0.23521000  1.0
  C  C177  1  0.90774000  0.61401000  0.76479000  1.0
  C  C178  1  0.02088000  0.33283000  0.25803000  1.0
  C  C179  1  0.97912000  0.66717000  0.74198000  1.0
  C  C180  1  0.04103000  0.26077000  0.29496000  1.0
  C  C181  1  0.95897000  0.73923000  0.70504000  1.0
  C  C182  1  0.13395000  0.23920000  0.31011000  1.0
  C  C183  1  0.86605000  0.76080000  0.68989000  1.0
  C  C184  1  0.15259000  0.16752000  0.35427000  1.0
  C  C185  1  0.84741000  0.83248000  0.64573000  1.0
  C  C186  1  0.23732000  0.14031000  0.38062000  1.0
  C  C187  1  0.76268000  0.85969000  0.61938000  1.0
  C  C188  1  0.24493000  0.07086000  0.43125000  1.0
  C  C189  1  0.75507000  0.92914000  0.56875000  1.0
  C  C190  1  0.11466000  0.31219000  0.73470000  1.0
  C  C191  1  0.88534000  0.68781000  0.26530000  1.0
  C  C192  1  0.23108000  0.53440000  0.69916000  1.0
  C  C193  1  0.76892000  0.46560000  0.30084000  1.0
  C  C194  1  0.21793000  0.45448000  0.72626000  1.0
  C  C195  1  0.78207000  0.54552000  0.27374000  1.0
  C  C196  1  0.12596000  0.39829000  0.70456000  1.0
  C  C197  1  0.87404000  0.60171000  0.29544000  1.0
  C  C198  1  0.04700000  0.42532000  0.65465000  1.0
  C  C199  1  0.95300000  0.57468000  0.34535000  1.0
  C  C200  1  0.05980000  0.50595000  0.62773000  1.0
  C  C201  1  0.94020000  0.49405000  0.37228000  1.0
  C  C202  1  0.15209000  0.56202000  0.64888000  1.0
  C  C203  1  0.84791000  0.43798000  0.35112000  1.0
  C  C204  1  0.16355000  0.64497000  0.61853000  1.0
  C  C205  1  0.83645000  0.35503000  0.38147000  1.0
  C  C206  1  0.24806000  0.69984000  0.62602000  1.0
  C  C207  1  0.75194000  0.30016000  0.37398000  1.0
  C  C208  1  0.25097000  0.78312000  0.59295000  1.0
  C  C209  1  0.74903000  0.21688000  0.40705000  1.0
  C  C210  1  0.29050000  0.31655000  0.08765000  1.0
  C  C211  1  0.70950000  0.68345000  0.91235000  1.0
  C  C212  1  0.40780000  0.18273000  0.95263000  1.0
  C  C213  1  0.59220000  0.81727000  0.04737000  1.0
  C  C214  1  0.39322000  0.23168000  0.02051000  1.0
  C  C215  1  0.60678000  0.76832000  0.97949000  1.0
  C  C216  1  0.30741000  0.26427000  0.01486000  1.0
  C  C217  1  0.69259000  0.73573000  0.98514000  1.0
  C  C218  1  0.23644000  0.24567000  0.93875000  1.0
  C  C219  1  0.76356000  0.75433000  0.06125000  1.0
  C  C220  1  0.25007000  0.19614000  0.87116000  1.0
  C  C221  1  0.74993000  0.80386000  0.12884000  1.0
  C  C222  1  0.33622000  0.16351000  0.87653000  1.0
  C  C223  1  0.66378000  0.83649000  0.12347000  1.0
  C  C224  1  0.35366000  0.11138000  0.80730000  1.0
  C  C225  1  0.64634000  0.88862000  0.19270000  1.0
  C  C226  1  0.29206000  0.08334000  0.73135000  1.0
  C  C227  1  0.70794000  0.91666000  0.26865000  1.0
  C  C228  1  0.32230000  0.03283000  0.66728000  1.0
  C  C229  1  0.67770000  0.96717000  0.33272000  1.0
  C  C230  1  0.55000000  0.45742000  0.09518000  1.0
  C  C231  1  0.45000000  0.54258000  0.90482000  1.0
  C  C232  1  0.52357000  0.67391000  0.21517000  1.0
  C  C233  1  0.47643000  0.32609000  0.78483000  1.0
  C  C234  1  0.54244000  0.61390000  0.15662000  1.0
  C  C235  1  0.45756000  0.38610000  0.84338000  1.0
  C  C236  1  0.53029000  0.52233000  0.15873000  1.0
  C  C237  1  0.46971000  0.47767000  0.84126000  1.0
  C  C238  1  0.49873000  0.49317000  0.22199000  1.0
  C  C239  1  0.50127000  0.50683000  0.77801000  1.0
  C  C240  1  0.47929000  0.55291000  0.28047000  1.0
  C  C241  1  0.52071000  0.44709000  0.71953000  1.0
  C  C242  1  0.49163000  0.64468000  0.27857000  1.0
  C  C243  1  0.50837000  0.35532000  0.72143000  1.0
  C  C244  1  0.47227000  0.70438000  0.34231000  1.0
  C  C245  1  0.52773000  0.29562000  0.65769000  1.0
  C  C246  1  0.48532000  0.79416000  0.35450000  1.0
  C  C247  1  0.51468000  0.20584000  0.64550000  1.0
  C  C248  1  0.46012000  0.84297000  0.42288000  1.0
  C  C249  1  0.53988000  0.15703000  0.57712000  1.0
  C  C250  1  0.87805000  0.79544000  0.45722000  1.0
  C  C251  1  0.12195000  0.20456000  0.54278000  1.0
  C  C252  1  0.71141000  0.71471000  0.41572000  1.0
  C  C253  1  0.28860000  0.28529000  0.58428000  1.0
  C  C254  1  0.84426000  0.64978000  0.49366000  1.0
  C  C255  1  0.15574000  0.35022000  0.50634000  1.0
  N  N256  1  0.81423000  0.72227000  0.45450000  1.0
  N  N257  1  0.18577000  0.27773000  0.54550000  1.0
  O  O258  1  0.08785000  0.82360000  0.37684000  1.0
  O  O259  1  0.91215000  0.17640000  0.62316000  1.0
  O  O260  1  0.24425000  0.87399000  0.44219000  1.0
  O  O261  1  0.75575000  0.12601000  0.55781000  1.0
  O  O262  1  0.03597000  0.03389000  0.58088000  1.0
  O  O263  1  0.96403000  0.96611000  0.41912000  1.0
  O  O264  1  0.08682000  0.92811000  0.64598000  1.0
  O  O265  1  0.91318000  0.07189000  0.35402000  1.0
  O  O266  1  0.16873000  0.03420000  0.44551000  1.0
  O  O267  1  0.83127000  0.96580000  0.55449000  1.0
  O  O268  1  0.33023000  0.05333000  0.45919000  1.0
  O  O269  1  0.66977000  0.94667000  0.54081000  1.0
  O  O270  1  0.17066000  0.80300000  0.55806000  1.0
  O  O271  1  0.82934000  0.19700000  0.44195000  1.0
  O  O272  1  0.33536000  0.82916000  0.60238000  1.0
  O  O273  1  0.66464000  0.17084000  0.39762000  1.0
  O  O274  1  0.25931000  0.00140000  0.59675000  1.0
  O  O275  1  0.74069000  0.99860000  0.40325000  1.0
  O  O276  1  0.40962000  0.02305000  0.67930000  1.0
  O  O277  1  0.59038000  0.97695000  0.32069000  1.0
  O  O278  1  0.47530000  0.92949000  0.43433000  1.0
  O  O279  1  0.52469000  0.07051000  0.56567000  1.0
  O  O280  1  0.42193000  0.80209000  0.46841000  1.0
  O  O281  1  0.57807000  0.19791000  0.53159000  1.0
  O  O282  1  0.96697000  0.80770000  0.49292000  1.0
  O  O283  1  0.03303000  0.19230000  0.50708000  1.0
  O  O284  1  0.53950000  0.90209000  0.61883000  1.0
  O  O285  1  0.46050000  0.09791000  0.38117000  1.0
