# generated using pymatgen
data_CdH14C24(NO2)2
_symmetry_space_group_name_H-M   'P 1'
_cell_length_a   7.21186000
_cell_length_b   11.70740000
_cell_length_c   12.56770000
_cell_angle_alpha   117.75100000
_cell_angle_beta   97.95710000
_cell_angle_gamma   90.01720000
_symmetry_Int_Tables_number   1
_chemical_formula_structural   CdH14C24(NO2)2
_chemical_formula_sum   'Cd2 H28 C48 N4 O8'
_cell_volume   927.48400857
_cell_formula_units_Z   2
loop_
 _symmetry_equiv_pos_site_id
 _symmetry_equiv_pos_as_xyz
  1  'x, y, z'
loop_
 _atom_site_type_symbol
 _atom_site_label
 _atom_site_symmetry_multiplicity
 _atom_site_fract_x
 _atom_site_fract_y
 _atom_site_fract_z
 _atom_site_occupancy
  Cd  Cd0  1  0.25006000  0.61372000  0.00006000  1.0
  Cd  Cd1  1  0.74994000  0.38628000  0.99994000  1.0
  H  H2  1  0.98268000  0.56875000  0.74581000  1.0
  H  H3  1  0.51748000  0.82309000  0.25455000  1.0
  H  H4  1  0.01733000  0.43125000  0.25420000  1.0
  H  H5  1  0.48252000  0.17691000  0.74546000  1.0
  H  H6  1  0.87062000  0.69066000  0.63118000  1.0
  H  H7  1  0.63003000  0.05958000  0.36906000  1.0
  H  H8  1  0.12938000  0.30934000  0.36882000  1.0
  H  H9  1  0.36996000  0.94042000  0.63094000  1.0
  H  H10  1  0.97554000  0.92678000  0.72392000  1.0
  H  H11  1  0.52492000  0.20303000  0.27645000  1.0
  H  H12  1  0.02445000  0.07322000  0.27608000  1.0
  H  H13  1  0.47509000  0.79697000  0.72355000  1.0
  H  H14  1  0.14561000  0.12645000  0.90192000  1.0
  H  H15  1  0.35447000  0.22483000  0.09856000  1.0
  H  H16  1  0.85439000  0.87355000  0.09808000  1.0
  H  H17  1  0.64553000  0.77517000  0.90145000  1.0
  H  H18  1  0.78248000  0.34034000  0.64333000  1.0
  H  H19  1  0.71768000  0.69686000  0.35703000  1.0
  H  H20  1  0.21753000  0.65966000  0.35666000  1.0
  H  H21  1  0.28232000  0.30314000  0.64297000  1.0
  H  H22  1  0.78181000  0.32760000  0.44009000  1.0
  H  H23  1  0.71843000  0.88745000  0.56023000  1.0
  H  H24  1  0.21820000  0.67240000  0.55991000  1.0
  H  H25  1  0.28157000  0.11255000  0.43977000  1.0
  H  H26  1  0.35666000  0.61086000  0.71941000  1.0
  H  H27  1  0.14304000  0.89140000  0.28047000  1.0
  H  H28  1  0.64334000  0.38914000  0.28059000  1.0
  H  H29  1  0.85696000  0.10859000  0.71953000  1.0
  C  C30  1  0.02264000  0.67155000  0.78254000  1.0
  C  C31  1  0.47765000  0.88918000  0.21783000  1.0
  C  C32  1  0.97736000  0.32845000  0.21746000  1.0
  C  C33  1  0.52235000  0.11082000  0.78217000  1.0
  C  C34  1  0.96161000  0.74029000  0.71901000  1.0
  C  C35  1  0.53885000  0.02142000  0.28131000  1.0
  C  C36  1  0.03838000  0.25971000  0.28099000  1.0
  C  C37  1  0.46115000  0.97858000  0.71869000  1.0
  C  C38  1  0.01853000  0.87022000  0.77038000  1.0
  C  C39  1  0.48186000  0.10002000  0.23000000  1.0
  C  C40  1  0.98147000  0.12978000  0.22963000  1.0
  C  C41  1  0.51814000  0.89998000  0.77000000  1.0
  C  C42  1  0.13371000  0.93197000  0.88526000  1.0
  C  C43  1  0.36653000  0.04694000  0.11515000  1.0
  C  C44  1  0.86629000  0.06803000  0.11474000  1.0
  C  C45  1  0.63347000  0.95307000  0.88486000  1.0
  C  C46  1  0.18999000  0.85405000  0.94167000  1.0
  C  C47  1  0.31020000  0.91260000  0.05876000  1.0
  C  C48  1  0.81001000  0.14595000  0.05833000  1.0
  C  C49  1  0.68980000  0.08740000  0.94124000  1.0
  C  C50  1  0.19327000  0.06702000  0.94496000  1.0
  C  C51  1  0.30687000  0.12234000  0.05549000  1.0
  C  C52  1  0.80673000  0.93298000  0.05504000  1.0
  C  C53  1  0.69313000  0.87766000  0.94451000  1.0
  C  C54  1  0.57630000  0.48869000  0.81820000  1.0
  C  C55  1  0.92363000  0.67049000  0.18198000  1.0
  C  C56  1  0.42370000  0.51130000  0.18180000  1.0
  C  C57  1  0.07637000  0.32951000  0.81801000  1.0
  C  C58  1  0.57044000  0.47889000  0.69373000  1.0
  C  C59  1  0.92964000  0.78505000  0.30650000  1.0
  C  C60  1  0.42956000  0.52111000  0.30627000  1.0
  C  C61  1  0.07036000  0.21495000  0.69350000  1.0
  C  C62  1  0.68901000  0.39624000  0.61325000  1.0
  C  C63  1  0.81119000  0.78283000  0.38706000  1.0
  C  C64  1  0.31099000  0.60376000  0.38675000  1.0
  C  C65  1  0.18881000  0.21717000  0.61294000  1.0
  C  C66  1  0.68689000  0.38857000  0.50037000  1.0
  C  C67  1  0.81332000  0.88813000  0.49988000  1.0
  C  C68  1  0.31312000  0.61143000  0.49963000  1.0
  C  C69  1  0.18668000  0.11187000  0.50012000  1.0
  C  C70  1  0.56177000  0.45939000  0.45998000  1.0
  C  C71  1  0.93834000  0.99937000  0.54007000  1.0
  C  C72  1  0.43824000  0.54061000  0.54002000  1.0
  C  C73  1  0.06166000  0.00062000  0.45993000  1.0
  C  C74  1  0.44801000  0.54915000  0.65688000  1.0
  C  C75  1  0.05194000  0.89222000  0.34315000  1.0
  C  C76  1  0.55200000  0.45085000  0.34312000  1.0
  C  C77  1  0.94806000  0.10777000  0.65685000  1.0
  N  N78  1  0.13439000  0.72672000  0.88956000  1.0
  N  N79  1  0.36578000  0.83738000  0.11086000  1.0
  N  N80  1  0.86561000  0.27328000  0.11044000  1.0
  N  N81  1  0.63422000  0.16262000  0.88914000  1.0
  O  O82  1  0.52223000  0.58925000  0.90120000  1.0
  O  O83  1  0.97795000  0.68808000  0.09903000  1.0
  O  O84  1  0.47777000  0.41075000  0.09880000  1.0
  O  O85  1  0.02205000  0.31191000  0.90097000  1.0
  O  O86  1  0.63823000  0.39080000  0.82747000  1.0
  O  O87  1  0.86137000  0.56332000  0.17257000  1.0
  O  O88  1  0.36177000  0.60919000  0.17253000  1.0
  O  O89  1  0.13863000  0.43668000  0.82743000  1.0
