# generated using pymatgen
data_HgH8C11Br2N3OF
_symmetry_space_group_name_H-M   'P 1'
_cell_length_a   3.98930000
_cell_length_b   11.33380000
_cell_length_c   34.65900000
_cell_angle_alpha   89.99760000
_cell_angle_beta   89.99970000
_cell_angle_gamma   92.40040000
_symmetry_Int_Tables_number   1
_chemical_formula_structural   HgH8C11Br2N3OF
_chemical_formula_sum   'Hg4 H32 C44 Br8 N12 O4 F4'
_cell_volume   1565.69449652
_cell_formula_units_Z   4
loop_
 _symmetry_equiv_pos_site_id
 _symmetry_equiv_pos_as_xyz
  1  'x, y, z'
loop_
 _atom_site_type_symbol
 _atom_site_label
 _atom_site_symmetry_multiplicity
 _atom_site_fract_x
 _atom_site_fract_y
 _atom_site_fract_z
 _atom_site_occupancy
  Hg  Hg0  1  0.26839000  0.07280000  0.13413000  1.0
  Hg  Hg1  1  0.73164000  0.42723000  0.63413000  1.0
  Hg  Hg2  1  0.73159000  0.92719000  0.86588000  1.0
  Hg  Hg3  1  0.26835000  0.57277000  0.36587000  1.0
  H  H4  1  0.77481000  0.75911000  0.24493000  1.0
  H  H5  1  0.22518000  0.74092000  0.74493000  1.0
  H  H6  1  0.22527000  0.24091000  0.75507000  1.0
  H  H7  1  0.77480000  0.25910000  0.25507000  1.0
  H  H8  1  0.62068000  0.82973000  0.17861000  1.0
  H  H9  1  0.37931000  0.67031000  0.67861000  1.0
  H  H10  1  0.37936000  0.17026000  0.82139000  1.0
  H  H11  1  0.62065000  0.32973000  0.32139000  1.0
  H  H12  1  0.15412000  0.11586000  0.22709000  1.0
  H  H13  1  0.84588000  0.38417000  0.72708000  1.0
  H  H14  1  0.84587000  0.88412000  0.77291000  1.0
  H  H15  1  0.15407000  0.61585000  0.27291000  1.0
  H  H16  1  0.04638000  0.20450000  0.36281000  1.0
  H  H17  1  0.95355000  0.29547000  0.86281000  1.0
  H  H18  1  0.95355000  0.79548000  0.63719000  1.0
  H  H19  1  0.04648000  0.70452000  0.13719000  1.0
  H  H20  1  0.96287000  0.25170000  0.43260000  1.0
  H  H21  1  0.03722000  0.24829000  0.93260000  1.0
  H  H22  1  0.03710000  0.74830000  0.56740000  1.0
  H  H23  1  0.96284000  0.75171000  0.06740000  1.0
  H  H24  1  0.44343000  0.93387000  0.46506000  1.0
  H  H25  1  0.55672000  0.56613000  0.96506000  1.0
  H  H26  1  0.55660000  0.06614000  0.53494000  1.0
  H  H27  1  0.44334000  0.43386000  0.03494000  1.0
  H  H28  1  0.53206000  0.88644000  0.39560000  1.0
  H  H29  1  0.46793000  0.61354000  0.89559000  1.0
  H  H30  1  0.46793000  0.11355000  0.60441000  1.0
  H  H31  1  0.53208000  0.38645000  0.10441000  1.0
  H  H32  1  0.48003000  0.93420000  0.33229000  1.0
  H  H33  1  0.51987000  0.56578000  0.83229000  1.0
  H  H34  1  0.51997000  0.06582000  0.66771000  1.0
  H  H35  1  0.48010000  0.43421000  0.16771000  1.0
  C  C36  1  0.63101000  0.83820000  0.24142000  1.0
  C  C37  1  0.36896000  0.66182000  0.74142000  1.0
  C  C38  1  0.36903000  0.16180000  0.75858000  1.0
  C  C39  1  0.63103000  0.33820000  0.25858000  1.0
  C  C40  1  0.54849000  0.87746000  0.20441000  1.0
  C  C41  1  0.45149000  0.62257000  0.70441000  1.0
  C  C42  1  0.45153000  0.12253000  0.79558000  1.0
  C  C43  1  0.54848000  0.37746000  0.29559000  1.0
  C  C44  1  0.29038000  0.03540000  0.23128000  1.0
  C  C45  1  0.70959000  0.46462000  0.73128000  1.0
  C  C46  1  0.70962000  0.96459000  0.76872000  1.0
  C  C47  1  0.29039000  0.53540000  0.26872000  1.0
  C  C48  1  0.36881000  0.99468000  0.26809000  1.0
  C  C49  1  0.63114000  0.50533000  0.76809000  1.0
  C  C50  1  0.63120000  0.00533000  0.73191000  1.0
  C  C51  1  0.36884000  0.49468000  0.23191000  1.0
  C  C52  1  0.25605000  0.06041000  0.30313000  1.0
  C  C53  1  0.74388000  0.43958000  0.80313000  1.0
  C  C54  1  0.74394000  0.93959000  0.69687000  1.0
  C  C55  1  0.25612000  0.56042000  0.19687000  1.0
  C  C56  1  0.29192000  0.04201000  0.37481000  1.0
  C  C57  1  0.70797000  0.45794000  0.87481000  1.0
  C  C58  1  0.70810000  0.95798000  0.62519000  1.0
  C  C59  1  0.29200000  0.54204000  0.12519000  1.0
  C  C60  1  0.13244000  0.14559000  0.38508000  1.0
  C  C61  1  0.86743000  0.35436000  0.88508000  1.0
  C  C62  1  0.86755000  0.85440000  0.61492000  1.0
  C  C63  1  0.13253000  0.64563000  0.11492000  1.0
  C  C64  1  0.08627000  0.17201000  0.42393000  1.0
  C  C65  1  0.91372000  0.32796000  0.92392000  1.0
  C  C66  1  0.91374000  0.82799000  0.57608000  1.0
  C  C67  1  0.08632000  0.67203000  0.07608000  1.0
  C  C68  1  0.19846000  0.09509000  0.45173000  1.0
  C  C69  1  0.80161000  0.40489000  0.95173000  1.0
  C  C70  1  0.80156000  0.90492000  0.54827000  1.0
  C  C71  1  0.19846000  0.59511000  0.04827000  1.0
  C  C72  1  0.35573000  0.99165000  0.44248000  1.0
  C  C73  1  0.64429000  0.50832000  0.94248000  1.0
  C  C74  1  0.64430000  0.00836000  0.55752000  1.0
  C  C75  1  0.35576000  0.49166000  0.05752000  1.0
  C  C76  1  0.40273000  0.96574000  0.40371000  1.0
  C  C77  1  0.59718000  0.53421000  0.90370000  1.0
  C  C78  1  0.59729000  0.03425000  0.59630000  1.0
  C  C79  1  0.40280000  0.46577000  0.09630000  1.0
  Br  Br80  1  0.91322000  0.23170000  0.16118000  1.0
  Br  Br81  1  0.08674000  0.26835000  0.66120000  1.0
  Br  Br82  1  0.08664000  0.76828000  0.83882000  1.0
  Br  Br83  1  0.91322000  0.73165000  0.33880000  1.0
  Br  Br84  1  0.65929000  0.94876000  0.09611000  1.0
  Br  Br85  1  0.34069000  0.55123000  0.59609000  1.0
  Br  Br86  1  0.34071000  0.05122000  0.90390000  1.0
  Br  Br87  1  0.65932000  0.44876000  0.40391000  1.0
  N  N88  1  0.54111000  0.89632000  0.27298000  1.0
  N  N89  1  0.45883000  0.60368000  0.77298000  1.0
  N  N90  1  0.45893000  0.10368000  0.72702000  1.0
  N  N91  1  0.54116000  0.39633000  0.22702000  1.0
  N  N92  1  0.38003000  0.97611000  0.19971000  1.0
  N  N93  1  0.61996000  0.52392000  0.69971000  1.0
  N  N94  1  0.61999000  0.02388000  0.80028000  1.0
  N  N95  1  0.38000000  0.47611000  0.30028000  1.0
  N  N96  1  0.35248000  0.00970000  0.33648000  1.0
  N  N97  1  0.64742000  0.49028000  0.83647000  1.0
  N  N98  1  0.64751000  0.99031000  0.66352000  1.0
  N  N99  1  0.35254000  0.50971000  0.16353000  1.0
  O  O100  1  0.08953000  0.15051000  0.29984000  1.0
  O  O101  1  0.91040000  0.34949000  0.79984000  1.0
  O  O102  1  0.91046000  0.84950000  0.70016000  1.0
  O  O103  1  0.08958000  0.65053000  0.20016000  1.0
  F  F104  1  0.15316000  0.12300000  0.48978000  1.0
  F  F105  1  0.84705000  0.37700000  0.98977000  1.0
  F  F106  1  0.84680000  0.87699000  0.51023000  1.0
  F  F107  1  0.15306000  0.62300000  0.01023000  1.0
