# generated using pymatgen
data_ZnH11C15N2O5
_symmetry_space_group_name_H-M   'P 1'
_cell_length_a   7.68807000
_cell_length_b   8.84478000
_cell_length_c   10.75680000
_cell_angle_alpha   80.13540000
_cell_angle_beta   69.66560000
_cell_angle_gamma   78.18960000
_symmetry_Int_Tables_number   1
_chemical_formula_structural   ZnH11C15N2O5
_chemical_formula_sum   'Zn2 H22 C30 N4 O10'
_cell_volume   667.33874332
_cell_formula_units_Z   2
loop_
 _symmetry_equiv_pos_site_id
 _symmetry_equiv_pos_as_xyz
  1  'x, y, z'
loop_
 _atom_site_type_symbol
 _atom_site_label
 _atom_site_symmetry_multiplicity
 _atom_site_fract_x
 _atom_site_fract_y
 _atom_site_fract_z
 _atom_site_occupancy
  Zn  Zn0  1  0.31357000  0.37670000  0.22127000  1.0
  Zn  Zn1  1  0.68643000  0.62330000  0.77873000  1.0
  H  H2  1  0.47054000  0.69760000  0.12339000  1.0
  H  H3  1  0.52946000  0.30240000  0.87661000  1.0
  H  H4  1  0.50465000  0.91514000  0.23337000  1.0
  H  H5  1  0.49534000  0.08486000  0.76663000  1.0
  H  H6  1  0.40753000  0.88890000  0.48342000  1.0
  H  H7  1  0.59246000  0.11110000  0.51658000  1.0
  H  H8  1  0.26781000  0.66043000  0.61377000  1.0
  H  H9  1  0.73219000  0.33957000  0.38623000  1.0
  H  H10  1  0.14956000  0.46392000  0.70876000  1.0
  H  H11  1  0.85043000  0.53608000  0.29124000  1.0
  H  H12  1  0.02808000  0.21656000  0.80766000  1.0
  H  H13  1  0.97192000  0.78345000  0.19234000  1.0
  H  H14  1  0.02926000  0.02870000  0.65676000  1.0
  H  H15  1  0.97074000  0.97130000  0.34325000  1.0
  H  H16  1  0.14158000  0.10711000  0.40776000  1.0
  H  H17  1  0.85842000  0.89289000  0.59224000  1.0
  H  H18  1  0.68251000  0.98172000  0.00023000  1.0
  H  H19  1  0.31750000  0.01828000  0.99977000  1.0
  H  H20  1  0.28850000  0.59837000  0.01340000  1.0
  H  H21  1  0.71150000  0.40163000  0.98660000  1.0
  H  H22  1  0.11012000  0.50196000  0.07609000  1.0
  H  H23  1  0.88988000  0.49803000  0.92392000  1.0
  C  C24  1  0.42800000  0.69373000  0.23174000  1.0
  C  C25  1  0.57200000  0.30627000  0.76826000  1.0
  C  C26  1  0.44621000  0.81378000  0.29259000  1.0
  C  C27  1  0.55378000  0.18623000  0.70741000  1.0
  C  C28  1  0.39044000  0.80034000  0.43152000  1.0
  C  C29  1  0.60955000  0.19966000  0.56848000  1.0
  C  C30  1  0.31299000  0.67070000  0.50523000  1.0
  C  C31  1  0.68700000  0.32930000  0.49477000  1.0
  C  C32  1  0.29671000  0.55552000  0.43710000  1.0
  C  C33  1  0.70329000  0.44448000  0.56290000  1.0
  C  C34  1  0.21507000  0.41367000  0.50560000  1.0
  C  C35  1  0.78493000  0.58633000  0.49440000  1.0
  C  C36  1  0.14926000  0.38147000  0.64431000  1.0
  C  C37  1  0.85074000  0.61853000  0.35570000  1.0
  C  C38  1  0.08077000  0.24251000  0.69985000  1.0
  C  C39  1  0.91923000  0.75749000  0.30015000  1.0
  C  C40  1  0.07905000  0.13918000  0.61625000  1.0
  C  C41  1  0.92095000  0.86082000  0.38375000  1.0
  C  C42  1  0.14183000  0.18081000  0.47910000  1.0
  C  C43  1  0.85817000  0.81919000  0.52090000  1.0
  C  C44  1  0.66883000  0.18764000  0.16297000  1.0
  C  C45  1  0.33117000  0.81236000  0.83703000  1.0
  C  C46  1  0.84298000  0.09865000  0.07343000  1.0
  C  C47  1  0.15702000  0.90135000  0.92656000  1.0
  C  C48  1  0.02401000  0.10849000  0.07185000  1.0
  C  C49  1  0.97599000  0.89151000  0.92815000  1.0
  C  C50  1  0.82157000  0.99142000  0.00037000  1.0
  C  C51  1  0.17843000  0.00858000  0.99963000  1.0
  C  C52  1  0.05642000  0.23437000  0.13567000  1.0
  C  C53  1  0.94359000  0.76562000  0.86433000  1.0
  N  N54  1  0.35681000  0.56738000  0.30262000  1.0
  N  N55  1  0.64319000  0.43262000  0.69738000  1.0
  N  N56  1  0.20757000  0.31455000  0.42543000  1.0
  N  N57  1  0.79243000  0.68545000  0.57457000  1.0
  O  O58  1  0.20942000  0.54009000  0.09488000  1.0
  O  O59  1  0.79058000  0.45991000  0.90513000  1.0
  O  O60  1  0.57338000  0.29703000  0.10360000  1.0
  O  O61  1  0.42663000  0.70297000  0.89640000  1.0
  O  O62  1  0.61871000  0.14618000  0.28477000  1.0
  O  O63  1  0.38130000  0.85382000  0.71522000  1.0
  O  O64  1  0.94625000  0.36246000  0.13805000  1.0
  O  O65  1  0.05375000  0.63754000  0.86195000  1.0
  O  O66  1  0.19858000  0.20365000  0.17727000  1.0
  O  O67  1  0.80142000  0.79635000  0.82273000  1.0
