# generated using pymatgen
data_AlH12C21(NO4)3
_symmetry_space_group_name_H-M   'P 1'
_cell_length_a   3.97018000
_cell_length_b   27.89060000
_cell_length_c   27.89060000
_cell_angle_alpha   60.00000000
_cell_angle_beta   89.99910000
_cell_angle_gamma   90.00020000
_symmetry_Int_Tables_number   1
_chemical_formula_structural   AlH12C21(NO4)3
_chemical_formula_sum   'Al2 H24 C42 N6 O24'
_cell_volume   2674.58585365
_cell_formula_units_Z   2
loop_
 _symmetry_equiv_pos_site_id
 _symmetry_equiv_pos_as_xyz
  1  'x, y, z'
loop_
 _atom_site_type_symbol
 _atom_site_label
 _atom_site_symmetry_multiplicity
 _atom_site_fract_x
 _atom_site_fract_y
 _atom_site_fract_z
 _atom_site_occupancy
  Al  Al0  1  0.00546000  0.00000000  0.50000000  1.0
  Al  Al1  1  0.95044000  0.66668000  0.16666000  1.0
  H  H2  1  0.16005000  0.51058000  0.30184000  1.0
  H  H3  1  0.19291000  0.40651000  0.35283000  1.0
  H  H4  1  0.74436000  0.25124000  0.45574000  1.0
  H  H5  1  0.18909000  0.26088000  0.31749000  1.0
  H  H6  1  0.16008000  0.80185000  0.18758000  1.0
  H  H7  1  0.19292000  0.85283000  0.24066000  1.0
  H  H8  1  0.74439000  0.95574000  0.29302000  1.0
  H  H9  1  0.18910000  0.81749000  0.42163000  1.0
  H  H10  1  0.16008000  0.68759000  0.01057000  1.0
  H  H11  1  0.19292000  0.74066000  0.90651000  1.0
  H  H12  1  0.74438000  0.79302000  0.75124000  1.0
  H  H13  1  0.18908000  0.92162000  0.76089000  1.0
  H  H14  1  0.80907000  0.56105000  0.15050000  1.0
  H  H15  1  0.76141000  0.37040000  0.23699000  1.0
  H  H16  1  0.84676000  0.10687000  0.51481000  1.0
  H  H17  1  0.15659000  0.11517000  0.38185000  1.0
  H  H18  1  0.80906000  0.65051000  0.28844000  1.0
  H  H19  1  0.76137000  0.73698000  0.39262000  1.0
  H  H20  1  0.84678000  0.01481000  0.37832000  1.0
  H  H21  1  0.15658000  0.88185000  0.50298000  1.0
  H  H22  1  0.80910000  0.78845000  0.06104000  1.0
  H  H23  1  0.76140000  0.89262000  0.87039000  1.0
  H  H24  1  0.84678000  0.87832000  0.60687000  1.0
  H  H25  1  0.15658000  0.00298000  0.61517000  1.0
  C  C26  1  0.50240000  0.95393000  0.58663000  1.0
  C  C27  1  0.50241000  0.08663000  0.45944000  1.0
  C  C28  1  0.50241000  0.95944000  0.45393000  1.0
  C  C29  1  0.44846000  0.58088000  0.20514000  1.0
  C  C30  1  0.44848000  0.70514000  0.21399000  1.0
  C  C31  1  0.44848000  0.71399000  0.08087000  1.0
  C  C32  1  0.46602000  0.52039000  0.23350000  1.0
  C  C33  1  0.29846000  0.48863000  0.28498000  1.0
  C  C34  1  0.31420000  0.43179000  0.31287000  1.0
  C  C35  1  0.48271000  0.40516000  0.28796000  1.0
  C  C36  1  0.63841000  0.43568000  0.23575000  1.0
  C  C37  1  0.64326000  0.49426000  0.20893000  1.0
  C  C38  1  0.62920000  0.23067000  0.43545000  1.0
  C  C39  1  0.47181000  0.26144000  0.38394000  1.0
  C  C40  1  0.31988000  0.23633000  0.35666000  1.0
  C  C41  1  0.31681000  0.17891000  0.38228000  1.0
  C  C42  1  0.49333000  0.14611000  0.43342000  1.0
  C  C43  1  0.65766000  0.17368000  0.45870000  1.0
  C  C44  1  0.46601000  0.73350000  0.24612000  1.0
  C  C45  1  0.29848000  0.78499000  0.22639000  1.0
  C  C46  1  0.31421000  0.81288000  0.25534000  1.0
  C  C47  1  0.48270000  0.78795000  0.30689000  1.0
  C  C48  1  0.63839000  0.73575000  0.32858000  1.0
  C  C49  1  0.64325000  0.70892000  0.29682000  1.0
  C  C50  1  0.62923000  0.93545000  0.33388000  1.0
  C  C51  1  0.47182000  0.88394000  0.35462000  1.0
  C  C52  1  0.31989000  0.85666000  0.40701000  1.0
  C  C53  1  0.31681000  0.88229000  0.43881000  1.0
  C  C54  1  0.49334000  0.93342000  0.42047000  1.0
  C  C55  1  0.65768000  0.95870000  0.36762000  1.0
  C  C56  1  0.46603000  0.74612000  0.02038000  1.0
  C  C57  1  0.29848000  0.72639000  0.98863000  1.0
  C  C58  1  0.31422000  0.75534000  0.93179000  1.0
  C  C59  1  0.48271000  0.80688000  0.90516000  1.0
  C  C60  1  0.63842000  0.82858000  0.93567000  1.0
  C  C61  1  0.64327000  0.79682000  0.99425000  1.0
  C  C62  1  0.62922000  0.83388000  0.73067000  1.0
  C  C63  1  0.47180000  0.85462000  0.76144000  1.0
  C  C64  1  0.31988000  0.90701000  0.73633000  1.0
  C  C65  1  0.31680000  0.93882000  0.67890000  1.0
  C  C66  1  0.49333000  0.92047000  0.64610000  1.0
  C  C67  1  0.65768000  0.86763000  0.67367000  1.0
  N  N68  1  0.51243000  0.34802000  0.31059000  1.0
  N  N69  1  0.46230000  0.31907000  0.36235000  1.0
  N  N70  1  0.51242000  0.81059000  0.34140000  1.0
  N  N71  1  0.46232000  0.86236000  0.31858000  1.0
  N  N72  1  0.51244000  0.84140000  0.84801000  1.0
  N  N73  1  0.46231000  0.81859000  0.81906000  1.0
  O  O74  1  0.73751000  0.99540000  0.44526000  1.0
  O  O75  1  0.73749000  0.94527000  0.55934000  1.0
  O  O76  1  0.73749000  0.05934000  0.49539000  1.0
  O  O77  1  0.27558000  0.94697000  0.49209000  1.0
  O  O78  1  0.27558000  0.06094000  0.44696000  1.0
  O  O79  1  0.27557000  0.99210000  0.56094000  1.0
  O  O80  1  0.67683000  0.72307000  0.10889000  1.0
  O  O81  1  0.67681000  0.60889000  0.16804000  1.0
  O  O82  1  0.67680000  0.66804000  0.22307000  1.0
  O  O83  1  0.21084000  0.67897000  0.10400000  1.0
  O  O84  1  0.21083000  0.71703000  0.17897000  1.0
  O  O85  1  0.21082000  0.60400000  0.21703000  1.0
  O  O86  1  0.81297000  0.52136000  0.16088000  1.0
  O  O87  1  0.79777000  0.41042000  0.21180000  1.0
  O  O88  1  0.83168000  0.14573000  0.50646000  1.0
  O  O89  1  0.15402000  0.15568000  0.35642000  1.0
  O  O90  1  0.81296000  0.66088000  0.31776000  1.0
  O  O91  1  0.79774000  0.71180000  0.37779000  1.0
  O  O92  1  0.83170000  0.00645000  0.34781000  1.0
  O  O93  1  0.15401000  0.85643000  0.48790000  1.0
  O  O94  1  0.81300000  0.81777000  0.02135000  1.0
  O  O95  1  0.79778000  0.87780000  0.91040000  1.0
  O  O96  1  0.83172000  0.84782000  0.64573000  1.0
  O  O97  1  0.15400000  0.98790000  0.65568000  1.0
