# generated using pymatgen
data_MgH24(C6O)2
_symmetry_space_group_name_H-M   'P 1'
_cell_length_a   7.59165000
_cell_length_b   7.71780000
_cell_length_c   11.54640000
_cell_angle_alpha   85.68740000
_cell_angle_beta   81.50490000
_cell_angle_gamma   69.99720000
_symmetry_Int_Tables_number   1
_chemical_formula_structural   MgH24(C6O)2
_chemical_formula_sum   'Mg2 H48 C24 O4'
_cell_volume   628.50708168
_cell_formula_units_Z   2
loop_
 _symmetry_equiv_pos_site_id
 _symmetry_equiv_pos_as_xyz
  1  'x, y, z'
loop_
 _atom_site_type_symbol
 _atom_site_label
 _atom_site_symmetry_multiplicity
 _atom_site_fract_x
 _atom_site_fract_y
 _atom_site_fract_z
 _atom_site_occupancy
  Mg  Mg0  1  0.27666000  0.84426000  0.26964000  1.0
  Mg  Mg1  1  0.72334000  0.15574000  0.73036000  1.0
  H  H2  1  0.09834000  0.67863000  0.44448000  1.0
  H  H3  1  0.90166000  0.32137000  0.55552000  1.0
  H  H4  1  0.31238000  0.66954000  0.48785000  1.0
  H  H5  1  0.68762000  0.33046000  0.51215000  1.0
  H  H6  1  0.02526000  0.88505000  0.61401000  1.0
  H  H7  1  0.97474000  0.11495000  0.38598000  1.0
  H  H8  1  0.17980000  0.99672000  0.54552000  1.0
  H  H9  1  0.82019000  0.00329000  0.45448000  1.0
  H  H10  1  0.32210000  0.86592000  0.03392000  1.0
  H  H11  1  0.67790000  0.13407000  0.96607000  1.0
  H  H12  1  0.19926000  0.71155000  0.07281000  1.0
  H  H13  1  0.80074000  0.28845000  0.92719000  1.0
  H  H14  1  0.89573000  0.98296000  0.12199000  1.0
  H  H15  1  0.10427000  0.01704000  0.87801000  1.0
  H  H16  1  0.02102000  0.13488000  0.08232000  1.0
  H  H17  1  0.97898000  0.86512000  0.91768000  1.0
  H  H18  1  0.23152000  0.24372000  0.11871000  1.0
  H  H19  1  0.76848000  0.75628000  0.88129000  1.0
  H  H20  1  0.47072000  0.09140000  0.10487000  1.0
  H  H21  1  0.52928000  0.90861000  0.89513000  1.0
  H  H22  1  0.31037000  0.48004000  0.19807000  1.0
  H  H23  1  0.68963000  0.51997000  0.80193000  1.0
  H  H24  1  0.54132000  0.36333000  0.12741000  1.0
  H  H25  1  0.45868000  0.63667000  0.87259000  1.0
  H  H26  1  0.48262000  0.40316000  0.36500000  1.0
  H  H27  1  0.51737000  0.59684000  0.63500000  1.0
  H  H28  1  0.63731000  0.18972000  0.30557000  1.0
  H  H29  1  0.36269000  0.81028000  0.69443000  1.0
  H  H30  1  0.40915000  0.08133000  0.43345000  1.0
  H  H31  1  0.59085000  0.91866000  0.56655000  1.0
  H  H32  1  0.21823000  0.28717000  0.40702000  1.0
  H  H33  1  0.78177000  0.71283000  0.59298000  1.0
  H  H34  1  0.70734000  0.81843000  0.10483000  1.0
  H  H35  1  0.29266000  0.18157000  0.89517000  1.0
  H  H36  1  0.61291000  0.64812000  0.06980000  1.0
  H  H37  1  0.38709000  0.35188000  0.93020000  1.0
  H  H38  1  0.88287000  0.40216000  0.12605000  1.0
  H  H39  1  0.11713000  0.59784000  0.87395000  1.0
  H  H40  1  0.99587000  0.57134000  0.10106000  1.0
  H  H41  1  0.00413000  0.42866000  0.89894000  1.0
  H  H42  1  0.00466000  0.57178000  0.30591000  1.0
  H  H43  1  0.99534000  0.42822000  0.69409000  1.0
  H  H44  1  0.88904000  0.40479000  0.32766000  1.0
  H  H45  1  0.11097000  0.59521000  0.67234000  1.0
  H  H46  1  0.62874000  0.65338000  0.41525000  1.0
  H  H47  1  0.37126000  0.34661000  0.58475000  1.0
  H  H48  1  0.71807000  0.82227000  0.33636000  1.0
  H  H49  1  0.28193000  0.17772000  0.66364000  1.0
  C  C50  1  0.19010000  0.76296000  0.44685000  1.0
  C  C51  1  0.80990000  0.23704000  0.55315000  1.0
  C  C52  1  0.08245000  0.92714000  0.52616000  1.0
  C  C53  1  0.91755000  0.07287000  0.47384000  1.0
  C  C54  1  0.20187000  0.84792000  0.09515000  1.0
  C  C55  1  0.79813000  0.15209000  0.90485000  1.0
  C  C56  1  0.02033000  0.99655000  0.06380000  1.0
  C  C57  1  0.97966000  0.00346000  0.93620000  1.0
  C  C58  1  0.36068000  0.19384000  0.16101000  1.0
  C  C59  1  0.63932000  0.80616000  0.83898000  1.0
  C  C60  1  0.42699000  0.34761000  0.19283000  1.0
  C  C61  1  0.57301000  0.65239000  0.80717000  1.0
  C  C62  1  0.49121000  0.28616000  0.31359000  1.0
  C  C63  1  0.50879000  0.71384000  0.68641000  1.0
  C  C64  1  0.35387000  0.18947000  0.36800000  1.0
  C  C65  1  0.64613000  0.81052000  0.63200000  1.0
  C  C66  1  0.68933000  0.68472000  0.13209000  1.0
  C  C67  1  0.31067000  0.31528000  0.86791000  1.0
  C  C68  1  0.87781000  0.53759000  0.15240000  1.0
  C  C69  1  0.12219000  0.46241000  0.84760000  1.0
  C  C70  1  0.88313000  0.53871000  0.28588000  1.0
  C  C71  1  0.11687000  0.46129000  0.71412000  1.0
  C  C72  1  0.69823000  0.68801000  0.33108000  1.0
  C  C73  1  0.30177000  0.31199000  0.66892000  1.0
  O  O74  1  0.31965000  0.10013000  0.27122000  1.0
  O  O75  1  0.68035000  0.89987000  0.72878000  1.0
  O  O76  1  0.57253000  0.70364000  0.24477000  1.0
  O  O77  1  0.42747000  0.29636000  0.75523000  1.0
