# generated using pymatgen
data_Zn2H27C36N9O2
_symmetry_space_group_name_H-M   'P 1'
_cell_length_a   14.61648872
_cell_length_b   14.76930000
_cell_length_c   14.97700000
_cell_angle_alpha   77.13800000
_cell_angle_beta   61.55866698
_cell_angle_gamma   60.93304218
_symmetry_Int_Tables_number   1
_chemical_formula_structural   Zn2H27C36N9O2
_chemical_formula_sum   'Zn4 H54 C72 N18 O4'
_cell_volume   2484.71549607
_cell_formula_units_Z   2
loop_
 _symmetry_equiv_pos_site_id
 _symmetry_equiv_pos_as_xyz
  1  'x, y, z'
loop_
 _atom_site_type_symbol
 _atom_site_label
 _atom_site_symmetry_multiplicity
 _atom_site_fract_x
 _atom_site_fract_y
 _atom_site_fract_z
 _atom_site_occupancy
  Zn  Zn0  1  0.01711000  0.86529000  0.62218000  1.0
  Zn  Zn1  1  0.97467000  0.12440000  0.38448000  1.0
  Zn  Zn2  1  0.15355000  0.00351000  0.49314000  1.0
  Zn  Zn3  1  0.84211000  0.98043000  0.51239000  1.0
  H  H4  1  0.08942000  0.79612000  0.81462000  1.0
  H  H5  1  0.17048000  0.98271000  0.17984000  1.0
  H  H6  1  0.77408000  0.31076000  0.31311000  1.0
  H  H7  1  0.16360000  0.66878000  0.47926000  1.0
  H  H8  1  0.03018000  0.16616000  0.66721000  1.0
  H  H9  1  0.77184000  0.79247000  0.53164000  1.0
  H  H10  1  0.61022000  0.13094000  0.70585000  1.0
  H  H11  1  0.37672000  0.04413000  0.31845000  1.0
  H  H12  1  0.78577000  0.31811000  0.53372000  1.0
  H  H13  1  0.97931000  0.65024000  0.70037000  1.0
  H  H14  1  0.85871000  0.98352000  0.83504000  1.0
  H  H15  1  0.14135000  0.20931000  0.17749000  1.0
  H  H16  1  0.58837000  0.12944000  0.49509000  1.0
  H  H17  1  0.37818000  0.82882000  0.30899000  1.0
  H  H18  1  0.25401000  0.99844000  0.65662000  1.0
  H  H19  1  0.98001000  0.80042000  0.34272000  1.0
  H  H20  1  0.19969000  0.92307000  0.02740000  1.0
  H  H21  1  0.16305000  0.77343000  0.94563000  1.0
  H  H22  1  0.11289000  0.75707000  0.13195000  1.0
  H  H23  1  0.23033000  0.95304000  0.85544000  1.0
  H  H24  1  0.89895000  0.60540000  0.90552000  1.0
  H  H25  1  0.05806000  0.58306000  0.20650000  1.0
  H  H26  1  0.73811000  0.68197000  0.85287000  1.0
  H  H27  1  0.22505000  0.49860000  0.25243000  1.0
  H  H28  1  0.60096000  0.86941000  0.88447000  1.0
  H  H29  1  0.38551000  0.32708000  0.17695000  1.0
  H  H30  1  0.92228000  0.71645000  0.98783000  1.0
  H  H31  1  0.05590000  0.49693000  0.08333000  1.0
  H  H32  1  0.33812000  0.50988000  0.41434000  1.0
  H  H33  1  0.60359000  0.42987000  0.28388000  1.0
  H  H34  1  0.49217000  0.61590000  0.26834000  1.0
  H  H35  1  0.45077000  0.32929000  0.44487000  1.0
  H  H36  1  0.50144000  0.92053000  0.48786000  1.0
  H  H37  1  0.15075000  0.12953000  0.90400000  1.0
  H  H38  1  0.59812000  0.74852000  0.72659000  1.0
  H  H39  1  0.13434000  0.34565000  0.65985000  1.0
  H  H40  1  0.76426000  0.60342000  0.43570000  1.0
  H  H41  1  0.83941000  0.28589000  0.85766000  1.0
  H  H42  1  0.63837000  0.76474000  0.37595000  1.0
  H  H43  1  0.94973000  0.16073000  0.95359000  1.0
  H  H44  1  0.72714000  0.46831000  0.59507000  1.0
  H  H45  1  0.95985000  0.51141000  0.71997000  1.0
  H  H46  1  0.76832000  0.99808000  0.01028000  1.0
  H  H47  1  0.72161000  0.92909000  0.12129000  1.0
  H  H48  1  0.87222000  0.88280000  0.03888000  1.0
  H  H49  1  0.23717000  0.23068000  0.00143000  1.0
  H  H50  1  0.12980000  0.35177000  0.98485000  1.0
  H  H51  1  0.28008000  0.31557000  0.90706000  1.0
  H  H52  1  0.51591000  0.98242000  0.66906000  1.0
  H  H53  1  0.39056000  0.99546000  0.66624000  1.0
  H  H54  1  0.43270000  0.92148000  0.76292000  1.0
  H  H55  1  0.31838000  0.15877000  0.79313000  1.0
  H  H56  1  0.33483000  0.19165000  0.66646000  1.0
  H  H57  1  0.28121000  0.28924000  0.75248000  1.0
  C  C58  1  0.12752000  0.84534000  0.76199000  1.0
  C  C59  1  0.11379000  0.94849000  0.23341000  1.0
  C  C60  1  0.74539000  0.25317000  0.35851000  1.0
  C  C61  1  0.20188000  0.72249000  0.44672000  1.0
  C  C62  1  0.97772000  0.18922000  0.62655000  1.0
  C  C63  1  0.82435000  0.77125000  0.57183000  1.0
  C  C64  1  0.68598000  0.08858000  0.72136000  1.0
  C  C65  1  0.30367000  0.08291000  0.29907000  1.0
  C  C66  1  0.85264000  0.26662000  0.55900000  1.0
  C  C67  1  0.93110000  0.69870000  0.65676000  1.0
  C  C68  1  0.81238000  0.01314000  0.78798000  1.0
  C  C69  1  0.18370000  0.16774000  0.22709000  1.0
  C  C70  1  0.65062000  0.16109000  0.45208000  1.0
  C  C71  1  0.31074000  0.80509000  0.36021000  1.0
  C  C72  1  0.21099000  0.94876000  0.68127000  1.0
  C  C73  1  0.01719000  0.85498000  0.31706000  1.0
  C  C74  1  0.18618000  0.89242000  0.77176000  1.0
  C  C75  1  0.09783000  0.86654000  0.21981000  1.0
  C  C76  1  0.63634000  0.25374000  0.39688000  1.0
  C  C77  1  0.31241000  0.70724000  0.36903000  1.0
  C  C78  1  0.88618000  0.28581000  0.62427000  1.0
  C  C79  1  0.86333000  0.68100000  0.62655000  1.0
  C  C80  1  0.69307000  0.07305000  0.81471000  1.0
  C  C81  1  0.30028000  0.12997000  0.20747000  1.0
  C  C82  1  0.74854000  0.73027000  0.88929000  1.0
  C  C83  1  0.22298000  0.46125000  0.19870000  1.0
  C  C84  1  0.67194000  0.83534000  0.90681000  1.0
  C  C85  1  0.31327000  0.36512000  0.15600000  1.0
  C  C86  1  0.68353000  0.89799000  0.95475000  1.0
  C  C87  1  0.31243000  0.31591000  0.08655000  1.0
  C  C88  1  0.77423000  0.85558000  0.98493000  1.0
  C  C89  1  0.21943000  0.36372000  0.05885000  1.0
  C  C90  1  0.85175000  0.75022000  0.96474000  1.0
  C  C91  1  0.12908000  0.46001000  0.10319000  1.0
  C  C92  1  0.83876000  0.68770000  0.91852000  1.0
  C  C93  1  0.13014000  0.50858000  0.17247000  1.0
  C  C94  1  0.49399000  0.02608000  0.07416000  1.0
  C  C95  1  0.50452000  0.19052000  0.95496000  1.0
  C  C96  1  0.40002000  0.12347000  0.11056000  1.0
  C  C97  1  0.59745000  0.09251000  0.91751000  1.0
  C  C98  1  0.40696000  0.20966000  0.04882000  1.0
  C  C99  1  0.59265000  0.00725000  0.98217000  1.0
  C  C100  1  0.53124000  0.33523000  0.39221000  1.0
  C  C101  1  0.41204000  0.61093000  0.32392000  1.0
  C  C102  1  0.52364000  0.42340000  0.33749000  1.0
  C  C103  1  0.41732000  0.51567000  0.35718000  1.0
  C  C104  1  0.20581000  0.89339000  0.85695000  1.0
  C  C105  1  0.13498000  0.81988000  0.12596000  1.0
  C  C106  1  0.53969000  0.84530000  0.61570000  1.0
  C  C107  1  0.15707000  0.23530000  0.77820000  1.0
  C  C108  1  0.60606000  0.75228000  0.64972000  1.0
  C  C109  1  0.09368000  0.30534000  0.72510000  1.0
  C  C110  1  0.68920000  0.66550000  0.58537000  1.0
  C  C111  1  0.97964000  0.32467000  0.75251000  1.0
  C  C112  1  0.69932000  0.67018000  0.48672000  1.0
  C  C113  1  0.92819000  0.27136000  0.83544000  1.0
  C  C114  1  0.63008000  0.76126000  0.45284000  1.0
  C  C115  1  0.99009000  0.20157000  0.88899000  1.0
  C  C116  1  0.55240000  0.84868000  0.51619000  1.0
  C  C117  1  0.10353000  0.18388000  0.86094000  1.0
  C  C118  1  0.77957000  0.47684000  0.62250000  1.0
  C  C119  1  0.90849000  0.50271000  0.69131000  1.0
  C  C120  1  0.85490000  0.38838000  0.65490000  1.0
  C  C121  1  0.84533000  0.58792000  0.64665000  1.0
  C  C122  1  0.91246000  0.40497000  0.69927000  1.0
  C  C123  1  0.77116000  0.57551000  0.61967000  1.0
  C  C124  1  0.18604000  0.83503000  0.94190000  1.0
  C  C125  1  0.17967000  0.85898000  0.03274000  1.0
  C  C126  1  0.78539000  0.91967000  0.04109000  1.0
  C  C127  1  0.21576000  0.31307000  0.98463000  1.0
  C  C128  1  0.46521000  0.94085000  0.68198000  1.0
  C  C129  1  0.27911000  0.21753000  0.74624000  1.0
  N  N130  1  0.11914000  0.87147000  0.67335000  1.0
  N  N131  1  0.04554000  0.98345000  0.32985000  1.0
  N  N132  1  0.81732000  0.16786000  0.38844000  1.0
  N  N133  1  0.14178000  0.82038000  0.48179000  1.0
  N  N134  1  0.99780000  0.12082000  0.56546000  1.0
  N  N135  1  0.86301000  0.83685000  0.57272000  1.0
  N  N136  1  0.79279000  0.03955000  0.64651000  1.0
  N  N137  1  0.19832000  0.09104000  0.36693000  1.0
  N  N138  1  0.92109000  0.16835000  0.52380000  1.0
  N  N139  1  0.92964000  0.79160000  0.62538000  1.0
  N  N140  1  0.87027000  0.99408000  0.68749000  1.0
  N  N141  1  0.12356000  0.14344000  0.32193000  1.0
  N  N142  1  0.75856000  0.11019000  0.44673000  1.0
  N  N143  1  0.20848000  0.87126000  0.42900000  1.0
  N  N144  1  0.17174000  0.93549000  0.62268000  1.0
  N  N145  1  0.98582000  0.92656000  0.38126000  1.0
  N  N146  1  0.48402000  0.93364000  0.13324000  1.0
  N  N147  1  0.51294000  0.28117000  0.89120000  1.0
  O  O148  1  0.42524000  0.90246000  0.12251000  1.0
  O  O149  1  0.53542000  0.89361000  0.18837000  1.0
  O  O150  1  0.47582000  0.30578000  0.82596000  1.0
  O  O151  1  0.55733000  0.32480000  0.90742000  1.0
