# generated using pymatgen
data_Zr3H19C44Br5(NO10)2
_symmetry_space_group_name_H-M   'P 1'
_cell_length_a   19.09590000
_cell_length_b   19.09568388
_cell_length_c   19.15030000
_cell_angle_alpha   60.20232115
_cell_angle_beta   60.20040000
_cell_angle_gamma   90.51898838
_symmetry_Int_Tables_number   1
_chemical_formula_structural   Zr3H19C44Br5(NO10)2
_chemical_formula_sum   'Zr6 H38 C88 Br10 N4 O40'
_cell_volume   4945.32129220
_cell_formula_units_Z   2
loop_
 _symmetry_equiv_pos_site_id
 _symmetry_equiv_pos_as_xyz
  1  'x, y, z'
loop_
 _atom_site_type_symbol
 _atom_site_label
 _atom_site_symmetry_multiplicity
 _atom_site_fract_x
 _atom_site_fract_y
 _atom_site_fract_z
 _atom_site_occupancy
  Zr  Zr0  1  0.58979000  0.58807000  0.50786000  1.0
  Zr  Zr1  1  0.41254000  0.41071000  0.49157000  1.0
  Zr  Zr2  1  0.59765000  0.59589000  0.31506000  1.0
  Zr  Zr3  1  0.40467000  0.40293000  0.68434000  1.0
  Zr  Zr4  1  0.40905000  0.59150000  0.49969000  1.0
  Zr  Zr5  1  0.59323000  0.40741000  0.49970000  1.0
  H  H6  1  0.57360000  0.71815000  0.36081000  1.0
  H  H7  1  0.28243000  0.42690000  0.63861000  1.0
  H  H8  1  0.57965000  0.43299000  0.34826000  1.0
  H  H9  1  0.56757000  0.42096000  0.65114000  1.0
  H  H10  1  0.42216000  0.06880000  0.44535000  1.0
  H  H11  1  0.62830000  0.97050000  0.46952000  1.0
  H  H12  1  0.37771000  0.79581000  0.54172000  1.0
  H  H13  1  0.37228000  0.92602000  0.54095000  1.0
  H  H14  1  0.58045000  0.16271000  0.54177000  1.0
  H  H15  1  0.58132000  0.02815000  0.55189000  1.0
  H  H16  1  0.02953000  0.37198000  0.53080000  1.0
  H  H17  1  0.93163000  0.57891000  0.55398000  1.0
  H  H18  1  0.83733000  0.41956000  0.45882000  1.0
  H  H19  1  0.97162000  0.41842000  0.44920000  1.0
  H  H20  1  0.20445000  0.62249000  0.45850000  1.0
  H  H21  1  0.07410000  0.62791000  0.45965000  1.0
  H  H22  1  0.96225000  0.39351000  0.15920000  1.0
  H  H23  1  0.04798000  0.61315000  0.83987000  1.0
  H  H24  1  0.18399000  0.39486000  0.92326000  1.0
  H  H25  1  0.05879000  0.39072000  0.05715000  1.0
  H  H26  1  0.82344000  0.60899000  0.07655000  1.0
  H  H27  1  0.94809000  0.61270000  0.94241000  1.0
  H  H28  1  0.38743000  0.95249000  0.15946000  1.0
  H  H29  1  0.60706000  0.03821000  0.84003000  1.0
  H  H30  1  0.39133000  0.17679000  0.92287000  1.0
  H  H31  1  0.38740000  0.05185000  0.05698000  1.0
  H  H32  1  0.60516000  0.81593000  0.07613000  1.0
  H  H33  1  0.60909000  0.94087000  0.94224000  1.0
  H  H34  1  0.17806000  0.17130000  0.70670000  1.0
  H  H35  1  0.18423000  0.18589000  0.91886000  1.0
  H  H36  1  0.82947000  0.82233000  0.29269000  1.0
  H  H37  1  0.81461000  0.81648000  0.08052000  1.0
  H  H38  1  0.61484000  0.61849000  0.92651000  1.0
  H  H39  1  0.38215000  0.38576000  0.07291000  1.0
  H  H40  1  0.59215000  0.60501000  0.71611000  1.0
  H  H41  1  0.60331000  0.61743000  0.83189000  1.0
  H  H42  1  0.39553000  0.40833000  0.28330000  1.0
  H  H43  1  0.38317000  0.39723000  0.16743000  1.0
  C  C44  1  0.49914000  0.72822000  0.51191000  1.0
  C  C45  1  0.27226000  0.50122000  0.48769000  1.0
  C  C46  1  0.50024000  0.26736000  0.49397000  1.0
  C  C47  1  0.73311000  0.50046000  0.50556000  1.0
  C  C48  1  0.73945000  0.73333000  0.27209000  1.0
  C  C49  1  0.48571000  0.49070000  0.74617000  1.0
  C  C50  1  0.26725000  0.26112000  0.72731000  1.0
  C  C51  1  0.50982000  0.51472000  0.25332000  1.0
  C  C52  1  0.50027000  0.73571000  0.26784000  1.0
  C  C53  1  0.74357000  0.50447000  0.26812000  1.0
  C  C54  1  0.49617000  0.25705000  0.73126000  1.0
  C  C55  1  0.26473000  0.50023000  0.73154000  1.0
  C  C56  1  0.49909000  0.19017000  0.49215000  1.0
  C  C57  1  0.50331000  0.80732000  0.50987000  1.0
  C  C58  1  0.45413000  0.16210000  0.46540000  1.0
  C  C59  1  0.45557000  0.08742000  0.46910000  1.0
  C  C60  1  0.57342000  0.85723000  0.49120000  1.0
  C  C61  1  0.57187000  0.93180000  0.48772000  1.0
  C  C62  1  0.43200000  0.83494000  0.52655000  1.0
  C  C63  1  0.42965000  0.90818000  0.52499000  1.0
  C  C64  1  0.54569000  0.14069000  0.52132000  1.0
  C  C65  1  0.54649000  0.06592000  0.52610000  1.0
  C  C66  1  0.50081000  0.03778000  0.50029000  1.0
  C  C67  1  0.50037000  0.95845000  0.50465000  1.0
  C  C68  1  0.19297000  0.49696000  0.49010000  1.0
  C  C69  1  0.81020000  0.50155000  0.50755000  1.0
  C  C70  1  0.14293000  0.42684000  0.50890000  1.0
  C  C71  1  0.06824000  0.42838000  0.51265000  1.0
  C  C72  1  0.83838000  0.54680000  0.53397000  1.0
  C  C73  1  0.91292000  0.54519000  0.53057000  1.0
  C  C74  1  0.85945000  0.45455000  0.47900000  1.0
  C  C75  1  0.93407000  0.45360000  0.47450000  1.0
  C  C76  1  0.16528000  0.56821000  0.47369000  1.0
  C  C77  1  0.09192000  0.57054000  0.47550000  1.0
  C  C78  1  0.04158000  0.49986000  0.49585000  1.0
  C  C79  1  0.96235000  0.49953000  0.50001000  1.0
  C  C80  1  0.82132000  0.50125000  0.19330000  1.0
  C  C81  1  0.18810000  0.50457000  0.80616000  1.0
  C  C82  1  0.86260000  0.44064000  0.21416000  1.0
  C  C83  1  0.93332000  0.44197000  0.13847000  1.0
  C  C84  1  0.14757000  0.56592000  0.78505000  1.0
  C  C85  1  0.07646000  0.56427000  0.86070000  1.0
  C  C86  1  0.15302000  0.44243000  0.90631000  1.0
  C  C87  1  0.08232000  0.44079000  0.98150000  1.0
  C  C88  1  0.85534000  0.56232000  0.09323000  1.0
  C  C89  1  0.92567000  0.56369000  0.01795000  1.0
  C  C90  1  0.96671000  0.50296000  0.03888000  1.0
  C  C91  1  0.04210000  0.50231000  0.96038000  1.0
  C  C92  1  0.49581000  0.81219000  0.19318000  1.0
  C  C93  1  0.49932000  0.17918000  0.80606000  1.0
  C  C94  1  0.43461000  0.85288000  0.21427000  1.0
  C  C95  1  0.43618000  0.92389000  0.13862000  1.0
  C  C96  1  0.55994000  0.13791000  0.78515000  1.0
  C  C97  1  0.55855000  0.06707000  0.86081000  1.0
  C  C98  1  0.43808000  0.14496000  0.90615000  1.0
  C  C99  1  0.43658000  0.07447000  0.98140000  1.0
  C  C100  1  0.55768000  0.84699000  0.09306000  1.0
  C  C101  1  0.55922000  0.91758000  0.01786000  1.0
  C  C102  1  0.49792000  0.95803000  0.03896000  1.0
  C  C103  1  0.49739000  0.03350000  0.96042000  1.0
  C  C104  1  0.14855000  0.14443000  0.78406000  1.0
  C  C105  1  0.07374000  0.07190000  0.85963000  1.0
  C  C106  1  0.02931000  0.03026000  0.84078000  1.0
  C  C107  1  0.15211000  0.15226000  0.90500000  1.0
  C  C108  1  0.07728000  0.08048000  0.98226000  1.0
  C  C109  1  0.03925000  0.04538000  0.08398000  1.0
  C  C110  1  0.85624000  0.85195000  0.21534000  1.0
  C  C111  1  0.92875000  0.92677000  0.13978000  1.0
  C  C112  1  0.97042000  0.97115000  0.15864000  1.0
  C  C113  1  0.84826000  0.84857000  0.09439000  1.0
  C  C114  1  0.92004000  0.92340000  0.01715000  1.0
  C  C115  1  0.95508000  0.96143000  0.91546000  1.0
  C  C116  1  0.18731000  0.18340000  0.80724000  1.0
  C  C117  1  0.03717000  0.03805000  0.96075000  1.0
  C  C118  1  0.81718000  0.81329000  0.19215000  1.0
  C  C119  1  0.96256000  0.96344000  0.03865000  1.0
  C  C120  1  0.51013000  0.51779000  0.17368000  1.0
  C  C121  1  0.48268000  0.49042000  0.82578000  1.0
  C  C122  1  0.57135000  0.57717000  0.07128000  1.0
  C  C123  1  0.56532000  0.57131000  0.00457000  1.0
  C  C124  1  0.42338000  0.42919000  0.92820000  1.0
  C  C125  1  0.42929000  0.43526000  0.99486000  1.0
  C  C126  1  0.54648000  0.55743000  0.79517000  1.0
  C  C127  1  0.55227000  0.56373000  0.86116000  1.0
  C  C128  1  0.44314000  0.45400000  0.20423000  1.0
  C  C129  1  0.43685000  0.44827000  0.13821000  1.0
  C  C130  1  0.49843000  0.50706000  0.03590000  1.0
  C  C131  1  0.49353000  0.50217000  0.96349000  1.0
  Br  Br132  1  0.39175000  0.22218000  0.41765000  1.0
  Br  Br133  1  0.67702000  0.83308000  0.46613000  1.0
  Br  Br134  1  0.16712000  0.32331000  0.53364000  1.0
  Br  Br135  1  0.77873000  0.60991000  0.58074000  1.0
  Br  Br136  1  0.82978000  0.35171000  0.34314000  1.0
  Br  Br137  1  0.18149000  0.65590000  0.65588000  1.0
  Br  Br138  1  0.34515000  0.81948000  0.34337000  1.0
  Br  Br139  1  0.64886000  0.17077000  0.65614000  1.0
  Br  Br140  1  0.66696000  0.66997000  0.01208000  1.0
  Br  Br141  1  0.33068000  0.33348000  0.98746000  1.0
  N  N142  1  0.90939000  0.92302000  0.89233000  1.0
  N  N143  1  0.06382000  0.06544000  0.73714000  1.0
  N  N144  1  0.93508000  0.93661000  0.26232000  1.0
  N  N145  1  0.07745000  0.09109000  0.10725000  1.0
  O  O146  1  0.55563000  0.69414000  0.51512000  1.0
  O  O147  1  0.30635000  0.44477000  0.48439000  1.0
  O  O148  1  0.44179000  0.29933000  0.49398000  1.0
  O  O149  1  0.70111000  0.55890000  0.50551000  1.0
  O  O150  1  0.70964000  0.70387000  0.24158000  1.0
  O  O151  1  0.42880000  0.43150000  0.77034000  1.0
  O  O152  1  0.29676000  0.29092000  0.75780000  1.0
  O  O153  1  0.56899000  0.57163000  0.22917000  1.0
  O  O154  1  0.44135000  0.70173000  0.35854000  1.0
  O  O155  1  0.70895000  0.44487000  0.35871000  1.0
  O  O156  1  0.55589000  0.29177000  0.64069000  1.0
  O  O157  1  0.29876000  0.55919000  0.64083000  1.0
  O  O158  1  0.71571000  0.56543000  0.23662000  1.0
  O  O159  1  0.43517000  0.28486000  0.76275000  1.0
  O  O160  1  0.29092000  0.43774000  0.76300000  1.0
  O  O161  1  0.56283000  0.70957000  0.23640000  1.0
  O  O162  1  0.70942000  0.70300000  0.36100000  1.0
  O  O163  1  0.44981000  0.45328000  0.34181000  1.0
  O  O164  1  0.29757000  0.29114000  0.63841000  1.0
  O  O165  1  0.54712000  0.55075000  0.65768000  1.0
  O  O166  1  0.70469000  0.44139000  0.50331000  1.0
  O  O167  1  0.44022000  0.70045000  0.50907000  1.0
  O  O168  1  0.30012000  0.56023000  0.49037000  1.0
  O  O169  1  0.55930000  0.29583000  0.49621000  1.0
  O  O170  1  0.54834000  0.44294000  0.60845000  1.0
  O  O171  1  0.55767000  0.45219000  0.39097000  1.0
  O  O172  1  0.34456000  0.44620000  0.59953000  1.0
  O  O173  1  0.55434000  0.65602000  0.39988000  1.0
  O  O174  1  0.46650000  0.54097000  0.41983000  1.0
  O  O175  1  0.45958000  0.53409000  0.57954000  1.0
  O  O176  1  0.46221000  0.38448000  0.57306000  1.0
  O  O177  1  0.61608000  0.53841000  0.42634000  1.0
  O  O178  1  0.83433000  0.92073000  0.92524000  1.0
  O  O179  1  0.94929000  0.89519000  0.84359000  1.0
  O  O180  1  0.13682000  0.06630000  0.68634000  1.0
  O  O181  1  0.01740000  0.09225000  0.70975000  1.0
  O  O182  1  0.93460000  0.86378000  0.31301000  1.0
  O  O183  1  0.90771000  0.98279000  0.28989000  1.0
  O  O184  1  0.08009000  0.16628000  0.07389000  1.0
  O  O185  1  0.10469000  0.05105000  0.15667000  1.0
