# generated using pymatgen
data_ZnH10C13NO6
_symmetry_space_group_name_H-M   'P 1'
_cell_length_a   7.71946000
_cell_length_b   8.93375000
_cell_length_c   9.88335000
_cell_angle_alpha   105.45200000
_cell_angle_beta   95.99670000
_cell_angle_gamma   108.91000000
_symmetry_Int_Tables_number   1
_chemical_formula_structural   ZnH10C13NO6
_chemical_formula_sum   'Zn2 H20 C26 N2 O12'
_cell_volume   607.73818746
_cell_formula_units_Z   2
loop_
 _symmetry_equiv_pos_site_id
 _symmetry_equiv_pos_as_xyz
  1  'x, y, z'
loop_
 _atom_site_type_symbol
 _atom_site_label
 _atom_site_symmetry_multiplicity
 _atom_site_fract_x
 _atom_site_fract_y
 _atom_site_fract_z
 _atom_site_occupancy
  Zn  Zn0  1  0.94740000  0.68685000  0.03963000  1.0
  Zn  Zn1  1  0.05260000  0.31315000  0.96037000  1.0
  H  H2  1  0.81505000  0.85167000  0.23663000  1.0
  H  H3  1  0.18494000  0.14834000  0.76337000  1.0
  H  H4  1  0.95348000  0.83281000  0.79971000  1.0
  H  H5  1  0.04651000  0.16719000  0.20029000  1.0
  H  H6  1  0.51300000  0.24672000  0.06314000  1.0
  H  H7  1  0.48701000  0.75331000  0.93688000  1.0
  H  H8  1  0.93519000  0.38969000  0.44381000  1.0
  H  H9  1  0.06481000  0.61032000  0.55621000  1.0
  H  H10  1  0.75318000  0.76147000  0.56102000  1.0
  H  H11  1  0.24682000  0.23851000  0.43897000  1.0
  H  H12  1  0.45590000  0.93544000  0.33564000  1.0
  H  H13  1  0.54410000  0.06456000  0.66436000  1.0
  H  H14  1  0.42365000  0.29745000  0.62090000  1.0
  H  H15  1  0.57635000  0.70252000  0.37908000  1.0
  H  H16  1  0.76549000  0.88897000  0.08863000  1.0
  H  H17  1  0.23452000  0.11103000  0.91137000  1.0
  H  H18  1  0.88818000  0.20863000  0.57661000  1.0
  H  H19  1  0.11182000  0.79138000  0.42339000  1.0
  H  H20  1  0.63938000  0.38852000  0.85493000  1.0
  H  H21  1  0.36063000  0.61146000  0.14506000  1.0
  C  C22  1  0.27693000  0.96074000  0.10164000  1.0
  C  C23  1  0.72308000  0.03928000  0.89835000  1.0
  C  C24  1  0.56605000  0.22110000  0.15749000  1.0
  C  C25  1  0.43395000  0.77891000  0.84251000  1.0
  C  C26  1  0.71986000  0.67385000  0.62119000  1.0
  C  C27  1  0.28014000  0.32613000  0.37880000  1.0
  C  C28  1  0.70968000  0.15440000  0.39917000  1.0
  C  C29  1  0.29033000  0.84559000  0.60082000  1.0
  C  C30  1  0.53780000  0.04442000  0.30953000  1.0
  C  C31  1  0.46220000  0.95558000  0.69046000  1.0
  C  C32  1  0.46566000  0.07807000  0.18978000  1.0
  C  C33  1  0.53434000  0.92194000  0.81022000  1.0
  C  C34  1  0.56506000  0.52291000  0.56897000  1.0
  C  C35  1  0.43494000  0.47707000  0.43102000  1.0
  C  C36  1  0.84096000  0.49315000  0.22404000  1.0
  C  C37  1  0.15903000  0.50686000  0.77597000  1.0
  C  C38  1  0.73381000  0.33452000  0.25072000  1.0
  C  C39  1  0.26620000  0.66549000  0.74929000  1.0
  C  C40  1  0.80406000  0.30239000  0.37171000  1.0
  C  C41  1  0.19594000  0.69761000  0.62829000  1.0
  C  C42  1  0.83387000  0.71576000  0.75412000  1.0
  C  C43  1  0.16612000  0.28423000  0.24587000  1.0
  C  C44  1  0.53837000  0.41773000  0.65450000  1.0
  C  C45  1  0.46163000  0.58225000  0.34550000  1.0
  C  C46  1  0.65787000  0.46720000  0.78621000  1.0
  C  C47  1  0.34213000  0.53279000  0.21379000  1.0
  N  N48  1  0.80271000  0.61548000  0.83652000  1.0
  N  N49  1  0.19728000  0.38451000  0.16348000  1.0
  O  O50  1  0.84968000  0.47986000  0.09136000  1.0
  O  O51  1  0.15032000  0.52016000  0.90866000  1.0
  O  O52  1  0.20156000  0.98105000  0.99173000  1.0
  O  O53  1  0.79844000  0.01895000  0.00827000  1.0
  O  O54  1  0.19462000  0.83894000  0.14749000  1.0
  O  O55  1  0.80538000  0.16107000  0.85252000  1.0
  O  O56  1  0.91394000  0.62653000  0.32785000  1.0
  O  O57  1  0.08604000  0.37349000  0.67216000  1.0
  O  O58  1  0.77734000  0.11313000  0.51105000  1.0
  O  O59  1  0.22267000  0.88687000  0.48895000  1.0
  O  O60  1  0.76863000  0.79913000  0.13353000  1.0
  O  O61  1  0.23136000  0.20088000  0.86647000  1.0
