# generated using pymatgen
data_CoP2H46(C28O3)2
_symmetry_space_group_name_H-M   'P 1'
_cell_length_a   9.46370000
_cell_length_b   10.92230000
_cell_length_c   11.31010000
_cell_angle_alpha   86.98190000
_cell_angle_beta   88.69190000
_cell_angle_gamma   70.72370000
_symmetry_Int_Tables_number   1
_chemical_formula_structural   CoP2H46(C28O3)2
_chemical_formula_sum   'Co1 P2 H46 C56 O6'
_cell_volume   1101.98258880
_cell_formula_units_Z   1
loop_
 _symmetry_equiv_pos_site_id
 _symmetry_equiv_pos_as_xyz
  1  'x, y, z'
loop_
 _atom_site_type_symbol
 _atom_site_label
 _atom_site_symmetry_multiplicity
 _atom_site_fract_x
 _atom_site_fract_y
 _atom_site_fract_z
 _atom_site_occupancy
  Co  Co0  1  0.50000000  0.50000000  0.50000000  1.0
  P  P1  1  0.83547000  0.52833000  0.64385000  1.0
  P  P2  1  0.16454000  0.47167000  0.35615000  1.0
  H  H3  1  0.42660000  0.21147000  0.73019000  1.0
  H  H4  1  0.57340000  0.78853000  0.26982000  1.0
  H  H5  1  0.43941000  0.05818000  0.90363000  1.0
  H  H6  1  0.56059000  0.94182000  0.09637000  1.0
  H  H7  1  0.42033000  0.13729000  0.10929000  1.0
  H  H8  1  0.57967000  0.86271000  0.89071000  1.0
  H  H9  1  0.38973000  0.36823000  0.13836000  1.0
  H  H10  1  0.61028000  0.63178000  0.86164000  1.0
  H  H11  1  0.37007000  0.52086000  0.96658000  1.0
  H  H12  1  0.62993000  0.47914000  0.03342000  1.0
  H  H13  1  0.26671000  0.63361000  0.82233000  1.0
  H  H14  1  0.73331000  0.36639000  0.17767000  1.0
  H  H15  1  0.29968000  0.80973000  0.86179000  1.0
  H  H16  1  0.70032000  0.19028000  0.13821000  1.0
  H  H17  1  0.18128000  0.04402000  0.89676000  1.0
  H  H18  1  0.81873000  0.95599000  0.10324000  1.0
  H  H19  1  0.07792000  0.20099000  0.72910000  1.0
  H  H20  1  0.92208000  0.79901000  0.27091000  1.0
  H  H21  1  0.09170000  0.12259000  0.52342000  1.0
  H  H22  1  0.90829000  0.87741000  0.47660000  1.0
  H  H23  1  0.20825000  0.88710000  0.48947000  1.0
  H  H24  1  0.79175000  0.11290000  0.51053000  1.0
  H  H25  1  0.05689000  0.48397000  0.84187000  1.0
  H  H26  1  0.94311000  0.51602000  0.15814000  1.0
  H  H27  1  0.10712000  0.33010000  0.01534000  1.0
  H  H28  1  0.89288000  0.66989000  0.98466000  1.0
  H  H29  1  0.95153000  0.18785000  0.05466000  1.0
  H  H30  1  0.04846000  0.81215000  0.94534000  1.0
  H  H31  1  0.74289000  0.20079000  0.91821000  1.0
  H  H32  1  0.25711000  0.79922000  0.08178000  1.0
  H  H33  1  0.69447000  0.35376000  0.74054000  1.0
  H  H34  1  0.30554000  0.64624000  0.25945000  1.0
  H  H35  1  0.57890000  0.74515000  0.59174000  1.0
  H  H36  1  0.42110000  0.25484000  0.40826000  1.0
  H  H37  1  0.50752000  0.98180000  0.62252000  1.0
  H  H38  1  0.49246000  0.01820000  0.37747000  1.0
  H  H39  1  0.69035000  0.07015000  0.71211000  1.0
  H  H40  1  0.30962000  0.92986000  0.28788000  1.0
  H  H41  1  0.94348000  0.92183000  0.76846000  1.0
  H  H42  1  0.05650000  0.07819000  0.23153000  1.0
  H  H43  1  0.01307000  0.68569000  0.74336000  1.0
  H  H44  1  0.98693000  0.31433000  0.25664000  1.0
  H  H45  1  0.09780000  0.50493000  0.60648000  1.0
  H  H46  1  0.90220000  0.49508000  0.39352000  1.0
  H  H47  1  0.05097000  0.36702000  0.56990000  1.0
  H  H48  1  0.94904000  0.63299000  0.43009000  1.0
  C  C49  1  0.39601000  0.46517000  0.73187000  1.0
  C  C50  1  0.60400000  0.53482000  0.26813000  1.0
  C  C51  1  0.39640000  0.37631000  0.83608000  1.0
  C  C52  1  0.60360000  0.62369000  0.16391000  1.0
  C  C53  1  0.41774000  0.24477000  0.82010000  1.0
  C  C54  1  0.58225000  0.75523000  0.17990000  1.0
  C  C55  1  0.42590000  0.15928000  0.91760000  1.0
  C  C56  1  0.57409000  0.84072000  0.08240000  1.0
  C  C57  1  0.41509000  0.20318000  0.03253000  1.0
  C  C58  1  0.58491000  0.79682000  0.96747000  1.0
  C  C59  1  0.39533000  0.33361000  0.04923000  1.0
  C  C60  1  0.60467000  0.66639000  0.95077000  1.0
  C  C61  1  0.38413000  0.41982000  0.95192000  1.0
  C  C62  1  0.61586000  0.58018000  0.04808000  1.0
  C  C63  1  0.32599000  0.59947000  0.74071000  1.0
  C  C64  1  0.67403000  0.40053000  0.25930000  1.0
  C  C65  1  0.32887000  0.69274000  0.65110000  1.0
  C  C66  1  0.67114000  0.30726000  0.34891000  1.0
  C  C67  1  0.25778000  0.83262000  0.67333000  1.0
  C  C68  1  0.74223000  0.16738000  0.32668000  1.0
  C  C69  1  0.25033000  0.87777000  0.78819000  1.0
  C  C70  1  0.74968000  0.12223000  0.21181000  1.0
  C  C71  1  0.18568000  0.00953000  0.80762000  1.0
  C  C72  1  0.81432000  0.99047000  0.19238000  1.0
  C  C73  1  0.12812000  0.09822000  0.71276000  1.0
  C  C74  1  0.87188000  0.90178000  0.28724000  1.0
  C  C75  1  0.13613000  0.05427000  0.59813000  1.0
  C  C76  1  0.86387000  0.94573000  0.40188000  1.0
  C  C77  1  0.20098000  0.92241000  0.57845000  1.0
  C  C78  1  0.79902000  0.07759000  0.42155000  1.0
  C  C79  1  0.86982000  0.43035000  0.78119000  1.0
  C  C80  1  0.13019000  0.56965000  0.21881000  1.0
  C  C81  1  0.98647000  0.42342000  0.85827000  1.0
  C  C82  1  0.01354000  0.57658000  0.14173000  1.0
  C  C83  1  0.01517000  0.33638000  0.95657000  1.0
  C  C84  1  0.98483000  0.66362000  0.04343000  1.0
  C  C85  1  0.92769000  0.25650000  0.97830000  1.0
  C  C86  1  0.07231000  0.74350000  0.02170000  1.0
  C  C87  1  0.81124000  0.26327000  0.90176000  1.0
  C  C88  1  0.18876000  0.73673000  0.09823000  1.0
  C  C89  1  0.78242000  0.34956000  0.80282000  1.0
  C  C90  1  0.21759000  0.65044000  0.19717000  1.0
  C  C91  1  0.79770000  0.69914000  0.66945000  1.0
  C  C92  1  0.20230000  0.30086000  0.33054000  1.0
  C  C93  1  0.65655000  0.78404000  0.63371000  1.0
  C  C94  1  0.34345000  0.21596000  0.36629000  1.0
  C  C95  1  0.61777000  0.91694000  0.65010000  1.0
  C  C96  1  0.38222000  0.08306000  0.34989000  1.0
  C  C97  1  0.72009000  0.96618000  0.70035000  1.0
  C  C98  1  0.27990000  0.03382000  0.29964000  1.0
  C  C99  1  0.86200000  0.88248000  0.73326000  1.0
  C  C100  1  0.13799000  0.11753000  0.26673000  1.0
  C  C101  1  0.90105000  0.74919000  0.71853000  1.0
  C  C102  1  0.09895000  0.25082000  0.28147000  1.0
  C  C103  1  0.01241000  0.47389000  0.56428000  1.0
  C  C104  1  0.98760000  0.52612000  0.43572000  1.0
  O  O105  1  0.46595000  0.41026000  0.63946000  1.0
  O  O106  1  0.53406000  0.58974000  0.36054000  1.0
  O  O107  1  0.39152000  0.66762000  0.54884000  1.0
  O  O108  1  0.60848000  0.33238000  0.45116000  1.0
  O  O109  1  0.71159000  0.50887000  0.57552000  1.0
  O  O110  1  0.28842000  0.49113000  0.42447000  1.0
