# generated using pymatgen
data_CuH16C18(NO2)2
_symmetry_space_group_name_H-M   'P 1'
_cell_length_a   7.70720000
_cell_length_b   15.69230000
_cell_length_c   15.69597169
_cell_angle_alpha   117.33653164
_cell_angle_beta   99.45630553
_cell_angle_gamma   99.39710000
_symmetry_Int_Tables_number   1
_chemical_formula_structural   CuH16C18(NO2)2
_chemical_formula_sum   'Cu3 H48 C54 N6 O12'
_cell_volume   1600.49629990
_cell_formula_units_Z   3
loop_
 _symmetry_equiv_pos_site_id
 _symmetry_equiv_pos_as_xyz
  1  'x, y, z'
loop_
 _atom_site_type_symbol
 _atom_site_label
 _atom_site_symmetry_multiplicity
 _atom_site_fract_x
 _atom_site_fract_y
 _atom_site_fract_z
 _atom_site_occupancy
  Cu  Cu0  1  0.50000000  0.00000000  0.50000000  1.0
  Cu  Cu1  1  0.50000000  0.50000000  0.00000000  1.0
  Cu  Cu2  1  0.00000000  0.50000000  0.50000000  1.0
  H  H3  1  0.89036000  0.05122000  0.32727000  1.0
  H  H4  1  0.77083000  0.11994000  0.28621000  1.0
  H  H5  1  0.68789000  0.98730000  0.22787000  1.0
  H  H6  1  0.59646000  0.19972000  0.38200000  1.0
  H  H7  1  0.55027000  0.33560000  0.45559000  1.0
  H  H8  1  0.12871000  0.17361000  0.51972000  1.0
  H  H9  1  0.95929000  0.30155000  0.53421000  1.0
  H  H10  1  0.36015000  0.45222000  0.46946000  1.0
  H  H11  1  0.10964000  0.94877000  0.67273000  1.0
  H  H12  1  0.22916000  0.88006000  0.71379000  1.0
  H  H13  1  0.31210000  0.01270000  0.77213000  1.0
  H  H14  1  0.40353000  0.80028000  0.61800000  1.0
  H  H15  1  0.44974000  0.66440000  0.54441000  1.0
  H  H16  1  0.87129000  0.82639000  0.48028000  1.0
  H  H17  1  0.04071000  0.69845000  0.46579000  1.0
  H  H18  1  0.63985000  0.54778000  0.53054000  1.0
  H  H19  1  0.83947000  0.27594000  0.94883000  1.0
  H  H20  1  0.65116000  0.16634000  0.88011000  1.0
  H  H21  1  0.70085000  0.24050000  0.01273000  1.0
  H  H22  1  0.39719000  0.18251000  0.80034000  1.0
  H  H23  1  0.21499000  0.12026000  0.66472000  1.0
  H  H24  1  0.95475000  0.34610000  0.82647000  1.0
  H  H25  1  0.65760000  0.23266000  0.69848000  1.0
  H  H26  1  0.90847000  0.01750000  0.54804000  1.0
  H  H27  1  0.16053000  0.72406000  0.05117000  1.0
  H  H28  1  0.34883000  0.83366000  0.11989000  1.0
  H  H29  1  0.29915000  0.75951000  0.98728000  1.0
  H  H30  1  0.60281000  0.81749000  0.19966000  1.0
  H  H31  1  0.78502000  0.87974000  0.33528000  1.0
  H  H32  1  0.04525000  0.65390000  0.17353000  1.0
  H  H33  1  0.34240000  0.76734000  0.30152000  1.0
  H  H34  1  0.09153000  0.98250000  0.45196000  1.0
  H  H35  1  0.56321000  0.67277000  0.72409000  1.0
  H  H36  1  0.48461000  0.71367000  0.83371000  1.0
  H  H37  1  0.45991000  0.77208000  0.75941000  1.0
  H  H38  1  0.21458000  0.61771000  0.81756000  1.0
  H  H39  1  0.09450000  0.54430000  0.87992000  1.0
  H  H40  1  0.60885000  0.48017000  0.65358000  1.0
  H  H41  1  0.42479000  0.46573000  0.76689000  1.0
  H  H42  1  0.89035000  0.53031000  0.98244000  1.0
  H  H43  1  0.43679000  0.32723000  0.27591000  1.0
  H  H44  1  0.51539000  0.28633000  0.16629000  1.0
  H  H45  1  0.54009000  0.22793000  0.24059000  1.0
  H  H46  1  0.78542000  0.38229000  0.18244000  1.0
  H  H47  1  0.90550000  0.45570000  0.12008000  1.0
  H  H48  1  0.39115000  0.51983000  0.34642000  1.0
  H  H49  1  0.57520000  0.53426000  0.23310000  1.0
  H  H50  1  0.10963000  0.46968000  0.01755000  1.0
  C  C51  1  0.75449000  0.05657000  0.29928000  1.0
  C  C52  1  0.64272000  0.06570000  0.37232000  1.0
  C  C53  1  0.56741000  0.14742000  0.40850000  1.0
  C  C54  1  0.44463000  0.16140000  0.46771000  1.0
  C  C55  1  0.35060000  0.24150000  0.48325000  1.0
  C  C56  1  0.41869000  0.32255000  0.47114000  1.0
  C  C57  1  0.18422000  0.23455000  0.50810000  1.0
  C  C58  1  0.09052000  0.30549000  0.51627000  1.0
  C  C59  1  0.31453000  0.38923000  0.48030000  1.0
  C  C60  1  0.24551000  0.94343000  0.70072000  1.0
  C  C61  1  0.35728000  0.93430000  0.62768000  1.0
  C  C62  1  0.43259000  0.85257000  0.59150000  1.0
  C  C63  1  0.55536000  0.83860000  0.53229000  1.0
  C  C64  1  0.64940000  0.75850000  0.51675000  1.0
  C  C65  1  0.58131000  0.67745000  0.52886000  1.0
  C  C66  1  0.81579000  0.76546000  0.49191000  1.0
  C  C67  1  0.90948000  0.69451000  0.48373000  1.0
  C  C68  1  0.68547000  0.61077000  0.51970000  1.0
  C  C69  1  0.69827000  0.24271000  0.94347000  1.0
  C  C70  1  0.57739000  0.30670000  0.93433000  1.0
  C  C71  1  0.42030000  0.26125000  0.85263000  1.0
  C  C72  1  0.28325000  0.30645000  0.83873000  1.0
  C  C73  1  0.10911000  0.24190000  0.75866000  1.0
  C  C74  1  0.09634000  0.14878000  0.67769000  1.0
  C  C75  1  0.94950000  0.27361000  0.76558000  1.0
  C  C76  1  0.78498000  0.21081000  0.69459000  1.0
  C  C77  1  0.92562000  0.09127000  0.61099000  1.0
  C  C78  1  0.30173000  0.75729000  0.05653000  1.0
  C  C79  1  0.42261000  0.69330000  0.06567000  1.0
  C  C80  1  0.57970000  0.73875000  0.14737000  1.0
  C  C81  1  0.71675000  0.69355000  0.16127000  1.0
  C  C82  1  0.89089000  0.75810000  0.24134000  1.0
  C  C83  1  0.90366000  0.85122000  0.32231000  1.0
  C  C84  1  0.05050000  0.72639000  0.23442000  1.0
  C  C85  1  0.21502000  0.78919000  0.30541000  1.0
  C  C86  1  0.07438000  0.90873000  0.38901000  1.0
  C  C87  1  0.45524000  0.70065000  0.75732000  1.0
  C  C88  1  0.27053000  0.62754000  0.69334000  1.0
  C  C89  1  0.15901000  0.59124000  0.73879000  1.0
  C  C90  1  0.97694000  0.53209000  0.69356000  1.0
  C  C91  1  0.86724000  0.51663000  0.75806000  1.0
  C  C92  1  0.94736000  0.52873000  0.85123000  1.0
  C  C93  1  0.67596000  0.49179000  0.72614000  1.0
  C  C94  1  0.57399000  0.48362000  0.78884000  1.0
  C  C95  1  0.83393000  0.51949000  0.90862000  1.0
  C  C96  1  0.54475000  0.29935000  0.24268000  1.0
  C  C97  1  0.72947000  0.37246000  0.30666000  1.0
  C  C98  1  0.84099000  0.40876000  0.26121000  1.0
  C  C99  1  0.02306000  0.46791000  0.30644000  1.0
  C  C100  1  0.13277000  0.48337000  0.24194000  1.0
  C  C101  1  0.05264000  0.47127000  0.14877000  1.0
  C  C102  1  0.32404000  0.50821000  0.27386000  1.0
  C  C103  1  0.42601000  0.51638000  0.21116000  1.0
  C  C104  1  0.16607000  0.48051000  0.09138000  1.0
  N  N105  1  0.15300000  0.38113000  0.50144000  1.0
  N  N106  1  0.84700000  0.61887000  0.49856000  1.0
  N  N107  1  0.77203000  0.12043000  0.61899000  1.0
  N  N108  1  0.22797000  0.87957000  0.38101000  1.0
  N  N109  1  0.65121000  0.49837000  0.87930000  1.0
  N  N110  1  0.34879000  0.50163000  0.12070000  1.0
  O  O111  1  0.39661000  0.10875000  0.50699000  1.0
  O  O112  1  0.62144000  0.99595000  0.39368000  1.0
  O  O113  1  0.60339000  0.89125000  0.49301000  1.0
  O  O114  1  0.37856000  0.00405000  0.60632000  1.0
  O  O115  1  0.28765000  0.39829000  0.89148000  1.0
  O  O116  1  0.62590000  0.39776000  0.00403000  1.0
  O  O117  1  0.71235000  0.60171000  0.10852000  1.0
  O  O118  1  0.37410000  0.60224000  0.99597000  1.0
  O  O119  1  0.88963000  0.49287000  0.60165000  1.0
  O  O120  1  0.22798000  0.60628000  0.60229000  1.0
  O  O121  1  0.11037000  0.50713000  0.39835000  1.0
  O  O122  1  0.77202000  0.39372000  0.39771000  1.0
