# generated using pymatgen
data_NaSm2PH14C11NO18
_symmetry_space_group_name_H-M   'P 1'
_cell_length_a   9.75708000
_cell_length_b   10.47310000
_cell_length_c   11.60300000
_cell_angle_alpha   78.13600000
_cell_angle_beta   73.99300000
_cell_angle_gamma   87.71440000
_symmetry_Int_Tables_number   1
_chemical_formula_structural   NaSm2PH14C11NO18
_chemical_formula_sum   'Na2 Sm4 P2 H28 C22 N2 O36'
_cell_volume   1115.17928665
_cell_formula_units_Z   2
loop_
 _symmetry_equiv_pos_site_id
 _symmetry_equiv_pos_as_xyz
  1  'x, y, z'
loop_
 _atom_site_type_symbol
 _atom_site_label
 _atom_site_symmetry_multiplicity
 _atom_site_fract_x
 _atom_site_fract_y
 _atom_site_fract_z
 _atom_site_occupancy
  Na  Na0  1  0.72042000  0.84078000  0.86466000  1.0
  Na  Na1  1  0.27956000  0.15921000  0.13534000  1.0
  Sm  Sm2  1  0.09435000  0.02114000  0.70878000  1.0
  Sm  Sm3  1  0.90565000  0.97885000  0.29122000  1.0
  Sm  Sm4  1  0.57926000  0.59970000  0.71115000  1.0
  Sm  Sm5  1  0.42075000  0.40031000  0.28885000  1.0
  P  P6  1  0.90917000  0.78446000  0.60635000  1.0
  P  P7  1  0.09082000  0.21555000  0.39365000  1.0
  H  H8  1  0.18770000  0.58374000  0.73132000  1.0
  H  H9  1  0.81231000  0.41626000  0.26867000  1.0
  H  H10  1  0.16527000  0.42635000  0.92811000  1.0
  H  H11  1  0.83475000  0.57363000  0.07188000  1.0
  H  H12  1  0.93755000  0.28845000  0.02169000  1.0
  H  H13  1  0.06246000  0.71154000  0.97829000  1.0
  H  H14  1  0.75348000  0.31078000  0.90548000  1.0
  H  H15  1  0.24652000  0.68923000  0.09451000  1.0
  H  H16  1  0.94271000  0.58138000  0.53953000  1.0
  H  H17  1  0.05729000  0.41862000  0.46047000  1.0
  H  H18  1  0.10704000  0.64557000  0.54543000  1.0
  H  H19  1  0.89296000  0.35443000  0.45456000  1.0
  H  H20  1  0.89499000  0.18008000  0.64150000  1.0
  H  H21  1  0.10501000  0.81991000  0.35850000  1.0
  H  H22  1  0.77122000  0.11461000  0.75603000  1.0
  H  H23  1  0.22877000  0.88538000  0.24397000  1.0
  H  H24  1  0.28754000  0.26654000  0.62197000  1.0
  H  H25  1  0.71246000  0.73346000  0.37803000  1.0
  H  H26  1  0.38077000  0.16276000  0.56424000  1.0
  H  H27  1  0.61923000  0.83723000  0.43577000  1.0
  H  H28  1  0.69410000  0.84546000  0.11637000  1.0
  H  H29  1  0.30591000  0.15454000  0.88363000  1.0
  H  H30  1  0.58331000  0.73826000  0.11593000  1.0
  H  H31  1  0.41668000  0.26174000  0.88407000  1.0
  H  H32  1  0.59861000  0.04066000  0.69854000  1.0
  H  H33  1  0.40139000  0.95933000  0.30146000  1.0
  H  H34  1  0.52658000  0.08499000  0.82458000  1.0
  H  H35  1  0.47342000  0.91500000  0.17542000  1.0
  C  C36  1  0.98618000  0.53364000  0.71345000  1.0
  C  C37  1  0.01382000  0.46636000  0.28655000  1.0
  C  C38  1  0.09237000  0.52304000  0.77396000  1.0
  C  C39  1  0.90762000  0.47696000  0.22604000  1.0
  C  C40  1  0.07972000  0.43452000  0.88354000  1.0
  C  C41  1  0.92028000  0.56546000  0.11645000  1.0
  C  C42  1  0.95591000  0.35758000  0.93476000  1.0
  C  C43  1  0.04408000  0.64240000  0.06524000  1.0
  C  C44  1  0.85183000  0.36806000  0.87357000  1.0
  C  C45  1  0.14816000  0.63195000  0.12643000  1.0
  C  C46  1  0.99437000  0.62517000  0.59545000  1.0
  C  C47  1  0.00564000  0.37484000  0.40454000  1.0
  C  C48  1  0.31728000  0.79760000  0.77224000  1.0
  C  C49  1  0.68273000  0.20241000  0.22777000  1.0
  C  C50  1  0.37049000  0.83772000  0.62968000  1.0
  C  C51  1  0.62952000  0.16230000  0.37033000  1.0
  C  C52  1  0.93850000  0.95168000  0.00732000  1.0
  C  C53  1  0.06149000  0.04831000  0.99268000  1.0
  C  C54  1  0.54571000  0.55625000  0.00589000  1.0
  C  C55  1  0.45431000  0.44377000  0.99411000  1.0
  C  C56  1  0.42841000  0.47262000  0.54618000  1.0
  C  C57  1  0.57159000  0.52739000  0.45381000  1.0
  N  N58  1  0.86825000  0.45325000  0.76489000  1.0
  N  N59  1  0.13175000  0.54675000  0.23511000  1.0
  O  O60  1  0.97517000  0.84858000  0.68633000  1.0
  O  O61  1  0.02485000  0.15141000  0.31367000  1.0
  O  O62  1  0.94112000  0.85723000  0.47317000  1.0
  O  O63  1  0.05888000  0.14278000  0.52683000  1.0
  O  O64  1  0.74881000  0.76109000  0.66858000  1.0
  O  O65  1  0.25118000  0.23890000  0.33143000  1.0
  O  O66  1  0.76917000  0.45614000  0.70590000  1.0
  O  O67  1  0.23083000  0.54387000  0.29410000  1.0
  O  O68  1  0.21214000  0.85804000  0.82502000  1.0
  O  O69  1  0.78787000  0.14197000  0.17499000  1.0
  O  O70  1  0.38239000  0.70710000  0.82508000  1.0
  O  O71  1  0.61763000  0.29292000  0.17492000  1.0
  O  O72  1  0.30045000  0.92277000  0.57699000  1.0
  O  O73  1  0.69956000  0.07724000  0.42302000  1.0
  O  O74  1  0.48101000  0.77998000  0.57907000  1.0
  O  O75  1  0.51900000  0.22004000  0.42093000  1.0
  O  O76  1  0.91449000  0.93349000  0.91033000  1.0
  O  O77  1  0.08551000  0.06651000  0.08966000  1.0
  O  O78  1  0.87162000  0.89734000  0.11572000  1.0
  O  O79  1  0.12837000  0.10266000  0.88428000  1.0
  O  O80  1  0.62633000  0.62102000  0.90821000  1.0
  O  O81  1  0.37369000  0.37897000  0.09178000  1.0
  O  O82  1  0.53252000  0.57463000  0.11302000  1.0
  O  O83  1  0.46746000  0.42536000  0.88700000  1.0
  O  O84  1  0.41208000  0.47697000  0.65702000  1.0
  O  O85  1  0.58789000  0.52303000  0.34297000  1.0
  O  O86  1  0.33866000  0.42633000  0.50395000  1.0
  O  O87  1  0.66133000  0.57367000  0.49607000  1.0
  O  O88  1  0.87054000  0.15068000  0.73101000  1.0
  O  O89  1  0.12945000  0.84932000  0.26899000  1.0
  O  O90  1  0.30409000  0.17190000  0.63850000  1.0
  O  O91  1  0.69591000  0.82810000  0.36150000  1.0
  O  O92  1  0.60511000  0.83334000  0.09382000  1.0
  O  O93  1  0.39488000  0.16665000  0.90619000  1.0
  O  O94  1  0.60912000  0.03600000  0.78050000  1.0
  O  O95  1  0.39088000  0.96399000  0.21951000  1.0
