# generated using pymatgen
data_CdH12C17N2O5
_symmetry_space_group_name_H-M   'P 1'
_cell_length_a   8.91084000
_cell_length_b   12.23850000
_cell_length_c   16.11880092
_cell_angle_alpha   85.59988433
_cell_angle_beta   73.94448639
_cell_angle_gamma   73.85320000
_symmetry_Int_Tables_number   1
_chemical_formula_structural   CdH12C17N2O5
_chemical_formula_sum   'Cd4 H48 C68 N8 O20'
_cell_volume   1622.63688079
_cell_formula_units_Z   4
loop_
 _symmetry_equiv_pos_site_id
 _symmetry_equiv_pos_as_xyz
  1  'x, y, z'
loop_
 _atom_site_type_symbol
 _atom_site_label
 _atom_site_symmetry_multiplicity
 _atom_site_fract_x
 _atom_site_fract_y
 _atom_site_fract_z
 _atom_site_occupancy
  Cd  Cd0  1  0.59417000  0.25590000  0.39094000  1.0
  Cd  Cd1  1  0.01520000  0.24458000  0.39074000  1.0
  Cd  Cd2  1  0.40584000  0.74409000  0.60906000  1.0
  Cd  Cd3  1  0.98481000  0.75541000  0.60926000  1.0
  H  H4  1  0.37279000  0.49171000  0.42789000  1.0
  H  H5  1  0.19823000  0.00855000  0.42778000  1.0
  H  H6  1  0.62722000  0.50829000  0.57210000  1.0
  H  H7  1  0.80179000  0.99146000  0.57222000  1.0
  H  H8  1  0.26555000  0.40298000  0.43882000  1.0
  H  H9  1  0.29531000  0.09679000  0.43875000  1.0
  H  H10  1  0.73445000  0.59702000  0.56117000  1.0
  H  H11  1  0.70470000  0.90322000  0.56125000  1.0
  H  H12  1  0.10497000  0.18061000  0.20190000  1.0
  H  H13  1  0.69288000  0.31955000  0.20202000  1.0
  H  H14  1  0.89503000  0.81941000  0.79810000  1.0
  H  H15  1  0.30712000  0.68045000  0.79798000  1.0
  H  H16  1  0.26100000  0.02161000  0.56423000  1.0
  H  H17  1  0.17464000  0.47789000  0.56446000  1.0
  H  H18  1  0.73902000  0.97839000  0.43577000  1.0
  H  H19  1  0.82536000  0.52211000  0.43554000  1.0
  H  H20  1  0.08161000  0.04352000  0.83827000  1.0
  H  H21  1  0.07960000  0.45626000  0.83848000  1.0
  H  H22  1  0.91841000  0.95648000  0.16173000  1.0
  H  H23  1  0.92039000  0.54374000  0.16152000  1.0
  H  H24  1  0.43321000  0.22412000  0.70313000  1.0
  H  H25  1  0.86362000  0.27537000  0.70333000  1.0
  H  H26  1  0.56679000  0.77589000  0.29687000  1.0
  H  H27  1  0.13639000  0.72462000  0.29666000  1.0
  H  H28  1  0.15186000  0.04977000  0.94127000  1.0
  H  H29  1  0.90686000  0.44983000  0.94152000  1.0
  H  H30  1  0.84812000  0.95025000  0.05873000  1.0
  H  H31  1  0.09311000  0.55018000  0.05848000  1.0
  H  H32  1  0.13670000  0.11531000  0.08199000  1.0
  H  H33  1  0.78133000  0.38436000  0.08220000  1.0
  H  H34  1  0.86326000  0.88472000  0.91802000  1.0
  H  H35  1  0.21864000  0.61564000  0.91780000  1.0
  H  H36  1  0.35583000  0.38174000  0.96108000  1.0
  H  H37  1  0.68230000  0.11820000  0.96138000  1.0
  H  H38  1  0.64417000  0.61827000  0.03891000  1.0
  H  H39  1  0.31772000  0.88177000  0.03862000  1.0
  H  H40  1  0.36669000  0.31730000  0.81942000  1.0
  H  H41  1  0.81321000  0.18252000  0.81970000  1.0
  H  H42  1  0.63331000  0.68271000  0.18058000  1.0
  H  H43  1  0.18681000  0.81746000  0.18030000  1.0
  H  H44  1  0.36616000  0.42770000  0.10378000  1.0
  H  H45  1  0.52950000  0.07225000  0.10436000  1.0
  H  H46  1  0.63384000  0.57231000  0.89622000  1.0
  H  H47  1  0.47047000  0.92775000  0.89565000  1.0
  H  H48  1  0.27325000  0.42187000  0.28108000  1.0
  H  H49  1  0.44527000  0.07843000  0.28163000  1.0
  H  H50  1  0.72676000  0.57813000  0.71892000  1.0
  H  H51  1  0.55473000  0.92157000  0.71837000  1.0
  C  C52  1  0.44571000  0.16870000  0.54245000  1.0
  C  C53  1  0.01132000  0.33118000  0.54264000  1.0
  C  C54  1  0.55430000  0.83130000  0.45755000  1.0
  C  C55  1  0.98868000  0.66882000  0.45735000  1.0
  C  C56  1  0.35162000  0.13069000  0.62588000  1.0
  C  C57  1  0.02224000  0.36891000  0.62610000  1.0
  C  C58  1  0.64839000  0.86930000  0.37412000  1.0
  C  C59  1  0.97777000  0.63109000  0.37389000  1.0
  C  C60  1  0.25876000  0.05612000  0.62473000  1.0
  C  C61  1  0.11629000  0.44343000  0.62495000  1.0
  C  C62  1  0.74124000  0.94388000  0.37528000  1.0
  C  C63  1  0.88370000  0.55657000  0.37505000  1.0
  C  C64  1  0.16372000  0.02447000  0.70189000  1.0
  C  C65  1  0.13415000  0.47516000  0.70209000  1.0
  C  C66  1  0.83630000  0.97553000  0.29811000  1.0
  C  C67  1  0.86585000  0.52484000  0.29791000  1.0
  C  C68  1  0.16045000  0.06831000  0.77987000  1.0
  C  C69  1  0.05923000  0.43142000  0.78006000  1.0
  C  C70  1  0.83956000  0.93169000  0.22013000  1.0
  C  C71  1  0.94077000  0.56857000  0.21994000  1.0
  C  C72  1  0.25839000  0.13927000  0.78339000  1.0
  C  C73  1  0.95797000  0.36031000  0.78360000  1.0
  C  C74  1  0.74162000  0.86073000  0.21661000  1.0
  C  C75  1  0.04202000  0.63968000  0.21639000  1.0
  C  C76  1  0.35426000  0.16966000  0.70486000  1.0
  C  C77  1  0.94080000  0.32983000  0.70507000  1.0
  C  C78  1  0.64575000  0.83034000  0.29514000  1.0
  C  C79  1  0.05921000  0.67016000  0.29492000  1.0
  C  C80  1  0.07187000  0.93918000  0.70206000  1.0
  C  C81  1  0.22591000  0.56043000  0.70223000  1.0
  C  C82  1  0.92813000  0.06081000  0.29795000  1.0
  C  C83  1  0.77408000  0.43957000  0.29777000  1.0
  C  C84  1  0.25834000  0.17846000  0.86793000  1.0
  C  C85  1  0.87347000  0.32120000  0.86816000  1.0
  C  C86  1  0.74166000  0.82155000  0.13208000  1.0
  C  C87  1  0.12653000  0.67879000  0.13183000  1.0
  C  C88  1  0.19504000  0.12385000  0.94444000  1.0
  C  C89  1  0.86038000  0.37581000  0.94468000  1.0
  C  C90  1  0.80495000  0.87616000  0.05556000  1.0
  C  C91  1  0.13960000  0.62418000  0.05532000  1.0
  C  C92  1  0.18720000  0.16092000  0.02501000  1.0
  C  C93  1  0.78768000  0.33877000  0.02524000  1.0
  C  C94  1  0.81279000  0.83910000  0.97499000  1.0
  C  C95  1  0.21231000  0.66122000  0.97476000  1.0
  C  C96  1  0.24341000  0.25526000  0.03319000  1.0
  C  C97  1  0.72308000  0.24453000  0.03345000  1.0
  C  C98  1  0.75658000  0.74475000  0.96681000  1.0
  C  C99  1  0.27691000  0.75546000  0.96655000  1.0
  C  C100  1  0.31006000  0.30895000  0.95714000  1.0
  C  C101  1  0.73220000  0.19089000  0.95743000  1.0
  C  C102  1  0.68993000  0.69106000  0.04286000  1.0
  C  C103  1  0.26781000  0.80909000  0.04257000  1.0
  C  C104  1  0.31759000  0.27123000  0.87638000  1.0
  C  C105  1  0.80546000  0.22858000  0.87665000  1.0
  C  C106  1  0.68241000  0.72878000  0.12362000  1.0
  C  C107  1  0.19456000  0.77140000  0.12334000  1.0
  C  C108  1  0.23213000  0.29520000  0.11814000  1.0
  C  C109  1  0.64928000  0.20480000  0.11846000  1.0
  C  C110  1  0.76787000  0.70481000  0.88186000  1.0
  C  C111  1  0.35072000  0.79520000  0.88154000  1.0
  C  C112  1  0.29485000  0.37569000  0.14469000  1.0
  C  C113  1  0.55991000  0.12439000  0.14517000  1.0
  C  C114  1  0.70516000  0.62432000  0.85531000  1.0
  C  C115  1  0.44009000  0.87560000  0.85483000  1.0
  C  C116  1  0.24861000  0.37351000  0.23506000  1.0
  C  C117  1  0.51588000  0.12673000  0.23554000  1.0
  C  C118  1  0.75140000  0.62649000  0.76494000  1.0
  C  C119  1  0.48411000  0.87327000  0.76447000  1.0
  N  N120  1  0.15254000  0.25143000  0.19164000  1.0
  N  N121  1  0.65549000  0.24871000  0.19188000  1.0
  N  N122  1  0.84746000  0.74858000  0.80836000  1.0
  N  N123  1  0.34451000  0.75128000  0.80812000  1.0
  N  N124  1  0.16256000  0.29701000  0.26284000  1.0
  N  N125  1  0.57430000  0.20327000  0.26316000  1.0
  N  N126  1  0.83744000  0.70300000  0.73716000  1.0
  N  N127  1  0.42571000  0.79673000  0.73684000  1.0
  O  O128  1  0.37027000  0.42051000  0.40606000  1.0
  O  O129  1  0.22326000  0.07952000  0.40594000  1.0
  O  O130  1  0.62973000  0.57949000  0.59393000  1.0
  O  O131  1  0.77674000  0.92049000  0.59407000  1.0
  O  O132  1  0.54411000  0.22685000  0.54174000  1.0
  O  O133  1  0.91356000  0.27317000  0.54183000  1.0
  O  O134  1  0.45589000  0.77315000  0.45826000  1.0
  O  O135  1  0.08644000  0.72683000  0.45816000  1.0
  O  O136  1  0.42345000  0.14295000  0.47149000  1.0
  O  O137  1  0.10443000  0.35715000  0.47169000  1.0
  O  O138  1  0.57656000  0.85705000  0.52851000  1.0
  O  O139  1  0.89556000  0.64285000  0.52830000  1.0
  O  O140  1  0.12363000  0.87361000  0.63444000  1.0
  O  O141  1  0.24172000  0.62595000  0.63460000  1.0
  O  O142  1  0.87637000  0.12639000  0.36557000  1.0
  O  O143  1  0.75827000  0.37404000  0.36540000  1.0
  O  O144  1  0.95541000  0.93387000  0.76597000  1.0
  O  O145  1  0.27849000  0.56581000  0.76610000  1.0
  O  O146  1  0.04462000  0.06613000  0.23403000  1.0
  O  O147  1  0.72149000  0.43419000  0.23390000  1.0
