# generated using pymatgen
data_Mn3H25C24(N2O7)3
_symmetry_space_group_name_H-M   'P 1'
_cell_length_a   8.56743000
_cell_length_b   12.61230000
_cell_length_c   20.85830000
_cell_angle_alpha   90.93670000
_cell_angle_beta   93.72670000
_cell_angle_gamma   90.16820000
_symmetry_Int_Tables_number   1
_chemical_formula_structural   Mn3H25C24(N2O7)3
_chemical_formula_sum   'Mn6 H50 C48 N12 O42'
_cell_volume   2248.75905154
_cell_formula_units_Z   2
loop_
 _symmetry_equiv_pos_site_id
 _symmetry_equiv_pos_as_xyz
  1  'x, y, z'
loop_
 _atom_site_type_symbol
 _atom_site_label
 _atom_site_symmetry_multiplicity
 _atom_site_fract_x
 _atom_site_fract_y
 _atom_site_fract_z
 _atom_site_occupancy
  Mn  Mn0  1  0.59438000  0.73057000  0.76348000  1.0
  Mn  Mn1  1  0.97082000  0.64202000  0.76637000  1.0
  Mn  Mn2  1  0.25506000  0.85218000  0.73430000  1.0
  Mn  Mn3  1  0.40563000  0.26942000  0.23652000  1.0
  Mn  Mn4  1  0.02918000  0.35798000  0.23363000  1.0
  Mn  Mn5  1  0.74494000  0.14783000  0.26570000  1.0
  H  H6  1  0.10099000  0.79469000  0.64453000  1.0
  H  H7  1  0.14617000  0.00418000  0.69296000  1.0
  H  H8  1  0.12625000  0.58078000  0.85668000  1.0
  H  H9  1  0.42596000  0.98376000  0.60678000  1.0
  H  H10  1  0.40637000  0.04813000  0.68232000  1.0
  H  H11  1  0.67943000  0.12707000  0.67616000  1.0
  H  H12  1  0.68416000  0.07222000  0.59657000  1.0
  H  H13  1  0.28334000  0.37617000  0.71073000  1.0
  H  H14  1  0.17471000  0.42918000  0.64287000  1.0
  H  H15  1  0.49190000  0.51808000  0.69819000  1.0
  H  H16  1  0.37823000  0.56854000  0.63255000  1.0
  H  H17  1  0.50383000  0.26522000  0.42721000  1.0
  H  H18  1  0.45306000  0.40001000  0.44318000  1.0
  H  H19  1  0.22331000  0.21157000  0.42738000  1.0
  H  H20  1  0.16847000  0.34348000  0.44766000  1.0
  H  H21  1  0.00844000  0.00133000  0.80046000  1.0
  H  H22  1  0.71992000  0.91666000  0.86463000  1.0
  H  H23  1  0.67898000  0.99866000  0.79694000  1.0
  H  H24  1  0.86259000  0.20835000  0.07109000  1.0
  H  H25  1  0.80939000  0.07279000  0.06251000  1.0
  H  H26  1  0.52422000  0.20630000  0.03379000  1.0
  H  H27  1  0.90458000  0.35053000  0.81566000  1.0
  H  H28  1  0.88515000  0.41626000  0.89152000  1.0
  H  H29  1  0.61418000  0.35110000  0.79428000  1.0
  H  H30  1  0.59246000  0.42083000  0.86843000  1.0
  H  H31  1  0.89904000  0.20534000  0.35547000  1.0
  H  H32  1  0.85385000  0.99584000  0.30705000  1.0
  H  H33  1  0.87376000  0.41923000  0.14331000  1.0
  H  H34  1  0.57404000  0.01623000  0.39322000  1.0
  H  H35  1  0.59363000  0.95187000  0.31768000  1.0
  H  H36  1  0.32057000  0.87293000  0.32383000  1.0
  H  H37  1  0.31583000  0.92778000  0.40342000  1.0
  H  H38  1  0.71665000  0.62383000  0.28927000  1.0
  H  H39  1  0.82530000  0.57082000  0.35713000  1.0
  H  H40  1  0.50811000  0.48192000  0.30180000  1.0
  H  H41  1  0.62178000  0.43146000  0.36745000  1.0
  H  H42  1  0.49616000  0.73478000  0.57279000  1.0
  H  H43  1  0.54693000  0.59998000  0.55682000  1.0
  H  H44  1  0.77668000  0.78843000  0.57262000  1.0
  H  H45  1  0.83153000  0.65652000  0.55234000  1.0
  H  H46  1  0.99156000  0.99868000  0.19954000  1.0
  H  H47  1  0.28008000  0.08333000  0.13537000  1.0
  H  H48  1  0.32102000  0.00133000  0.20306000  1.0
  H  H49  1  0.13741000  0.79165000  0.92891000  1.0
  H  H50  1  0.19061000  0.92721000  0.93749000  1.0
  H  H51  1  0.47578000  0.79370000  0.96621000  1.0
  H  H52  1  0.09544000  0.64946000  0.18434000  1.0
  H  H53  1  0.11487000  0.58374000  0.10848000  1.0
  H  H54  1  0.38584000  0.64889000  0.20572000  1.0
  H  H55  1  0.40756000  0.57915000  0.13158000  1.0
  C  C56  1  0.57403000  0.92379000  0.68266000  1.0
  C  C57  1  0.49137000  0.01555000  0.65023000  1.0
  C  C58  1  0.60821000  0.10089000  0.63321000  1.0
  C  C59  1  0.50894000  0.20415000  0.54022000  1.0
  C  C60  1  0.46222000  0.26413000  0.65072000  1.0
  C  C61  1  0.36967000  0.37202000  0.55860000  1.0
  C  C62  1  0.29219000  0.41884000  0.66586000  1.0
  C  C63  1  0.37144000  0.52635000  0.67800000  1.0
  C  C64  1  0.28213000  0.59802000  0.72085000  1.0
  C  C65  1  0.42028000  0.31704000  0.44974000  1.0
  C  C66  1  0.25307000  0.29604000  0.42235000  1.0
  C  C67  1  0.23077000  0.31723000  0.35142000  1.0
  C  C68  1  0.93372000  0.84351000  0.78706000  1.0
  C  C69  1  0.91675000  0.94423000  0.80857000  1.0
  C  C70  1  0.76765000  0.97878000  0.83544000  1.0
  C  C71  1  0.77833000  0.06279000  0.94284000  1.0
  C  C72  1  0.80417000  0.16980000  0.84599000  1.0
  C  C73  1  0.79457000  0.25860000  0.95179000  1.0
  C  C74  1  0.77541000  0.15321000  0.04765000  1.0
  C  C75  1  0.61710000  0.17997000  0.06787000  1.0
  C  C76  1  0.58812000  0.17772000  0.13517000  1.0
  C  C77  1  0.82875000  0.36230000  0.85536000  1.0
  C  C78  1  0.67113000  0.40712000  0.82971000  1.0
  C  C79  1  0.69792000  0.51022000  0.79613000  1.0
  C  C80  1  0.42597000  0.07621000  0.31734000  1.0
  C  C81  1  0.50864000  0.98445000  0.34977000  1.0
  C  C82  1  0.39178000  0.89911000  0.36679000  1.0
  C  C83  1  0.49105000  0.79584000  0.45978000  1.0
  C  C84  1  0.53778000  0.73587000  0.34927000  1.0
  C  C85  1  0.63033000  0.62798000  0.44140000  1.0
  C  C86  1  0.70781000  0.58117000  0.33414000  1.0
  C  C87  1  0.62857000  0.47365000  0.32199000  1.0
  C  C88  1  0.71787000  0.40198000  0.27915000  1.0
  C  C89  1  0.57971000  0.68296000  0.55026000  1.0
  C  C90  1  0.74693000  0.70396000  0.57765000  1.0
  C  C91  1  0.76922000  0.68277000  0.64857000  1.0
  C  C92  1  0.06628000  0.15650000  0.21294000  1.0
  C  C93  1  0.08325000  0.05577000  0.19143000  1.0
  C  C94  1  0.23235000  0.02121000  0.16457000  1.0
  C  C95  1  0.22160000  0.93721000  0.05716000  1.0
  C  C96  1  0.19584000  0.83019000  0.15402000  1.0
  C  C97  1  0.20544000  0.74139000  0.04821000  1.0
  C  C98  1  0.22458000  0.84680000  0.95235000  1.0
  C  C99  1  0.38289000  0.82003000  0.93213000  1.0
  C  C100  1  0.41187000  0.82227000  0.86483000  1.0
  C  C101  1  0.17128000  0.63769000  0.14464000  1.0
  C  C102  1  0.32888000  0.59287000  0.17029000  1.0
  C  C103  1  0.30209000  0.48978000  0.20387000  1.0
  N  N104  1  0.37973000  0.34973000  0.62369000  1.0
  N  N105  1  0.43541000  0.29729000  0.51892000  1.0
  N  N106  1  0.52593000  0.19461000  0.60691000  1.0
  N  N107  1  0.78598000  0.07392000  0.87682000  1.0
  N  N108  1  0.81121000  0.25964000  0.88584000  1.0
  N  N109  1  0.78600000  0.15793000  0.97810000  1.0
  N  N110  1  0.62027000  0.65027000  0.37631000  1.0
  N  N111  1  0.56458000  0.70271000  0.48107000  1.0
  N  N112  1  0.47406000  0.80538000  0.39308000  1.0
  N  N113  1  0.21401000  0.92607000  0.12318000  1.0
  N  N114  1  0.18881000  0.74035000  0.11417000  1.0
  N  N115  1  0.21398000  0.84207000  0.02190000  1.0
  O  O116  1  0.14876000  0.56385000  0.73489000  1.0
  O  O117  1  0.48985000  0.86426000  0.72113000  1.0
  O  O118  1  0.71239000  0.90346000  0.67590000  1.0
  O  O119  1  0.09265000  0.33112000  0.32779000  1.0
  O  O120  1  0.35518000  0.31948000  0.32027000  1.0
  O  O121  1  0.33950000  0.68814000  0.73945000  1.0
  O  O122  1  0.47553000  0.25047000  0.70893000  1.0
  O  O123  1  0.55686000  0.13735000  0.50306000  1.0
  O  O124  1  0.30451000  0.45223000  0.53735000  1.0
  O  O125  1  0.82969000  0.76392000  0.79186000  1.0
  O  O126  1  0.05950000  0.80269000  0.75890000  1.0
  O  O127  1  0.81224000  0.17482000  0.78757000  1.0
  O  O128  1  0.76399000  0.97650000  0.96829000  1.0
  O  O129  1  0.78877000  0.33979000  0.98472000  1.0
  O  O130  1  0.46098000  0.22183000  0.15270000  1.0
  O  O131  1  0.69049000  0.13246000  0.17265000  1.0
  O  O132  1  0.59971000  0.58513000  0.80339000  1.0
  O  O133  1  0.81623000  0.51634000  0.76272000  1.0
  O  O134  1  0.20287000  0.83043000  0.64939000  1.0
  O  O135  1  0.20720000  0.99167000  0.73340000  1.0
  O  O136  1  0.03577000  0.62712000  0.85019000  1.0
  O  O137  1  0.85124000  0.43616000  0.26510000  1.0
  O  O138  1  0.51015000  0.13575000  0.27888000  1.0
  O  O139  1  0.28762000  0.09654000  0.32410000  1.0
  O  O140  1  0.90735000  0.66888000  0.67220000  1.0
  O  O141  1  0.64482000  0.68053000  0.67973000  1.0
  O  O142  1  0.66051000  0.31186000  0.26055000  1.0
  O  O143  1  0.52448000  0.74953000  0.29106000  1.0
  O  O144  1  0.44311000  0.86264000  0.49694000  1.0
  O  O145  1  0.69550000  0.54777000  0.46264000  1.0
  O  O146  1  0.17031000  0.23608000  0.20814000  1.0
  O  O147  1  0.94050000  0.19731000  0.24109000  1.0
  O  O148  1  0.18779000  0.82516000  0.21243000  1.0
  O  O149  1  0.23584000  0.02351000  0.03171000  1.0
  O  O150  1  0.21124000  0.66021000  0.01528000  1.0
  O  O151  1  0.53901000  0.77817000  0.84730000  1.0
  O  O152  1  0.30950000  0.86754000  0.82735000  1.0
  O  O153  1  0.40029000  0.41486000  0.19662000  1.0
  O  O154  1  0.18378000  0.48366000  0.23729000  1.0
  O  O155  1  0.79717000  0.16957000  0.35061000  1.0
  O  O156  1  0.79282000  0.00834000  0.26661000  1.0
  O  O157  1  0.96424000  0.37289000  0.14980000  1.0
