# generated using pymatgen
data_AgH17C24(NO2)2
_symmetry_space_group_name_H-M   'P 1'
_cell_length_a   11.40130000
_cell_length_b   13.85900000
_cell_length_c   16.03891655
_cell_angle_alpha   89.97158171
_cell_angle_beta   110.72661829
_cell_angle_gamma   89.96210000
_symmetry_Int_Tables_number   1
_chemical_formula_structural   AgH17C24(NO2)2
_chemical_formula_sum   'Ag4 H68 C96 N8 O16'
_cell_volume   2370.29599626
_cell_formula_units_Z   4
loop_
 _symmetry_equiv_pos_site_id
 _symmetry_equiv_pos_as_xyz
  1  'x, y, z'
loop_
 _atom_site_type_symbol
 _atom_site_label
 _atom_site_symmetry_multiplicity
 _atom_site_fract_x
 _atom_site_fract_y
 _atom_site_fract_z
 _atom_site_occupancy
  Ag  Ag0  1  0.20769000  0.64353000  0.00835000  1.0
  Ag  Ag1  1  0.19992000  0.85681000  0.99244000  1.0
  Ag  Ag2  1  0.79230000  0.35646000  0.99165000  1.0
  Ag  Ag3  1  0.80008000  0.14319000  0.00756000  1.0
  H  H4  1  0.12101000  0.57664000  0.78216000  1.0
  H  H5  1  0.33922000  0.92286000  0.21823000  1.0
  H  H6  1  0.87899000  0.42337000  0.21784000  1.0
  H  H7  1  0.66077000  0.07714000  0.78176000  1.0
  H  H8  1  0.21285000  0.84191000  0.68696000  1.0
  H  H9  1  0.52597000  0.65746000  0.31414000  1.0
  H  H10  1  0.78715000  0.15811000  0.31304000  1.0
  H  H11  1  0.47403000  0.34253000  0.68586000  1.0
  H  H12  1  0.17141000  0.82438000  0.52396000  1.0
  H  H13  1  0.64717000  0.67567000  0.47700000  1.0
  H  H14  1  0.82858000  0.17563000  0.47603000  1.0
  H  H15  1  0.35283000  0.32433000  0.52300000  1.0
  H  H16  1  0.00960000  0.70591000  0.43493000  1.0
  H  H17  1  0.57454000  0.79498000  0.56568000  1.0
  H  H18  1  0.99040000  0.29409000  0.56507000  1.0
  H  H19  1  0.42547000  0.20503000  0.43432000  1.0
  H  H20  1  0.88776000  0.61279000  0.50721000  1.0
  H  H21  1  0.38052000  0.88807000  0.49328000  1.0
  H  H22  1  0.11224000  0.38721000  0.49279000  1.0
  H  H23  1  0.61949000  0.11193000  0.50672000  1.0
  H  H24  1  0.77756000  0.74447000  0.65531000  1.0
  H  H25  1  0.12265000  0.75580000  0.34560000  1.0
  H  H26  1  0.22242000  0.25553000  0.34469000  1.0
  H  H27  1  0.87736000  0.24419000  0.65441000  1.0
  H  H28  1  0.60910000  0.66106000  0.68922000  1.0
  H  H29  1  0.92030000  0.83927000  0.31147000  1.0
  H  H30  1  0.39089000  0.33893000  0.31078000  1.0
  H  H31  1  0.07970000  0.16073000  0.68853000  1.0
  H  H32  1  0.62773000  0.48203000  0.72266000  1.0
  H  H33  1  0.90535000  0.01822000  0.27773000  1.0
  H  H34  1  0.37228000  0.51796000  0.27734000  1.0
  H  H35  1  0.09465000  0.98178000  0.72227000  1.0
  H  H36  1  0.81900000  0.39591000  0.72907000  1.0
  H  H37  1  0.09020000  0.10422000  0.27123000  1.0
  H  H38  1  0.18102000  0.60408000  0.27093000  1.0
  H  H39  1  0.90979000  0.89578000  0.72876000  1.0
  H  H40  1  0.07421000  0.67618000  0.13902000  1.0
  H  H41  1  0.93653000  0.82492000  0.86194000  1.0
  H  H42  1  0.92579000  0.32382000  0.86098000  1.0
  H  H43  1  0.06347000  0.17508000  0.13806000  1.0
  H  H44  1  0.86124000  0.66967000  0.14786000  1.0
  H  H45  1  0.71475000  0.83099000  0.85320000  1.0
  H  H46  1  0.13876000  0.33032000  0.85214000  1.0
  H  H47  1  0.28525000  0.16901000  0.14680000  1.0
  H  H48  1  0.72705000  0.56701000  0.87475000  1.0
  H  H49  1  0.85236000  0.93295000  0.12652000  1.0
  H  H50  1  0.27294000  0.43299000  0.12524000  1.0
  H  H51  1  0.14764000  0.06705000  0.87348000  1.0
  H  H52  1  0.94460000  0.58205000  0.87691000  1.0
  H  H53  1  0.06775000  0.91799000  0.12435000  1.0
  H  H54  1  0.05540000  0.41794000  0.12309000  1.0
  H  H55  1  0.93225000  0.08200000  0.87565000  1.0
  H  H56  1  0.46692000  0.58891000  0.14026000  1.0
  H  H57  1  0.32797000  0.91087000  0.86020000  1.0
  H  H58  1  0.53308000  0.41109000  0.85974000  1.0
  H  H59  1  0.67203000  0.08914000  0.13980000  1.0
  H  H60  1  0.69025000  0.57671000  0.14841000  1.0
  H  H61  1  0.54342000  0.92325000  0.85253000  1.0
  H  H62  1  0.30975000  0.42329000  0.85160000  1.0
  H  H63  1  0.45658000  0.07675000  0.14747000  1.0
  H  H64  1  0.56052000  0.66365000  0.87125000  1.0
  H  H65  1  0.68896000  0.83642000  0.12974000  1.0
  H  H66  1  0.43947000  0.33634000  0.12875000  1.0
  H  H67  1  0.31104000  0.16358000  0.87025000  1.0
  H  H68  1  0.34308000  0.66630000  0.87427000  1.0
  H  H69  1  0.46828000  0.83381000  0.12630000  1.0
  H  H70  1  0.65691000  0.33370000  0.12573000  1.0
  H  H71  1  0.53172000  0.16620000  0.87370000  1.0
  C  C72  1  0.11036000  0.74460000  0.78779000  1.0
  C  C73  1  0.32314000  0.75492000  0.21310000  1.0
  C  C74  1  0.88964000  0.25541000  0.21220000  1.0
  C  C75  1  0.67686000  0.24508000  0.78690000  1.0
  C  C76  1  0.07616000  0.73605000  0.68871000  1.0
  C  C77  1  0.38776000  0.76375000  0.31215000  1.0
  C  C78  1  0.92384000  0.26396000  0.31129000  1.0
  C  C79  1  0.61223000  0.23625000  0.68785000  1.0
  C  C80  1  0.14202000  0.79146000  0.64671000  1.0
  C  C81  1  0.49543000  0.70829000  0.35424000  1.0
  C  C82  1  0.85796000  0.20855000  0.35328000  1.0
  C  C83  1  0.50457000  0.29171000  0.64576000  1.0
  C  C84  1  0.11904000  0.78147000  0.55589000  1.0
  C  C85  1  0.56307000  0.71867000  0.44499000  1.0
  C  C86  1  0.88096000  0.21853000  0.44411000  1.0
  C  C87  1  0.43693000  0.28133000  0.55501000  1.0
  C  C88  1  0.02839000  0.71604000  0.50583000  1.0
  C  C89  1  0.52249000  0.78455000  0.49486000  1.0
  C  C90  1  0.97161000  0.28397000  0.49417000  1.0
  C  C91  1  0.47751000  0.21545000  0.50514000  1.0
  C  C92  1  0.96055000  0.66225000  0.54684000  1.0
  C  C93  1  0.41379000  0.83834000  0.45378000  1.0
  C  C94  1  0.03946000  0.33775000  0.45317000  1.0
  C  C95  1  0.58622000  0.16166000  0.54622000  1.0
  C  C96  1  0.98305000  0.67118000  0.63825000  1.0
  C  C97  1  0.34505000  0.82900000  0.36243000  1.0
  C  C98  1  0.01695000  0.32882000  0.36175000  1.0
  C  C99  1  0.65494000  0.17100000  0.63757000  1.0
  C  C100  1  0.89618000  0.61890000  0.67395000  1.0
  C  C101  1  0.22252000  0.88123000  0.32670000  1.0
  C  C102  1  0.10381000  0.38110000  0.32605000  1.0
  C  C103  1  0.77749000  0.11876000  0.67331000  1.0
  C  C104  1  0.78796000  0.66804000  0.67253000  1.0
  C  C105  1  0.11578000  0.83220000  0.32825000  1.0
  C  C106  1  0.21204000  0.33196000  0.32747000  1.0
  C  C107  1  0.88423000  0.16779000  0.67176000  1.0
  C  C108  1  0.69214000  0.62048000  0.69124000  1.0
  C  C109  1  0.00126000  0.87978000  0.30941000  1.0
  C  C110  1  0.30786000  0.37951000  0.30876000  1.0
  C  C111  1  0.99874000  0.12022000  0.69060000  1.0
  C  C112  1  0.70192000  0.52178000  0.70971000  1.0
  C  C113  1  0.99251000  0.97845000  0.29078000  1.0
  C  C114  1  0.29809000  0.47821000  0.29030000  1.0
  C  C115  1  0.00749000  0.02155000  0.70922000  1.0
  C  C116  1  0.81010000  0.47252000  0.71322000  1.0
  C  C117  1  0.09712000  0.02764000  0.28722000  1.0
  C  C118  1  0.18991000  0.52749000  0.28678000  1.0
  C  C119  1  0.90288000  0.97236000  0.71278000  1.0
  C  C120  1  0.90895000  0.52032000  0.69790000  1.0
  C  C121  1  0.21123000  0.97975000  0.30254000  1.0
  C  C122  1  0.09106000  0.47968000  0.30210000  1.0
  C  C123  1  0.78878000  0.02025000  0.69746000  1.0
  C  C124  1  0.02707000  0.46377000  0.71348000  1.0
  C  C125  1  0.31361000  0.03611000  0.28652000  1.0
  C  C126  1  0.97294000  0.53622000  0.28652000  1.0
  C  C127  1  0.68640000  0.96388000  0.71348000  1.0
  C  C128  1  0.99393000  0.65241000  0.08221000  1.0
  C  C129  1  0.91275000  0.84834000  0.91881000  1.0
  C  C130  1  0.00605000  0.34758000  0.91778000  1.0
  C  C131  1  0.08725000  0.15166000  0.08119000  1.0
  C  C132  1  0.87442000  0.64850000  0.08631000  1.0
  C  C133  1  0.78918000  0.85202000  0.91478000  1.0
  C  C134  1  0.12558000  0.35149000  0.91369000  1.0
  C  C135  1  0.21082000  0.14798000  0.08522000  1.0
  C  C136  1  0.77379000  0.61912000  0.01081000  1.0
  C  C137  1  0.76367000  0.88100000  0.99037000  1.0
  C  C138  1  0.22620000  0.38087000  0.98919000  1.0
  C  C139  1  0.23633000  0.11900000  0.00963000  1.0
  C  C140  1  0.80018000  0.59260000  0.93495000  1.0
  C  C141  1  0.86555000  0.90747000  0.06629000  1.0
  C  C142  1  0.19982000  0.40739000  0.06505000  1.0
  C  C143  1  0.13446000  0.09253000  0.93372000  1.0
  C  C144  1  0.92213000  0.59945000  0.93579000  1.0
  C  C145  1  0.98668000  0.90073000  0.06542000  1.0
  C  C146  1  0.07787000  0.40054000  0.06421000  1.0
  C  C147  1  0.01332000  0.09927000  0.93458000  1.0
  C  C148  1  0.49273000  0.60314000  0.08213000  1.0
  C  C149  1  0.41155000  0.89670000  0.91845000  1.0
  C  C150  1  0.50728000  0.39686000  0.91788000  1.0
  C  C151  1  0.58845000  0.10330000  0.08155000  1.0
  C  C152  1  0.61653000  0.59860000  0.08653000  1.0
  C  C153  1  0.53110000  0.90133000  0.91432000  1.0
  C  C154  1  0.38347000  0.40139000  0.91347000  1.0
  C  C155  1  0.46891000  0.09867000  0.08568000  1.0
  C  C156  1  0.64426000  0.61987000  0.00997000  1.0
  C  C157  1  0.63489000  0.88014000  0.99103000  1.0
  C  C158  1  0.35574000  0.38013000  0.99003000  1.0
  C  C159  1  0.36511000  0.11986000  0.00897000  1.0
  C  C160  1  0.54422000  0.64452000  0.93213000  1.0
  C  C161  1  0.61212000  0.85547000  0.06875000  1.0
  C  C162  1  0.45578000  0.35547000  0.06787000  1.0
  C  C163  1  0.38788000  0.14453000  0.93125000  1.0
  C  C164  1  0.42318000  0.64729000  0.93328000  1.0
  C  C165  1  0.48984000  0.85271000  0.06738000  1.0
  C  C166  1  0.57682000  0.35271000  0.06672000  1.0
  C  C167  1  0.51016000  0.14729000  0.93262000  1.0
  N  N168  1  0.01793000  0.62920000  0.00817000  1.0
  N  N169  1  0.01046000  0.87135000  0.99293000  1.0
  N  N170  1  0.98206000  0.37080000  0.99182000  1.0
  N  N171  1  0.98954000  0.12864000  0.00707000  1.0
  N  N172  1  0.39713000  0.62711000  0.00699000  1.0
  N  N173  1  0.39054000  0.87282000  0.99352000  1.0
  N  N174  1  0.60288000  0.37289000  0.99302000  1.0
  N  N175  1  0.60946000  0.12718000  0.00648000  1.0
  O  O176  1  0.11571000  0.66504000  0.83092000  1.0
  O  O177  1  0.28543000  0.83441000  0.16979000  1.0
  O  O178  1  0.88429000  0.33497000  0.16908000  1.0
  O  O179  1  0.71456000  0.16559000  0.83020000  1.0
  O  O180  1  0.13441000  0.82675000  0.82317000  1.0
  O  O181  1  0.31187000  0.67271000  0.17784000  1.0
  O  O182  1  0.86559000  0.17326000  0.17682000  1.0
  O  O183  1  0.68813000  0.32729000  0.82216000  1.0
  O  O184  1  0.13464000  0.50952000  0.75567000  1.0
  O  O185  1  0.37911000  0.99010000  0.24442000  1.0
  O  O186  1  0.86537000  0.49050000  0.24434000  1.0
  O  O187  1  0.62089000  0.00990000  0.75558000  1.0
  O  O188  1  0.02635000  0.37766000  0.69376000  1.0
  O  O189  1  0.33230000  0.12233000  0.30582000  1.0
  O  O190  1  0.97367000  0.62236000  0.30624000  1.0
  O  O191  1  0.66772000  0.87767000  0.69420000  1.0
