# generated using pymatgen
data_H2PbCSO3F
_symmetry_space_group_name_H-M   'P 1'
_cell_length_a   4.63496000
_cell_length_b   8.88950000
_cell_length_c   11.13315479
_cell_angle_alpha   80.12906829
_cell_angle_beta   77.97716614
_cell_angle_gamma   90.02220000
_symmetry_Int_Tables_number   1
_chemical_formula_structural   H2PbCSO3F
_chemical_formula_sum   'H8 Pb4 C4 S4 O12 F4'
_cell_volume   441.69962813
_cell_formula_units_Z   4
loop_
 _symmetry_equiv_pos_site_id
 _symmetry_equiv_pos_as_xyz
  1  'x, y, z'
loop_
 _atom_site_type_symbol
 _atom_site_label
 _atom_site_symmetry_multiplicity
 _atom_site_fract_x
 _atom_site_fract_y
 _atom_site_fract_z
 _atom_site_occupancy
  H  H0  1  0.77320000  0.41445000  0.94203000  1.0
  H  H1  1  0.71599000  0.08540000  0.05775000  1.0
  H  H2  1  0.22681000  0.58555000  0.05797000  1.0
  H  H3  1  0.28401000  0.91461000  0.94225000  1.0
  H  H4  1  0.77044000  0.61434000  0.94969000  1.0
  H  H5  1  0.71992000  0.88554000  0.05002000  1.0
  H  H6  1  0.22958000  0.38567000  0.05031000  1.0
  H  H7  1  0.28007000  0.11446000  0.94998000  1.0
  Pb  Pb8  1  0.17744000  0.35199000  0.61269000  1.0
  Pb  Pb9  1  0.79078000  0.14791000  0.38698000  1.0
  Pb  Pb10  1  0.82251000  0.64799000  0.38735000  1.0
  Pb  Pb11  1  0.20928000  0.85207000  0.61299000  1.0
  C  C12  1  0.63492000  0.51437000  0.94658000  1.0
  C  C13  1  0.58171000  0.98559000  0.05332000  1.0
  C  C14  1  0.36509000  0.48563000  0.05342000  1.0
  C  C15  1  0.41829000  0.01442000  0.94668000  1.0
  S  S16  1  0.52186000  0.55380000  0.80121000  1.0
  S  S17  1  0.32316000  0.94637000  0.19866000  1.0
  S  S18  1  0.47813000  0.44621000  0.19880000  1.0
  S  S19  1  0.67683000  0.05362000  0.80134000  1.0
  O  O20  1  0.78984000  0.58076000  0.70053000  1.0
  O  O21  1  0.49023000  0.91988000  0.29937000  1.0
  O  O22  1  0.21015000  0.41925000  0.29947000  1.0
  O  O23  1  0.50976000  0.08011000  0.70063000  1.0
  O  O24  1  0.34785000  0.41593000  0.79719000  1.0
  O  O25  1  0.14505000  0.08420000  0.20230000  1.0
  O  O26  1  0.65215000  0.58408000  0.20282000  1.0
  O  O27  1  0.85495000  0.91579000  0.79770000  1.0
  O  O28  1  0.33996000  0.68951000  0.80724000  1.0
  O  O29  1  0.14744000  0.81038000  0.19296000  1.0
  O  O30  1  0.66005000  0.31049000  0.19277000  1.0
  O  O31  1  0.85255000  0.18962000  0.80704000  1.0
  F  F32  1  0.21597000  0.12534000  0.49603000  1.0
  F  F33  1  0.71211000  0.37450000  0.50410000  1.0
  F  F34  1  0.78406000  0.87465000  0.50397000  1.0
  F  F35  1  0.28784000  0.62552000  0.49589000  1.0
