# generated using pymatgen
data_ZnH10C11N4Cl2O
_symmetry_space_group_name_H-M   'P 1'
_cell_length_a   9.31700000
_cell_length_b   9.31701000
_cell_length_c   10.34560000
_cell_angle_alpha   104.37600000
_cell_angle_beta   104.37600000
_cell_angle_gamma   116.64200000
_symmetry_Int_Tables_number   1
_chemical_formula_structural   ZnH10C11N4Cl2O
_chemical_formula_sum   'Zn2 H20 C22 N8 Cl4 O2'
_cell_volume   707.33726673
_cell_formula_units_Z   2
loop_
 _symmetry_equiv_pos_site_id
 _symmetry_equiv_pos_as_xyz
  1  'x, y, z'
loop_
 _atom_site_type_symbol
 _atom_site_label
 _atom_site_symmetry_multiplicity
 _atom_site_fract_x
 _atom_site_fract_y
 _atom_site_fract_z
 _atom_site_occupancy
  Zn  Zn0  1  0.45878000  0.54122000  0.50000000  1.0
  Zn  Zn1  1  0.20871000  0.79129000  1.00000000  1.0
  H  H2  1  0.25035000  0.47930000  0.19642000  1.0
  H  H3  1  0.52069000  0.74965000  0.80359000  1.0
  H  H4  1  0.96722000  0.69629000  0.69645000  1.0
  H  H5  1  0.30371000  0.03277000  0.30355000  1.0
  H  H6  1  0.95512000  0.42981000  0.06464000  1.0
  H  H7  1  0.57019000  0.04488000  0.93536000  1.0
  H  H8  1  0.88504000  0.85982000  0.56463000  1.0
  H  H9  1  0.14018000  0.11496000  0.43537000  1.0
  H  H10  1  0.74398000  0.37160000  0.18259000  1.0
  H  H11  1  0.62839000  0.25601000  0.81740000  1.0
  H  H12  1  0.06102000  0.18884000  0.68262000  1.0
  H  H13  1  0.81116000  0.93898000  0.31738000  1.0
  H  H14  1  0.13669000  0.42562000  0.55184000  1.0
  H  H15  1  0.57438000  0.86331000  0.44816000  1.0
  H  H16  1  0.37615000  0.16527000  0.05187000  1.0
  H  H17  1  0.83473000  0.62385000  0.94813000  1.0
  H  H18  1  0.71372000  0.38368000  0.41641000  1.0
  H  H19  1  0.61632000  0.28628000  0.58359000  1.0
  H  H20  1  0.28272000  0.45287000  0.91646000  1.0
  H  H21  1  0.54713000  0.71728000  0.08354000  1.0
  C  C22  1  0.15411000  0.45493000  0.24397000  1.0
  C  C23  1  0.54507000  0.84589000  0.75603000  1.0
  C  C24  1  0.03908000  0.84006000  0.74402000  1.0
  C  C25  1  0.15994000  0.96092000  0.25598000  1.0
  C  C26  1  0.99058000  0.42740000  0.17231000  1.0
  C  C27  1  0.57260000  0.00942000  0.82769000  1.0
  C  C28  1  0.99499000  0.93199000  0.67236000  1.0
  C  C29  1  0.06801000  0.00501000  0.32764000  1.0
  C  C30  1  0.87278000  0.39423000  0.23836000  1.0
  C  C31  1  0.60577000  0.12722000  0.76164000  1.0
  C  C32  1  0.09405000  0.11579000  0.73844000  1.0
  C  C33  1  0.88422000  0.90595000  0.26156000  1.0
  C  C34  1  0.92174000  0.38868000  0.37532000  1.0
  C  C35  1  0.61131000  0.07826000  0.62468000  1.0
  C  C36  1  0.23654000  0.20377000  0.87540000  1.0
  C  C37  1  0.79623000  0.76346000  0.12460000  1.0
  C  C38  1  0.09056000  0.42280000  0.44312000  1.0
  C  C39  1  0.57719000  0.90943000  0.55688000  1.0
  C  C40  1  0.27024000  0.10273000  0.94319000  1.0
  C  C41  1  0.89728000  0.72976000  0.05681000  1.0
  C  C42  1  0.77424000  0.22576000  0.50000000  1.0
  C  C43  1  0.52415000  0.47585000  1.00000000  1.0
  N  N44  1  0.20279000  0.45445000  0.37806000  1.0
  N  N45  1  0.54555000  0.79721000  0.62194000  1.0
  N  N46  1  0.17360000  0.92546000  0.87812000  1.0
  N  N47  1  0.07455000  0.82640000  0.12189000  1.0
  N  N48  1  0.80535000  0.35103000  0.44364000  1.0
  N  N49  1  0.64897000  0.19465000  0.55636000  1.0
  N  N50  1  0.34256000  0.38843000  0.94368000  1.0
  N  N51  1  0.61157000  0.65744000  0.05632000  1.0
  Cl  Cl52  1  0.59094000  0.52883000  0.34808000  1.0
  Cl  Cl53  1  0.47117000  0.40906000  0.65192000  1.0
  Cl  Cl54  1  0.06922000  0.50729000  0.84805000  1.0
  Cl  Cl55  1  0.49271000  0.93078000  0.15195000  1.0
  O  O56  1  0.85232000  0.14768000  0.50000000  1.0
  O  O57  1  0.60225000  0.39775000  0.00000000  1.0
