# generated using pymatgen
data_YH14C12ClO
_symmetry_space_group_name_H-M   'P 1'
_cell_length_a   8.12680000
_cell_length_b   8.15544000
_cell_length_c   10.33930000
_cell_angle_alpha   89.15290000
_cell_angle_beta   72.97420000
_cell_angle_gamma   60.32940000
_symmetry_Int_Tables_number   1
_chemical_formula_structural   YH14C12ClO
_chemical_formula_sum   'Y2 H28 C24 Cl2 O2'
_cell_volume   562.29104793
_cell_formula_units_Z   2
loop_
 _symmetry_equiv_pos_site_id
 _symmetry_equiv_pos_as_xyz
  1  'x, y, z'
loop_
 _atom_site_type_symbol
 _atom_site_label
 _atom_site_symmetry_multiplicity
 _atom_site_fract_x
 _atom_site_fract_y
 _atom_site_fract_z
 _atom_site_occupancy
  Y  Y0  1  0.22687000  0.96357000  0.80679000  1.0
  Y  Y1  1  0.77314000  0.03643000  0.19321000  1.0
  H  H2  1  0.71659000  0.74364000  0.67295000  1.0
  H  H3  1  0.28341000  0.25636000  0.32705000  1.0
  H  H4  1  0.53909000  0.65174000  0.52840000  1.0
  H  H5  1  0.46091000  0.34826000  0.47160000  1.0
  H  H6  1  0.30074000  0.54070000  0.70396000  1.0
  H  H7  1  0.69927000  0.45929000  0.29604000  1.0
  H  H8  1  0.32846000  0.57572000  0.95170000  1.0
  H  H9  1  0.67155000  0.42428000  0.04830000  1.0
  H  H10  1  0.58181000  0.70314000  0.93456000  1.0
  H  H11  1  0.41819000  0.29687000  0.06544000  1.0
  H  H12  1  0.55471000  0.05053000  0.58936000  1.0
  H  H13  1  0.44529000  0.94946000  0.41064000  1.0
  H  H14  1  0.52128000  0.10111000  0.85594000  1.0
  H  H15  1  0.47872000  0.89889000  0.14406000  1.0
  H  H16  1  0.12946000  0.33804000  0.99829000  1.0
  H  H17  1  0.87054000  0.66196000  0.00171000  1.0
  H  H18  1  0.92269000  0.43362000  0.82125000  1.0
  H  H19  1  0.07731000  0.56638000  0.17875000  1.0
  H  H20  1  0.18718000  0.25392000  0.56884000  1.0
  H  H21  1  0.81282000  0.74607000  0.43116000  1.0
  H  H22  1  0.88279000  0.26893000  0.66716000  1.0
  H  H23  1  0.11720000  0.73107000  0.33284000  1.0
  H  H24  1  0.77605000  0.12381000  0.67019000  1.0
  H  H25  1  0.22394000  0.87619000  0.32981000  1.0
  H  H26  1  0.99209000  0.78972000  0.58943000  1.0
  H  H27  1  0.00791000  0.21029000  0.41057000  1.0
  H  H28  1  0.25668000  0.69471000  0.52250000  1.0
  H  H29  1  0.74332000  0.30529000  0.47750000  1.0
  C  C30  1  0.61168000  0.69489000  0.71244000  1.0
  C  C31  1  0.38833000  0.30511000  0.28756000  1.0
  C  C32  1  0.51658000  0.64717000  0.63702000  1.0
  C  C33  1  0.48342000  0.35283000  0.36298000  1.0
  C  C34  1  0.39211000  0.58971000  0.72842000  1.0
  C  C35  1  0.60789000  0.41028000  0.27158000  1.0
  C  C36  1  0.40808000  0.60557000  0.85942000  1.0
  C  C37  1  0.59192000  0.39443000  0.14058000  1.0
  C  C38  1  0.54238000  0.67203000  0.85019000  1.0
  C  C39  1  0.45762000  0.32797000  0.14980000  1.0
  C  C40  1  0.41675000  0.13656000  0.67400000  1.0
  C  C41  1  0.58325000  0.86344000  0.32599000  1.0
  C  C42  1  0.39866000  0.16401000  0.81408000  1.0
  C  C43  1  0.60134000  0.83598000  0.18592000  1.0
  C  C44  1  0.19338000  0.29037000  0.88860000  1.0
  C  C45  1  0.80662000  0.70963000  0.11140000  1.0
  C  C46  1  0.08364000  0.33902000  0.79597000  1.0
  C  C47  1  0.91636000  0.66098000  0.20403000  1.0
  C  C48  1  0.22270000  0.24456000  0.66303000  1.0
  C  C49  1  0.77730000  0.75544000  0.33697000  1.0
  C  C50  1  0.89821000  0.14616000  0.61169000  1.0
  C  C51  1  0.10179000  0.85385000  0.38831000  1.0
  C  C52  1  0.11048000  0.81790000  0.53070000  1.0
  C  C53  1  0.88952000  0.18211000  0.46930000  1.0
  Cl  Cl54  1  0.86586000  0.99097000  0.90953000  1.0
  Cl  Cl55  1  0.13413000  0.00903000  0.09047000  1.0
  O  O56  1  0.08874000  0.97973000  0.60587000  1.0
  O  O57  1  0.91126000  0.02027000  0.39413000  1.0
