# generated using pymatgen
data_Al4H32C64Br8O31
_symmetry_space_group_name_H-M   'P 1'
_cell_length_a   6.69998000
_cell_length_b   22.28960000
_cell_length_c   23.89500000
_cell_angle_alpha   112.91200000
_cell_angle_beta   92.24940000
_cell_angle_gamma   93.64140000
_symmetry_Int_Tables_number   1
_chemical_formula_structural   Al4H32C64Br8O31
_chemical_formula_sum   'Al4 H32 C64 Br8 O31'
_cell_volume   3272.34755295
_cell_formula_units_Z   1
loop_
 _symmetry_equiv_pos_site_id
 _symmetry_equiv_pos_as_xyz
  1  'x, y, z'
loop_
 _atom_site_type_symbol
 _atom_site_label
 _atom_site_symmetry_multiplicity
 _atom_site_fract_x
 _atom_site_fract_y
 _atom_site_fract_z
 _atom_site_occupancy
  Al  Al0  1  0.14678000  0.49851000  0.50139000  1.0
  Al  Al1  1  0.64727000  0.50086000  0.50156000  1.0
  Al  Al2  1  0.66273000  0.00138000  0.00428000  1.0
  Al  Al3  1  0.16186000  0.99870000  0.00047000  1.0
  H  H4  1  0.61086000  0.86293000  0.07391000  1.0
  H  H5  1  0.59445000  0.79282000  0.13408000  1.0
  H  H6  1  0.86255000  0.86725000  0.29743000  1.0
  H  H7  1  0.58684000  0.61786000  0.41242000  1.0
  H  H8  1  0.17710000  0.64956000  0.30555000  1.0
  H  H9  1  0.67460000  0.68193000  0.64265000  1.0
  H  H10  1  0.55476000  0.78690000  0.70895000  1.0
  H  H11  1  0.12196000  0.82138000  0.86124000  1.0
  H  H12  1  0.61431000  0.32444000  0.35749000  1.0
  H  H13  1  0.74891000  0.13361000  0.18655000  1.0
  H  H14  1  0.72030000  0.18729000  0.84325000  1.0
  H  H15  1  0.62791000  0.15444000  0.72589000  1.0
  H  H16  1  0.17752000  0.33250000  0.76348000  1.0
  H  H17  1  0.16638000  0.26725000  0.82724000  1.0
  H  H18  1  0.09189000  0.29842000  0.64471000  1.0
  H  H19  1  0.08294000  0.36678000  0.58328000  1.0
  H  H20  1  0.71362000  0.42431000  0.63063000  1.0
  H  H21  1  0.22863000  0.57032000  0.40835000  1.0
  H  H22  1  0.24847000  0.58955000  0.64278000  1.0
  H  H23  1  0.12798000  0.12423000  0.10987000  1.0
  H  H24  1  0.94189000  0.07791000  0.85971000  1.0
  H  H25  1  0.06499000  0.15670000  0.76869000  1.0
  H  H26  1  0.73270000  0.09198000  0.93179000  1.0
  H  H27  1  0.32885000  0.89845000  0.21830000  1.0
  H  H28  1  0.73648000  0.33768000  0.72640000  1.0
  H  H29  1  0.84058000  0.85142000  0.38565000  1.0
  H  H30  1  0.88670000  0.59435000  0.22303000  1.0
  H  H31  1  0.42656000  0.67084000  0.36532000  1.0
  H  H32  1  0.41574000  0.58704000  0.52612000  1.0
  H  H33  1  0.87172000  0.41716000  0.45775000  1.0
  H  H34  1  0.39651000  0.91803000  0.95809000  1.0
  H  H35  1  0.93537000  0.08115000  0.00489000  1.0
  C  C36  1  0.36377000  0.41270000  0.40112000  1.0
  C  C37  1  0.39761000  0.43619000  0.56291000  1.0
  C  C38  1  0.93011000  0.59178000  0.60037000  1.0
  C  C39  1  0.89909000  0.56596000  0.43991000  1.0
  C  C40  1  0.73711000  0.86358000  0.10428000  1.0
  C  C41  1  0.72854000  0.82491000  0.13791000  1.0
  C  C42  1  0.89090000  0.82582000  0.17687000  1.0
  C  C43  1  0.06475000  0.86732000  0.18236000  1.0
  C  C44  1  0.07287000  0.90613000  0.14783000  1.0
  C  C45  1  0.91055000  0.90418000  0.10794000  1.0
  C  C46  1  0.86547000  0.81424000  0.27583000  1.0
  C  C47  1  0.85692000  0.77691000  0.31094000  1.0
  C  C48  1  0.86600000  0.70888000  0.28400000  1.0
  C  C49  1  0.88253000  0.67889000  0.22069000  1.0
  C  C50  1  0.88983000  0.71668000  0.18533000  1.0
  C  C51  1  0.88187000  0.78451000  0.21286000  1.0
  C  C52  1  0.70228000  0.66078000  0.35262000  1.0
  C  C53  1  0.71651000  0.62601000  0.38956000  1.0
  C  C54  1  0.89571000  0.60092000  0.39884000  1.0
  C  C55  1  0.06486000  0.61036000  0.36886000  1.0
  C  C56  1  0.04751000  0.64286000  0.32943000  1.0
  C  C57  1  0.87037000  0.66986000  0.32196000  1.0
  C  C58  1  0.95401000  0.64875000  0.65944000  1.0
  C  C59  1  0.85276000  0.85728000  0.84128000  1.0
  C  C60  1  0.67839000  0.79428000  0.74262000  1.0
  C  C61  1  0.69142000  0.84780000  0.79711000  1.0
  C  C62  1  0.99771000  0.81284000  0.82764000  1.0
  C  C63  1  0.98923000  0.75739000  0.77234000  1.0
  C  C64  1  0.82259000  0.74768000  0.72911000  1.0
  C  C65  1  0.80561000  0.69174000  0.67434000  1.0
  C  C66  1  0.12800000  0.65969000  0.70044000  1.0
  C  C67  1  0.13664000  0.71159000  0.75713000  1.0
  C  C68  1  0.34568000  0.36095000  0.33791000  1.0
  C  C69  1  0.45312000  0.14978000  0.15894000  1.0
  C  C70  1  0.63210000  0.21643000  0.25467000  1.0
  C  C71  1  0.62610000  0.16490000  0.19944000  1.0
  C  C72  1  0.28860000  0.18826000  0.17432000  1.0
  C  C73  1  0.31094000  0.24986000  0.22596000  1.0
  C  C74  1  0.48021000  0.26128000  0.26901000  1.0
  C  C75  1  0.49009000  0.31663000  0.32407000  1.0
  C  C76  1  0.18981000  0.35395000  0.29310000  1.0
  C  C77  1  0.17566000  0.29994000  0.23765000  1.0
  C  C78  1  0.22776000  0.09324000  0.85804000  1.0
  C  C79  1  0.22401000  0.13271000  0.82420000  1.0
  C  C80  1  0.39999000  0.16746000  0.81936000  1.0
  C  C81  1  0.58111000  0.16201000  0.84764000  1.0
  C  C82  1  0.58528000  0.12469000  0.88250000  1.0
  C  C83  1  0.40754000  0.09166000  0.89071000  1.0
  C  C84  1  0.53079000  0.19411000  0.73493000  1.0
  C  C85  1  0.53343000  0.23062000  0.69900000  1.0
  C  C86  1  0.40794000  0.28174000  0.70850000  1.0
  C  C87  1  0.27443000  0.29273000  0.75493000  1.0
  C  C88  1  0.26752000  0.25588000  0.79044000  1.0
  C  C89  1  0.39829000  0.20643000  0.78142000  1.0
  C  C90  1  0.22785000  0.32616000  0.64144000  1.0
  C  C91  1  0.22182000  0.36399000  0.60704000  1.0
  C  C92  1  0.39873000  0.39817000  0.60206000  1.0
  C  C93  1  0.57743000  0.39658000  0.63348000  1.0
  C  C94  1  0.58074000  0.36032000  0.66961000  1.0
  C  C95  1  0.40682000  0.32236000  0.67211000  1.0
  C  C96  1  0.40841000  0.06151000  0.93580000  1.0
  C  C97  1  0.44519000  0.09275000  0.10070000  1.0
  C  C98  1  0.91217000  0.94026000  0.06693000  1.0
  C  C99  1  0.87522000  0.91080000  0.90343000  1.0
  Br  Br100  1  0.35173000  0.71912000  0.81414000  1.0
  Br  Br101  1  0.49072000  0.90747000  0.80789000  1.0
  Br  Br102  1  0.01038000  0.41993000  0.30642000  1.0
  Br  Br103  1  0.84965000  0.22741000  0.31274000  1.0
  Br  Br104  1  0.98575000  0.29810000  0.17587000  1.0
  Br  Br105  1  0.70391000  0.20490000  0.63275000  1.0
  Br  Br106  1  0.31343000  0.96246000  0.16199000  1.0
  Br  Br107  1  0.91943000  0.67412000  0.10045000  1.0
  O  O108  1  0.56722000  0.45396000  0.54931000  1.0
  O  O109  1  0.20259000  0.43166000  0.42620000  1.0
  O  O110  1  0.07150000  0.55262000  0.45660000  1.0
  O  O111  1  0.22745000  0.44767000  0.54514000  1.0
  O  O112  1  0.09123000  0.56540000  0.57848000  1.0
  O  O113  1  0.54015000  0.43205000  0.42638000  1.0
  O  O114  1  0.40421000  0.53980000  0.51086000  1.0
  O  O115  1  0.75613000  0.57257000  0.57442000  1.0
  O  O116  1  0.73204000  0.55168000  0.45705000  1.0
  O  O117  1  0.88672000  0.46049000  0.49016000  1.0
  O  O118  1  0.26958000  0.07038000  0.07335000  1.0
  O  O119  1  0.58254000  0.05374000  0.95749000  1.0
  O  O120  1  0.71651000  0.93234000  0.92874000  1.0
  O  O121  1  0.60649000  0.06927000  0.07950000  1.0
  O  O122  1  0.74269000  0.95321000  0.05040000  1.0
  O  O123  1  0.24404000  0.04758000  0.95402000  1.0
  O  O124  1  0.40433000  0.96077000  0.99134000  1.0
  O  O125  1  0.07981000  0.95367000  0.04947000  1.0
  O  O126  1  0.05349000  0.92908000  0.92757000  1.0
  O  O127  1  0.92238000  0.04090000  0.01149000  1.0
  O  O128  1  0.24684000  0.59029000  0.37786000  1.0
  O  O129  1  0.27828000  0.61998000  0.68613000  1.0
  O  O130  1  0.11134000  0.16867000  0.14248000  1.0
  O  O131  1  0.06392000  0.05422000  0.85672000  1.0
  O  O132  1  0.04339000  0.13175000  0.79402000  1.0
  O  O133  1  0.76525000  0.12138000  0.90943000  1.0
  O  O134  1  0.22030000  0.86781000  0.22079000  1.0
  O  O135  1  0.75622000  0.36448000  0.70273000  1.0
  O  O136  1  0.84645000  0.80447000  0.37293000  1.0
  O  O137  1  0.89194000  0.61313000  0.19222000  1.0
  O  O138  1  0.52871000  0.68639000  0.34482000  1.0
