# generated using pymatgen
data_YH18C21S2N4O11
_symmetry_space_group_name_H-M   'P 1'
_cell_length_a   8.05689000
_cell_length_b   11.61850000
_cell_length_c   14.39760000
_cell_angle_alpha   110.66000000
_cell_angle_beta   101.67500000
_cell_angle_gamma   93.58200000
_symmetry_Int_Tables_number   1
_chemical_formula_structural   YH18C21S2N4O11
_chemical_formula_sum   'Y2 H36 C42 S4 N8 O22'
_cell_volume   1221.73071595
_cell_formula_units_Z   2
loop_
 _symmetry_equiv_pos_site_id
 _symmetry_equiv_pos_as_xyz
  1  'x, y, z'
loop_
 _atom_site_type_symbol
 _atom_site_label
 _atom_site_symmetry_multiplicity
 _atom_site_fract_x
 _atom_site_fract_y
 _atom_site_fract_z
 _atom_site_occupancy
  Y  Y0  1  0.44541000  0.76592000  0.91253000  1.0
  Y  Y1  1  0.55459000  0.23408000  0.08747000  1.0
  H  H2  1  0.12292000  0.11485000  0.48615000  1.0
  H  H3  1  0.87708000  0.88515000  0.51384000  1.0
  H  H4  1  0.07343000  0.59194000  0.87773000  1.0
  H  H5  1  0.92656000  0.40805000  0.12227000  1.0
  H  H6  1  0.88669000  0.39304000  0.76893000  1.0
  H  H7  1  0.11331000  0.60695000  0.23107000  1.0
  H  H8  1  0.98592000  0.24126000  0.62399000  1.0
  H  H9  1  0.01407000  0.75874000  0.37601000  1.0
  H  H10  1  0.74326000  0.43623000  0.53774000  1.0
  H  H11  1  0.25674000  0.56377000  0.46226000  1.0
  H  H12  1  0.88707000  0.65671000  0.64985000  1.0
  H  H13  1  0.11292000  0.34329000  0.35015000  1.0
  H  H14  1  0.75456000  0.78158000  0.78665000  1.0
  H  H15  1  0.24543000  0.21842000  0.21335000  1.0
  H  H16  1  0.10357000  0.78272000  0.15750000  1.0
  H  H17  1  0.89644000  0.21728000  0.84250000  1.0
  H  H18  1  0.65044000  0.84040000  0.27977000  1.0
  H  H19  1  0.34957000  0.15960000  0.72023000  1.0
  H  H20  1  0.62623000  0.03905000  0.41464000  1.0
  H  H21  1  0.37377000  0.96095000  0.58537000  1.0
  H  H22  1  0.06100000  0.07341000  0.11590000  1.0
  H  H23  1  0.93901000  0.92659000  0.88410000  1.0
  H  H24  1  0.08398000  0.13335000  0.02231000  1.0
  H  H25  1  0.91602000  0.86665000  0.97769000  1.0
  H  H26  1  0.53475000  0.97141000  0.10751000  1.0
  H  H27  1  0.46525000  0.02860000  0.89249000  1.0
  H  H28  1  0.69545000  0.89855000  0.12824000  1.0
  H  H29  1  0.30455000  0.10146000  0.87176000  1.0
  H  H30  1  0.69214000  0.58727000  0.92880000  1.0
  H  H31  1  0.30786000  0.41273000  0.07121000  1.0
  H  H32  1  0.66327000  0.66872000  0.03566000  1.0
  H  H33  1  0.33673000  0.33128000  0.96434000  1.0
  H  H34  1  0.18697000  0.83909000  0.74992000  1.0
  H  H35  1  0.81303000  0.16091000  0.25008000  1.0
  H  H36  1  0.35031000  0.79694000  0.70777000  1.0
  H  H37  1  0.64969000  0.20307000  0.29223000  1.0
  C  C38  1  0.11062000  0.52807000  0.81174000  1.0
  C  C39  1  0.88937000  0.47192000  0.18825000  1.0
  C  C40  1  0.00672000  0.41419000  0.75071000  1.0
  C  C41  1  0.99327000  0.58580000  0.24928000  1.0
  C  C42  1  0.06079000  0.33235000  0.67057000  1.0
  C  C43  1  0.93920000  0.66765000  0.32942000  1.0
  C  C44  1  0.21676000  0.36709000  0.65078000  1.0
  C  C45  1  0.78323000  0.63291000  0.34922000  1.0
  C  C46  1  0.28958000  0.29121000  0.57221000  1.0
  C  C47  1  0.71042000  0.70879000  0.42779000  1.0
  C  C48  1  0.44649000  0.32868000  0.55579000  1.0
  C  C49  1  0.55351000  0.67132000  0.44421000  1.0
  C  C50  1  0.53949000  0.44997000  0.61591000  1.0
  C  C51  1  0.46051000  0.55003000  0.38409000  1.0
  C  C52  1  0.69191000  0.49603000  0.59924000  1.0
  C  C53  1  0.30809000  0.50397000  0.40076000  1.0
  C  C54  1  0.77053000  0.61559000  0.66029000  1.0
  C  C55  1  0.22947000  0.38441000  0.33971000  1.0
  C  C56  1  0.69691000  0.68668000  0.73810000  1.0
  C  C57  1  0.30308000  0.31331000  0.26190000  1.0
  C  C58  1  0.47204000  0.52827000  0.69598000  1.0
  C  C59  1  0.52795000  0.47173000  0.30402000  1.0
  C  C60  1  0.31261000  0.48625000  0.71467000  1.0
  C  C61  1  0.68738000  0.51375000  0.28533000  1.0
  C  C62  1  0.35642000  0.14341000  0.44495000  1.0
  C  C63  1  0.64358000  0.85659000  0.55505000  1.0
  C  C64  1  0.35266000  0.02333000  0.36392000  1.0
  C  C65  1  0.64734000  0.97667000  0.63608000  1.0
  C  C66  1  0.20471000  0.94824000  0.29080000  1.0
  C  C67  1  0.79529000  0.05177000  0.70920000  1.0
  C  C68  1  0.21860000  0.83749000  0.21442000  1.0
  C  C69  1  0.78141000  0.16251000  0.78559000  1.0
  C  C70  1  0.37884000  0.79925000  0.21132000  1.0
  C  C71  1  0.62117000  0.20076000  0.78868000  1.0
  C  C72  1  0.52600000  0.87051000  0.28350000  1.0
  C  C73  1  0.47400000  0.12949000  0.71650000  1.0
  C  C74  1  0.51205000  0.98183000  0.35834000  1.0
  C  C75  1  0.48796000  0.01817000  0.64167000  1.0
  C  C76  1  0.24590000  0.00072000  0.03304000  1.0
  C  C77  1  0.75410000  0.99928000  0.96696000  1.0
  C  C78  1  0.07579000  0.04654000  0.03706000  1.0
  C  C79  1  0.92421000  0.95346000  0.96294000  1.0
  S  S80  1  0.99337000  0.98881000  0.28968000  1.0
  S  S81  1  0.00663000  0.01119000  0.71032000  1.0
  S  S82  1  0.39430000  0.65869000  0.11239000  1.0
  S  S83  1  0.60572000  0.34131000  0.88761000  1.0
  N  N84  1  0.25882000  0.56363000  0.79479000  1.0
  N  N85  1  0.74117000  0.43637000  0.20521000  1.0
  N  N86  1  0.55362000  0.64494000  0.75661000  1.0
  N  N87  1  0.44638000  0.35506000  0.24339000  1.0
  N  N88  1  0.23478000  0.17325000  0.50073000  1.0
  N  N89  1  0.76522000  0.82675000  0.49927000  1.0
  N  N90  1  0.48712000  0.23620000  0.47704000  1.0
  N  N91  1  0.51288000  0.76380000  0.52296000  1.0
  O  O92  1  0.00015000  0.11295000  0.28258000  1.0
  O  O93  1  0.99986000  0.88705000  0.71742000  1.0
  O  O94  1  0.95766000  0.99023000  0.38644000  1.0
  O  O95  1  0.04235000  0.00977000  0.61356000  1.0
  O  O96  1  0.88171000  0.89105000  0.19920000  1.0
  O  O97  1  0.11829000  0.10895000  0.80080000  1.0
  O  O98  1  0.28277000  0.56204000  0.12399000  1.0
  O  O99  1  0.71725000  0.43796000  0.87602000  1.0
  O  O100  1  0.32657000  0.67489000  0.01462000  1.0
  O  O101  1  0.67344000  0.32511000  0.98538000  1.0
  O  O102  1  0.57533000  0.64256000  0.12806000  1.0
  O  O103  1  0.42469000  0.35745000  0.87194000  1.0
  O  O104  1  0.25206000  0.89467000  0.96858000  1.0
  O  O105  1  0.74795000  0.10533000  0.03141000  1.0
  O  O106  1  0.37971000  0.07395000  0.09691000  1.0
  O  O107  1  0.62029000  0.92605000  0.90308000  1.0
  O  O108  1  0.58207000  0.89271000  0.08273000  1.0
  O  O109  1  0.41793000  0.10730000  0.91727000  1.0
  O  O110  1  0.67400000  0.67315000  0.96912000  1.0
  O  O111  1  0.32599000  0.32685000  0.03088000  1.0
  O  O112  1  0.29921000  0.80929000  0.76568000  1.0
  O  O113  1  0.70079000  0.19071000  0.23432000  1.0
