# generated using pymatgen
data_ZnH18C32(NO)4
_symmetry_space_group_name_H-M   'P 1'
_cell_length_a   8.66821000
_cell_length_b   8.66829000
_cell_length_c   17.99950000
_cell_angle_alpha   78.63510000
_cell_angle_beta   78.63500000
_cell_angle_gamma   71.30800000
_symmetry_Int_Tables_number   1
_chemical_formula_structural   ZnH18C32(NO)4
_chemical_formula_sum   'Zn2 H36 C64 N8 O8'
_cell_volume   1242.87608710
_cell_formula_units_Z   2
loop_
 _symmetry_equiv_pos_site_id
 _symmetry_equiv_pos_as_xyz
  1  'x, y, z'
loop_
 _atom_site_type_symbol
 _atom_site_label
 _atom_site_symmetry_multiplicity
 _atom_site_fract_x
 _atom_site_fract_y
 _atom_site_fract_z
 _atom_site_occupancy
  Zn  Zn0  1  0.96684000  0.03315000  0.25000000  1.0
  Zn  Zn1  1  0.03316000  0.96685000  0.75000000  1.0
  H  H2  1  0.64918000  0.26249000  0.07075000  1.0
  H  H3  1  0.73750000  0.35083000  0.42925000  1.0
  H  H4  1  0.35083000  0.73751000  0.92925000  1.0
  H  H5  1  0.26248000  0.64917000  0.57075000  1.0
  H  H6  1  0.03157000  0.51375000  0.12914000  1.0
  H  H7  1  0.48624000  0.96843000  0.37086000  1.0
  H  H8  1  0.96844000  0.48625000  0.87086000  1.0
  H  H9  1  0.51375000  0.03156000  0.62914000  1.0
  H  H10  1  0.05629000  0.79733000  0.09544000  1.0
  H  H11  1  0.20265000  0.94372000  0.40457000  1.0
  H  H12  1  0.94372000  0.20266000  0.90456000  1.0
  H  H13  1  0.79734000  0.05628000  0.59544000  1.0
  H  H14  1  0.86240000  0.01286000  0.01795000  1.0
  H  H15  1  0.98713000  0.13761000  0.48205000  1.0
  H  H16  1  0.13762000  0.98714000  0.98205000  1.0
  H  H17  1  0.01286000  0.86239000  0.51795000  1.0
  H  H18  1  0.64633000  0.94267000  0.96890000  1.0
  H  H19  1  0.05731000  0.35370000  0.53110000  1.0
  H  H20  1  0.35369000  0.05733000  0.03110000  1.0
  H  H21  1  0.94267000  0.64631000  0.46889000  1.0
  H  H22  1  0.25132000  0.20576000  0.19026000  1.0
  H  H23  1  0.79423000  0.74868000  0.30974000  1.0
  H  H24  1  0.74868000  0.79423000  0.80974000  1.0
  H  H25  1  0.20576000  0.25134000  0.69025000  1.0
  H  H26  1  0.56234000  0.10149000  0.16587000  1.0
  H  H27  1  0.89851000  0.43766000  0.33412000  1.0
  H  H28  1  0.43766000  0.89851000  0.83412000  1.0
  H  H29  1  0.10148000  0.56235000  0.66587000  1.0
  H  H30  1  0.69880000  0.79996000  0.18629000  1.0
  H  H31  1  0.20005000  0.30120000  0.31371000  1.0
  H  H32  1  0.30120000  0.20004000  0.81370000  1.0
  H  H33  1  0.79994000  0.69880000  0.68629000  1.0
  H  H34  1  0.67007000  0.51034000  0.22894000  1.0
  H  H35  1  0.48966000  0.32993000  0.27106000  1.0
  H  H36  1  0.32993000  0.48965000  0.77106000  1.0
  H  H37  1  0.51033000  0.67006000  0.72894000  1.0
  C  C38  1  0.56959000  0.51293000  0.01375000  1.0
  C  C39  1  0.48707000  0.43041000  0.48625000  1.0
  C  C40  1  0.43041000  0.48708000  0.98625000  1.0
  C  C41  1  0.51292000  0.56959000  0.51374000  1.0
  C  C42  1  0.67258000  0.38153000  0.05824000  1.0
  C  C43  1  0.61847000  0.32743000  0.44176000  1.0
  C  C44  1  0.32743000  0.61848000  0.94176000  1.0
  C  C45  1  0.38152000  0.67257000  0.55824000  1.0
  C  C46  1  0.79635000  0.40684000  0.08764000  1.0
  C  C47  1  0.59316000  0.20366000  0.41237000  1.0
  C  C48  1  0.20367000  0.59317000  0.91236000  1.0
  C  C49  1  0.40683000  0.79634000  0.58764000  1.0
  C  C50  1  0.82352000  0.56524000  0.06916000  1.0
  C  C51  1  0.43476000  0.17649000  0.43085000  1.0
  C  C52  1  0.17649000  0.43477000  0.93085000  1.0
  C  C53  1  0.56523000  0.82351000  0.56915000  1.0
  C  C54  1  0.94840000  0.60746000  0.09398000  1.0
  C  C55  1  0.39253000  0.05161000  0.40603000  1.0
  C  C56  1  0.05162000  0.39254000  0.90603000  1.0
  C  C57  1  0.60746000  0.94838000  0.59398000  1.0
  C  C58  1  0.96150000  0.76558000  0.07508000  1.0
  C  C59  1  0.23441000  0.03852000  0.42493000  1.0
  C  C60  1  0.03852000  0.23442000  0.92492000  1.0
  C  C61  1  0.76558000  0.96148000  0.57508000  1.0
  C  C62  1  0.85226000  0.88822000  0.03018000  1.0
  C  C63  1  0.11177000  0.14775000  0.46982000  1.0
  C  C64  1  0.14775000  0.11178000  0.96982000  1.0
  C  C65  1  0.88822000  0.85225000  0.53018000  1.0
  C  C66  1  0.73223000  0.85052000  0.00357000  1.0
  C  C67  1  0.14947000  0.26779000  0.49643000  1.0
  C  C68  1  0.26779000  0.14948000  0.99643000  1.0
  C  C69  1  0.85052000  0.73222000  0.50357000  1.0
  C  C70  1  0.71430000  0.68964000  0.02226000  1.0
  C  C71  1  0.31036000  0.28571000  0.47774000  1.0
  C  C72  1  0.28571000  0.31037000  0.97774000  1.0
  C  C73  1  0.68963000  0.71429000  0.52226000  1.0
  C  C74  1  0.88229000  0.27227000  0.14496000  1.0
  C  C75  1  0.72773000  0.11771000  0.35505000  1.0
  C  C76  1  0.11772000  0.72773000  0.85504000  1.0
  C  C77  1  0.27227000  0.88229000  0.64496000  1.0
  C  C78  1  0.31710000  0.07487000  0.19990000  1.0
  C  C79  1  0.92513000  0.68290000  0.30010000  1.0
  C  C80  1  0.68290000  0.92513000  0.80010000  1.0
  C  C81  1  0.07488000  0.31710000  0.69990000  1.0
  C  C82  1  0.48946000  0.01600000  0.18567000  1.0
  C  C83  1  0.98400000  0.51054000  0.31433000  1.0
  C  C84  1  0.51055000  0.98399000  0.81433000  1.0
  C  C85  1  0.01599000  0.48947000  0.68567000  1.0
  C  C86  1  0.56527000  0.84830000  0.19786000  1.0
  C  C87  1  0.15171000  0.43474000  0.30214000  1.0
  C  C88  1  0.43473000  0.15171000  0.80214000  1.0
  C  C89  1  0.84830000  0.56526000  0.69786000  1.0
  C  C90  1  0.46907000  0.73871000  0.22435000  1.0
  C  C91  1  0.26129000  0.53093000  0.27564000  1.0
  C  C92  1  0.53093000  0.26128000  0.77564000  1.0
  C  C93  1  0.73870000  0.46907000  0.72436000  1.0
  C  C94  1  0.53660000  0.56331000  0.23807000  1.0
  C  C95  1  0.43670000  0.46340000  0.26193000  1.0
  C  C96  1  0.46340000  0.43669000  0.76193000  1.0
  C  C97  1  0.56330000  0.53659000  0.73807000  1.0
  C  C98  1  0.29588000  0.80928000  0.23705000  1.0
  C  C99  1  0.19073000  0.70412000  0.26295000  1.0
  C  C100  1  0.70411000  0.19073000  0.76295000  1.0
  C  C101  1  0.80928000  0.29588000  0.73705000  1.0
  N  N102  1  0.58936000  0.66240000  0.99627000  1.0
  N  N103  1  0.33759000  0.41066000  0.50373000  1.0
  N  N104  1  0.41065000  0.33761000  0.00374000  1.0
  N  N105  1  0.66239000  0.58935000  0.49626000  1.0
  N  N106  1  0.22357000  0.97425000  0.22544000  1.0
  N  N107  1  0.02575000  0.77643000  0.27456000  1.0
  N  N108  1  0.77643000  0.02574000  0.77457000  1.0
  N  N109  1  0.97425000  0.22357000  0.72544000  1.0
  O  O110  1  0.93448000  0.30983000  0.19811000  1.0
  O  O111  1  0.69017000  0.06552000  0.30189000  1.0
  O  O112  1  0.06552000  0.69017000  0.80189000  1.0
  O  O113  1  0.30982000  0.93448000  0.69811000  1.0
  O  O114  1  0.88882000  0.12316000  0.14266000  1.0
  O  O115  1  0.87683000  0.11117000  0.35735000  1.0
  O  O116  1  0.11118000  0.87684000  0.85734000  1.0
  O  O117  1  0.12316000  0.88882000  0.64266000  1.0
