# generated using pymatgen
data_CuH6(C4N5)2
_symmetry_space_group_name_H-M   'P 1'
_cell_length_a   5.03126000
_cell_length_b   10.27420000
_cell_length_c   11.49880000
_cell_angle_alpha   67.97190000
_cell_angle_beta   83.93000000
_cell_angle_gamma   87.05480000
_symmetry_Int_Tables_number   1
_chemical_formula_structural   CuH6(C4N5)2
_chemical_formula_sum   'Cu2 H12 C16 N20'
_cell_volume   547.87336408
_cell_formula_units_Z   2
loop_
 _symmetry_equiv_pos_site_id
 _symmetry_equiv_pos_as_xyz
  1  'x, y, z'
loop_
 _atom_site_type_symbol
 _atom_site_label
 _atom_site_symmetry_multiplicity
 _atom_site_fract_x
 _atom_site_fract_y
 _atom_site_fract_z
 _atom_site_occupancy
  Cu  Cu0  1  0.55415000  0.17165000  0.24026000  1.0
  Cu  Cu1  1  0.44585000  0.82835000  0.75974000  1.0
  H  H2  1  0.10608000  0.63316000  0.37483000  1.0
  H  H3  1  0.89394000  0.36684000  0.62518000  1.0
  H  H4  1  0.67042000  0.64371000  0.50584000  1.0
  H  H5  1  0.32959000  0.35630000  0.49416000  1.0
  H  H6  1  0.42432000  0.87847000  0.44323000  1.0
  H  H7  1  0.57567000  0.12153000  0.55677000  1.0
  H  H8  1  0.48129000  0.19713000  0.88273000  1.0
  H  H9  1  0.51872000  0.80287000  0.11728000  1.0
  H  H10  1  0.18765000  0.41630000  0.83550000  1.0
  H  H11  1  0.81234000  0.58370000  0.16450000  1.0
  H  H12  1  0.78256000  0.40648000  0.99297000  1.0
  H  H13  1  0.21743000  0.59351000  0.00703000  1.0
  C  C14  1  0.93782000  0.95894000  0.22854000  1.0
  C  C15  1  0.06218000  0.04106000  0.77146000  1.0
  C  C16  1  0.98624000  0.72935000  0.35451000  1.0
  C  C17  1  0.01377000  0.27065000  0.64549000  1.0
  C  C18  1  0.74625000  0.73459000  0.42532000  1.0
  C  C19  1  0.25376000  0.26541000  0.57468000  1.0
  C  C20  1  0.61018000  0.86283000  0.39196000  1.0
  C  C21  1  0.38981000  0.13717000  0.60804000  1.0
  C  C22  1  0.02247000  0.08640000  0.11837000  1.0
  C  C23  1  0.97754000  0.91360000  0.88163000  1.0
  C  C24  1  0.30108000  0.20136000  0.94373000  1.0
  C  C25  1  0.69892000  0.79864000  0.05627000  1.0
  C  C26  1  0.14091000  0.32225000  0.91839000  1.0
  C  C27  1  0.85908000  0.67775000  0.08161000  1.0
  C  C28  1  0.91825000  0.31729000  0.00251000  1.0
  C  C29  1  0.08173000  0.68270000  0.99749000  1.0
  N  N30  1  0.83916000  0.23663000  0.36515000  1.0
  N  N31  1  0.16084000  0.76336000  0.63485000  1.0
  N  N32  1  0.04280000  0.17520000  0.36563000  1.0
  N  N33  1  0.95720000  0.82480000  0.63437000  1.0
  N  N34  1  0.24521000  0.10779000  0.36878000  1.0
  N  N35  1  0.75479000  0.89221000  0.63121000  1.0
  N  N36  1  0.41369000  0.36397000  0.16083000  1.0
  N  N37  1  0.58630000  0.63603000  0.83917000  1.0
  N  N38  1  0.38950000  0.43438000  0.22482000  1.0
  N  N39  1  0.61049000  0.56562000  0.77518000  1.0
  N  N40  1  0.36623000  0.50774000  0.28245000  1.0
  N  N41  1  0.63376000  0.49226000  0.71755000  1.0
  N  N42  1  0.70608000  0.97437000  0.29347000  1.0
  N  N43  1  0.29392000  0.02563000  0.70653000  1.0
  N  N44  1  0.08264000  0.84092000  0.25542000  1.0
  N  N45  1  0.91736000  0.15908000  0.74458000  1.0
  N  N46  1  0.85838000  0.19907000  0.10197000  1.0
  N  N47  1  0.14162000  0.80093000  0.89803000  1.0
  N  N48  1  0.24244000  0.08328000  0.04398000  1.0
  N  N49  1  0.75757000  0.91672000  0.95602000  1.0
