# generated using pymatgen
data_CuH12(C7N5)2
_symmetry_space_group_name_H-M   'P 1'
_cell_length_a   7.19974000
_cell_length_b   7.54770000
_cell_length_c   14.33420000
_cell_angle_alpha   90.00010000
_cell_angle_beta   90.00050000
_cell_angle_gamma   99.55390000
_symmetry_Int_Tables_number   1
_chemical_formula_structural   CuH12(C7N5)2
_chemical_formula_sum   'Cu2 H24 C28 N20'
_cell_volume   768.13760976
_cell_formula_units_Z   2
loop_
 _symmetry_equiv_pos_site_id
 _symmetry_equiv_pos_as_xyz
  1  'x, y, z'
loop_
 _atom_site_type_symbol
 _atom_site_label
 _atom_site_symmetry_multiplicity
 _atom_site_fract_x
 _atom_site_fract_y
 _atom_site_fract_z
 _atom_site_occupancy
  Cu  Cu0  1  0.00000000  0.50000000  0.50000000  1.0
  Cu  Cu1  1  0.50000000  0.50000000  0.00000000  1.0
  H  H2  1  0.98912000  0.86634000  0.43252000  1.0
  H  H3  1  0.51088000  0.13366000  0.93252000  1.0
  H  H4  1  0.01089000  0.13366000  0.56748000  1.0
  H  H5  1  0.48912000  0.86634000  0.06748000  1.0
  H  H6  1  0.07763000  0.39467000  0.30447000  1.0
  H  H7  1  0.42238000  0.60533000  0.80448000  1.0
  H  H8  1  0.92238000  0.60533000  0.69552000  1.0
  H  H9  1  0.57762000  0.39467000  0.19553000  1.0
  H  H10  1  0.08513000  0.53779000  0.14613000  1.0
  H  H11  1  0.41487000  0.46221000  0.64614000  1.0
  H  H12  1  0.91487000  0.46221000  0.85386000  1.0
  H  H13  1  0.58514000  0.53779000  0.35387000  1.0
  H  H14  1  0.03477000  0.85592000  0.13203000  1.0
  H  H15  1  0.46523000  0.14408000  0.63203000  1.0
  H  H16  1  0.96522000  0.14408000  0.86797000  1.0
  H  H17  1  0.53478000  0.85592000  0.36797000  1.0
  H  H18  1  0.92513000  0.11494000  0.33628000  1.0
  H  H19  1  0.57487000  0.88506000  0.83629000  1.0
  H  H20  1  0.07486000  0.88506000  0.66372000  1.0
  H  H21  1  0.42513000  0.11494000  0.16372000  1.0
  H  H22  1  0.93849000  0.10910000  0.21729000  1.0
  H  H23  1  0.56151000  0.89090000  0.71729000  1.0
  H  H24  1  0.06151000  0.89089000  0.78271000  1.0
  H  H25  1  0.43849000  0.10910000  0.28272000  1.0
  C  C26  1  0.33259000  0.29671000  0.45472000  1.0
  C  C27  1  0.16741000  0.70329000  0.95472000  1.0
  C  C28  1  0.66741000  0.70329000  0.54527000  1.0
  C  C29  1  0.83259000  0.29671000  0.04528000  1.0
  C  C30  1  0.62535000  0.21154000  0.43563000  1.0
  C  C31  1  0.87465000  0.78845000  0.93563000  1.0
  C  C32  1  0.37464000  0.78847000  0.56436000  1.0
  C  C33  1  0.12535000  0.21155000  0.06437000  1.0
  C  C34  1  0.00791000  0.88931000  0.28132000  1.0
  C  C35  1  0.49209000  0.11068000  0.78133000  1.0
  C  C36  1  0.99209000  0.11068000  0.71867000  1.0
  C  C37  1  0.50791000  0.88932000  0.21868000  1.0
  C  C38  1  0.00835000  0.79827000  0.36714000  1.0
  C  C39  1  0.49165000  0.20173000  0.86715000  1.0
  C  C40  1  0.99166000  0.20172000  0.63285000  1.0
  C  C41  1  0.50835000  0.79827000  0.13286000  1.0
  C  C42  1  0.05655000  0.53285000  0.29540000  1.0
  C  C43  1  0.44345000  0.46714000  0.79541000  1.0
  C  C44  1  0.94345000  0.46714000  0.70459000  1.0
  C  C45  1  0.55655000  0.53285000  0.20460000  1.0
  C  C46  1  0.05988000  0.61396000  0.20796000  1.0
  C  C47  1  0.44012000  0.38604000  0.70797000  1.0
  C  C48  1  0.94012000  0.38604000  0.79203000  1.0
  C  C49  1  0.55989000  0.61396000  0.29204000  1.0
  C  C50  1  0.03427000  0.79145000  0.20010000  1.0
  C  C51  1  0.46573000  0.20855000  0.70010000  1.0
  C  C52  1  0.96573000  0.20855000  0.79990000  1.0
  C  C53  1  0.53427000  0.79145000  0.29990000  1.0
  N  N54  1  0.21896000  0.38647000  0.47344000  1.0
  N  N55  1  0.28104000  0.61354000  0.97344000  1.0
  N  N56  1  0.78104000  0.61354000  0.52656000  1.0
  N  N57  1  0.71896000  0.38647000  0.02656000  1.0
  N  N58  1  0.44270000  0.18590000  0.43134000  1.0
  N  N59  1  0.05729000  0.81410000  0.93134000  1.0
  N  N60  1  0.55729000  0.81411000  0.56866000  1.0
  N  N61  1  0.94271000  0.18590000  0.06866000  1.0
  N  N62  1  0.02920000  0.62570000  0.37287000  1.0
  N  N63  1  0.47080000  0.37430000  0.87288000  1.0
  N  N64  1  0.97081000  0.37430000  0.62712000  1.0
  N  N65  1  0.52920000  0.62570000  0.12713000  1.0
  N  N66  1  0.79046000  0.21860000  0.43454000  1.0
  N  N67  1  0.70953000  0.78139000  0.93454000  1.0
  N  N68  1  0.20954000  0.78140000  0.56546000  1.0
  N  N69  1  0.29046000  0.21861000  0.06546000  1.0
  N  N70  1  0.98575000  0.06637000  0.27894000  1.0
  N  N71  1  0.51425000  0.93362000  0.77895000  1.0
  N  N72  1  0.01425000  0.93362000  0.72105000  1.0
  N  N73  1  0.48575000  0.06637000  0.22106000  1.0
