# generated using pymatgen
data_Co3H70C64(N2O5)4
_symmetry_space_group_name_H-M   'P 1'
_cell_length_a   9.50863000
_cell_length_b   10.11820000
_cell_length_c   19.38050000
_cell_angle_alpha   75.96230000
_cell_angle_beta   81.26200000
_cell_angle_gamma   87.52360000
_symmetry_Int_Tables_number   1
_chemical_formula_structural   Co3H70C64(N2O5)4
_chemical_formula_sum   'Co3 H70 C64 N8 O20'
_cell_volume   1787.88351472
_cell_formula_units_Z   1
loop_
 _symmetry_equiv_pos_site_id
 _symmetry_equiv_pos_as_xyz
  1  'x, y, z'
loop_
 _atom_site_type_symbol
 _atom_site_label
 _atom_site_symmetry_multiplicity
 _atom_site_fract_x
 _atom_site_fract_y
 _atom_site_fract_z
 _atom_site_occupancy
  Co  Co0  1  0.69062000  0.38733000  0.72722000  1.0
  Co  Co1  1  0.31166000  0.61920000  0.27057000  1.0
  Co  Co2  1  0.00124000  0.00116000  0.99962000  1.0
  H  H3  1  0.70140000  0.91648000  0.75365000  1.0
  H  H4  1  0.29800000  0.09014000  0.24815000  1.0
  H  H5  1  0.73308000  0.17771000  0.54163000  1.0
  H  H6  1  0.25888000  0.81885000  0.45752000  1.0
  H  H7  1  0.76261000  0.74064000  0.56927000  1.0
  H  H8  1  0.23113000  0.25481000  0.43624000  1.0
  H  H9  1  0.84914000  0.16713000  0.43477000  1.0
  H  H10  1  0.14812000  0.82456000  0.56773000  1.0
  H  H11  1  0.65995000  0.15171000  0.44367000  1.0
  H  H12  1  0.33712000  0.84391000  0.55717000  1.0
  H  H13  1  0.54913000  0.08681000  0.35051000  1.0
  H  H14  1  0.44934000  0.90997000  0.64942000  1.0
  H  H15  1  0.57356000  0.07497000  0.22216000  1.0
  H  H16  1  0.42706000  0.92567000  0.77717000  1.0
  H  H17  1  0.02965000  0.08557000  0.20716000  1.0
  H  H18  1  0.97090000  0.91419000  0.79431000  1.0
  H  H19  1  0.00535000  0.10573000  0.33340000  1.0
  H  H20  1  0.99292000  0.88929000  0.66894000  1.0
  H  H21  1  0.48350000  0.19665000  0.81858000  1.0
  H  H22  1  0.54354000  0.80849000  0.18033000  1.0
  H  H23  1  0.23433000  0.20834000  0.87856000  1.0
  H  H24  1  0.79209000  0.79055000  0.11930000  1.0
  H  H25  1  0.22207000  0.62879000  0.76035000  1.0
  H  H26  1  0.79214000  0.36792000  0.23526000  1.0
  H  H27  1  0.47125000  0.60005000  0.70561000  1.0
  H  H28  1  0.54290000  0.40337000  0.29022000  1.0
  H  H29  1  0.00952000  0.53307000  0.83136000  1.0
  H  H30  1  0.00677000  0.46055000  0.16394000  1.0
  H  H31  1  0.98855000  0.35396000  0.85791000  1.0
  H  H32  1  0.03121000  0.63946000  0.13922000  1.0
  H  H33  1  0.09471000  0.64766000  0.91684000  1.0
  H  H34  1  0.91898000  0.35182000  0.07870000  1.0
  H  H35  1  0.24289000  0.53553000  0.92653000  1.0
  H  H36  1  0.77224000  0.46548000  0.06861000  1.0
  H  H37  1  0.85168000  0.54752000  0.93864000  1.0
  H  H38  1  0.16500000  0.45262000  0.05646000  1.0
  H  H39  1  0.83721000  0.36652000  0.96196000  1.0
  H  H40  1  0.17791000  0.63403000  0.03322000  1.0
  H  H41  1  0.92649000  0.22250000  0.78110000  1.0
  H  H42  1  0.05053000  0.78542000  0.22001000  1.0
  H  H43  1  0.17657000  0.17905000  0.73044000  1.0
  H  H44  1  0.80322000  0.82875000  0.27443000  1.0
  H  H45  1  0.12132000  0.48924000  0.54053000  1.0
  H  H46  1  0.86321000  0.50834000  0.45931000  1.0
  H  H47  1  0.87154000  0.52226000  0.59933000  1.0
  H  H48  1  0.11021000  0.47585000  0.39681000  1.0
  H  H49  1  0.38384000  0.26062000  0.63841000  1.0
  H  H50  1  0.59798000  0.74033000  0.36582000  1.0
  H  H51  1  0.30376000  0.20979000  0.57244000  1.0
  H  H52  1  0.67967000  0.78931000  0.43185000  1.0
  H  H53  1  0.50650000  0.47574000  0.60496000  1.0
  H  H54  1  0.47844000  0.52356000  0.39789000  1.0
  H  H55  1  0.33390000  0.55227000  0.60209000  1.0
  H  H56  1  0.65061000  0.44674000  0.40102000  1.0
  H  H57  1  0.45564000  0.28809000  0.46855000  1.0
  H  H58  1  0.52746000  0.71172000  0.53380000  1.0
  H  H59  1  0.58027000  0.31593000  0.52441000  1.0
  H  H60  1  0.40339000  0.68164000  0.47825000  1.0
  H  H61  1  0.74194000  0.50358000  0.82003000  1.0
  H  H62  1  0.26116000  0.48936000  0.18701000  1.0
  H  H63  1  0.64639000  0.38093000  0.86988000  1.0
  H  H64  1  0.36273000  0.60988000  0.13479000  1.0
  H  H65  1  0.77039000  0.06700000  0.94105000  1.0
  H  H66  1  0.22945000  0.92976000  0.06058000  1.0
  H  H67  1  0.76198000  0.10435000  0.01897000  1.0
  H  H68  1  0.23928000  0.89611000  0.98184000  1.0
  H  H69  1  0.09474000  0.27767000  0.97899000  1.0
  H  H70  1  0.91577000  0.72246000  0.01817000  1.0
  H  H71  1  0.08714000  0.17059000  0.05502000  1.0
  H  H72  1  0.91951000  0.83096000  0.94300000  1.0
  C  C73  1  0.73204000  0.67495000  0.71522000  1.0
  C  C74  1  0.26811000  0.32620000  0.29008000  1.0
  C  C75  1  0.73330000  0.81501000  0.66619000  1.0
  C  C76  1  0.26294000  0.18596000  0.33764000  1.0
  C  C77  1  0.71479000  0.92947000  0.69562000  1.0
  C  C78  1  0.28254000  0.07465000  0.30632000  1.0
  C  C79  1  0.71177000  0.05886000  0.64962000  1.0
  C  C80  1  0.28387000  0.94392000  0.35049000  1.0
  C  C81  1  0.68737000  0.18689000  0.67510000  1.0
  C  C82  1  0.30905000  0.82438000  0.31843000  1.0
  C  C83  1  0.73266000  0.07454000  0.57489000  1.0
  C  C84  1  0.26086000  0.92313000  0.42550000  1.0
  C  C85  1  0.75200000  0.96084000  0.54560000  1.0
  C  C86  1  0.24166000  0.03488000  0.45658000  1.0
  C  C87  1  0.75063000  0.83020000  0.59157000  1.0
  C  C88  1  0.24379000  0.16712000  0.41239000  1.0
  C  C89  1  0.76255000  0.10513000  0.42735000  1.0
  C  C90  1  0.23392000  0.88843000  0.57434000  1.0
  C  C91  1  0.77592000  0.09618000  0.35054000  1.0
  C  C92  1  0.22229000  0.89873000  0.65082000  1.0
  C  C93  1  0.65452000  0.08777000  0.31886000  1.0
  C  C94  1  0.34443000  0.90930000  0.68148000  1.0
  C  C95  1  0.66754000  0.08083000  0.24721000  1.0
  C  C96  1  0.33263000  0.91890000  0.75267000  1.0
  C  C97  1  0.80284000  0.07893000  0.20669000  1.0
  C  C98  1  0.19799000  0.92178000  0.79357000  1.0
  C  C99  1  0.92435000  0.08779000  0.23827000  1.0
  C  C100  1  0.07572000  0.91129000  0.76288000  1.0
  C  C101  1  0.91054000  0.09780000  0.30937000  1.0
  C  C102  1  0.08822000  0.89841000  0.69233000  1.0
  C  C103  1  0.81643000  0.06378000  0.13084000  1.0
  C  C104  1  0.18564000  0.93881000  0.86900000  1.0
  C  C105  1  0.42187000  0.29083000  0.80821000  1.0
  C  C106  1  0.60258000  0.71246000  0.18996000  1.0
  C  C107  1  0.28231000  0.29866000  0.84096000  1.0
  C  C108  1  0.74107000  0.70135000  0.15644000  1.0
  C  C109  1  0.20594000  0.42139000  0.82558000  1.0
  C  C110  1  0.81305000  0.57614000  0.17133000  1.0
  C  C111  1  0.27566000  0.53069000  0.77541000  1.0
  C  C112  1  0.74117000  0.46755000  0.22103000  1.0
  C  C113  1  0.41511000  0.51613000  0.74447000  1.0
  C  C114  1  0.60243000  0.48637000  0.25208000  1.0
  C  C115  1  0.05589000  0.43748000  0.86065000  1.0
  C  C116  1  0.96203000  0.55793000  0.13565000  1.0
  C  C117  1  0.13073000  0.54821000  0.94787000  1.0
  C  C118  1  0.88441000  0.45179000  0.04756000  1.0
  C  C119  1  0.89731000  0.45180000  0.96849000  1.0
  C  C120  1  0.11838000  0.54816000  0.02690000  1.0
  C  C121  1  0.97452000  0.28074000  0.72852000  1.0
  C  C122  1  0.00492000  0.72463000  0.27262000  1.0
  C  C123  1  0.11310000  0.25681000  0.69946000  1.0
  C  C124  1  0.86757000  0.74903000  0.30346000  1.0
  C  C125  1  0.16906000  0.32983000  0.63054000  1.0
  C  C126  1  0.81341000  0.67223000  0.37176000  1.0
  C  C127  1  0.08156000  0.42930000  0.59428000  1.0
  C  C128  1  0.90157000  0.57072000  0.40594000  1.0
  C  C129  1  0.94427000  0.44883000  0.62649000  1.0
  C  C130  1  0.03736000  0.55192000  0.37148000  1.0
  C  C131  1  0.31494000  0.29694000  0.59607000  1.0
  C  C132  1  0.66817000  0.70322000  0.40750000  1.0
  C  C133  1  0.42592000  0.51626000  0.56954000  1.0
  C  C134  1  0.55857000  0.48271000  0.43352000  1.0
  C  C135  1  0.49614000  0.36387000  0.49280000  1.0
  C  C136  1  0.48784000  0.63469000  0.51005000  1.0
  N  N137  1  0.49022000  0.39866000  0.76098000  1.0
  N  N138  1  0.53243000  0.60627000  0.23667000  1.0
  N  N139  1  0.04722000  0.43707000  0.93765000  1.0
  N  N140  1  0.96874000  0.56187000  0.05837000  1.0
  N  N141  1  0.89027000  0.37544000  0.69267000  1.0
  N  N142  1  0.08954000  0.62730000  0.30572000  1.0
  N  N143  1  0.37769000  0.40947000  0.53934000  1.0
  N  N144  1  0.60665000  0.58948000  0.46387000  1.0
  O  O145  1  0.70012000  0.57955000  0.68659000  1.0
  O  O146  1  0.30332000  0.41988000  0.31816000  1.0
  O  O147  1  0.75825000  0.65961000  0.77863000  1.0
  O  O148  1  0.24062000  0.34324000  0.22633000  1.0
  O  O149  1  0.68615000  0.18556000  0.74226000  1.0
  O  O150  1  0.32037000  0.83928000  0.25024000  1.0
  O  O151  1  0.67278000  0.29800000  0.62985000  1.0
  O  O152  1  0.31561000  0.70571000  0.35999000  1.0
  O  O153  1  0.93651000  0.01784000  0.10510000  1.0
  O  O154  1  0.06604000  0.98613000  0.89441000  1.0
  O  O155  1  0.71072000  0.09586000  0.09718000  1.0
  O  O156  1  0.29120000  0.90652000  0.90271000  1.0
  O  O157  1  0.77078000  0.96917000  0.47312000  1.0
  O  O158  1  0.22205000  0.02413000  0.52924000  1.0
  O  O159  1  0.73390000  0.39993000  0.83606000  1.0
  O  O160  1  0.27612000  0.59487000  0.16945000  1.0
  O  O161  1  0.12007000  0.17951000  0.00383000  1.0
  O  O162  1  0.88595000  0.81947000  0.99431000  1.0
  O  O163  1  0.82231000  0.11181000  0.96845000  1.0
  O  O164  1  0.17822000  0.88681000  0.03209000  1.0
