# generated using pymatgen
data_TbH9C12NO7
_symmetry_space_group_name_H-M   'P 1'
_cell_length_a   8.48883000
_cell_length_b   9.14906000
_cell_length_c   15.40710000
_cell_angle_alpha   90.00000000
_cell_angle_beta   89.99990000
_cell_angle_gamma   102.75200000
_symmetry_Int_Tables_number   1
_chemical_formula_structural   TbH9C12NO7
_chemical_formula_sum   'Tb4 H36 C48 N4 O28'
_cell_volume   1167.07523006
_cell_formula_units_Z   4
loop_
 _symmetry_equiv_pos_site_id
 _symmetry_equiv_pos_as_xyz
  1  'x, y, z'
loop_
 _atom_site_type_symbol
 _atom_site_label
 _atom_site_symmetry_multiplicity
 _atom_site_fract_x
 _atom_site_fract_y
 _atom_site_fract_z
 _atom_site_occupancy
  Tb  Tb0  1  0.98823000  0.89632000  0.11305000  1.0
  Tb  Tb1  1  0.51177000  0.10368000  0.61304000  1.0
  Tb  Tb2  1  0.01177000  0.10368000  0.88696000  1.0
  Tb  Tb3  1  0.48823000  0.89632000  0.38695000  1.0
  H  H4  1  0.34266000  0.37133000  0.12415000  1.0
  H  H5  1  0.15733000  0.62867000  0.62415000  1.0
  H  H6  1  0.65733000  0.62867000  0.87585000  1.0
  H  H7  1  0.84266000  0.37133000  0.37585000  1.0
  H  H8  1  0.55024000  0.15145000  0.06030000  1.0
  H  H9  1  0.94976000  0.84855000  0.56030000  1.0
  H  H10  1  0.44976000  0.84855000  0.93970000  1.0
  H  H11  1  0.05024000  0.15145000  0.43970000  1.0
  H  H12  1  0.46769000  0.12605000  0.95435000  1.0
  H  H13  1  0.03231000  0.87395000  0.45435000  1.0
  H  H14  1  0.53232000  0.87395000  0.04565000  1.0
  H  H15  1  0.96769000  0.12605000  0.54565000  1.0
  H  H16  1  0.61620000  0.35361000  0.89104000  1.0
  H  H17  1  0.88380000  0.64639000  0.39104000  1.0
  H  H18  1  0.38380000  0.64639000  0.10896000  1.0
  H  H19  1  0.11620000  0.35361000  0.60896000  1.0
  H  H20  1  0.90401000  0.51790000  0.01777000  1.0
  H  H21  1  0.59599000  0.48210000  0.51777000  1.0
  H  H22  1  0.09599000  0.48210000  0.98223000  1.0
  H  H23  1  0.40401000  0.51790000  0.48223000  1.0
  H  H24  1  0.63528000  0.44546000  0.30092000  1.0
  H  H25  1  0.86472000  0.55454000  0.80092000  1.0
  H  H26  1  0.36472000  0.55454000  0.69908000  1.0
  H  H27  1  0.13528000  0.44546000  0.19908000  1.0
  H  H28  1  0.72757000  0.22594000  0.23262000  1.0
  H  H29  1  0.77243000  0.77406000  0.73262000  1.0
  H  H30  1  0.27243000  0.77406000  0.76738000  1.0
  H  H31  1  0.22757000  0.22594000  0.26738000  1.0
  H  H32  1  0.94942000  0.01316000  0.29593000  1.0
  H  H33  1  0.55058000  0.98684000  0.79593000  1.0
  H  H34  1  0.05058000  0.98684000  0.70407000  1.0
  H  H35  1  0.44942000  0.01316000  0.20407000  1.0
  H  H36  1  0.12050000  0.96301000  0.28599000  1.0
  H  H37  1  0.37950000  0.03700000  0.78599000  1.0
  H  H38  1  0.87950000  0.03699000  0.71401000  1.0
  H  H39  1  0.62050000  0.96301000  0.21401000  1.0
  C  C40  1  0.47449000  0.34259000  0.00815000  1.0
  C  C41  1  0.02551000  0.65741000  0.50815000  1.0
  C  C42  1  0.52551000  0.65741000  0.99185000  1.0
  C  C43  1  0.97448000  0.34259000  0.49185000  1.0
  C  C44  1  0.41153000  0.42741000  0.06925000  1.0
  C  C45  1  0.08847000  0.57260000  0.56925000  1.0
  C  C46  1  0.58847000  0.57260000  0.93075000  1.0
  C  C47  1  0.91153000  0.42741000  0.43075000  1.0
  C  C48  1  0.29384000  0.09255000  0.05522000  1.0
  C  C49  1  0.20616000  0.90745000  0.55522000  1.0
  C  C50  1  0.70616000  0.90745000  0.94478000  1.0
  C  C51  1  0.79384000  0.09255000  0.44478000  1.0
  C  C52  1  0.45427000  0.17532000  0.01829000  1.0
  C  C53  1  0.04573000  0.82469000  0.51829000  1.0
  C  C54  1  0.54573000  0.82469000  0.98171000  1.0
  C  C55  1  0.95427000  0.17532000  0.48171000  1.0
  C  C56  1  0.56402000  0.41749000  0.93875000  1.0
  C  C57  1  0.93598000  0.58251000  0.43875000  1.0
  C  C58  1  0.43598000  0.58251000  0.06125000  1.0
  C  C59  1  0.06402000  0.41749000  0.56125000  1.0
  C  C60  1  0.73710000  0.59414000  0.19802000  1.0
  C  C61  1  0.76290000  0.40586000  0.69802000  1.0
  C  C62  1  0.26290000  0.40586000  0.80198000  1.0
  C  C63  1  0.23710000  0.59414000  0.30198000  1.0
  C  C64  1  0.84993000  0.49784000  0.08164000  1.0
  C  C65  1  0.65007000  0.50216000  0.58164000  1.0
  C  C66  1  0.15007000  0.50216000  0.91836000  1.0
  C  C67  1  0.34993000  0.49784000  0.41836000  1.0
  C  C68  1  0.70034000  0.45571000  0.23957000  1.0
  C  C69  1  0.79967000  0.54428000  0.73957000  1.0
  C  C70  1  0.29967000  0.54428000  0.76043000  1.0
  C  C71  1  0.20033000  0.45571000  0.26043000  1.0
  C  C72  1  0.68991000  0.73108000  0.23351000  1.0
  C  C73  1  0.81008000  0.26892000  0.73351000  1.0
  C  C74  1  0.31008000  0.26892000  0.76649000  1.0
  C  C75  1  0.18991000  0.73108000  0.26649000  1.0
  C  C76  1  0.82248000  0.35517000  0.11931000  1.0
  C  C77  1  0.67752000  0.64483000  0.61931000  1.0
  C  C78  1  0.17752000  0.64483000  0.88069000  1.0
  C  C79  1  0.32247000  0.35517000  0.38069000  1.0
  C  C80  1  0.74981000  0.33533000  0.20125000  1.0
  C  C81  1  0.75019000  0.66467000  0.70125000  1.0
  C  C82  1  0.25019000  0.66467000  0.79875000  1.0
  C  C83  1  0.24981000  0.33533000  0.29875000  1.0
  C  C84  1  0.87498000  0.22826000  0.07355000  1.0
  C  C85  1  0.62502000  0.77174000  0.57355000  1.0
  C  C86  1  0.12502000  0.77174000  0.92645000  1.0
  C  C87  1  0.37498000  0.22826000  0.42645000  1.0
  N  N88  1  0.81580000  0.61639000  0.12151000  1.0
  N  N89  1  0.68420000  0.38361000  0.62151000  1.0
  N  N90  1  0.18420000  0.38361000  0.87849000  1.0
  N  N91  1  0.31580000  0.61639000  0.37849000  1.0
  O  O92  1  0.89189000  0.11978000  0.12099000  1.0
  O  O93  1  0.60811000  0.88022000  0.62099000  1.0
  O  O94  1  0.10811000  0.88022000  0.87901000  1.0
  O  O95  1  0.39189000  0.11978000  0.37901000  1.0
  O  O96  1  0.89861000  0.24014000  0.99190000  1.0
  O  O97  1  0.60139000  0.75986000  0.49190000  1.0
  O  O98  1  0.10139000  0.75986000  0.00809000  1.0
  O  O99  1  0.39862000  0.24014000  0.50809000  1.0
  O  O100  1  0.60507000  0.72193000  0.30112000  1.0
  O  O101  1  0.89493000  0.27806000  0.80112000  1.0
  O  O102  1  0.39493000  0.27806000  0.69888000  1.0
  O  O103  1  0.10507000  0.72193000  0.19888000  1.0
  O  O104  1  0.16236000  0.09458000  0.01457000  1.0
  O  O105  1  0.33764000  0.90542000  0.51457000  1.0
  O  O106  1  0.83764000  0.90542000  0.98543000  1.0
  O  O107  1  0.66236000  0.09458000  0.48543000  1.0
  O  O108  1  0.28776000  0.01735000  0.12498000  1.0
  O  O109  1  0.21224000  0.98265000  0.62498000  1.0
  O  O110  1  0.71224000  0.98265000  0.87502000  1.0
  O  O111  1  0.78776000  0.01735000  0.37502000  1.0
  O  O112  1  0.73923000  0.85118000  0.18901000  1.0
  O  O113  1  0.76077000  0.14881000  0.68901000  1.0
  O  O114  1  0.26077000  0.14882000  0.81099000  1.0
  O  O115  1  0.23923000  0.85119000  0.31099000  1.0
  O  O116  1  0.03821000  0.00753000  0.25535000  1.0
  O  O117  1  0.46179000  0.99247000  0.75535000  1.0
  O  O118  1  0.96179000  0.99247000  0.74465000  1.0
  O  O119  1  0.53821000  0.00753000  0.24465000  1.0
