# generated using pymatgen
data_Zn4H22C44O21
_symmetry_space_group_name_H-M   'P 1'
_cell_length_a   15.06350000
_cell_length_b   15.18000000
_cell_length_c   17.81120000
_cell_angle_alpha   80.81490000
_cell_angle_beta   80.46530000
_cell_angle_gamma   89.62510000
_symmetry_Int_Tables_number   1
_chemical_formula_structural   Zn4H22C44O21
_chemical_formula_sum   'Zn4 H22 C44 O21'
_cell_volume   3964.18665708
_cell_formula_units_Z   1
loop_
 _symmetry_equiv_pos_site_id
 _symmetry_equiv_pos_as_xyz
  1  'x, y, z'
loop_
 _atom_site_type_symbol
 _atom_site_label
 _atom_site_symmetry_multiplicity
 _atom_site_fract_x
 _atom_site_fract_y
 _atom_site_fract_z
 _atom_site_occupancy
  Zn  Zn0  1  0.43088000  0.44370000  0.42843000  1.0
  Zn  Zn1  1  0.54479000  0.39495000  0.56039000  1.0
  Zn  Zn2  1  0.41887000  0.56559000  0.56300000  1.0
  Zn  Zn3  1  0.59751000  0.57437000  0.44371000  1.0
  H  H4  1  0.69690000  0.66780000  0.93951000  1.0
  H  H5  1  0.99617000  0.66957000  0.49658000  1.0
  H  H6  1  0.98861000  0.29707000  0.54797000  1.0
  H  H7  1  0.14114000  0.72585000  0.48386000  1.0
  H  H8  1  0.14083000  0.37230000  0.52866000  1.0
  H  H9  1  0.60417000  0.13837000  0.50855000  1.0
  H  H10  1  0.73398000  0.94779000  0.52111000  1.0
  H  H11  1  0.51507000  0.55058000  0.79432000  1.0
  H  H12  1  0.26441000  0.03954000  0.44454000  1.0
  H  H13  1  0.66921000  0.76057000  0.50250000  1.0
  H  H14  1  0.40082000  0.30635000  0.72697000  1.0
  H  H15  1  0.84845000  0.59444000  0.50417000  1.0
  H  H16  1  0.47491000  0.47877000  0.19436000  1.0
  H  H17  1  0.67016000  0.64139000  0.83034000  1.0
  H  H18  1  0.42755000  0.40571000  0.13166000  1.0
  H  H19  1  0.33783000  0.16900000  0.45088000  1.0
  H  H20  1  0.38632000  0.85145000  0.48373000  1.0
  H  H21  1  0.36313000  0.31249000  0.05368000  1.0
  H  H22  1  0.72376000  0.69231000  0.06690000  1.0
  H  H23  1  0.68430000  0.66035000  0.21029000  1.0
  H  H24  1  0.32678000  0.22495000  0.89659000  1.0
  H  H25  1  0.84737000  0.24115000  0.55622000  1.0
  C  C26  1  0.72880000  0.46539000  0.52180000  1.0
  C  C27  1  0.44317000  0.42189000  0.06914000  1.0
  C  C28  1  0.40658000  0.36955000  0.02608000  1.0
  C  C29  1  0.26004000  0.50786000  0.50805000  1.0
  C  C30  1  0.42435000  0.38863000  0.94419000  1.0
  C  C31  1  0.47811000  0.46603000  0.90601000  1.0
  C  C32  1  0.38987000  0.33134000  0.90033000  1.0
  C  C33  1  0.40558000  0.34962000  0.82016000  1.0
  C  C34  1  0.48246000  0.48901000  0.82553000  1.0
  C  C35  1  0.82600000  0.45362000  0.52740000  1.0
  C  C36  1  0.16014000  0.51371000  0.51208000  1.0
  C  C37  1  0.64742000  0.62829000  0.17400000  1.0
  C  C38  1  0.02772000  0.60446000  0.50531000  1.0
  C  C39  1  0.11944000  0.59891000  0.50357000  1.0
  C  C40  1  0.10800000  0.43677000  0.52324000  1.0
  C  C41  1  0.47878000  0.25943000  0.48239000  1.0
  C  C42  1  0.01328000  0.44010000  0.52761000  1.0
  C  C43  1  0.97311000  0.52619000  0.51692000  1.0
  C  C44  1  0.87979000  0.52983000  0.51566000  1.0
  C  C45  1  0.86570000  0.36809000  0.54106000  1.0
  C  C46  1  0.95765000  0.36255000  0.54004000  1.0
  C  C47  1  0.47190000  0.16190000  0.48087000  1.0
  C  C48  1  0.52910000  0.52462000  0.16428000  1.0
  C  C49  1  0.52331000  0.82944000  0.49919000  1.0
  C  C50  1  0.61263000  0.96012000  0.50643000  1.0
  C  C51  1  0.60667000  0.86894000  0.50517000  1.0
  C  C52  1  0.44918000  0.88269000  0.48927000  1.0
  C  C53  1  0.51571000  0.73183000  0.50289000  1.0
  C  C54  1  0.45617000  0.97571000  0.48480000  1.0
  C  C55  1  0.53831000  0.01580000  0.49618000  1.0
  C  C56  1  0.54363000  0.10861000  0.49654000  1.0
  C  C57  1  0.39229000  0.12476000  0.46479000  1.0
  C  C58  1  0.38402000  0.03363000  0.46850000  1.0
  C  C59  1  0.55035000  0.53986000  0.08314000  1.0
  C  C60  1  0.45392000  0.45575000  0.69878000  1.0
  C  C61  1  0.55096000  0.54907000  0.29469000  1.0
  C  C62  1  0.57584000  0.56777000  0.20938000  1.0
  C  C63  1  0.44703000  0.43222000  0.78311000  1.0
  C  C64  1  0.66892000  0.64558000  0.09483000  1.0
  C  C65  1  0.62093000  0.60305000  0.04791000  1.0
  C  C66  1  0.50509000  0.49350000  0.03467000  1.0
  C  C67  1  0.52445000  0.51476000  0.95270000  1.0
  C  C68  1  0.59532000  0.58007000  0.92066000  1.0
  C  C69  1  0.64178000  0.62074000  0.96659000  1.0
  O  O70  1  0.49754000  0.49553000  0.49692000  1.0
  O  O71  1  0.45852000  0.38930000  0.66020000  1.0
  O  O72  1  0.59685000  0.59070000  0.33320000  1.0
  O  O73  1  0.45330000  0.53721000  0.66746000  1.0
  O  O74  1  0.48611000  0.49316000  0.32296000  1.0
  O  O75  1  0.34219000  0.25587000  0.93703000  1.0
  O  O76  1  0.81084000  0.29425000  0.55111000  1.0
  O  O77  1  0.17613000  0.67191000  0.49090000  1.0
  O  O78  1  0.69177000  0.99684000  0.51616000  1.0
  O  O79  1  0.30748000  0.99340000  0.45634000  1.0
  O  O80  1  0.68300000  0.82159000  0.51237000  1.0
  O  O81  1  0.42778000  0.31138000  0.44564000  1.0
  O  O82  1  0.37495000  0.28768000  0.78246000  1.0
  O  O83  1  0.61930000  0.59928000  0.84198000  1.0
  O  O84  1  0.59008000  0.68960000  0.48684000  1.0
  O  O85  1  0.67107000  0.41328000  0.56813000  1.0
  O  O86  1  0.29276000  0.53945000  0.55998000  1.0
  O  O87  1  0.71222000  0.52941000  0.47028000  1.0
  O  O88  1  0.30207000  0.47087000  0.45367000  1.0
  O  O89  1  0.53582000  0.28339000  0.52145000  1.0
  O  O90  1  0.43841000  0.69424000  0.52181000  1.0
