# generated using pymatgen
data_Zn2H24C50SN2O21
_symmetry_space_group_name_H-M   'P 1'
_cell_length_a   16.51960000
_cell_length_b   17.88740000
_cell_length_c   33.13450000
_cell_angle_alpha   89.75860000
_cell_angle_beta   90.57650000
_cell_angle_gamma   89.99210000
_symmetry_Int_Tables_number   1
_chemical_formula_structural   Zn2H24C50SN2O21
_chemical_formula_sum   'Zn4 H48 C100 S2 N4 O42'
_cell_volume   9790.41996386
_cell_formula_units_Z   2
loop_
 _symmetry_equiv_pos_site_id
 _symmetry_equiv_pos_as_xyz
  1  'x, y, z'
loop_
 _atom_site_type_symbol
 _atom_site_label
 _atom_site_symmetry_multiplicity
 _atom_site_fract_x
 _atom_site_fract_y
 _atom_site_fract_z
 _atom_site_occupancy
  Zn  Zn0  1  0.41592000  0.49858000  0.50053000  1.0
  Zn  Zn1  1  0.58472000  0.50143000  0.50113000  1.0
  Zn  Zn2  1  0.58381000  0.49587000  0.96183000  1.0
  Zn  Zn3  1  0.41498000  0.49852000  0.96122000  1.0
  H  H4  1  0.71595000  0.41619000  0.54143000  1.0
  H  H5  1  0.86771000  0.41111000  0.54094000  1.0
  H  H6  1  0.71141000  0.58416000  0.45472000  1.0
  H  H7  1  0.28903000  0.39929000  0.53531000  1.0
  H  H8  1  0.28392000  0.59612000  0.46865000  1.0
  H  H9  1  0.13173000  0.59565000  0.46592000  1.0
  H  H10  1  0.36977000  0.25772000  0.50716000  1.0
  H  H11  1  0.37436000  0.11893000  0.50436000  1.0
  H  H12  1  0.62902000  0.26492000  0.49632000  1.0
  H  H13  1  0.36403000  0.73726000  0.49324000  1.0
  H  H14  1  0.62418000  0.73974000  0.49958000  1.0
  H  H15  1  0.62206000  0.87894000  0.49813000  1.0
  H  H16  1  0.63685000  0.49796000  0.63166000  1.0
  H  H17  1  0.70806000  0.50096000  0.69787000  1.0
  H  H18  1  0.37827000  0.49664000  0.62530000  1.0
  H  H19  1  0.36300000  0.49847000  0.83073000  1.0
  H  H20  1  0.29180000  0.50164000  0.76449000  1.0
  H  H21  1  0.62159000  0.49573000  0.83709000  1.0
  H  H22  1  0.62751000  0.48894000  0.09183000  1.0
  H  H23  1  0.62465000  0.49428000  0.16704000  1.0
  H  H24  1  0.36774000  0.50327000  0.08828000  1.0
  H  H25  1  0.63225000  0.50713000  0.37425000  1.0
  H  H26  1  0.37247000  0.49285000  0.37046000  1.0
  H  H27  1  0.37581000  0.49629000  0.29520000  1.0
  H  H28  1  0.28373000  0.41372000  0.92081000  1.0
  H  H29  1  0.13193000  0.40905000  0.92114000  1.0
  H  H30  1  0.28836000  0.58059000  0.00737000  1.0
  H  H31  1  0.71074000  0.39704000  0.92711000  1.0
  H  H32  1  0.71575000  0.59336000  0.99331000  1.0
  H  H33  1  0.86795000  0.59300000  0.99594000  1.0
  H  H34  1  0.63033000  0.25545000  0.95373000  1.0
  H  H35  1  0.62614000  0.11655000  0.95615000  1.0
  H  H36  1  0.37107000  0.26182000  0.96472000  1.0
  H  H37  1  0.63565000  0.73416000  0.96886000  1.0
  H  H38  1  0.37553000  0.73732000  0.96232000  1.0
  H  H39  1  0.37803000  0.87651000  0.96283000  1.0
  H  H40  1  0.96893000  0.55335000  0.44179000  1.0
  H  H41  1  0.02694000  0.41045000  0.53930000  1.0
  H  H42  1  0.61750000  0.02368000  0.49035000  1.0
  H  H43  1  0.37943000  0.97858000  0.49209000  1.0
  H  H44  1  0.38205000  0.51532000  0.21855000  1.0
  H  H45  1  0.61867000  0.51581000  0.24379000  1.0
  H  H46  1  0.03072000  0.55008000  0.02015000  1.0
  H  H47  1  0.97278000  0.40870000  0.92275000  1.0
  H  H48  1  0.38322000  0.02040000  0.96976000  1.0
  H  H49  1  0.62104000  0.97548000  0.96839000  1.0
  H  H50  1  0.70516000  0.59224000  0.82231000  1.0
  H  H51  1  0.29494000  0.59279000  0.63963000  1.0
  C  C52  1  0.49732000  0.35412000  0.50228000  1.0
  C  C53  1  0.50899000  0.50051000  0.57945000  1.0
  C  C54  1  0.49537000  0.64573000  0.49834000  1.0
  C  C55  1  0.50078000  0.49946000  0.42227000  1.0
  C  C56  1  0.50255000  0.35140000  0.95915000  1.0
  C  C57  1  0.49084000  0.49991000  0.88291000  1.0
  C  C58  1  0.50415000  0.64294000  0.96429000  1.0
  C  C59  1  0.49896000  0.49482000  0.04010000  1.0
  C  C60  1  0.75131000  0.45260000  0.52189000  1.0
  C  C61  1  0.83507000  0.45020000  0.52146000  1.0
  C  C62  1  0.87741000  0.49911000  0.49569000  1.0
  C  C63  1  0.83251000  0.54887000  0.47072000  1.0
  C  C64  1  0.74812000  0.54674000  0.47345000  1.0
  C  C65  1  0.96311000  0.49716000  0.49653000  1.0
  C  C66  1  0.03695000  0.49342000  0.49900000  1.0
  C  C67  1  0.12267000  0.49283000  0.50086000  1.0
  C  C68  1  0.16778000  0.43624000  0.52098000  1.0
  C  C69  1  0.25219000  0.44206000  0.52045000  1.0
  C  C70  1  0.24862000  0.55191000  0.48286000  1.0
  C  C71  1  0.16478000  0.55131000  0.48156000  1.0
  C  C72  1  0.49918000  0.27028000  0.50158000  1.0
  C  C73  1  0.42738000  0.22874000  0.50410000  1.0
  C  C74  1  0.43012000  0.15134000  0.50259000  1.0
  C  C75  1  0.50472000  0.11325000  0.49887000  1.0
  C  C76  1  0.57780000  0.15517000  0.49697000  1.0
  C  C77  1  0.57305000  0.23307000  0.49817000  1.0
  C  C78  1  0.50211000  0.03417000  0.49729000  1.0
  C  C79  1  0.49492000  0.96591000  0.49606000  1.0
  C  C80  1  0.49135000  0.88682000  0.49554000  1.0
  C  C81  1  0.41740000  0.84603000  0.49388000  1.0
  C  C82  1  0.42086000  0.76800000  0.49444000  1.0
  C  C83  1  0.49428000  0.72957000  0.49677000  1.0
  C  C84  1  0.56700000  0.76999000  0.49797000  1.0
  C  C85  1  0.56559000  0.84746000  0.49719000  1.0
  C  C86  1  0.57907000  0.49801000  0.64725000  1.0
  C  C87  1  0.57693000  0.49760000  0.68954000  1.0
  C  C88  1  0.64990000  0.49909000  0.71311000  1.0
  C  C89  1  0.43253000  0.49896000  0.64414000  1.0
  C  C90  1  0.42730000  0.49866000  0.68634000  1.0
  C  C91  1  0.35198000  0.50048000  0.70806000  1.0
  C  C92  1  0.42079000  0.49827000  0.81511000  1.0
  C  C93  1  0.42294000  0.49789000  0.77283000  1.0
  C  C94  1  0.34996000  0.49964000  0.74926000  1.0
  C  C95  1  0.56735000  0.49848000  0.81824000  1.0
  C  C96  1  0.57258000  0.49831000  0.77604000  1.0
  C  C97  1  0.64789000  0.49997000  0.75430000  1.0
  C  C98  1  0.50727000  0.49912000  0.62475000  1.0
  C  C99  1  0.50080000  0.49786000  0.70972000  1.0
  C  C100  1  0.49260000  0.49890000  0.83762000  1.0
  C  C101  1  0.49909000  0.49785000  0.75266000  1.0
  C  C102  1  0.49791000  0.49621000  0.08535000  1.0
  C  C103  1  0.57031000  0.49331000  0.10772000  1.0
  C  C104  1  0.56849000  0.49614000  0.14951000  1.0
  C  C105  1  0.49405000  0.50118000  0.17004000  1.0
  C  C106  1  0.42034000  0.50349000  0.14748000  1.0
  C  C107  1  0.42424000  0.50119000  0.10543000  1.0
  C  C108  1  0.49707000  0.50302000  0.21270000  1.0
  C  C109  1  0.50361000  0.50361000  0.24962000  1.0
  C  C110  1  0.50644000  0.50307000  0.29230000  1.0
  C  C111  1  0.58002000  0.50591000  0.31495000  1.0
  C  C112  1  0.57586000  0.50474000  0.35703000  1.0
  C  C113  1  0.50204000  0.50027000  0.37703000  1.0
  C  C114  1  0.42977000  0.49686000  0.35459000  1.0
  C  C115  1  0.43187000  0.49863000  0.31279000  1.0
  C  C116  1  0.24840000  0.44999000  0.94028000  1.0
  C  C117  1  0.16461000  0.44781000  0.94063000  1.0
  C  C118  1  0.12232000  0.49646000  0.96634000  1.0
  C  C119  1  0.16722000  0.54576000  0.99133000  1.0
  C  C120  1  0.25163000  0.54349000  0.98866000  1.0
  C  C121  1  0.03661000  0.49472000  0.96545000  1.0
  C  C122  1  0.96277000  0.49111000  0.96300000  1.0
  C  C123  1  0.87705000  0.49050000  0.96118000  1.0
  C  C124  1  0.83198000  0.43404000  0.94121000  1.0
  C  C125  1  0.74757000  0.43972000  0.94184000  1.0
  C  C126  1  0.75108000  0.54928000  0.97919000  1.0
  C  C127  1  0.83493000  0.54876000  0.98042000  1.0
  C  C128  1  0.50090000  0.26756000  0.95941000  1.0
  C  C129  1  0.57280000  0.22625000  0.95672000  1.0
  C  C130  1  0.57028000  0.14879000  0.95802000  1.0
  C  C131  1  0.49580000  0.11047000  0.96170000  1.0
  C  C132  1  0.42258000  0.15219000  0.96374000  1.0
  C  C133  1  0.42713000  0.23013000  0.96273000  1.0
  C  C134  1  0.49854000  0.03140000  0.96324000  1.0
  C  C135  1  0.50549000  0.96310000  0.96461000  1.0
  C  C136  1  0.50879000  0.88404000  0.96553000  1.0
  C  C137  1  0.58260000  0.84304000  0.96747000  1.0
  C  C138  1  0.57891000  0.76504000  0.96746000  1.0
  C  C139  1  0.50539000  0.72679000  0.96537000  1.0
  C  C140  1  0.43280000  0.76741000  0.96380000  1.0
  C  C141  1  0.43442000  0.84488000  0.96406000  1.0
  C  C142  1  0.86633000  0.60621000  0.44196000  1.0
  C  C143  1  0.13479000  0.36816000  0.54232000  1.0
  C  C144  1  0.66217000  0.12358000  0.49392000  1.0
  C  C145  1  0.33341000  0.87901000  0.49157000  1.0
  C  C146  1  0.33619000  0.50799000  0.16465000  1.0
  C  C147  1  0.66424000  0.50974000  0.29783000  1.0
  C  C148  1  0.13346000  0.60269000  0.02008000  1.0
  C  C149  1  0.86503000  0.36626000  0.91992000  1.0
  C  C150  1  0.33831000  0.12033000  0.96681000  1.0
  C  C151  1  0.66666667  0.87576000  0.96950000  1.0
  S  S152  1  0.74277000  0.50852000  0.78003000  1.0
  S  S153  1  0.25713000  0.50918000  0.68229000  1.0
  N  N154  1  0.70889000  0.50028000  0.49828000  1.0
  N  N155  1  0.29133000  0.49799000  0.50203000  1.0
  N  N156  1  0.29082000  0.49727000  0.96390000  1.0
  N  N157  1  0.70841000  0.49545000  0.96020000  1.0
  O  O158  1  0.42900000  0.38504000  0.50824000  1.0
  O  O159  1  0.56408000  0.38786000  0.49656000  1.0
  O  O160  1  0.57724000  0.49021000  0.56282000  1.0
  O  O161  1  0.44186000  0.51220000  0.56127000  1.0
  O  O162  1  0.56328000  0.61478000  0.50585000  1.0
  O  O163  1  0.42825000  0.61226000  0.49225000  1.0
  O  O164  1  0.43332000  0.48609000  0.43912000  1.0
  O  O165  1  0.56779000  0.51254000  0.44017000  1.0
  O  O166  1  0.57090000  0.38262000  0.95353000  1.0
  O  O167  1  0.43565000  0.38480000  0.96486000  1.0
  O  O168  1  0.42251000  0.48953000  0.89949000  1.0
  O  O169  1  0.55794000  0.51132000  0.90111000  1.0
  O  O170  1  0.43613000  0.61207000  0.95711000  1.0
  O  O171  1  0.57126000  0.60936000  0.97040000  1.0
  O  O172  1  0.56640000  0.48176000  0.02322000  1.0
  O  O173  1  0.43174000  0.50737000  0.02221000  1.0
  O  O174  1  0.94371000  0.59765000  0.42944000  1.0
  O  O175  1  0.82549000  0.65847000  0.43007000  1.0
  O  O176  1  0.05455000  0.36601000  0.55029000  1.0
  O  O177  1  0.17884000  0.31667000  0.55216000  1.0
  O  O178  1  0.67080000  0.04847000  0.49040000  1.0
  O  O179  1  0.72194000  0.16353000  0.49458000  1.0
  O  O180  1  0.32575000  0.95447000  0.49094000  1.0
  O  O181  1  0.27310000  0.83976000  0.49021000  1.0
  O  O182  1  0.32840000  0.51463000  0.20522000  1.0
  O  O183  1  0.27594000  0.50590000  0.14316000  1.0
  O  O184  1  0.67224000  0.51533000  0.25719000  1.0
  O  O185  1  0.72439000  0.50802000  0.31940000  1.0
  O  O186  1  0.05604000  0.59407000  0.03258000  1.0
  O  O187  1  0.17438000  0.65468000  0.03199000  1.0
  O  O188  1  0.94523000  0.36434000  0.91185000  1.0
  O  O189  1  0.82107000  0.31481000  0.91019000  1.0
  O  O190  1  0.32987000  0.04509000  0.96992000  1.0
  O  O191  1  0.27845000  0.16020000  0.96653000  1.0
  O  O192  1  0.67464000  0.95120000  0.96962000  1.0
  O  O193  1  0.72686000  0.83630000  0.97106000  1.0
  O  O194  1  0.73702000  0.59303000  0.79751000  1.0
  O  O195  1  0.80601000  0.51162000  0.75085000  1.0
  O  O196  1  0.74632000  0.45766000  0.81387000  1.0
  O  O197  1  0.26306000  0.59367000  0.66442000  1.0
  O  O198  1  0.19389000  0.51242000  0.71145000  1.0
  O  O199  1  0.25353000  0.45829000  0.64870000  1.0
