# generated using pymatgen
data_ZnH26C28(N3O2)2
_symmetry_space_group_name_H-M   'P 1'
_cell_length_a   10.54360000
_cell_length_b   13.07050000
_cell_length_c   22.01070000
_cell_angle_alpha   89.99980000
_cell_angle_beta   89.99970000
_cell_angle_gamma   102.33900000
_symmetry_Int_Tables_number   1
_chemical_formula_structural   ZnH26C28(N3O2)2
_chemical_formula_sum   'Zn4 H104 C112 N24 O16'
_cell_volume   2963.22916458
_cell_formula_units_Z   4
loop_
 _symmetry_equiv_pos_site_id
 _symmetry_equiv_pos_as_xyz
  1  'x, y, z'
loop_
 _atom_site_type_symbol
 _atom_site_label
 _atom_site_symmetry_multiplicity
 _atom_site_fract_x
 _atom_site_fract_y
 _atom_site_fract_z
 _atom_site_occupancy
  Zn  Zn0  1  0.78270000  0.49033000  0.14169000  1.0
  Zn  Zn1  1  0.21730000  0.50967000  0.64169000  1.0
  Zn  Zn2  1  0.31079000  0.98956000  0.06912000  1.0
  Zn  Zn3  1  0.68921000  0.01044000  0.56912000  1.0
  H  H4  1  0.45043000  0.69253000  0.22620000  1.0
  H  H5  1  0.54957000  0.30747000  0.72620000  1.0
  H  H6  1  0.37470000  0.47831000  0.37844000  1.0
  H  H7  1  0.62529000  0.52169000  0.87844000  1.0
  H  H8  1  0.21090000  0.50525000  0.45466000  1.0
  H  H9  1  0.78909000  0.49475000  0.95466000  1.0
  H  H10  1  0.06670000  0.61407000  0.49475000  1.0
  H  H11  1  0.93329000  0.38593000  0.99475000  1.0
  H  H12  1  0.96297000  0.76672000  0.48311000  1.0
  H  H13  1  0.03703000  0.23328000  0.98311000  1.0
  H  H14  1  0.09995000  0.98825000  0.33936000  1.0
  H  H15  1  0.90005000  0.01175000  0.83936000  1.0
  H  H16  1  0.62750000  0.63361000  0.21394000  1.0
  H  H17  1  0.37250000  0.36639000  0.71394000  1.0
  H  H18  1  0.44559000  0.36694000  0.31673000  1.0
  H  H19  1  0.55441000  0.63306000  0.81673000  1.0
  H  H20  1  0.63962000  0.31787000  0.24346000  1.0
  H  H21  1  0.36038000  0.68213000  0.74346000  1.0
  H  H22  1  0.90227000  0.89890000  0.52648000  1.0
  H  H23  1  0.09773000  0.10110000  0.02649000  1.0
  H  H24  1  0.89366000  0.02302000  0.34859000  1.0
  H  H25  1  0.10633000  0.97698000  0.84859000  1.0
  H  H26  1  0.72528000  0.10229000  0.42504000  1.0
  H  H27  1  0.27471000  0.89771000  0.92504000  1.0
  H  H28  1  0.46842000  0.15520000  0.93859000  1.0
  H  H29  1  0.53159000  0.84480000  0.43859000  1.0
  H  H30  1  0.38874000  0.45567000  0.98793000  1.0
  H  H31  1  0.61126000  0.54433000  0.48793000  1.0
  H  H32  1  0.24461000  0.53240000  0.91972000  1.0
  H  H33  1  0.75539000  0.46760000  0.41972000  1.0
  H  H34  1  0.09690000  0.51416000  0.83114000  1.0
  H  H35  1  0.90309000  0.48583000  0.33114000  1.0
  H  H36  1  0.98049000  0.40521000  0.74722000  1.0
  H  H37  1  0.01951000  0.59478000  0.24722000  1.0
  H  H38  1  0.06823000  0.10219000  0.71639000  1.0
  H  H39  1  0.93177000  0.89781000  0.21639000  1.0
  H  H40  1  0.59394000  0.48197000  0.02738000  1.0
  H  H41  1  0.40605000  0.51803000  0.52738000  1.0
  H  H42  1  0.52507000  0.14878000  0.03900000  1.0
  H  H43  1  0.47493000  0.85122000  0.53901000  1.0
  H  H44  1  0.70241000  0.23847000  0.12606000  1.0
  H  H45  1  0.29759000  0.76153000  0.62606000  1.0
  H  H46  1  0.83716000  0.06455000  0.69421000  1.0
  H  H47  1  0.16284000  0.93545000  0.19420000  1.0
  H  H48  1  0.94505000  0.38168000  0.63442000  1.0
  H  H49  1  0.05495000  0.61832000  0.13442000  1.0
  H  H50  1  0.77270000  0.26268000  0.55196000  1.0
  H  H51  1  0.22730000  0.73732000  0.05196000  1.0
  H  H52  1  0.29194000  0.26084000  0.22132000  1.0
  H  H53  1  0.70806000  0.73917000  0.72132000  1.0
  H  H54  1  0.29100000  0.31784000  0.08763000  1.0
  H  H55  1  0.70900000  0.68217000  0.58763000  1.0
  H  H56  1  0.39829000  0.37869000  0.14485000  1.0
  H  H57  1  0.60171000  0.62131000  0.64485000  1.0
  H  H58  1  0.25450000  0.49252000  0.16763000  1.0
  H  H59  1  0.74550000  0.50748000  0.66763000  1.0
  H  H60  1  0.15814000  0.43750000  0.10607000  1.0
  H  H61  1  0.84186000  0.56251000  0.60607000  1.0
  H  H62  1  0.05659000  0.35991000  0.29038000  1.0
  H  H63  1  0.94342000  0.64009000  0.79038000  1.0
  H  H64  1  0.14629000  0.48146000  0.26153000  1.0
  H  H65  1  0.85371000  0.51853000  0.76153000  1.0
  H  H66  1  0.22448000  0.37603000  0.27238000  1.0
  H  H67  1  0.77552000  0.62397000  0.77238000  1.0
  H  H68  1  0.05071000  0.08811000  0.22582000  1.0
  H  H69  1  0.94930000  0.91189000  0.72582000  1.0
  H  H70  1  0.93890000  0.17039000  0.24178000  1.0
  H  H71  1  0.06110000  0.82961000  0.74178000  1.0
  H  H72  1  0.09337000  0.19150000  0.27862000  1.0
  H  H73  1  0.90664000  0.80850000  0.77862000  1.0
  H  H74  1  0.92294000  0.20340000  0.12915000  1.0
  H  H75  1  0.07707000  0.79660000  0.62916000  1.0
  H  H76  1  0.03126000  0.11891000  0.11621000  1.0
  H  H77  1  0.96875000  0.88109000  0.61621000  1.0
  H  H78  1  0.06574000  0.24756000  0.08509000  1.0
  H  H79  1  0.93426000  0.75244000  0.58509000  1.0
  H  H80  1  0.87247000  0.82690000  0.08504000  1.0
  H  H81  1  0.12753000  0.17310000  0.58504000  1.0
  H  H82  1  0.82765000  0.74133000  0.96135000  1.0
  H  H83  1  0.17235000  0.25867000  0.46135000  1.0
  H  H84  1  0.91805000  0.86495000  0.98389000  1.0
  H  H85  1  0.08195000  0.13505000  0.48389000  1.0
  H  H86  1  0.74288000  0.92659000  0.93538000  1.0
  H  H87  1  0.25712000  0.07341000  0.43538000  1.0
  H  H88  1  0.63272000  0.80617000  0.94666000  1.0
  H  H89  1  0.36729000  0.19384000  0.44666000  1.0
  H  H90  1  0.76046000  0.06458000  0.01202000  1.0
  H  H91  1  0.23954000  0.93542000  0.51202000  1.0
  H  H92  1  0.85334000  0.99143000  0.05447000  1.0
  H  H93  1  0.14666000  0.00857000  0.55447000  1.0
  H  H94  1  0.72235000  0.03572000  0.08931000  1.0
  H  H95  1  0.27765000  0.96428000  0.58931000  1.0
  H  H96  1  0.74158000  0.90689000  0.15159000  1.0
  H  H97  1  0.25842000  0.09311000  0.65159000  1.0
  H  H98  1  0.66712000  0.77647000  0.16933000  1.0
  H  H99  1  0.33288000  0.22353000  0.66933000  1.0
  H  H100  1  0.56969000  0.86817000  0.14999000  1.0
  H  H101  1  0.43031000  0.13183000  0.64999000  1.0
  H  H102  1  0.56054000  0.65082000  0.09158000  1.0
  H  H103  1  0.43946000  0.34919000  0.59158000  1.0
  H  H104  1  0.54415000  0.68980000  0.01477000  1.0
  H  H105  1  0.45586000  0.31020000  0.51478000  1.0
  H  H106  1  0.45740000  0.73737000  0.07347000  1.0
  H  H107  1  0.54261000  0.26263000  0.57347000  1.0
  C  C108  1  0.40519000  0.66914000  0.27018000  1.0
  C  C109  1  0.59481000  0.33086000  0.77018000  1.0
  C  C110  1  0.42704000  0.57852000  0.30018000  1.0
  C  C111  1  0.57295000  0.42148000  0.80018000  1.0
  C  C112  1  0.36235000  0.54807000  0.35398000  1.0
  C  C113  1  0.63764000  0.45193000  0.85398000  1.0
  C  C114  1  0.27781000  0.60835000  0.37749000  1.0
  C  C115  1  0.72219000  0.39165000  0.87749000  1.0
  C  C116  1  0.20380000  0.57770000  0.43152000  1.0
  C  C117  1  0.79620000  0.42229000  0.93152000  1.0
  C  C118  1  0.12343000  0.63798000  0.45370000  1.0
  C  C119  1  0.87657000  0.36202000  0.95370000  1.0
  C  C120  1  0.11200000  0.73290000  0.42383000  1.0
  C  C121  1  0.88800000  0.26710000  0.92383000  1.0
  C  C122  1  0.02534000  0.79362000  0.44430000  1.0
  C  C123  1  0.97465000  0.20638000  0.94430000  1.0
  C  C124  1  0.01836000  0.88467000  0.41358000  1.0
  C  C125  1  0.98164000  0.11533000  0.91358000  1.0
  C  C126  1  0.10043000  0.91467000  0.36295000  1.0
  C  C127  1  0.89957000  0.08533000  0.86295000  1.0
  C  C128  1  0.18529000  0.76687000  0.37023000  1.0
  C  C129  1  0.81471000  0.23313000  0.87023000  1.0
  C  C130  1  0.26760000  0.70134000  0.34550000  1.0
  C  C131  1  0.73239000  0.29866000  0.84550000  1.0
  C  C132  1  0.60365000  0.55432000  0.23134000  1.0
  C  C133  1  0.39635000  0.44568000  0.73134000  1.0
  C  C134  1  0.51169000  0.41425000  0.28505000  1.0
  C  C135  1  0.48831000  0.58575000  0.78505000  1.0
  C  C136  1  0.60645000  0.39037000  0.24847000  1.0
  C  C137  1  0.39355000  0.60963000  0.74847000  1.0
  C  C138  1  0.87822000  0.94461000  0.48889000  1.0
  C  C139  1  0.12178000  0.05539000  0.98889000  1.0
  C  C140  1  0.87486000  0.01353000  0.39679000  1.0
  C  C141  1  0.12513000  0.98647000  0.89679000  1.0
  C  C142  1  0.79089000  0.05059000  0.43417000  1.0
  C  C143  1  0.20910000  0.94941000  0.93417000  1.0
  C  C144  1  0.41766000  0.21880000  0.93088000  1.0
  C  C145  1  0.58234000  0.78120000  0.43089000  1.0
  C  C146  1  0.43985000  0.30684000  0.96994000  1.0
  C  C147  1  0.56015000  0.69316000  0.46994000  1.0
  C  C148  1  0.37607000  0.38712000  0.95844000  1.0
  C  C149  1  0.62394000  0.61289000  0.45844000  1.0
  C  C150  1  0.29258000  0.37956000  0.90787000  1.0
  C  C151  1  0.70742000  0.62044000  0.40787000  1.0
  C  C152  1  0.22711000  0.46129000  0.89221000  1.0
  C  C153  1  0.77289000  0.53871000  0.39221000  1.0
  C  C154  1  0.14530000  0.45124000  0.84348000  1.0
  C  C155  1  0.85469000  0.54876000  0.34348000  1.0
  C  C156  1  0.12086000  0.35784000  0.80752000  1.0
  C  C157  1  0.87914000  0.64216000  0.30752000  1.0
  C  C158  1  0.03186000  0.34391000  0.75889000  1.0
  C  C159  1  0.96813000  0.65609000  0.25889000  1.0
  C  C160  1  0.01037000  0.25106000  0.72694000  1.0
  C  C161  1  0.98963000  0.74894000  0.22694000  1.0
  C  C162  1  0.08135000  0.17459000  0.74281000  1.0
  C  C163  1  0.91865000  0.82541000  0.24281000  1.0
  C  C164  1  0.18526000  0.27487000  0.82107000  1.0
  C  C165  1  0.81473000  0.72513000  0.32106000  1.0
  C  C166  1  0.27470000  0.28658000  0.87190000  1.0
  C  C167  1  0.72530000  0.71343000  0.37189000  1.0
  C  C168  1  0.59590000  0.40423000  0.04374000  1.0
  C  C169  1  0.40411000  0.59577000  0.54374000  1.0
  C  C170  1  0.56507000  0.23059000  0.04868000  1.0
  C  C171  1  0.43493000  0.76941000  0.54868000  1.0
  C  C172  1  0.65278000  0.27515000  0.09197000  1.0
  C  C173  1  0.34722000  0.72485000  0.59197000  1.0
  C  C174  1  0.84848000  0.13326000  0.66530000  1.0
  C  C175  1  0.15153000  0.86674000  0.16530000  1.0
  C  C176  1  0.89807000  0.29924000  0.63380000  1.0
  C  C177  1  0.10193000  0.70075000  0.13379000  1.0
  C  C178  1  0.81332000  0.24003000  0.59385000  1.0
  C  C179  1  0.18668000  0.75997000  0.09384000  1.0
  C  C180  1  0.96281000  0.38324000  0.18155000  1.0
  C  C181  1  0.03719000  0.61676000  0.68154000  1.0
  C  C182  1  0.09773000  0.35991000  0.19262000  1.0
  C  C183  1  0.90228000  0.64009000  0.69262000  1.0
  C  C184  1  0.09959000  0.24052000  0.18327000  1.0
  C  C185  1  0.90041000  0.75947000  0.68326000  1.0
  C  C186  1  0.24849000  0.24672000  0.17583000  1.0
  C  C187  1  0.75151000  0.75329000  0.67583000  1.0
  C  C188  1  0.29614000  0.34276000  0.13537000  1.0
  C  C189  1  0.70386000  0.65724000  0.63537000  1.0
  C  C190  1  0.20363000  0.41757000  0.14801000  1.0
  C  C191  1  0.79637000  0.58243000  0.64802000  1.0
  C  C192  1  0.13281000  0.39590000  0.25830000  1.0
  C  C193  1  0.86719000  0.60410000  0.75830000  1.0
  C  C194  1  0.04180000  0.16872000  0.23572000  1.0
  C  C195  1  0.95821000  0.83128000  0.73573000  1.0
  C  C196  1  0.02575000  0.20060000  0.12481000  1.0
  C  C197  1  0.97425000  0.79941000  0.62481000  1.0
  C  C198  1  0.52223000  0.91972000  0.02180000  1.0
  C  C199  1  0.47777000  0.08029000  0.52180000  1.0
  C  C200  1  0.66167000  0.90296000  0.02721000  1.0
  C  C201  1  0.33833000  0.09704000  0.52721000  1.0
  C  C202  1  0.66433000  0.80991000  0.07321000  1.0
  C  C203  1  0.33567000  0.19009000  0.57321000  1.0
  C  C204  1  0.79701000  0.78028000  0.05575000  1.0
  C  C205  1  0.20299000  0.21972000  0.55575000  1.0
  C  C206  1  0.82317000  0.81096000  0.98838000  1.0
  C  C207  1  0.17683000  0.18904000  0.48838000  1.0
  C  C208  1  0.71192000  0.86275000  0.96822000  1.0
  C  C209  1  0.28808000  0.13725000  0.46822000  1.0
  C  C210  1  0.75476000  0.00436000  0.04735000  1.0
  C  C211  1  0.24524000  0.99564000  0.54735000  1.0
  C  C212  1  0.66012000  0.84256000  0.13972000  1.0
  C  C213  1  0.33988000  0.15744000  0.63973000  1.0
  C  C214  1  0.55004000  0.71653000  0.06218000  1.0
  C  C215  1  0.44996000  0.28348000  0.56218000  1.0
  C  C216  1  0.79691000  0.66607000  0.06962000  1.0
  C  C217  1  0.20309000  0.33393000  0.56962000  1.0
  C  C218  1  0.28048000  0.14370000  0.15517000  1.0
  C  C219  1  0.71953000  0.85631000  0.65518000  1.0
  N  N220  1  0.32960000  0.72877000  0.29219000  1.0
  N  N221  1  0.67039000  0.27122000  0.79219000  1.0
  N  N222  1  0.17919000  0.85718000  0.34141000  1.0
  N  N223  1  0.82081000  0.14282000  0.84141000  1.0
  N  N224  1  0.51032000  0.51893000  0.27384000  1.0
  N  N225  1  0.48968000  0.48107000  0.77385000  1.0
  N  N226  1  0.66270000  0.47841000  0.21553000  1.0
  N  N227  1  0.33730000  0.52159000  0.71554000  1.0
  N  N228  1  0.93013000  0.94609000  0.43209000  1.0
  N  N229  1  0.06987000  0.05390000  0.93209000  1.0
  N  N230  1  0.79416000  0.00675000  0.49124000  1.0
  N  N231  1  0.20584000  0.99325000  0.99124000  1.0
  N  N232  1  0.33769000  0.20880000  0.88401000  1.0
  N  N233  1  0.66231000  0.79120000  0.38401000  1.0
  N  N234  1  0.16515000  0.18530000  0.78810000  1.0
  N  N235  1  0.83485000  0.81470000  0.28810000  1.0
  N  N236  1  0.52852000  0.31327000  0.01858000  1.0
  N  N237  1  0.47148000  0.68673000  0.51859000  1.0
  N  N238  1  0.67152000  0.38307000  0.08795000  1.0
  N  N239  1  0.32848000  0.61693000  0.58795000  1.0
  N  N240  1  0.92101000  0.23008000  0.67847000  1.0
  N  N241  1  0.07899000  0.76992000  0.17847000  1.0
  N  N242  1  0.78317000  0.13726000  0.61414000  1.0
  N  N243  1  0.21683000  0.86274000  0.11414000  1.0
  O  O244  1  0.95995000  0.46591000  0.14865000  1.0
  O  O245  1  0.04005000  0.53409000  0.64865000  1.0
  O  O246  1  0.86381000  0.32793000  0.20520000  1.0
  O  O247  1  0.13619000  0.67207000  0.70520000  1.0
  O  O248  1  0.28303000  0.12827000  0.09658000  1.0
  O  O249  1  0.71697000  0.87174000  0.59659000  1.0
  O  O250  1  0.29809000  0.07890000  0.19418000  1.0
  O  O251  1  0.70192000  0.92111000  0.69418000  1.0
  O  O252  1  0.49470000  0.98960000  0.05934000  1.0
  O  O253  1  0.50530000  0.01041000  0.55934000  1.0
  O  O254  1  0.44225000  0.86667000  0.98625000  1.0
  O  O255  1  0.55775000  0.13333000  0.48625000  1.0
  O  O256  1  0.79780000  0.60057000  0.02834000  1.0
  O  O257  1  0.20220000  0.39943000  0.52834000  1.0
  O  O258  1  0.79260000  0.64184000  0.12723000  1.0
  O  O259  1  0.20740000  0.35816000  0.62723000  1.0
