# generated using pymatgen
data_CdH7C4N3Cl2
_symmetry_space_group_name_H-M   'P 1'
_cell_length_a   8.36800000
_cell_length_b   8.84928000
_cell_length_c   10.85070000
_cell_angle_alpha   89.97350000
_cell_angle_beta   87.37130000
_cell_angle_gamma   80.22710000
_symmetry_Int_Tables_number   1
_chemical_formula_structural   CdH7C4N3Cl2
_chemical_formula_sum   'Cd4 H28 C16 N12 Cl8'
_cell_volume   790.98742893
_cell_formula_units_Z   4
loop_
 _symmetry_equiv_pos_site_id
 _symmetry_equiv_pos_as_xyz
  1  'x, y, z'
loop_
 _atom_site_type_symbol
 _atom_site_label
 _atom_site_symmetry_multiplicity
 _atom_site_fract_x
 _atom_site_fract_y
 _atom_site_fract_z
 _atom_site_occupancy
  Cd  Cd0  1  0.21472000  0.75307000  0.24240000  1.0
  Cd  Cd1  1  0.78527000  0.24693000  0.75761000  1.0
  Cd  Cd2  1  0.00000000  0.00000000  0.50000000  1.0
  Cd  Cd3  1  0.00000000  0.00001000  0.00000000  1.0
  H  H4  1  0.58528000  0.17972000  0.34686000  1.0
  H  H5  1  0.41472000  0.82027000  0.65314000  1.0
  H  H6  1  0.70294000  0.50910000  0.06368000  1.0
  H  H7  1  0.29707000  0.49091000  0.93631000  1.0
  H  H8  1  0.41409000  0.31028000  0.57297000  1.0
  H  H9  1  0.58590000  0.68972000  0.42703000  1.0
  H  H10  1  0.20125000  0.31115000  0.55534000  1.0
  H  H11  1  0.79873000  0.68884000  0.44466000  1.0
  H  H12  1  0.31743000  0.40259000  0.44517000  1.0
  H  H13  1  0.68258000  0.59740000  0.55481000  1.0
  H  H14  1  0.72551000  0.88820000  0.24912000  1.0
  H  H15  1  0.27450000  0.11179000  0.75089000  1.0
  H  H16  1  0.60368000  0.95852000  0.12638000  1.0
  H  H17  1  0.39633000  0.04147000  0.87362000  1.0
  H  H18  1  0.57258000  0.78392000  0.19995000  1.0
  H  H19  1  0.42742000  0.21607000  0.80006000  1.0
  H  H20  1  0.69275000  0.66181000  0.83284000  1.0
  H  H21  1  0.30726000  0.33818000  0.16716000  1.0
  H  H22  1  0.77153000  0.83884000  0.84137000  1.0
  H  H23  1  0.22849000  0.16118000  0.15863000  1.0
  H  H24  1  0.59084000  0.81303000  0.92794000  1.0
  H  H25  1  0.40916000  0.18698000  0.07206000  1.0
  H  H26  1  0.94570000  0.32902000  0.21780000  1.0
  H  H27  1  0.05430000  0.67097000  0.78218000  1.0
  H  H28  1  0.80595000  0.45673000  0.31072000  1.0
  H  H29  1  0.19403000  0.54327000  0.68928000  1.0
  H  H30  1  0.01668000  0.46348000  0.31605000  1.0
  H  H31  1  0.98334000  0.53653000  0.68395000  1.0
  C  C32  1  0.35561000  0.15993000  0.43367000  1.0
  C  C33  1  0.64440000  0.84006000  0.56634000  1.0
  C  C34  1  0.31987000  0.30340000  0.50678000  1.0
  C  C35  1  0.68013000  0.69660000  0.49322000  1.0
  C  C36  1  0.48225000  0.98319000  0.30304000  1.0
  C  C37  1  0.51776000  0.01680000  0.69695000  1.0
  C  C38  1  0.60306000  0.89782000  0.21466000  1.0
  C  C39  1  0.39695000  0.10217000  0.78533000  1.0
  C  C40  1  0.81085000  0.69779000  0.99719000  1.0
  C  C41  1  0.18914000  0.30222000  0.00282000  1.0
  C  C42  1  0.71172000  0.75623000  0.89318000  1.0
  C  C43  1  0.28829000  0.24378000  0.10682000  1.0
  C  C44  1  0.90510000  0.56216000  0.15686000  1.0
  C  C45  1  0.09490000  0.43784000  0.84315000  1.0
  C  C46  1  0.92046000  0.44635000  0.25527000  1.0
  C  C47  1  0.07954000  0.55363000  0.74473000  1.0
  N  N48  1  0.34412000  0.94173000  0.34204000  1.0
  N  N49  1  0.65588000  0.05827000  0.65797000  1.0
  N  N50  1  0.26504000  0.05130000  0.42447000  1.0
  N  N51  1  0.73495000  0.94870000  0.57554000  1.0
  N  N52  1  0.49269000  0.11917000  0.35899000  1.0
  N  N53  1  0.50731000  0.88081000  0.64101000  1.0
  N  N54  1  0.99158000  0.67347000  0.13955000  1.0
  N  N55  1  0.00842000  0.32654000  0.86045000  1.0
  N  N56  1  0.93185000  0.75817000  0.03986000  1.0
  N  N57  1  0.06814000  0.24184000  0.96014000  1.0
  N  N58  1  0.79260000  0.57393000  0.06820000  1.0
  N  N59  1  0.20741000  0.42607000  0.93180000  1.0
  Cl  Cl60  1  0.10719000  0.71153000  0.46566000  1.0
  Cl  Cl61  1  0.89280000  0.28848000  0.53434000  1.0
  Cl  Cl62  1  0.29297000  0.84637000  0.02100000  1.0
  Cl  Cl63  1  0.70703000  0.15363000  0.97901000  1.0
  Cl  Cl64  1  0.45439000  0.53224000  0.23823000  1.0
  Cl  Cl65  1  0.54561000  0.46776000  0.76177000  1.0
  Cl  Cl66  1  0.03711000  0.96907000  0.74800000  1.0
  Cl  Cl67  1  0.96288000  0.03094000  0.25200000  1.0
