# generated using pymatgen
data_Zn2H23C45S5N2ClO23
_symmetry_space_group_name_H-M   'P 1'
_cell_length_a   16.49640000
_cell_length_b   17.91240000
_cell_length_c   33.14160000
_cell_angle_alpha   89.68330000
_cell_angle_beta   90.66060000
_cell_angle_gamma   89.96940000
_symmetry_Int_Tables_number   1
_chemical_formula_structural   Zn2H23C45S5N2ClO23
_chemical_formula_sum   'Zn4 H46 C90 S10 N4 Cl2 O46'
_cell_volume   9792.21296676
_cell_formula_units_Z   2
loop_
 _symmetry_equiv_pos_site_id
 _symmetry_equiv_pos_as_xyz
  1  'x, y, z'
loop_
 _atom_site_type_symbol
 _atom_site_label
 _atom_site_symmetry_multiplicity
 _atom_site_fract_x
 _atom_site_fract_y
 _atom_site_fract_z
 _atom_site_occupancy
  Zn  Zn0  1  0.41825000  0.50070000  0.50066000  1.0
  Zn  Zn1  1  0.58630000  0.50009000  0.50151000  1.0
  Zn  Zn2  1  0.58155000  0.49748000  0.96197000  1.0
  Zn  Zn3  1  0.41355000  0.49668000  0.96103000  1.0
  H  H4  1  0.71878000  0.40780000  0.53783000  1.0
  H  H5  1  0.87155000  0.40613000  0.53844000  1.0
  H  H6  1  0.71171000  0.58685000  0.45798000  1.0
  H  H7  1  0.29213000  0.42343000  0.54873000  1.0
  H  H8  1  0.28648000  0.57902000  0.45563000  1.0
  H  H9  1  0.13361000  0.57990000  0.45380000  1.0
  H  H10  1  0.36641000  0.26060000  0.49566000  1.0
  H  H11  1  0.36853000  0.12086000  0.49484000  1.0
  H  H12  1  0.62639000  0.26414000  0.50560000  1.0
  H  H13  1  0.37013000  0.73749000  0.50486000  1.0
  H  H14  1  0.62978000  0.73996000  0.49510000  1.0
  H  H15  1  0.62842000  0.87966000  0.49412000  1.0
  H  H16  1  0.63699000  0.49382000  0.63188000  1.0
  H  H17  1  0.70865000  0.49266000  0.69837000  1.0
  H  H18  1  0.37715000  0.49655000  0.62584000  1.0
  H  H19  1  0.36302000  0.49377000  0.83064000  1.0
  H  H20  1  0.29138000  0.49309000  0.76415000  1.0
  H  H21  1  0.62285000  0.49647000  0.83667000  1.0
  H  H22  1  0.62698000  0.50131000  0.09052000  1.0
  H  H23  1  0.62798000  0.50138000  0.16610000  1.0
  H  H24  1  0.36655000  0.49053000  0.08948000  1.0
  H  H25  1  0.63337000  0.49442000  0.37343000  1.0
  H  H26  1  0.37293000  0.50553000  0.37191000  1.0
  H  H27  1  0.37235000  0.50366000  0.29633000  1.0
  H  H28  1  0.28099000  0.40465000  0.92504000  1.0
  H  H29  1  0.12821000  0.40379000  0.92408000  1.0
  H  H30  1  0.28820000  0.58360000  0.00387000  1.0
  H  H31  1  0.70778000  0.42124000  0.91394000  1.0
  H  H32  1  0.71342000  0.57630000  0.00637000  1.0
  H  H33  1  0.86626000  0.57809000  0.00766000  1.0
  H  H34  1  0.63384000  0.25708000  0.96507000  1.0
  H  H35  1  0.63194000  0.11732000  0.96503000  1.0
  H  H36  1  0.37379000  0.26089000  0.95577000  1.0
  H  H37  1  0.62922000  0.73380000  0.95677000  1.0
  H  H38  1  0.36961000  0.73710000  0.96675000  1.0
  H  H39  1  0.37126000  0.87681000  0.96651000  1.0
  H  H40  1  0.96941000  0.67356000  0.48222000  1.0
  H  H41  1  0.03173000  0.46564000  0.58921000  1.0
  H  H42  1  0.61961000  0.01729000  0.54034000  1.0
  H  H43  1  0.37820000  0.98292000  0.53959000  1.0
  H  H44  1  0.37733000  0.42152000  0.22207000  1.0
  H  H45  1  0.62330000  0.42213000  0.24167000  1.0
  H  H46  1  0.03116000  0.67177000  0.97938000  1.0
  H  H47  1  0.96853000  0.46395000  0.87309000  1.0
  H  H48  1  0.38028000  0.01546000  0.91954000  1.0
  H  H49  1  0.62207000  0.97915000  0.92014000  1.0
  C  C50  1  0.49521000  0.35430000  0.50068000  1.0
  C  C51  1  0.50965000  0.49713000  0.57976000  1.0
  C  C52  1  0.50070000  0.64664000  0.50040000  1.0
  C  C53  1  0.50263000  0.50213000  0.42227000  1.0
  C  C54  1  0.50483000  0.35096000  0.96114000  1.0
  C  C55  1  0.49029000  0.49626000  0.88277000  1.0
  C  C56  1  0.49857000  0.64336000  0.96215000  1.0
  C  C57  1  0.49717000  0.49727000  0.04034000  1.0
  C  C58  1  0.75381000  0.44793000  0.52036000  1.0
  C  C59  1  0.83794000  0.44768000  0.52092000  1.0
  C  C60  1  0.87993000  0.50187000  0.49838000  1.0
  C  C61  1  0.83336000  0.55292000  0.47508000  1.0
  C  C62  1  0.74921000  0.54860000  0.47580000  1.0
  C  C63  1  0.96538000  0.50366000  0.50016000  1.0
  C  C64  1  0.03903000  0.50124000  0.50275000  1.0
  C  C65  1  0.12450000  0.50018000  0.50300000  1.0
  C  C66  1  0.17073000  0.45550000  0.53005000  1.0
  C  C67  1  0.25490000  0.45762000  0.52848000  1.0
  C  C68  1  0.25102000  0.54455000  0.47613000  1.0
  C  C69  1  0.16691000  0.54534000  0.47546000  1.0
  C  C70  1  0.49603000  0.27061000  0.50051000  1.0
  C  C71  1  0.42352000  0.23020000  0.49776000  1.0
  C  C72  1  0.42466000  0.15264000  0.49761000  1.0
  C  C73  1  0.49876000  0.11352000  0.50074000  1.0
  C  C74  1  0.57151000  0.15530000  0.50385000  1.0
  C  C75  1  0.57012000  0.23270000  0.50344000  1.0
  C  C76  1  0.49891000  0.03467000  0.50122000  1.0
  C  C77  1  0.49876000  0.96640000  0.50079000  1.0
  C  C78  1  0.49847000  0.88759000  0.49982000  1.0
  C  C79  1  0.42556000  0.84608000  0.50259000  1.0
  C  C80  1  0.42651000  0.76865000  0.50252000  1.0
  C  C81  1  0.50035000  0.73040000  0.49992000  1.0
  C  C82  1  0.57290000  0.77055000  0.49710000  1.0
  C  C83  1  0.57220000  0.84814000  0.49684000  1.0
  C  C84  1  0.57927000  0.49399000  0.64756000  1.0
  C  C85  1  0.57745000  0.49354000  0.68987000  1.0
  C  C86  1  0.65048000  0.49317000  0.71364000  1.0
  C  C87  1  0.43226000  0.49535000  0.64418000  1.0
  C  C88  1  0.42761000  0.49412000  0.68632000  1.0
  C  C89  1  0.35200000  0.49364000  0.70770000  1.0
  C  C90  1  0.42074000  0.49402000  0.81495000  1.0
  C  C91  1  0.42257000  0.49369000  0.77265000  1.0
  C  C92  1  0.34954000  0.49340000  0.74888000  1.0
  C  C93  1  0.56774000  0.49535000  0.81834000  1.0
  C  C94  1  0.57242000  0.49417000  0.77621000  1.0
  C  C95  1  0.64802000  0.49353000  0.75482000  1.0
  C  C96  1  0.50730000  0.49530000  0.62494000  1.0
  C  C97  1  0.50103000  0.49369000  0.70984000  1.0
  C  C98  1  0.49270000  0.49517000  0.83758000  1.0
  C  C99  1  0.49901000  0.49375000  0.75268000  1.0
  C  C100  1  0.49719000  0.49661000  0.08555000  1.0
  C  C101  1  0.57055000  0.49903000  0.10720000  1.0
  C  C102  1  0.57113000  0.49841000  0.14908000  1.0
  C  C103  1  0.49773000  0.49442000  0.17038000  1.0
  C  C104  1  0.42397000  0.49147000  0.14808000  1.0
  C  C105  1  0.42366000  0.49291000  0.10622000  1.0
  C  C106  1  0.49931000  0.49264000  0.21294000  1.0
  C  C107  1  0.50118000  0.49318000  0.24981000  1.0
  C  C108  1  0.50261000  0.49621000  0.29234000  1.0
  C  C109  1  0.57627000  0.49376000  0.31476000  1.0
  C  C110  1  0.57637000  0.49642000  0.35658000  1.0
  C  C111  1  0.50273000  0.50076000  0.37709000  1.0
  C  C112  1  0.42946000  0.50275000  0.35535000  1.0
  C  C113  1  0.42909000  0.50099000  0.31348000  1.0
  C  C114  1  0.24599000  0.44496000  0.94219000  1.0
  C  C115  1  0.16186000  0.44516000  0.94145000  1.0
  C  C116  1  0.11992000  0.49952000  0.96361000  1.0
  C  C117  1  0.16653000  0.55023000  0.98679000  1.0
  C  C118  1  0.25068000  0.54554000  0.98620000  1.0
  C  C119  1  0.03450000  0.50180000  0.96162000  1.0
  C  C120  1  0.96085000  0.49975000  0.95896000  1.0
  C  C121  1  0.87538000  0.49862000  0.95883000  1.0
  C  C122  1  0.82914000  0.45386000  0.93210000  1.0
  C  C123  1  0.74498000  0.45551000  0.93392000  1.0
  C  C124  1  0.74885000  0.54216000  0.98589000  1.0
  C  C125  1  0.83297000  0.54346000  0.98626000  1.0
  C  C126  1  0.50418000  0.26726000  0.96069000  1.0
  C  C127  1  0.57676000  0.22674000  0.96296000  1.0
  C  C128  1  0.57574000  0.14918000  0.96260000  1.0
  C  C129  1  0.50165000  0.11018000  0.95945000  1.0
  C  C130  1  0.42884000  0.15208000  0.95674000  1.0
  C  C131  1  0.43014000  0.22944000  0.95765000  1.0
  C  C132  1  0.50143000  0.03135000  0.95870000  1.0
  C  C133  1  0.50118000  0.96309000  0.95921000  1.0
  C  C134  1  0.50120000  0.88427000  0.96062000  1.0
  C  C135  1  0.57404000  0.84255000  0.95815000  1.0
  C  C136  1  0.57292000  0.76514000  0.95887000  1.0
  C  C137  1  0.49901000  0.72712000  0.96188000  1.0
  C  C138  1  0.42654000  0.76751000  0.96440000  1.0
  C  C139  1  0.42739000  0.84509000  0.96398000  1.0
  S  S140  1  0.87838000  0.62393000  0.44458000  1.0
  S  S141  1  0.12475000  0.39516000  0.56623000  1.0
  S  S142  1  0.66741000  0.10962000  0.50767000  1.0
  S  S143  1  0.33013000  0.89256000  0.50541000  1.0
  S  S144  1  0.32929000  0.48696000  0.17355000  1.0
  S  S145  1  0.67113000  0.48832000  0.28952000  1.0
  S  S146  1  0.12164000  0.62090000  0.01718000  1.0
  S  S147  1  0.87513000  0.39367000  0.89619000  1.0
  S  S148  1  0.33290000  0.10661000  0.95281000  1.0
  S  S149  1  0.66954000  0.88878000  0.95508000  1.0
  N  N150  1  0.71066000  0.49774000  0.49848000  1.0
  N  N151  1  0.29381000  0.50150000  0.50205000  1.0
  N  N152  1  0.28919000  0.49456000  0.96386000  1.0
  N  N153  1  0.70606000  0.49897000  0.96033000  1.0
  Cl  Cl154  1  0.73825000  0.49286000  0.78220000  1.0
  Cl  Cl155  1  0.26178000  0.49315000  0.68033000  1.0
  O  O156  1  0.42646000  0.38584000  0.50376000  1.0
  O  O157  1  0.56345000  0.38693000  0.49772000  1.0
  O  O158  1  0.57862000  0.49120000  0.56309000  1.0
  O  O159  1  0.44195000  0.50479000  0.56124000  1.0
  O  O160  1  0.56905000  0.61448000  0.50487000  1.0
  O  O161  1  0.43219000  0.61467000  0.49636000  1.0
  O  O162  1  0.43416000  0.49530000  0.43930000  1.0
  O  O163  1  0.57091000  0.50962000  0.44001000  1.0
  O  O164  1  0.57351000  0.38273000  0.95831000  1.0
  O  O165  1  0.43651000  0.38340000  0.96431000  1.0
  O  O166  1  0.42129000  0.48985000  0.89940000  1.0
  O  O167  1  0.55791000  0.50365000  0.90133000  1.0
  O  O168  1  0.43021000  0.61129000  0.95786000  1.0
  O  O169  1  0.56705000  0.61131000  0.96653000  1.0
  O  O170  1  0.56562000  0.49036000  0.02333000  1.0
  O  O171  1  0.42883000  0.50449000  0.02257000  1.0
  O  O172  1  0.91087000  0.68084000  0.47887000  1.0
  O  O173  1  0.81390000  0.66171000  0.42379000  1.0
  O  O174  1  0.94762000  0.59362000  0.42440000  1.0
  O  O175  1  0.08770000  0.45474000  0.59754000  1.0
  O  O176  1  0.18843000  0.35752000  0.58770000  1.0
  O  O177  1  0.05839000  0.35642000  0.54720000  1.0
  O  O178  1  0.65646000  0.05848000  0.54759000  1.0
  O  O179  1  0.72769000  0.16374000  0.51849000  1.0
  O  O180  1  0.67650000  0.06138000  0.47345000  1.0
  O  O181  1  0.34091000  0.94163000  0.54590000  1.0
  O  O182  1  0.26890000  0.83864000  0.51475000  1.0
  O  O183  1  0.32212000  0.94259000  0.47146000  1.0
  O  O184  1  0.33924000  0.41096000  0.19973000  1.0
  O  O185  1  0.26654000  0.47154000  0.14459000  1.0
  O  O186  1  0.32449000  0.54883000  0.20095000  1.0
  O  O187  1  0.66115000  0.41187000  0.26422000  1.0
  O  O188  1  0.73358000  0.47322000  0.31880000  1.0
  O  O189  1  0.67637000  0.54964000  0.26142000  1.0
  O  O190  1  0.08969000  0.67876000  0.98288000  1.0
  O  O191  1  0.18616000  0.65785000  0.03811000  1.0
  O  O192  1  0.05209000  0.59050000  0.03720000  1.0
  O  O193  1  0.91258000  0.45332000  0.86470000  1.0
  O  O194  1  0.81146000  0.35642000  0.87476000  1.0
  O  O195  1  0.94126000  0.35455000  0.91547000  1.0
  O  O196  1  0.34355000  0.05708000  0.91258000  1.0
  O  O197  1  0.27258000  0.16124000  0.94242000  1.0
  O  O198  1  0.32397000  0.05698000  0.98676000  1.0
  O  O199  1  0.65906000  0.93755000  0.91417000  1.0
  O  O200  1  0.73076000  0.83464000  0.94630000  1.0
  O  O201  1  0.67739000  0.93906000  0.98862000  1.0
