# generated using pymatgen
data_CdH11C17N3O4
_symmetry_space_group_name_H-M   'P 1'
_cell_length_a   7.55623000
_cell_length_b   11.97910000
_cell_length_c   16.80000000
_cell_angle_alpha   98.95140000
_cell_angle_beta   90.00000000
_cell_angle_gamma   90.00000000
_symmetry_Int_Tables_number   1
_chemical_formula_structural   CdH11C17N3O4
_chemical_formula_sum   'Cd4 H44 C68 N12 O16'
_cell_volume   1502.16193824
_cell_formula_units_Z   4
loop_
 _symmetry_equiv_pos_site_id
 _symmetry_equiv_pos_as_xyz
  1  'x, y, z'
loop_
 _atom_site_type_symbol
 _atom_site_label
 _atom_site_symmetry_multiplicity
 _atom_site_fract_x
 _atom_site_fract_y
 _atom_site_fract_z
 _atom_site_occupancy
  Cd  Cd0  1  0.73536000  0.79130000  0.77720000  1.0
  Cd  Cd1  1  0.23536000  0.70870000  0.72280000  1.0
  Cd  Cd2  1  0.26465000  0.20870000  0.22280000  1.0
  Cd  Cd3  1  0.76465000  0.29130000  0.27720000  1.0
  H  H4  1  0.83262000  0.05847000  0.75369000  1.0
  H  H5  1  0.33262000  0.44153000  0.74631000  1.0
  H  H6  1  0.16738000  0.94153000  0.24631000  1.0
  H  H7  1  0.66738000  0.55847000  0.25369000  1.0
  H  H8  1  0.51087000  0.95357000  0.93200000  1.0
  H  H9  1  0.01087000  0.54643000  0.56800000  1.0
  H  H10  1  0.48913000  0.04643000  0.06800000  1.0
  H  H11  1  0.98913000  0.45357000  0.43200000  1.0
  H  H12  1  0.55669000  0.18805000  0.96864000  1.0
  H  H13  1  0.05669000  0.31195000  0.53137000  1.0
  H  H14  1  0.44331000  0.81195000  0.03137000  1.0
  H  H15  1  0.94331000  0.68805000  0.46863000  1.0
  H  H16  1  0.85779000  0.30756000  0.97404000  1.0
  H  H17  1  0.35779000  0.19244000  0.52596000  1.0
  H  H18  1  0.14221000  0.69244000  0.02596000  1.0
  H  H19  1  0.64221000  0.80756000  0.47404000  1.0
  H  H20  1  0.94656000  0.56351000  0.82508000  1.0
  H  H21  1  0.44655000  0.93649000  0.67492000  1.0
  H  H22  1  0.05344000  0.43649000  0.17492000  1.0
  H  H23  1  0.55344000  0.06351000  0.32508000  1.0
  H  H24  1  0.81072000  0.44039000  0.70790000  1.0
  H  H25  1  0.31072000  0.05961000  0.79210000  1.0
  H  H26  1  0.18928000  0.55961000  0.29210000  1.0
  H  H27  1  0.68928000  0.94039000  0.20790000  1.0
  H  H28  1  0.69274000  0.24882000  0.72476000  1.0
  H  H29  1  0.19274000  0.25118000  0.77524000  1.0
  H  H30  1  0.30726000  0.75118000  0.27524000  1.0
  H  H31  1  0.80726000  0.74882000  0.22476000  1.0
  H  H32  1  0.38284000  0.69610000  0.53228000  1.0
  H  H33  1  0.88284000  0.80390000  0.96772000  1.0
  H  H34  1  0.61716000  0.30390000  0.46772000  1.0
  H  H35  1  0.11716000  0.19610000  0.03228000  1.0
  H  H36  1  0.71254000  0.42962000  0.59345000  1.0
  H  H37  1  0.21254000  0.07038000  0.90655000  1.0
  H  H38  1  0.28746000  0.57038000  0.40655000  1.0
  H  H39  1  0.78746000  0.92962000  0.09345000  1.0
  H  H40  1  0.81305000  0.04937000  0.62184000  1.0
  H  H41  1  0.31305000  0.45063000  0.87816000  1.0
  H  H42  1  0.18695000  0.95063000  0.37816000  1.0
  H  H43  1  0.68695000  0.54937000  0.12184000  1.0
  H  H44  1  0.18405000  0.82642000  0.48497000  1.0
  H  H45  1  0.68405000  0.67358000  0.01503000  1.0
  H  H46  1  0.81595000  0.17358000  0.51503000  1.0
  H  H47  1  0.31595000  0.32642000  0.98497000  1.0
  C  C48  1  0.74809000  0.06165000  0.80604000  1.0
  C  C49  1  0.24809000  0.43835000  0.69396000  1.0
  C  C50  1  0.25191000  0.93835000  0.19396000  1.0
  C  C51  1  0.75191000  0.56165000  0.30605000  1.0
  C  C52  1  0.58518000  0.01119000  0.90126000  1.0
  C  C53  1  0.08518000  0.48881000  0.59874000  1.0
  C  C54  1  0.41482000  0.98881000  0.09874000  1.0
  C  C55  1  0.91482000  0.51119000  0.40126000  1.0
  C  C56  1  0.60596000  0.12625000  0.91965000  1.0
  C  C57  1  0.10595000  0.37375000  0.58035000  1.0
  C  C58  1  0.39405000  0.87375000  0.08035000  1.0
  C  C59  1  0.89404000  0.62625000  0.41965000  1.0
  C  C60  1  0.77043000  0.26720000  0.84996000  1.0
  C  C61  1  0.27043000  0.23280000  0.65004000  1.0
  C  C62  1  0.22957000  0.73280000  0.15004000  1.0
  C  C63  1  0.72957000  0.76720000  0.34996000  1.0
  C  C64  1  0.84593000  0.33538000  0.91556000  1.0
  C  C65  1  0.34593000  0.16462000  0.58444000  1.0
  C  C66  1  0.15407000  0.66462000  0.08444000  1.0
  C  C67  1  0.65407000  0.83538000  0.41556000  1.0
  C  C68  1  0.90944000  0.44253000  0.90532000  1.0
  C  C69  1  0.40944000  0.05747000  0.59468000  1.0
  C  C70  1  0.09056000  0.55747000  0.09468000  1.0
  C  C71  1  0.59056000  0.94253000  0.40532000  1.0
  C  C72  1  0.89708000  0.47956000  0.83041000  1.0
  C  C73  1  0.39708000  0.02044000  0.66959000  1.0
  C  C74  1  0.10292000  0.52044000  0.16959000  1.0
  C  C75  1  0.60291000  0.97956000  0.33041000  1.0
  C  C76  1  0.82133000  0.40954000  0.76527000  1.0
  C  C77  1  0.32133000  0.09046000  0.73473000  1.0
  C  C78  1  0.17867000  0.59046000  0.23473000  1.0
  C  C79  1  0.67867000  0.90954000  0.26527000  1.0
  C  C80  1  0.75663000  0.30339000  0.77456000  1.0
  C  C81  1  0.25663000  0.19661000  0.72544000  1.0
  C  C82  1  0.24337000  0.69661000  0.22544000  1.0
  C  C83  1  0.74337000  0.80339000  0.27456000  1.0
  C  C84  1  0.61294000  0.64671000  0.64440000  1.0
  C  C85  1  0.11294000  0.85329000  0.85560000  1.0
  C  C86  1  0.38706000  0.35329000  0.35560000  1.0
  C  C87  1  0.88706000  0.14671000  0.14440000  1.0
  C  C88  1  0.55417000  0.57057000  0.57020000  1.0
  C  C89  1  0.05417000  0.92942000  0.92980000  1.0
  C  C90  1  0.44583000  0.42943000  0.42980000  1.0
  C  C91  1  0.94583000  0.07057000  0.07020000  1.0
  C  C92  1  0.43497000  0.61057000  0.51715000  1.0
  C  C93  1  0.93497000  0.88943000  0.98285000  1.0
  C  C94  1  0.56503000  0.38944000  0.48285000  1.0
  C  C95  1  0.06503000  0.11056000  0.01715000  1.0
  C  C96  1  0.61836000  0.45966000  0.55255000  1.0
  C  C97  1  0.11836000  0.04034000  0.94745000  1.0
  C  C98  1  0.38164000  0.54034000  0.44746000  1.0
  C  C99  1  0.88164000  0.95966000  0.05255000  1.0
  C  C100  1  0.99994000  0.85747000  0.62561000  1.0
  C  C101  1  0.49994000  0.64254000  0.87439000  1.0
  C  C102  1  0.00006000  0.14253000  0.37439000  1.0
  C  C103  1  0.50006000  0.35747000  0.12561000  1.0
  C  C104  1  0.99805000  0.93009000  0.55996000  1.0
  C  C105  1  0.49805000  0.56991000  0.94003000  1.0
  C  C106  1  0.00195000  0.06991000  0.44003000  1.0
  C  C107  1  0.50195000  0.43009000  0.05996000  1.0
  C  C108  1  0.89681000  0.02923000  0.56883000  1.0
  C  C109  1  0.39681000  0.47077000  0.93117000  1.0
  C  C110  1  0.10319000  0.97077000  0.43117000  1.0
  C  C111  1  0.60319000  0.52923000  0.06883000  1.0
  C  C112  1  0.10128000  0.90169000  0.49041000  1.0
  C  C113  1  0.60128000  0.59831000  0.00959000  1.0
  C  C114  1  0.89872000  0.09831000  0.50959000  1.0
  C  C115  1  0.39872000  0.40169000  0.99041000  1.0
  N  N116  1  0.70911000  0.15718000  0.85816000  1.0
  N  N117  1  0.20911000  0.34282000  0.64184000  1.0
  N  N118  1  0.29089000  0.84282000  0.14184000  1.0
  N  N119  1  0.79088000  0.65718000  0.35816000  1.0
  N  N120  1  0.67477000  0.97247000  0.83086000  1.0
  N  N121  1  0.17477000  0.52753000  0.66914000  1.0
  N  N122  1  0.32523000  0.02753000  0.16914000  1.0
  N  N123  1  0.82523000  0.47247000  0.33086000  1.0
  N  N124  1  0.98860000  0.51937000  0.96745000  1.0
  N  N125  1  0.48860000  0.98063000  0.53255000  1.0
  N  N126  1  0.01140000  0.48063000  0.03255000  1.0
  N  N127  1  0.51140000  0.01937000  0.46745000  1.0
  O  O128  1  0.51866000  0.73497000  0.67056000  1.0
  O  O129  1  0.01866000  0.76503000  0.82944000  1.0
  O  O130  1  0.48135000  0.26503000  0.32944000  1.0
  O  O131  1  0.98135000  0.23497000  0.17056000  1.0
  O  O132  1  0.75434000  0.62510000  0.67946000  1.0
  O  O133  1  0.25434000  0.87490000  0.82054000  1.0
  O  O134  1  0.24566000  0.37491000  0.32054000  1.0
  O  O135  1  0.74566000  0.12509000  0.17946000  1.0
  O  O136  1  0.89809000  0.88570000  0.68527000  1.0
  O  O137  1  0.39809000  0.61430000  0.81472000  1.0
  O  O138  1  0.10191000  0.11430000  0.31473000  1.0
  O  O139  1  0.60191000  0.38570000  0.18527000  1.0
  O  O140  1  0.10662000  0.77343000  0.61597000  1.0
  O  O141  1  0.60662000  0.72657000  0.88403000  1.0
  O  O142  1  0.89338000  0.22657000  0.38403000  1.0
  O  O143  1  0.39337000  0.27343000  0.11596000  1.0
