# generated using pymatgen
data_ZnH16C20(NO2)2
_symmetry_space_group_name_H-M   'P 1'
_cell_length_a   9.82677000
_cell_length_b   13.51440000
_cell_length_c   15.49030000
_cell_angle_alpha   89.99980000
_cell_angle_beta   90.00010000
_cell_angle_gamma   89.99970000
_symmetry_Int_Tables_number   1
_chemical_formula_structural   ZnH16C20(NO2)2
_chemical_formula_sum   'Zn4 H64 C80 N8 O16'
_cell_volume   2057.15676939
_cell_formula_units_Z   4
loop_
 _symmetry_equiv_pos_site_id
 _symmetry_equiv_pos_as_xyz
  1  'x, y, z'
loop_
 _atom_site_type_symbol
 _atom_site_label
 _atom_site_symmetry_multiplicity
 _atom_site_fract_x
 _atom_site_fract_y
 _atom_site_fract_z
 _atom_site_occupancy
  Zn  Zn0  1  0.07605000  0.25000000  0.25000000  1.0
  Zn  Zn1  1  0.42395000  0.25000000  0.75000000  1.0
  Zn  Zn2  1  0.92395000  0.75000000  0.75000000  1.0
  Zn  Zn3  1  0.57605000  0.75000000  0.25000000  1.0
  H  H4  1  0.59973000  0.50568000  0.89769000  1.0
  H  H5  1  0.90027000  0.50567000  0.10230000  1.0
  H  H6  1  0.59974000  0.99433000  0.60231000  1.0
  H  H7  1  0.90026000  0.99433000  0.39769000  1.0
  H  H8  1  0.40026000  0.49432000  0.10231000  1.0
  H  H9  1  0.09973000  0.49433000  0.89770000  1.0
  H  H10  1  0.40027000  0.00567000  0.39769000  1.0
  H  H11  1  0.09974000  0.00567000  0.60231000  1.0
  H  H12  1  0.75001000  0.59831000  0.99999000  1.0
  H  H13  1  0.75000000  0.90169000  0.50000000  1.0
  H  H14  1  0.24999000  0.40169000  0.00001000  1.0
  H  H15  1  0.25000000  0.09831000  0.50000000  1.0
  H  H16  1  0.75000000  0.23124000  1.00000000  1.0
  H  H17  1  0.75000000  0.26877000  0.50000000  1.0
  H  H18  1  0.25000000  0.76876000  0.00000000  1.0
  H  H19  1  0.25000000  0.73124000  0.50000000  1.0
  H  H20  1  0.26783000  0.28949000  0.10960000  1.0
  H  H21  1  0.23217000  0.28949000  0.89041000  1.0
  H  H22  1  0.26783000  0.21051000  0.39041000  1.0
  H  H23  1  0.23217000  0.21051000  0.60960000  1.0
  H  H24  1  0.73217000  0.71050000  0.89040000  1.0
  H  H25  1  0.76783000  0.71050000  0.10960000  1.0
  H  H26  1  0.73217000  0.78949000  0.60960000  1.0
  H  H27  1  0.76782000  0.78950000  0.39040000  1.0
  H  H28  1  0.45291000  0.20204000  0.02742000  1.0
  H  H29  1  0.04709000  0.20204000  0.97258000  1.0
  H  H30  1  0.45291000  0.29796000  0.47258000  1.0
  H  H31  1  0.04709000  0.29796000  0.52742000  1.0
  H  H32  1  0.54709000  0.79795000  0.97258000  1.0
  H  H33  1  0.95291000  0.79795000  0.02742000  1.0
  H  H34  1  0.54709000  0.70205000  0.52742000  1.0
  H  H35  1  0.95290000  0.70205000  0.47258000  1.0
  H  H36  1  0.37008000  0.94305000  0.18201000  1.0
  H  H37  1  0.12992000  0.94305000  0.81799000  1.0
  H  H38  1  0.37008000  0.55695000  0.31799000  1.0
  H  H39  1  0.12992000  0.55695000  0.68201000  1.0
  H  H40  1  0.62991000  0.05695000  0.81799000  1.0
  H  H41  1  0.87009000  0.05694000  0.18201000  1.0
  H  H42  1  0.62992000  0.44305000  0.68201000  1.0
  H  H43  1  0.87008000  0.44305000  0.31799000  1.0
  H  H44  1  0.18785000  0.04128000  0.25762000  1.0
  H  H45  1  0.31215000  0.04128000  0.74238000  1.0
  H  H46  1  0.18785000  0.45872000  0.24238000  1.0
  H  H47  1  0.31215000  0.45872000  0.75762000  1.0
  H  H48  1  0.81215000  0.95872000  0.74238000  1.0
  H  H49  1  0.68786000  0.95872000  0.25762000  1.0
  H  H50  1  0.81215000  0.54128000  0.75762000  1.0
  H  H51  1  0.68784000  0.54128000  0.24238000  1.0
  H  H52  1  0.45014000  0.06190000  0.92300000  1.0
  H  H53  1  0.04986000  0.06190000  0.07700000  1.0
  H  H54  1  0.45014000  0.43810000  0.57700000  1.0
  H  H55  1  0.04985000  0.43810000  0.42300000  1.0
  H  H56  1  0.54986000  0.93810000  0.07700000  1.0
  H  H57  1  0.95014000  0.93810000  0.92300000  1.0
  H  H58  1  0.54985000  0.56190000  0.42300000  1.0
  H  H59  1  0.95014000  0.56190000  0.57700000  1.0
  H  H60  1  0.37736000  0.94798000  0.95869000  1.0
  H  H61  1  0.12264000  0.94798000  0.04131000  1.0
  H  H62  1  0.37736000  0.55202000  0.54131000  1.0
  H  H63  1  0.12264000  0.55202000  0.45869000  1.0
  H  H64  1  0.62264000  0.05201000  0.04131000  1.0
  H  H65  1  0.87736000  0.05201000  0.95869000  1.0
  H  H66  1  0.62264000  0.44799000  0.45869000  1.0
  H  H67  1  0.87736000  0.44799000  0.54131000  1.0
  C  C68  1  0.58139000  0.30363000  0.88048000  1.0
  C  C69  1  0.91861000  0.30362000  0.11952000  1.0
  C  C70  1  0.58139000  0.19638000  0.61952000  1.0
  C  C71  1  0.91861000  0.19638000  0.38048000  1.0
  C  C72  1  0.41862000  0.69638000  0.11952000  1.0
  C  C73  1  0.08139000  0.69638000  0.88048000  1.0
  C  C74  1  0.41861000  0.80362000  0.38048000  1.0
  C  C75  1  0.08139000  0.80362000  0.61952000  1.0
  C  C76  1  0.66655000  0.36267000  0.94204000  1.0
  C  C77  1  0.83344000  0.36267000  0.05796000  1.0
  C  C78  1  0.66656000  0.13734000  0.55797000  1.0
  C  C79  1  0.83344000  0.13734000  0.44204000  1.0
  C  C80  1  0.33344000  0.63733000  0.05796000  1.0
  C  C81  1  0.16656000  0.63733000  0.94204000  1.0
  C  C82  1  0.33344000  0.86267000  0.44204000  1.0
  C  C83  1  0.16657000  0.86267000  0.55797000  1.0
  C  C84  1  0.66614000  0.46646000  0.94251000  1.0
  C  C85  1  0.83385000  0.46646000  0.05749000  1.0
  C  C86  1  0.66615000  0.03355000  0.55749000  1.0
  C  C87  1  0.83385000  0.03355000  0.44251000  1.0
  C  C88  1  0.33385000  0.53354000  0.05749000  1.0
  C  C89  1  0.16614000  0.53354000  0.94251000  1.0
  C  C90  1  0.33385000  0.96645000  0.44251000  1.0
  C  C91  1  0.16615000  0.96645000  0.55749000  1.0
  C  C92  1  0.75000000  0.51762000  1.00000000  1.0
  C  C93  1  0.75000000  0.98238000  0.50000000  1.0
  C  C94  1  0.25000000  0.48238000  1.00000000  1.0
  C  C95  1  0.25000000  0.01762000  0.50000000  1.0
  C  C96  1  0.75000000  0.31177000  0.00000000  1.0
  C  C97  1  0.75000000  0.18823000  0.50000000  1.0
  C  C98  1  0.25000000  0.68823000  0.00000000  1.0
  C  C99  1  0.25000000  0.81177000  0.50000000  1.0
  C  C100  1  0.29442000  0.21263000  0.12327000  1.0
  C  C101  1  0.20557000  0.21263000  0.87673000  1.0
  C  C102  1  0.29442000  0.28736000  0.37673000  1.0
  C  C103  1  0.20557000  0.28737000  0.62327000  1.0
  C  C104  1  0.70557000  0.78736000  0.87673000  1.0
  C  C105  1  0.79443000  0.78736000  0.12327000  1.0
  C  C106  1  0.70557000  0.71264000  0.62327000  1.0
  C  C107  1  0.79442000  0.71264000  0.37673000  1.0
  C  C108  1  0.39660000  0.16428000  0.07844000  1.0
  C  C109  1  0.10340000  0.16428000  0.92156000  1.0
  C  C110  1  0.39659000  0.33572000  0.42157000  1.0
  C  C111  1  0.10341000  0.33572000  0.57844000  1.0
  C  C112  1  0.60340000  0.83571000  0.92156000  1.0
  C  C113  1  0.89660000  0.83571000  0.07844000  1.0
  C  C114  1  0.60341000  0.66429000  0.57843000  1.0
  C  C115  1  0.89659000  0.66429000  0.42156000  1.0
  C  C116  1  0.42536000  0.06517000  0.09823000  1.0
  C  C117  1  0.07464000  0.06517000  0.90177000  1.0
  C  C118  1  0.42536000  0.43483000  0.40177000  1.0
  C  C119  1  0.07464000  0.43483000  0.59823000  1.0
  C  C120  1  0.57464000  0.93483000  0.90177000  1.0
  C  C121  1  0.92536000  0.93482000  0.09823000  1.0
  C  C122  1  0.57464000  0.56517000  0.59823000  1.0
  C  C123  1  0.92535000  0.56518000  0.40177000  1.0
  C  C124  1  0.35086000  0.01993000  0.16446000  1.0
  C  C125  1  0.14914000  0.01993000  0.83554000  1.0
  C  C126  1  0.35086000  0.48006000  0.33554000  1.0
  C  C127  1  0.14914000  0.48007000  0.66446000  1.0
  C  C128  1  0.64913000  0.98006000  0.83554000  1.0
  C  C129  1  0.85088000  0.98006000  0.16446000  1.0
  C  C130  1  0.64914000  0.51994000  0.66446000  1.0
  C  C131  1  0.85086000  0.51994000  0.33554000  1.0
  C  C132  1  0.24991000  0.07367000  0.20644000  1.0
  C  C133  1  0.25009000  0.07368000  0.79356000  1.0
  C  C134  1  0.24991000  0.42632000  0.29356000  1.0
  C  C135  1  0.25009000  0.42633000  0.70644000  1.0
  C  C136  1  0.75008000  0.92632000  0.79356000  1.0
  C  C137  1  0.74992000  0.92633000  0.20644000  1.0
  C  C138  1  0.75009000  0.57368000  0.70644000  1.0
  C  C139  1  0.74991000  0.57367000  0.29356000  1.0
  C  C140  1  0.52769000  0.00916000  0.04602000  1.0
  C  C141  1  0.97231000  0.00916000  0.95398000  1.0
  C  C142  1  0.52769000  0.49084000  0.45398000  1.0
  C  C143  1  0.97231000  0.49084000  0.54602000  1.0
  C  C144  1  0.47230000  0.99083000  0.95398000  1.0
  C  C145  1  0.02770000  0.99083000  0.04602000  1.0
  C  C146  1  0.47231000  0.50917000  0.54602000  1.0
  C  C147  1  0.02769000  0.50917000  0.45398000  1.0
  N  N148  1  0.22116000  0.16810000  0.18568000  1.0
  N  N149  1  0.27884000  0.16810000  0.81432000  1.0
  N  N150  1  0.22116000  0.33190000  0.31432000  1.0
  N  N151  1  0.27884000  0.33190000  0.68568000  1.0
  N  N152  1  0.77884000  0.83190000  0.81432000  1.0
  N  N153  1  0.72116000  0.83190000  0.18568000  1.0
  N  N154  1  0.77884000  0.66810000  0.68568000  1.0
  N  N155  1  0.72115000  0.66810000  0.31432000  1.0
  O  O156  1  0.51046000  0.35258000  0.82388000  1.0
  O  O157  1  0.98954000  0.35258000  0.17612000  1.0
  O  O158  1  0.51047000  0.14742000  0.67612000  1.0
  O  O159  1  0.98953000  0.14742000  0.32388000  1.0
  O  O160  1  0.48954000  0.64741000  0.17612000  1.0
  O  O161  1  0.01047000  0.64742000  0.82388000  1.0
  O  O162  1  0.48953000  0.85258000  0.32388000  1.0
  O  O163  1  0.01047000  0.85258000  0.67612000  1.0
  O  O164  1  0.58126000  0.21082000  0.88485000  1.0
  O  O165  1  0.91874000  0.21082000  0.11515000  1.0
  O  O166  1  0.58126000  0.28919000  0.61515000  1.0
  O  O167  1  0.91874000  0.28919000  0.38485000  1.0
  O  O168  1  0.41875000  0.78918000  0.11515000  1.0
  O  O169  1  0.08126000  0.78918000  0.88485000  1.0
  O  O170  1  0.41874000  0.71082000  0.38485000  1.0
  O  O171  1  0.08126000  0.71082000  0.61515000  1.0
