# generated using pymatgen
data_CuH9C5NO5
_symmetry_space_group_name_H-M   'P 1'
_cell_length_a   6.94432000
_cell_length_b   9.94984000
_cell_length_c   11.37880000
_cell_angle_alpha   89.99900000
_cell_angle_beta   90.00010000
_cell_angle_gamma   89.99830000
_symmetry_Int_Tables_number   1
_chemical_formula_structural   CuH9C5NO5
_chemical_formula_sum   'Cu4 H36 C20 N4 O20'
_cell_volume   786.21673939
_cell_formula_units_Z   4
loop_
 _symmetry_equiv_pos_site_id
 _symmetry_equiv_pos_as_xyz
  1  'x, y, z'
loop_
 _atom_site_type_symbol
 _atom_site_label
 _atom_site_symmetry_multiplicity
 _atom_site_fract_x
 _atom_site_fract_y
 _atom_site_fract_z
 _atom_site_occupancy
  Cu  Cu0  1  0.38015000  0.05044000  0.01820000  1.0
  Cu  Cu1  1  0.11986000  0.94957000  0.51819000  1.0
  Cu  Cu2  1  0.88015000  0.44959000  0.98181000  1.0
  Cu  Cu3  1  0.61985000  0.55041000  0.48180000  1.0
  H  H4  1  0.28045000  0.29316000  0.77559000  1.0
  H  H5  1  0.21957000  0.70684000  0.27560000  1.0
  H  H6  1  0.78043000  0.20686000  0.22441000  1.0
  H  H7  1  0.71957000  0.79314000  0.72440000  1.0
  H  H8  1  0.22878000  0.81208000  0.95332000  1.0
  H  H9  1  0.27122000  0.18794000  0.45333000  1.0
  H  H10  1  0.72879000  0.68796000  0.04669000  1.0
  H  H11  1  0.77121000  0.31204000  0.54669000  1.0
  H  H12  1  0.40590000  0.81353000  0.05245000  1.0
  H  H13  1  0.09411000  0.18647000  0.55246000  1.0
  H  H14  1  0.90588000  0.68650000  0.94756000  1.0
  H  H15  1  0.59411000  0.31351000  0.44755000  1.0
  H  H16  1  0.26757000  0.02962000  0.79712000  1.0
  H  H17  1  0.23242000  0.97037000  0.29711000  1.0
  H  H18  1  0.76755000  0.47039000  0.20289000  1.0
  H  H19  1  0.73242000  0.52959000  0.70289000  1.0
  H  H20  1  0.14079000  0.13435000  0.88284000  1.0
  H  H21  1  0.35922000  0.86567000  0.38284000  1.0
  H  H22  1  0.64079000  0.36568000  0.11716000  1.0
  H  H23  1  0.85920000  0.63431000  0.61716000  1.0
  H  H24  1  0.46345000  0.13624000  0.64750000  1.0
  H  H25  1  0.03655000  0.86375000  0.14749000  1.0
  H  H26  1  0.96346000  0.36376000  0.35251000  1.0
  H  H27  1  0.53653000  0.63624000  0.85251000  1.0
  H  H28  1  0.58965000  0.28327000  0.68968000  1.0
  H  H29  1  0.91036000  0.71671000  0.18969000  1.0
  H  H30  1  0.08963000  0.21671000  0.31032000  1.0
  H  H31  1  0.41038000  0.78328000  0.81032000  1.0
  H  H32  1  0.66033000  0.99911000  0.78699000  1.0
  H  H33  1  0.83968000  0.00087000  0.28698000  1.0
  H  H34  1  0.16033000  0.50087000  0.21299000  1.0
  H  H35  1  0.33965000  0.49913000  0.71301000  1.0
  H  H36  1  0.76654000  0.14756000  0.84541000  1.0
  H  H37  1  0.73348000  0.85244000  0.34540000  1.0
  H  H38  1  0.26655000  0.35240000  0.15459000  1.0
  H  H39  1  0.23344000  0.64761000  0.65460000  1.0
  C  C40  1  0.48431000  0.29344000  0.91570000  1.0
  C  C41  1  0.01571000  0.70657000  0.41571000  1.0
  C  C42  1  0.98428000  0.20659000  0.08429000  1.0
  C  C43  1  0.51571000  0.79341000  0.58429000  1.0
  C  C44  1  0.38382000  0.22181000  0.81418000  1.0
  C  C45  1  0.11619000  0.77819000  0.31418000  1.0
  C  C46  1  0.88381000  0.27820000  0.18581000  1.0
  C  C47  1  0.61618000  0.72180000  0.68581000  1.0
  C  C48  1  0.53436000  0.18668000  0.72142000  1.0
  C  C49  1  0.96565000  0.81331000  0.22142000  1.0
  C  C50  1  0.03436000  0.31332000  0.27858000  1.0
  C  C51  1  0.46564000  0.68668000  0.77858000  1.0
  C  C52  1  0.70365000  0.10221000  0.76562000  1.0
  C  C53  1  0.79636000  0.89778000  0.26561000  1.0
  C  C54  1  0.20365000  0.39777000  0.23438000  1.0
  C  C55  1  0.29634000  0.60224000  0.73439000  1.0
  C  C56  1  0.86425000  0.09920000  0.67538000  1.0
  C  C57  1  0.63577000  0.90080000  0.17538000  1.0
  C  C58  1  0.36424000  0.40079000  0.32462000  1.0
  C  C59  1  0.13574000  0.59922000  0.82462000  1.0
  N  N60  1  0.27720000  0.10375000  0.85933000  1.0
  N  N61  1  0.22281000  0.89625000  0.35932000  1.0
  N  N62  1  0.77719000  0.39627000  0.14067000  1.0
  N  N63  1  0.72280000  0.60372000  0.64067000  1.0
  O  O64  1  0.29073000  0.86344000  0.01851000  1.0
  O  O65  1  0.20927000  0.13656000  0.51851000  1.0
  O  O66  1  0.79074000  0.63659000  0.98150000  1.0
  O  O67  1  0.70926000  0.36341000  0.48150000  1.0
  O  O68  1  0.48030000  0.23576000  0.01824000  1.0
  O  O69  1  0.01970000  0.76425000  0.51825000  1.0
  O  O70  1  0.98029000  0.26428000  0.98175000  1.0
  O  O71  1  0.51969000  0.73573000  0.48175000  1.0
  O  O72  1  0.57241000  0.40050000  0.89586000  1.0
  O  O73  1  0.92760000  0.59950000  0.39587000  1.0
  O  O74  1  0.07239000  0.09950000  0.10412000  1.0
  O  O75  1  0.42759000  0.90051000  0.60413000  1.0
  O  O76  1  0.95074000  0.98729000  0.65749000  1.0
  O  O77  1  0.54927000  0.01270000  0.15749000  1.0
  O  O78  1  0.45073000  0.51269000  0.34251000  1.0
  O  O79  1  0.04926000  0.48733000  0.84252000  1.0
  O  O80  1  0.90792000  0.20930000  0.62429000  1.0
  O  O81  1  0.59208000  0.79070000  0.12429000  1.0
  O  O82  1  0.40792000  0.29068000  0.37572000  1.0
  O  O83  1  0.09207000  0.70934000  0.87572000  1.0
