# generated using pymatgen
data_Cu3SiH21C28(IN)3
_symmetry_space_group_name_H-M   'P 1'
_cell_length_a   12.43670000
_cell_length_b   12.49090000
_cell_length_c   12.64070000
_cell_angle_alpha   61.93030000
_cell_angle_beta   61.79730000
_cell_angle_gamma   62.10770000
_symmetry_Int_Tables_number   1
_chemical_formula_structural   Cu3SiH21C28(IN)3
_chemical_formula_sum   'Cu6 Si2 H42 C56 I6 N6'
_cell_volume   1448.94394269
_cell_formula_units_Z   2
loop_
 _symmetry_equiv_pos_site_id
 _symmetry_equiv_pos_as_xyz
  1  'x, y, z'
loop_
 _atom_site_type_symbol
 _atom_site_label
 _atom_site_symmetry_multiplicity
 _atom_site_fract_x
 _atom_site_fract_y
 _atom_site_fract_z
 _atom_site_occupancy
  Cu  Cu0  1  0.84529000  0.01069000  0.23420000  1.0
  Cu  Cu1  1  0.22994000  0.84316000  0.01358000  1.0
  Cu  Cu2  1  0.00877000  0.23022000  0.84550000  1.0
  Cu  Cu3  1  0.15472000  0.98932000  0.76579000  1.0
  Cu  Cu4  1  0.77005000  0.15684000  0.98643000  1.0
  Cu  Cu5  1  0.99124000  0.76978000  0.15450000  1.0
  Si  Si6  1  0.34202000  0.34358000  0.34578000  1.0
  Si  Si7  1  0.65798000  0.65642000  0.65422000  1.0
  H  H8  1  0.58678000  0.14279000  0.25833000  1.0
  H  H9  1  0.25508000  0.58478000  0.14427000  1.0
  H  H10  1  0.14008000  0.25525000  0.58866000  1.0
  H  H11  1  0.41323000  0.85721000  0.74166000  1.0
  H  H12  1  0.74491000  0.41522000  0.85573000  1.0
  H  H13  1  0.85992000  0.74475000  0.41135000  1.0
  H  H14  1  0.89498000  0.95219000  0.45219000  1.0
  H  H15  1  0.45289000  0.89335000  0.95199000  1.0
  H  H16  1  0.95280000  0.45084000  0.89248000  1.0
  H  H17  1  0.10503000  0.04781000  0.54781000  1.0
  H  H18  1  0.54710000  0.10665000  0.04801000  1.0
  H  H19  1  0.04719000  0.54917000  0.10752000  1.0
  H  H20  1  0.39172000  0.26869000  0.58720000  1.0
  H  H21  1  0.58781000  0.39426000  0.26888000  1.0
  H  H22  1  0.26709000  0.58834000  0.39394000  1.0
  H  H23  1  0.60828000  0.73132000  0.41280000  1.0
  H  H24  1  0.41219000  0.60573000  0.73112000  1.0
  H  H25  1  0.73291000  0.41166000  0.60607000  1.0
  H  H26  1  0.90441000  0.95080000  0.64504000  1.0
  H  H27  1  0.64815000  0.90497000  0.95005000  1.0
  H  H28  1  0.95340000  0.64531000  0.90130000  1.0
  H  H29  1  0.09560000  0.04920000  0.35496000  1.0
  H  H30  1  0.35185000  0.09503000  0.04995000  1.0
  H  H31  1  0.04661000  0.35469000  0.09870000  1.0
  H  H32  1  0.50697000  0.18446000  0.73721000  1.0
  H  H33  1  0.74081000  0.51008000  0.18331000  1.0
  H  H34  1  0.18511000  0.73956000  0.50775000  1.0
  H  H35  1  0.49303000  0.81555000  0.26278000  1.0
  H  H36  1  0.25919000  0.48992000  0.81668000  1.0
  H  H37  1  0.81490000  0.26044000  0.49226000  1.0
  H  H38  1  0.21861000  0.36071000  0.22941000  1.0
  H  H39  1  0.22417000  0.21934000  0.36224000  1.0
  H  H40  1  0.36016000  0.22661000  0.22290000  1.0
  H  H41  1  0.78139000  0.63928000  0.77060000  1.0
  H  H42  1  0.77583000  0.78066000  0.63777000  1.0
  H  H43  1  0.63984000  0.77339000  0.77710000  1.0
  H  H44  1  0.71229000  0.06587000  0.78711000  1.0
  H  H45  1  0.79207000  0.71516000  0.06433000  1.0
  H  H46  1  0.06885000  0.78917000  0.71080000  1.0
  H  H47  1  0.28771000  0.93413000  0.21288000  1.0
  H  H48  1  0.20793000  0.28484000  0.93567000  1.0
  H  H49  1  0.93115000  0.21082000  0.28921000  1.0
  C  C50  1  0.58358000  0.14344000  0.34600000  1.0
  C  C51  1  0.34396000  0.58267000  0.14446000  1.0
  C  C52  1  0.14119000  0.34392000  0.58520000  1.0
  C  C53  1  0.41642000  0.85656000  0.65399000  1.0
  C  C54  1  0.65604000  0.41733000  0.85554000  1.0
  C  C55  1  0.85881000  0.65607000  0.41481000  1.0
  C  C56  1  0.69607000  0.07085000  0.48330000  1.0
  C  C57  1  0.48397000  0.69566000  0.07053000  1.0
  C  C58  1  0.07026000  0.48265000  0.69571000  1.0
  C  C59  1  0.30394000  0.92915000  0.51670000  1.0
  C  C60  1  0.51603000  0.30434000  0.92948000  1.0
  C  C61  1  0.92973000  0.51736000  0.30429000  1.0
  C  C62  1  0.47194000  0.21869000  0.41672000  1.0
  C  C63  1  0.41481000  0.47272000  0.22021000  1.0
  C  C64  1  0.21658000  0.41557000  0.47421000  1.0
  C  C65  1  0.52807000  0.78131000  0.58328000  1.0
  C  C66  1  0.58519000  0.52728000  0.77979000  1.0
  C  C67  1  0.78343000  0.58443000  0.52580000  1.0
  C  C68  1  0.81085000  0.00295000  0.51477000  1.0
  C  C69  1  0.51623000  0.81023000  0.00243000  1.0
  C  C70  1  0.00350000  0.51430000  0.80904000  1.0
  C  C71  1  0.18916000  0.99705000  0.48522000  1.0
  C  C72  1  0.48376000  0.18977000  0.99757000  1.0
  C  C73  1  0.99649000  0.48570000  0.19096000  1.0
  C  C74  1  0.58550000  0.13858000  0.56451000  1.0
  C  C75  1  0.56601000  0.58651000  0.13805000  1.0
  C  C76  1  0.13790000  0.56503000  0.58591000  1.0
  C  C77  1  0.41451000  0.86141000  0.43548000  1.0
  C  C78  1  0.43399000  0.41348000  0.86195000  1.0
  C  C79  1  0.86209000  0.43497000  0.41409000  1.0
  C  C80  1  0.47412000  0.21323000  0.52780000  1.0
  C  C81  1  0.52787000  0.47570000  0.21364000  1.0
  C  C82  1  0.21172000  0.52799000  0.47580000  1.0
  C  C83  1  0.52589000  0.78677000  0.47219000  1.0
  C  C84  1  0.47212000  0.52430000  0.78635000  1.0
  C  C85  1  0.78828000  0.47201000  0.52420000  1.0
  C  C86  1  0.81524000  0.00203000  0.62233000  1.0
  C  C87  1  0.62510000  0.81583000  0.00126000  1.0
  C  C88  1  0.00377000  0.62272000  0.81309000  1.0
  C  C89  1  0.18476000  0.99797000  0.37767000  1.0
  C  C90  1  0.37490000  0.18417000  0.99874000  1.0
  C  C91  1  0.99623000  0.37728000  0.18691000  1.0
  C  C92  1  0.59250000  0.13375000  0.67555000  1.0
  C  C93  1  0.67860000  0.59462000  0.13270000  1.0
  C  C94  1  0.13435000  0.67703000  0.59249000  1.0
  C  C95  1  0.40751000  0.86626000  0.32444000  1.0
  C  C96  1  0.32140000  0.40538000  0.86729000  1.0
  C  C97  1  0.86565000  0.32297000  0.40751000  1.0
  C  C98  1  0.28053000  0.28185000  0.28477000  1.0
  C  C99  1  0.71947000  0.71815000  0.71524000  1.0
  C  C100  1  0.70557000  0.06693000  0.70371000  1.0
  C  C101  1  0.70747000  0.70753000  0.06586000  1.0
  C  C102  1  0.06890000  0.70508000  0.70440000  1.0
  C  C103  1  0.29443000  0.93308000  0.29628000  1.0
  C  C104  1  0.29253000  0.29247000  0.93414000  1.0
  C  C105  1  0.93111000  0.29492000  0.29560000  1.0
  I  I106  1  0.07113000  0.86384000  0.24516000  1.0
  I  I107  1  0.24492000  0.06717000  0.86234000  1.0
  I  I108  1  0.86451000  0.24476000  0.06898000  1.0
  I  I109  1  0.92887000  0.13616000  0.75484000  1.0
  I  I110  1  0.75508000  0.93282000  0.13766000  1.0
  I  I111  1  0.13549000  0.75525000  0.93101000  1.0
  N  N112  1  0.69203000  0.07321000  0.37496000  1.0
  N  N113  1  0.37403000  0.69065000  0.07348000  1.0
  N  N114  1  0.07164000  0.37312000  0.69242000  1.0
  N  N115  1  0.30797000  0.92679000  0.62504000  1.0
  N  N116  1  0.62597000  0.30934000  0.92652000  1.0
  N  N117  1  0.92836000  0.62688000  0.30758000  1.0
