# generated using pymatgen
data_SrCu2H12C16O13
_symmetry_space_group_name_H-M   'P 1'
_cell_length_a   6.58456000
_cell_length_b   11.64270000
_cell_length_c   12.99030000
_cell_angle_alpha   99.39860000
_cell_angle_beta   96.79070000
_cell_angle_gamma   92.27040000
_symmetry_Int_Tables_number   1
_chemical_formula_structural   SrCu2H12C16O13
_chemical_formula_sum   'Sr2 Cu4 H24 C32 O26'
_cell_volume   973.83592720
_cell_formula_units_Z   2
loop_
 _symmetry_equiv_pos_site_id
 _symmetry_equiv_pos_as_xyz
  1  'x, y, z'
loop_
 _atom_site_type_symbol
 _atom_site_label
 _atom_site_symmetry_multiplicity
 _atom_site_fract_x
 _atom_site_fract_y
 _atom_site_fract_z
 _atom_site_occupancy
  Sr  Sr0  1  0.66128000  0.50681000  0.85871000  1.0
  Sr  Sr1  1  0.33873000  0.49320000  0.14129000  1.0
  Cu  Cu2  1  0.23696000  0.92614000  0.97982000  1.0
  Cu  Cu3  1  0.76305000  0.07387000  0.02018000  1.0
  Cu  Cu4  1  0.28046000  0.18571000  0.05496000  1.0
  Cu  Cu5  1  0.71955000  0.81430000  0.94504000  1.0
  H  H6  1  0.56412000  0.80603000  0.33098000  1.0
  H  H7  1  0.43587000  0.19398000  0.66903000  1.0
  H  H8  1  0.66986000  0.97518000  0.47456000  1.0
  H  H9  1  0.33011000  0.02482000  0.52545000  1.0
  H  H10  1  0.63074000  0.17803000  0.43475000  1.0
  H  H11  1  0.36921000  0.82196000  0.56526000  1.0
  H  H12  1  0.90770000  0.93657000  0.59722000  1.0
  H  H13  1  0.09227000  0.06342000  0.40279000  1.0
  H  H14  1  0.87982000  0.14030000  0.55671000  1.0
  H  H15  1  0.12016000  0.85969000  0.44329000  1.0
  H  H16  1  0.95800000  0.30848000  0.70397000  1.0
  H  H17  1  0.04201000  0.69152000  0.29602000  1.0
  H  H18  1  0.05064000  0.53159000  0.72997000  1.0
  H  H19  1  0.94938000  0.46841000  0.27003000  1.0
  H  H20  1  0.93305000  0.64553000  0.72008000  1.0
  H  H21  1  0.06696000  0.35447000  0.27992000  1.0
  H  H22  1  0.31010000  0.64914000  0.97046000  1.0
  H  H23  1  0.68991000  0.35087000  0.02954000  1.0
  H  H24  1  0.19811000  0.52488000  0.91672000  1.0
  H  H25  1  0.80190000  0.47513000  0.08327000  1.0
  H  H26  1  0.37795000  0.55297000  0.67859000  1.0
  H  H27  1  0.62208000  0.44703000  0.32140000  1.0
  H  H28  1  0.33873000  0.41434000  0.64810000  1.0
  H  H29  1  0.66131000  0.58566000  0.35189000  1.0
  C  C30  1  0.44529000  0.02480000  0.19424000  1.0
  C  C31  1  0.55471000  0.97520000  0.80577000  1.0
  C  C32  1  0.46918000  0.90985000  0.21583000  1.0
  C  C33  1  0.53082000  0.09016000  0.78418000  1.0
  C  C34  1  0.54858000  0.89518000  0.31736000  1.0
  C  C35  1  0.45140000  0.10482000  0.68264000  1.0
  C  C36  1  0.60769000  0.98923000  0.39672000  1.0
  C  C37  1  0.39228000  0.01077000  0.60329000  1.0
  C  C38  1  0.58568000  0.10112000  0.37513000  1.0
  C  C39  1  0.41430000  0.89888000  0.62488000  1.0
  C  C40  1  0.50641000  0.12174000  0.27541000  1.0
  C  C41  1  0.49359000  0.87826000  0.72459000  1.0
  C  C42  1  0.41776000  0.79964000  0.13918000  1.0
  C  C43  1  0.58224000  0.20036000  0.86082000  1.0
  C  C44  1  0.49832000  0.24751000  0.26512000  1.0
  C  C45  1  0.50169000  0.75249000  0.73488000  1.0
  C  C46  1  0.07394000  0.08813000  0.84053000  1.0
  C  C47  1  0.92606000  0.91187000  0.15947000  1.0
  C  C48  1  0.01715000  0.99145000  0.75848000  1.0
  C  C49  1  0.98285000  0.00855000  0.24153000  1.0
  C  C50  1  0.94764000  0.01312000  0.65791000  1.0
  C  C51  1  0.05235000  0.98687000  0.34209000  1.0
  C  C52  1  0.93001000  0.12562000  0.63613000  1.0
  C  C53  1  0.06998000  0.87437000  0.36387000  1.0
  C  C54  1  0.97533000  0.21932000  0.71768000  1.0
  C  C55  1  0.02466000  0.78067000  0.28231000  1.0
  C  C56  1  0.04512000  0.20359000  0.82056000  1.0
  C  C57  1  0.95488000  0.79641000  0.17943000  1.0
  C  C58  1  0.02113000  0.86511000  0.77031000  1.0
  C  C59  1  0.97887000  0.13488000  0.22969000  1.0
  C  C60  1  0.07933000  0.31181000  0.90128000  1.0
  C  C61  1  0.92067000  0.68819000  0.09872000  1.0
  O  O62  1  0.36631000  0.04114000  0.09784000  1.0
  O  O63  1  0.63370000  0.95885000  0.90216000  1.0
  O  O64  1  0.91795000  0.56537000  0.73740000  1.0
  O  O65  1  0.08206000  0.43463000  0.26260000  1.0
  O  O66  1  0.34313000  0.79881000  0.04084000  1.0
  O  O67  1  0.65687000  0.20119000  0.95916000  1.0
  O  O68  1  0.32912000  0.56451000  0.95288000  1.0
  O  O69  1  0.67089000  0.43550000  0.04711000  1.0
  O  O70  1  0.45126000  0.70479000  0.17013000  1.0
  O  O71  1  0.54874000  0.29521000  0.82988000  1.0
  O  O72  1  0.34659000  0.47821000  0.70710000  1.0
  O  O73  1  0.65344000  0.52179000  0.29289000  1.0
  O  O74  1  0.41994000  0.28068000  0.17814000  1.0
  O  O75  1  0.58008000  0.71932000  0.82186000  1.0
  O  O76  1  0.57198000  0.32223000  0.34277000  1.0
  O  O77  1  0.42804000  0.67778000  0.65723000  1.0
  O  O78  1  0.15030000  0.07084000  0.93704000  1.0
  O  O79  1  0.84972000  0.92915000  0.06296000  1.0
  O  O80  1  0.09239000  0.83312000  0.85909000  1.0
  O  O81  1  0.90762000  0.16688000  0.14092000  1.0
  O  O82  1  0.94866000  0.78902000  0.69381000  1.0
  O  O83  1  0.05133000  0.21098000  0.30620000  1.0
  O  O84  1  0.18320000  0.31448000  0.99348000  1.0
  O  O85  1  0.81680000  0.68552000  0.00651000  1.0
  O  O86  1  0.00647000  0.40458000  0.87852000  1.0
  O  O87  1  0.99354000  0.59542000  0.12148000  1.0
