# generated using pymatgen
data_CdH28C20(N5O4)2
_symmetry_space_group_name_H-M   'P 1'
_cell_length_a   8.65440000
_cell_length_b   8.81065000
_cell_length_c   10.47990000
_cell_angle_alpha   84.61810000
_cell_angle_beta   68.26260000
_cell_angle_gamma   62.48690000
_symmetry_Int_Tables_number   1
_chemical_formula_structural   CdH28C20(N5O4)2
_chemical_formula_sum   'Cd1 H28 C20 N10 O8'
_cell_volume   655.42689650
_cell_formula_units_Z   1
loop_
 _symmetry_equiv_pos_site_id
 _symmetry_equiv_pos_as_xyz
  1  'x, y, z'
loop_
 _atom_site_type_symbol
 _atom_site_label
 _atom_site_symmetry_multiplicity
 _atom_site_fract_x
 _atom_site_fract_y
 _atom_site_fract_z
 _atom_site_occupancy
  Cd  Cd0  1  0.00000000  0.00000000  0.00000000  1.0
  H  H1  1  0.49692000  0.18146000  0.48579000  1.0
  H  H2  1  0.50308000  0.81853000  0.51421000  1.0
  H  H3  1  0.47724000  0.39030000  0.45018000  1.0
  H  H4  1  0.52276000  0.60970000  0.54982000  1.0
  H  H5  1  0.12568000  0.51465000  0.60085000  1.0
  H  H6  1  0.87432000  0.48535000  0.39915000  1.0
  H  H7  1  0.19771000  0.39198000  0.44410000  1.0
  H  H8  1  0.80229000  0.60802000  0.55589000  1.0
  H  H9  1  0.10929000  0.32391000  0.82927000  1.0
  H  H10  1  0.89071000  0.67609000  0.17073000  1.0
  H  H11  1  0.13289000  0.14807000  0.45641000  1.0
  H  H12  1  0.86711000  0.85193000  0.54359000  1.0
  H  H13  1  0.03136000  0.95376000  0.66850000  1.0
  H  H14  1  0.96864000  0.04624000  0.33150000  1.0
  H  H15  1  0.19131000  0.55588000  0.92929000  1.0
  H  H16  1  0.80869000  0.44412000  0.07070000  1.0
  H  H17  1  0.73787000  0.51281000  0.78074000  1.0
  H  H18  1  0.26213000  0.48719000  0.21926000  1.0
  H  H19  1  0.47506000  0.85747000  0.84397000  1.0
  H  H20  1  0.52494000  0.14253000  0.15603000  1.0
  H  H21  1  0.46343000  0.25638000  0.89009000  1.0
  H  H22  1  0.53657000  0.74362000  0.10991000  1.0
  H  H23  1  0.69567000  0.22879000  0.83431000  1.0
  H  H24  1  0.30434000  0.77121000  0.16568000  1.0
  H  H25  1  0.69435000  0.29361000  0.59514000  1.0
  H  H26  1  0.30565000  0.70639000  0.40486000  1.0
  H  H27  1  0.65192000  0.11355000  0.65169000  1.0
  H  H28  1  0.34808000  0.88645000  0.34831000  1.0
  C  C29  1  0.41484000  0.31865000  0.52582000  1.0
  C  C30  1  0.58516000  0.68135000  0.47418000  1.0
  C  C31  1  0.21064000  0.38571000  0.54474000  1.0
  C  C32  1  0.78935000  0.61429000  0.45526000  1.0
  C  C33  1  0.10174000  0.24773000  0.75831000  1.0
  C  C34  1  0.89826000  0.75227000  0.24169000  1.0
  C  C35  1  0.11402000  0.15191000  0.56455000  1.0
  C  C36  1  0.88598000  0.84809000  0.43545000  1.0
  C  C37  1  0.06519000  0.05774000  0.66967000  1.0
  C  C38  1  0.93481000  0.94226000  0.33033000  1.0
  C  C39  1  0.30142000  0.59442000  0.89714000  1.0
  C  C40  1  0.69858000  0.40558000  0.10286000  1.0
  C  C41  1  0.58625000  0.57421000  0.81682000  1.0
  C  C42  1  0.41375000  0.42580000  0.18318000  1.0
  C  C43  1  0.45464000  0.74421000  0.84989000  1.0
  C  C44  1  0.54536000  0.25579000  0.15011000  1.0
  C  C45  1  0.56347000  0.29684000  0.81736000  1.0
  C  C46  1  0.43653000  0.70316000  0.18264000  1.0
  C  C47  1  0.59362000  0.25384000  0.67038000  1.0
  C  C48  1  0.40638000  0.74616000  0.32962000  1.0
  N  N49  1  0.13658000  0.27178000  0.62222000  1.0
  N  N50  1  0.86342000  0.72822000  0.37778000  1.0
  N  N51  1  0.05768000  0.11906000  0.78966000  1.0
  N  N52  1  0.94232000  0.88094000  0.21034000  1.0
  N  N53  1  0.85397000  0.77658000  0.86387000  1.0
  N  N54  1  0.14603000  0.22342000  0.13613000  1.0
  N  N55  1  0.48669000  0.48131000  0.84743000  1.0
  N  N56  1  0.51331000  0.51869000  0.15257000  1.0
  N  N57  1  0.27762000  0.75486000  0.90017000  1.0
  N  N58  1  0.72238000  0.24514000  0.09983000  1.0
  O  O59  1  0.41534000  0.34210000  0.65805000  1.0
  O  O60  1  0.58466000  0.65790000  0.34195000  1.0
  O  O61  1  0.80800000  0.92488000  0.91477000  1.0
  O  O62  1  0.19200000  0.07512000  0.08523000  1.0
  O  O63  1  0.85657000  0.76152000  0.74381000  1.0
  O  O64  1  0.14342000  0.23848000  0.25619000  1.0
  O  O65  1  0.89447000  0.64862000  0.93290000  1.0
  O  O66  1  0.10553000  0.35138000  0.06710000  1.0
