# generated using pymatgen
data_ZnH4C13SNO7F3
_symmetry_space_group_name_H-M   'P 1'
_cell_length_a   8.06759000
_cell_length_b   10.89340000
_cell_length_c   34.29790000
_cell_angle_alpha   90.39180000
_cell_angle_beta   90.40930000
_cell_angle_gamma   90.59730000
_symmetry_Int_Tables_number   1
_chemical_formula_structural   ZnH4C13SNO7F3
_chemical_formula_sum   'Zn4 H16 C52 S4 N4 O28 F12'
_cell_volume   3013.90626125
_cell_formula_units_Z   4
loop_
 _symmetry_equiv_pos_site_id
 _symmetry_equiv_pos_as_xyz
  1  'x, y, z'
loop_
 _atom_site_type_symbol
 _atom_site_label
 _atom_site_symmetry_multiplicity
 _atom_site_fract_x
 _atom_site_fract_y
 _atom_site_fract_z
 _atom_site_occupancy
  Zn  Zn0  1  0.28355000  0.00061000  0.50094000  1.0
  Zn  Zn1  1  0.62231000  0.00248000  0.50006000  1.0
  Zn  Zn2  1  0.81404000  0.00079000  0.99871000  1.0
  Zn  Zn3  1  0.47504000  0.99748000  0.00006000  1.0
  H  H4  1  0.32672000  0.01757000  0.12296000  1.0
  H  H5  1  0.32662000  0.01327000  0.19520000  1.0
  H  H6  1  0.85532000  0.96307000  0.19473000  1.0
  H  H7  1  0.24350000  0.96253000  0.30521000  1.0
  H  H8  1  0.77335000  0.01430000  0.30499000  1.0
  H  H9  1  0.77327000  0.01881000  0.37726000  1.0
  H  H10  1  0.32634000  0.99144000  0.87639000  1.0
  H  H11  1  0.32528000  0.00208000  0.80432000  1.0
  H  H12  1  0.85824000  0.02979000  0.80604000  1.0
  H  H13  1  0.23856000  0.03415000  0.69430000  1.0
  H  H14  1  0.77031000  0.00215000  0.69577000  1.0
  H  H15  1  0.76866000  0.99393000  0.62359000  1.0
  H  H16  1  0.88189000  0.07206000  0.07552000  1.0
  H  H17  1  0.21783000  0.07290000  0.42472000  1.0
  H  H18  1  0.88142000  0.89174000  0.92288000  1.0
  H  H19  1  0.21060000  0.89958000  0.57689000  1.0
  C  C20  1  0.39188000  0.77031000  0.49535000  1.0
  C  C21  1  0.52154000  0.00043000  0.42606000  1.0
  C  C22  1  0.39155000  0.23258000  0.49764000  1.0
  C  C23  1  0.51401000  0.99791000  0.57428000  1.0
  C  C24  1  0.70518000  0.76899000  0.00454000  1.0
  C  C25  1  0.57769000  0.99937000  0.07404000  1.0
  C  C26  1  0.70634000  0.23116000  0.00233000  1.0
  C  C27  1  0.58113000  0.99236000  0.92578000  1.0
  C  C28  1  0.58909000  0.99157000  0.11734000  1.0
  C  C29  1  0.44256000  0.00517000  0.13883000  1.0
  C  C30  1  0.44210000  0.00337000  0.17933000  1.0
  C  C31  1  0.59283000  0.98894000  0.19945000  1.0
  C  C32  1  0.74002000  0.97473000  0.17861000  1.0
  C  C33  1  0.74004000  0.97471000  0.13815000  1.0
  C  C34  1  0.35907000  0.97449000  0.32139000  1.0
  C  C35  1  0.50661000  0.98920000  0.30063000  1.0
  C  C36  1  0.65765000  0.00411000  0.32082000  1.0
  C  C37  1  0.65718000  0.00597000  0.36133000  1.0
  C  C38  1  0.51031000  0.99196000  0.38275000  1.0
  C  C39  1  0.35897000  0.97458000  0.36185000  1.0
  C  C40  1  0.59126000  0.00393000  0.88263000  1.0
  C  C41  1  0.44297000  0.00000000  0.86089000  1.0
  C  C42  1  0.44185000  0.00594000  0.82045000  1.0
  C  C43  1  0.59328000  0.01610000  0.80072000  1.0
  C  C44  1  0.74235000  0.02163000  0.82186000  1.0
  C  C45  1  0.74323000  0.01584000  0.86228000  1.0
  C  C46  1  0.35413000  0.02566000  0.67841000  1.0
  C  C47  1  0.50297000  0.01809000  0.69949000  1.0
  C  C48  1  0.65395000  0.00749000  0.67966000  1.0
  C  C49  1  0.65246000  0.00305000  0.63918000  1.0
  C  C50  1  0.50432000  0.00890000  0.61750000  1.0
  C  C51  1  0.35292000  0.02142000  0.63796000  1.0
  C  C52  1  0.38605000  0.63250000  0.49158000  1.0
  C  C53  1  0.45479000  0.56624000  0.45952000  1.0
  C  C54  1  0.31875000  0.56737000  0.52197000  1.0
  C  C55  1  0.52056000  0.62544000  0.42630000  1.0
  C  C56  1  0.58947000  0.56169000  0.39564000  1.0
  C  C57  1  0.38646000  0.37004000  0.49276000  1.0
  C  C58  1  0.31895000  0.43789000  0.52264000  1.0
  C  C59  1  0.45491000  0.43360000  0.46014000  1.0
  C  C60  1  0.52026000  0.37184000  0.42734000  1.0
  C  C61  1  0.58927000  0.43269000  0.39619000  1.0
  C  C62  1  0.71107000  0.63140000  0.00831000  1.0
  C  C63  1  0.64311000  0.56540000  0.04045000  1.0
  C  C64  1  0.77804000  0.56603000  0.97787000  1.0
  C  C65  1  0.57742000  0.62483000  0.07372000  1.0
  C  C66  1  0.50974000  0.56121000  0.10451000  1.0
  C  C67  1  0.71165000  0.36888000  0.00721000  1.0
  C  C68  1  0.77822000  0.43652000  0.97723000  1.0
  C  C69  1  0.64396000  0.43275000  0.03992000  1.0
  C  C70  1  0.57978000  0.37127000  0.07282000  1.0
  C  C71  1  0.51103000  0.43222000  0.10404000  1.0
  S  S72  1  0.94254000  0.94675000  0.11821000  1.0
  S  S73  1  0.15562000  0.94634000  0.38163000  1.0
  S  S74  1  0.94878000  0.02686000  0.88316000  1.0
  S  S75  1  0.14813000  0.03505000  0.61710000  1.0
  N  N76  1  0.61610000  0.98815000  0.24037000  1.0
  N  N77  1  0.48335000  0.98828000  0.25970000  1.0
  N  N78  1  0.61498000  0.01903000  0.75984000  1.0
  N  N79  1  0.48135000  0.01948000  0.74038000  1.0
  O  O80  1  0.25099000  0.82415000  0.49612000  1.0
  O  O81  1  0.53324000  0.82043000  0.49880000  1.0
  O  O82  1  0.66289000  0.99719000  0.44333000  1.0
  O  O83  1  0.38632000  0.01309000  0.44495000  1.0
  O  O84  1  0.53132000  0.18393000  0.50269000  1.0
  O  O85  1  0.25040000  0.17636000  0.49738000  1.0
  O  O86  1  0.37850000  0.97466000  0.55580000  1.0
  O  O87  1  0.65391000  0.00991000  0.55726000  1.0
  O  O88  1  0.84608000  0.82496000  0.00352000  1.0
  O  O89  1  0.56372000  0.81673000  0.00131000  1.0
  O  O90  1  0.43609000  0.99389000  0.05688000  1.0
  O  O91  1  0.71272000  0.01345000  0.05507000  1.0
  O  O92  1  0.56637000  0.18023000  0.99749000  1.0
  O  O93  1  0.84737000  0.17702000  0.00239000  1.0
  O  O94  1  0.71625000  0.97011000  0.94417000  1.0
  O  O95  1  0.44144000  0.00323000  0.94288000  1.0
  O  O96  1  0.97815000  0.06930000  0.09434000  1.0
  O  O97  1  0.06073000  0.94925000  0.14981000  1.0
  O  O98  1  0.93412000  0.84179000  0.09257000  1.0
  O  O99  1  0.12240000  0.06943000  0.40571000  1.0
  O  O100  1  0.03777000  0.94794000  0.34998000  1.0
  O  O101  1  0.16119000  0.84200000  0.40707000  1.0
  O  O102  1  0.97063000  0.89542000  0.90288000  1.0
  O  O103  1  0.06453000  0.02766000  0.85147000  1.0
  O  O104  1  0.95650000  0.12300000  0.91210000  1.0
  O  O105  1  0.12042000  0.90404000  0.59664000  1.0
  O  O106  1  0.03209000  0.03680000  0.64873000  1.0
  O  O107  1  0.14561000  0.13152000  0.58869000  1.0
  F  F108  1  0.25702000  0.38245000  0.55440000  1.0
  F  F109  1  0.25624000  0.62622000  0.55331000  1.0
  F  F110  1  0.51254000  0.24790000  0.42494000  1.0
  F  F111  1  0.65140000  0.37000000  0.36582000  1.0
  F  F112  1  0.65174000  0.62116000  0.36476000  1.0
  F  F113  1  0.51462000  0.74852000  0.42300000  1.0
  F  F114  1  0.83968000  0.38062000  0.94542000  1.0
  F  F115  1  0.83978000  0.62454000  0.94644000  1.0
  F  F116  1  0.58874000  0.24763000  0.07525000  1.0
  F  F117  1  0.45014000  0.36978000  0.13453000  1.0
  F  F118  1  0.44745000  0.62097000  0.13540000  1.0
  F  F119  1  0.58168000  0.74816000  0.07690000  1.0
