# generated using pymatgen
data_GdCuH13C15N2O13
_symmetry_space_group_name_H-M   'P 1'
_cell_length_a   8.12402000
_cell_length_b   10.53730000
_cell_length_c   12.13760000
_cell_angle_alpha   100.38500000
_cell_angle_beta   105.70700000
_cell_angle_gamma   102.51200000
_symmetry_Int_Tables_number   1
_chemical_formula_structural   GdCuH13C15N2O13
_chemical_formula_sum   'Gd2 Cu2 H26 C30 N4 O26'
_cell_volume   944.40772810
_cell_formula_units_Z   2
loop_
 _symmetry_equiv_pos_site_id
 _symmetry_equiv_pos_as_xyz
  1  'x, y, z'
loop_
 _atom_site_type_symbol
 _atom_site_label
 _atom_site_symmetry_multiplicity
 _atom_site_fract_x
 _atom_site_fract_y
 _atom_site_fract_z
 _atom_site_occupancy
  Gd  Gd0  1  0.99529000  0.16498000  0.92201000  1.0
  Gd  Gd1  1  0.00471000  0.83502000  0.07799000  1.0
  Cu  Cu2  1  0.03228000  0.73189000  0.54688000  1.0
  Cu  Cu3  1  0.96772000  0.26811000  0.45312000  1.0
  H  H4  1  0.78961000  0.29625000  0.05827000  1.0
  H  H5  1  0.21039000  0.70375000  0.94173000  1.0
  H  H6  1  0.83324000  0.18547000  0.13125000  1.0
  H  H7  1  0.16676000  0.81452000  0.86875000  1.0
  H  H8  1  0.59983000  0.82902000  0.86016000  1.0
  H  H9  1  0.40016000  0.17098000  0.13984000  1.0
  H  H10  1  0.22770000  0.43798000  0.03399000  1.0
  H  H11  1  0.77230000  0.56203000  0.96601000  1.0
  H  H12  1  0.16183000  0.39333000  0.13749000  1.0
  H  H13  1  0.83817000  0.60667000  0.86251000  1.0
  H  H14  1  0.83699000  0.36011000  0.80132000  1.0
  H  H15  1  0.16301000  0.63989000  0.19868000  1.0
  H  H16  1  0.68468000  0.23552000  0.79911000  1.0
  H  H17  1  0.31532000  0.76447000  0.20089000  1.0
  H  H18  1  0.48633000  0.02784000  0.69688000  1.0
  H  H19  1  0.51367000  0.97216000  0.30312000  1.0
  H  H20  1  0.54987000  0.13884000  0.54143000  1.0
  H  H21  1  0.45014000  0.86116000  0.45857000  1.0
  H  H22  1  0.31444000  0.23647000  0.42935000  1.0
  H  H23  1  0.68556000  0.76353000  0.57065000  1.0
  H  H24  1  0.50625000  0.45587000  0.78318000  1.0
  H  H25  1  0.49376000  0.54413000  0.21682000  1.0
  H  H26  1  0.58769000  0.56341000  0.63041000  1.0
  H  H27  1  0.41231000  0.43658000  0.36959000  1.0
  H  H28  1  0.37172000  0.67224000  0.51650000  1.0
  H  H29  1  0.62828000  0.32775000  0.48349000  1.0
  C  C30  1  0.70795000  0.91917000  0.87040000  1.0
  C  C31  1  0.29204000  0.08083000  0.12960000  1.0
  C  C32  1  0.20208000  0.00191000  0.77034000  1.0
  C  C33  1  0.79792000  0.99809000  0.22966000  1.0
  C  C34  1  0.23459000  0.07211000  0.67654000  1.0
  C  C35  1  0.76540000  0.92789000  0.32346000  1.0
  C  C36  1  0.39184000  0.07434000  0.64879000  1.0
  C  C37  1  0.60816000  0.92566000  0.35121000  1.0
  C  C38  1  0.42665000  0.13568000  0.56197000  1.0
  C  C39  1  0.57336000  0.86432000  0.43803000  1.0
  C  C40  1  0.30043000  0.19079000  0.50108000  1.0
  C  C41  1  0.69958000  0.80921000  0.49893000  1.0
  C  C42  1  0.11534000  0.13123000  0.61293000  1.0
  C  C43  1  0.88466000  0.86877000  0.38707000  1.0
  C  C44  1  0.93792000  0.13475000  0.62730000  1.0
  C  C45  1  0.06208000  0.86526000  0.37270000  1.0
  C  C46  1  0.21203000  0.44747000  0.84919000  1.0
  C  C47  1  0.78797000  0.55254000  0.15081000  1.0
  C  C48  1  0.25235000  0.50007000  0.74906000  1.0
  C  C49  1  0.74765000  0.49993000  0.25094000  1.0
  C  C50  1  0.41515000  0.50056000  0.73007000  1.0
  C  C51  1  0.58485000  0.49944000  0.26994000  1.0
  C  C52  1  0.46074000  0.56069000  0.64544000  1.0
  C  C53  1  0.53926000  0.43931000  0.35456000  1.0
  C  C54  1  0.34383000  0.62190000  0.58295000  1.0
  C  C55  1  0.65617000  0.37809000  0.41705000  1.0
  C  C56  1  0.13925000  0.55887000  0.67996000  1.0
  C  C57  1  0.86075000  0.44114000  0.32004000  1.0
  C  C58  1  0.95750000  0.56196000  0.68616000  1.0
  C  C59  1  0.04250000  0.43804000  0.31384000  1.0
  N  N60  1  0.14998000  0.18782000  0.52712000  1.0
  N  N61  1  0.85002000  0.81218000  0.47288000  1.0
  N  N62  1  0.18839000  0.62106000  0.60090000  1.0
  N  N63  1  0.81161000  0.37894000  0.39910000  1.0
  O  O64  1  0.67167000  0.02236000  0.84471000  1.0
  O  O65  1  0.32832000  0.97764000  0.15528000  1.0
  O  O66  1  0.85237000  0.22636000  0.06624000  1.0
  O  O67  1  0.14763000  0.77364000  0.93376000  1.0
  O  O68  1  0.87003000  0.91542000  0.90922000  1.0
  O  O69  1  0.12996000  0.08458000  0.09078000  1.0
  O  O70  1  0.19830000  0.35974000  0.06933000  1.0
  O  O71  1  0.80169000  0.64026000  0.93067000  1.0
  O  O72  1  0.80032000  0.29692000  0.84730000  1.0
  O  O73  1  0.19968000  0.70307000  0.15270000  1.0
  O  O74  1  0.88385000  0.08084000  0.69969000  1.0
  O  O75  1  0.11615000  0.91916000  0.30030000  1.0
  O  O76  1  0.84661000  0.19253000  0.55795000  1.0
  O  O77  1  0.15339000  0.80747000  0.44205000  1.0
  O  O78  1  0.20719000  0.07168000  0.86846000  1.0
  O  O79  1  0.79281000  0.92832000  0.13154000  1.0
  O  O80  1  0.18101000  0.87629000  0.74459000  1.0
  O  O81  1  0.81899000  0.12371000  0.25541000  1.0
  O  O82  1  0.88651000  0.49768000  0.74682000  1.0
  O  O83  1  0.11350000  0.50233000  0.25319000  1.0
  O  O84  1  0.88098000  0.63273000  0.62443000  1.0
  O  O85  1  0.11902000  0.36728000  0.37556000  1.0
  O  O86  1  0.25906000  0.53505000  0.94653000  1.0
  O  O87  1  0.74095000  0.46495000  0.05348000  1.0
  O  O88  1  0.14404000  0.32225000  0.82939000  1.0
  O  O89  1  0.85595000  0.67775000  0.17061000  1.0
