# generated using pymatgen
data_CdH14C17N3O4
_symmetry_space_group_name_H-M   'P 1'
_cell_length_a   10.28240000
_cell_length_b   15.28510000
_cell_length_c   25.31460000
_cell_angle_alpha   90.00000000
_cell_angle_beta   90.00010000
_cell_angle_gamma   90.00000000
_symmetry_Int_Tables_number   1
_chemical_formula_structural   CdH14C17N3O4
_chemical_formula_sum   'Cd8 H112 C136 N24 O32'
_cell_volume   3978.63270534
_cell_formula_units_Z   8
loop_
 _symmetry_equiv_pos_site_id
 _symmetry_equiv_pos_as_xyz
  1  'x, y, z'
loop_
 _atom_site_type_symbol
 _atom_site_label
 _atom_site_symmetry_multiplicity
 _atom_site_fract_x
 _atom_site_fract_y
 _atom_site_fract_z
 _atom_site_occupancy
  Cd  Cd0  1  0.91371000  0.50048000  0.53483000  1.0
  Cd  Cd1  1  0.58628000  0.49952000  0.03483000  1.0
  Cd  Cd2  1  0.41372000  0.99952000  0.46517000  1.0
  Cd  Cd3  1  0.08629000  0.00048000  0.96517000  1.0
  Cd  Cd4  1  0.67103000  0.50743000  0.45694000  1.0
  Cd  Cd5  1  0.82897000  0.49257000  0.95694000  1.0
  Cd  Cd6  1  0.17103000  0.99257000  0.54306000  1.0
  Cd  Cd7  1  0.32897000  0.00743000  0.04306000  1.0
  H  H8  1  0.78433000  0.34703000  0.17664000  1.0
  H  H9  1  0.71568000  0.65297000  0.67664000  1.0
  H  H10  1  0.28432000  0.15297000  0.82336000  1.0
  H  H11  1  0.21568000  0.84703000  0.32336000  1.0
  H  H12  1  0.10266000  0.16312000  0.17986000  1.0
  H  H13  1  0.39735000  0.83688000  0.67986000  1.0
  H  H14  1  0.60265000  0.33688000  0.82014000  1.0
  H  H15  1  0.89734000  0.66312000  0.32014000  1.0
  H  H16  1  0.07846000  0.50213000  0.38826000  1.0
  H  H17  1  0.42155000  0.49787000  0.88826000  1.0
  H  H18  1  0.57846000  0.99787000  0.61174000  1.0
  H  H19  1  0.92154000  0.00213000  0.11174000  1.0
  H  H20  1  0.15774000  0.39998000  0.38633000  1.0
  H  H21  1  0.34226000  0.60002000  0.88633000  1.0
  H  H22  1  0.65774000  0.10002000  0.61367000  1.0
  H  H23  1  0.84226000  0.89998000  0.11367000  1.0
  H  H24  1  0.93864000  0.24430000  0.03130000  1.0
  H  H25  1  0.56136000  0.75570000  0.53130000  1.0
  H  H26  1  0.43864000  0.25570000  0.96870000  1.0
  H  H27  1  0.06136000  0.74430000  0.46870000  1.0
  H  H28  1  0.87556000  0.33598000  0.32373000  1.0
  H  H29  1  0.62444000  0.66402000  0.82373000  1.0
  H  H30  1  0.37555000  0.16402000  0.67627000  1.0
  H  H31  1  0.12444000  0.83598000  0.17627000  1.0
  H  H32  1  0.94397000  0.50940000  0.31227000  1.0
  H  H33  1  0.55604000  0.49060000  0.81227000  1.0
  H  H34  1  0.44396000  0.99060000  0.68773000  1.0
  H  H35  1  0.05604000  0.00940000  0.18773000  1.0
  H  H36  1  0.33601000  0.41428000  0.29501000  1.0
  H  H37  1  0.16399000  0.58572000  0.79501000  1.0
  H  H38  1  0.83601000  0.08572000  0.70499000  1.0
  H  H39  1  0.66399000  0.91428000  0.20499000  1.0
  H  H40  1  0.17000000  0.13464000  0.32787000  1.0
  H  H41  1  0.33000000  0.86537000  0.82787000  1.0
  H  H42  1  0.66999000  0.36536000  0.67213000  1.0
  H  H43  1  0.83000000  0.63464000  0.17213000  1.0
  H  H44  1  0.02256000  0.24301000  0.47261000  1.0
  H  H45  1  0.47744000  0.75699000  0.97261000  1.0
  H  H46  1  0.52255000  0.25699000  0.52739000  1.0
  H  H47  1  0.97745000  0.74301000  0.02739000  1.0
  H  H48  1  0.25178000  0.63660000  0.35324000  1.0
  H  H49  1  0.24823000  0.36340000  0.85325000  1.0
  H  H50  1  0.75177000  0.86340000  0.64675000  1.0
  H  H51  1  0.74823000  0.13660000  0.14676000  1.0
  H  H52  1  0.49974000  0.66131000  0.39450000  1.0
  H  H53  1  0.00026000  0.33868000  0.89450000  1.0
  H  H54  1  0.99973000  0.83868000  0.60550000  1.0
  H  H55  1  0.50026000  0.16131000  0.10550000  1.0
  H  H56  1  0.91721000  0.50722000  0.21499000  1.0
  H  H57  1  0.58279000  0.49278000  0.71499000  1.0
  H  H58  1  0.41721000  0.99278000  0.78501000  1.0
  H  H59  1  0.08279000  0.00722000  0.28501000  1.0
  H  H60  1  0.08967000  0.39429000  0.12417000  1.0
  H  H61  1  0.41033000  0.60572000  0.62417000  1.0
  H  H62  1  0.58967000  0.10572000  0.87583000  1.0
  H  H63  1  0.91033000  0.89429000  0.37583000  1.0
  H  H64  1  0.00784000  0.49549000  0.12869000  1.0
  H  H65  1  0.49216000  0.50451000  0.62869000  1.0
  H  H66  1  0.50784000  0.00451000  0.87131000  1.0
  H  H67  1  0.99216000  0.99549000  0.37131000  1.0
  H  H68  1  0.34525000  0.33191000  0.39887000  1.0
  H  H69  1  0.15475000  0.66809000  0.89887000  1.0
  H  H70  1  0.84525000  0.16810000  0.60113000  1.0
  H  H71  1  0.65475000  0.83190000  0.10113000  1.0
  H  H72  1  0.48328000  0.35628000  0.43761000  1.0
  H  H73  1  0.01671000  0.64371000  0.93761000  1.0
  H  H74  1  0.98328000  0.14372000  0.56239000  1.0
  H  H75  1  0.51672000  0.85628000  0.06239000  1.0
  H  H76  1  0.30903000  0.41122000  0.19831000  1.0
  H  H77  1  0.19097000  0.58878000  0.69831000  1.0
  H  H78  1  0.80903000  0.08878000  0.80169000  1.0
  H  H79  1  0.69097000  0.91122000  0.30169000  1.0
  H  H80  1  0.34352000  0.40068000  0.51339000  1.0
  H  H81  1  0.15648000  0.59932000  0.01338000  1.0
  H  H82  1  0.84352000  0.09932000  0.48662000  1.0
  H  H83  1  0.65648000  0.90068000  0.98662000  1.0
  H  H84  1  0.30231000  0.29311000  0.49266000  1.0
  H  H85  1  0.19769000  0.70689000  0.99266000  1.0
  H  H86  1  0.80231000  0.20689000  0.50734000  1.0
  H  H87  1  0.69770000  0.79311000  0.00734000  1.0
  H  H88  1  0.19986000  0.38223000  0.47575000  1.0
  H  H89  1  0.30014000  0.61777000  0.97575000  1.0
  H  H90  1  0.69986000  0.11777000  0.52425000  1.0
  H  H91  1  0.80014000  0.88223000  0.02425000  1.0
  H  H92  1  0.11817000  0.37689000  0.02484000  1.0
  H  H93  1  0.38183000  0.62311000  0.52484000  1.0
  H  H94  1  0.61817000  0.12311000  0.97516000  1.0
  H  H95  1  0.88183000  0.87689000  0.47516000  1.0
  H  H96  1  0.21794000  0.28598000  0.00845000  1.0
  H  H97  1  0.28206000  0.71402000  0.50845000  1.0
  H  H98  1  0.71794000  0.21402000  0.99155000  1.0
  H  H99  1  0.78207000  0.78598000  0.49155000  1.0
  H  H100  1  0.25977000  0.39211000  0.98532000  1.0
  H  H101  1  0.24023000  0.60790000  0.48532000  1.0
  H  H102  1  0.75977000  0.10789000  0.01468000  1.0
  H  H103  1  0.74023000  0.89211000  0.51468000  1.0
  H  H104  1  0.26766000  0.32794000  0.10084000  1.0
  H  H105  1  0.23233000  0.67206000  0.60084000  1.0
  H  H106  1  0.76767000  0.17206000  0.89916000  1.0
  H  H107  1  0.73234000  0.82794000  0.39916000  1.0
  H  H108  1  0.40367000  0.35098000  0.06101000  1.0
  H  H109  1  0.09633000  0.64902000  0.56101000  1.0
  H  H110  1  0.90368000  0.14902000  0.93899000  1.0
  H  H111  1  0.59633000  0.85098000  0.43899000  1.0
  H  H112  1  0.18225000  0.63426000  0.14542000  1.0
  H  H113  1  0.31774000  0.36574000  0.64542000  1.0
  H  H114  1  0.68225000  0.86574000  0.85458000  1.0
  H  H115  1  0.81774000  0.13426000  0.35458000  1.0
  H  H116  1  0.41729000  0.65983000  0.09349000  1.0
  H  H117  1  0.08270000  0.34018000  0.59348000  1.0
  H  H118  1  0.91729000  0.84017000  0.90651000  1.0
  H  H119  1  0.58270000  0.15982000  0.40651000  1.0
  C  C120  1  0.17578000  0.11429000  0.43613000  1.0
  C  C121  1  0.32422000  0.88571000  0.93613000  1.0
  C  C122  1  0.67578000  0.38571000  0.56387000  1.0
  C  C123  1  0.82421000  0.61429000  0.06387000  1.0
  C  C124  1  0.02523000  0.19390000  0.10264000  1.0
  C  C125  1  0.47477000  0.80610000  0.60264000  1.0
  C  C126  1  0.52523000  0.30610000  0.89736000  1.0
  C  C127  1  0.97477000  0.69390000  0.39736000  1.0
  C  C128  1  0.85551000  0.30421000  0.10037000  1.0
  C  C129  1  0.64449000  0.69580000  0.60037000  1.0
  C  C130  1  0.35550000  0.19579000  0.89963000  1.0
  C  C131  1  0.14449000  0.80421000  0.39963000  1.0
  C  C132  1  0.87331000  0.36890000  0.43083000  1.0
  C  C133  1  0.62669000  0.63110000  0.93083000  1.0
  C  C134  1  0.37330000  0.13110000  0.56917000  1.0
  C  C135  1  0.12669000  0.86890000  0.06917000  1.0
  C  C136  1  0.94415000  0.29837000  0.40114000  1.0
  C  C137  1  0.55585000  0.70163000  0.90114000  1.0
  C  C138  1  0.44414000  0.20163000  0.59886000  1.0
  C  C139  1  0.05585000  0.79837000  0.09886000  1.0
  C  C140  1  0.09964000  0.17889000  0.40383000  1.0
  C  C141  1  0.40036000  0.82111000  0.90383000  1.0
  C  C142  1  0.59964000  0.32111000  0.59617000  1.0
  C  C143  1  0.90036000  0.67889000  0.09617000  1.0
  C  C144  1  0.02076000  0.23340000  0.31984000  1.0
  C  C145  1  0.47924000  0.76659000  0.81983000  1.0
  C  C146  1  0.52076000  0.26659000  0.68017000  1.0
  C  C147  1  0.97924000  0.73341000  0.18016000  1.0
  C  C148  1  0.85308000  0.30551000  0.15555000  1.0
  C  C149  1  0.64692000  0.69450000  0.65555000  1.0
  C  C150  1  0.35307000  0.19449000  0.84445000  1.0
  C  C151  1  0.14692000  0.80551000  0.34445000  1.0
  C  C152  1  0.94347000  0.25549000  0.18409000  1.0
  C  C153  1  0.55653000  0.74451000  0.68409000  1.0
  C  C154  1  0.44347000  0.24451000  0.81591000  1.0
  C  C155  1  0.05653000  0.75549000  0.31591000  1.0
  C  C156  1  0.03193000  0.20084000  0.15745000  1.0
  C  C157  1  0.46808000  0.79916000  0.65745000  1.0
  C  C158  1  0.53192000  0.29916000  0.84255000  1.0
  C  C159  1  0.96808000  0.70084000  0.34255000  1.0
  C  C160  1  0.15882000  0.46622000  0.36962000  1.0
  C  C161  1  0.34118000  0.53378000  0.86962000  1.0
  C  C162  1  0.65882000  0.03378000  0.63038000  1.0
  C  C163  1  0.84118000  0.96622000  0.13038000  1.0
  C  C164  1  0.93948000  0.24713000  0.07421000  1.0
  C  C165  1  0.56052000  0.75287000  0.57421000  1.0
  C  C166  1  0.43948000  0.25287000  0.92579000  1.0
  C  C167  1  0.06052000  0.74713000  0.42579000  1.0
  C  C168  1  0.93901000  0.29292000  0.34622000  1.0
  C  C169  1  0.56099000  0.70708000  0.84622000  1.0
  C  C170  1  0.43900000  0.20708000  0.65378000  1.0
  C  C171  1  0.06099000  0.79292000  0.15378000  1.0
  C  C172  1  0.14199000  0.46300000  0.31035000  1.0
  C  C173  1  0.35801000  0.53700000  0.81035000  1.0
  C  C174  1  0.64199000  0.03700000  0.68965000  1.0
  C  C175  1  0.85801000  0.96300000  0.18964000  1.0
  C  C176  1  0.02431000  0.48791000  0.28726000  1.0
  C  C177  1  0.47570000  0.51209000  0.78726000  1.0
  C  C178  1  0.52430000  0.01209000  0.71274000  1.0
  C  C179  1  0.97570000  0.98791000  0.21274000  1.0
  C  C180  1  0.24346000  0.43433000  0.27768000  1.0
  C  C181  1  0.25655000  0.56567000  0.77768000  1.0
  C  C182  1  0.74346000  0.06567000  0.72232000  1.0
  C  C183  1  0.75655000  0.93433000  0.22232000  1.0
  C  C184  1  0.10397000  0.17852000  0.34864000  1.0
  C  C185  1  0.39603000  0.82148000  0.84864000  1.0
  C  C186  1  0.60396000  0.32148000  0.65136000  1.0
  C  C187  1  0.89603000  0.67852000  0.15136000  1.0
  C  C188  1  0.38206000  0.46764000  0.41131000  1.0
  C  C189  1  0.11795000  0.53236000  0.91131000  1.0
  C  C190  1  0.88205000  0.03236000  0.58869000  1.0
  C  C191  1  0.61795000  0.96764000  0.08869000  1.0
  C  C192  1  0.11103000  0.45944000  0.19979000  1.0
  C  C193  1  0.38898000  0.54056000  0.69979000  1.0
  C  C194  1  0.61102000  0.04056000  0.80021000  1.0
  C  C195  1  0.88898000  0.95944000  0.30021000  1.0
  C  C196  1  0.02172000  0.23994000  0.42974000  1.0
  C  C197  1  0.47828000  0.76006000  0.92974000  1.0
  C  C198  1  0.52171000  0.26006000  0.57026000  1.0
  C  C199  1  0.97829000  0.73993000  0.07026000  1.0
  C  C200  1  0.31603000  0.59262000  0.37436000  1.0
  C  C201  1  0.18398000  0.40737000  0.87436000  1.0
  C  C202  1  0.81602000  0.90738000  0.62565000  1.0
  C  C203  1  0.68398000  0.09262000  0.12564000  1.0
  C  C204  1  0.43820000  0.60371000  0.39477000  1.0
  C  C205  1  0.06181000  0.39629000  0.89477000  1.0
  C  C206  1  0.93819000  0.89629000  0.60523000  1.0
  C  C207  1  0.56180000  0.10371000  0.10523000  1.0
  C  C208  1  0.00905000  0.48624000  0.23242000  1.0
  C  C209  1  0.49096000  0.51377000  0.73242000  1.0
  C  C210  1  0.50905000  0.01377000  0.76758000  1.0
  C  C211  1  0.99095000  0.98623000  0.26758000  1.0
  C  C212  1  0.09689000  0.46075000  0.14030000  1.0
  C  C213  1  0.40311000  0.53925000  0.64030000  1.0
  C  C214  1  0.59689000  0.03925000  0.85971000  1.0
  C  C215  1  0.90311000  0.96075000  0.35970000  1.0
  C  C216  1  0.38175000  0.37526000  0.43033000  1.0
  C  C217  1  0.11825000  0.62474000  0.93033000  1.0
  C  C218  1  0.88175000  0.12475000  0.56967000  1.0
  C  C219  1  0.61826000  0.87525000  0.06967000  1.0
  C  C220  1  0.22812000  0.43252000  0.22309000  1.0
  C  C221  1  0.27188000  0.56748000  0.72309000  1.0
  C  C222  1  0.72812000  0.06748000  0.77691000  1.0
  C  C223  1  0.77188000  0.93252000  0.27691000  1.0
  C  C224  1  0.30171000  0.36229000  0.48095000  1.0
  C  C225  1  0.19829000  0.63771000  0.98095000  1.0
  C  C226  1  0.80171000  0.13771000  0.51905000  1.0
  C  C227  1  0.69830000  0.86229000  0.01905000  1.0
  C  C228  1  0.10472000  0.12781000  0.07288000  1.0
  C  C229  1  0.39528000  0.87219000  0.57288000  1.0
  C  C230  1  0.60472000  0.37219000  0.92712000  1.0
  C  C231  1  0.89528000  0.62781000  0.42712000  1.0
  C  C232  1  0.77443000  0.36570000  0.06801000  1.0
  C  C233  1  0.72558000  0.63431000  0.56801000  1.0
  C  C234  1  0.27442000  0.13430000  0.93199000  1.0
  C  C235  1  0.22558000  0.86570000  0.43199000  1.0
  C  C236  1  0.30374000  0.46346000  0.08620000  1.0
  C  C237  1  0.19626000  0.53654000  0.58620000  1.0
  C  C238  1  0.80374000  0.03654000  0.91380000  1.0
  C  C239  1  0.69626000  0.96346000  0.41380000  1.0
  C  C240  1  0.21928000  0.35574000  0.01888000  1.0
  C  C241  1  0.28072000  0.64426000  0.51888000  1.0
  C  C242  1  0.71929000  0.14426000  0.98112000  1.0
  C  C243  1  0.78072000  0.85574000  0.48112000  1.0
  C  C244  1  0.30236000  0.37032000  0.06861000  1.0
  C  C245  1  0.19764000  0.62968000  0.56861000  1.0
  C  C246  1  0.80236000  0.12968000  0.93139000  1.0
  C  C247  1  0.69764000  0.87032000  0.43139000  1.0
  C  C248  1  0.24252000  0.58985000  0.12277000  1.0
  C  C249  1  0.25748000  0.41015000  0.62277000  1.0
  C  C250  1  0.74252000  0.91015000  0.87723000  1.0
  C  C251  1  0.75748000  0.08985000  0.37723000  1.0
  C  C252  1  0.35858000  0.60124000  0.09726000  1.0
  C  C253  1  0.14142000  0.39876000  0.59726000  1.0
  C  C254  1  0.85858000  0.89875000  0.90274000  1.0
  C  C255  1  0.64142000  0.10124000  0.40274000  1.0
  N  N256  1  0.28150000  0.50698000  0.38528000  1.0
  N  N257  1  0.21851000  0.49302000  0.88528000  1.0
  N  N258  1  0.78149000  0.99302000  0.61472000  1.0
  N  N259  1  0.71851000  0.00698000  0.11472000  1.0
  N  N260  1  0.93697000  0.26362000  0.23968000  1.0
  N  N261  1  0.56303000  0.73638000  0.73968000  1.0
  N  N262  1  0.43697000  0.23638000  0.76032000  1.0
  N  N263  1  0.06303000  0.76362000  0.26032000  1.0
  N  N264  1  0.47807000  0.52597000  0.41766000  1.0
  N  N265  1  0.02194000  0.47403000  0.91766000  1.0
  N  N266  1  0.97806000  0.97403000  0.58234000  1.0
  N  N267  1  0.52194000  0.02597000  0.08234000  1.0
  N  N268  1  0.02759000  0.22518000  0.26427000  1.0
  N  N269  1  0.47241000  0.77482000  0.76427000  1.0
  N  N270  1  0.52758000  0.27482000  0.73573000  1.0
  N  N271  1  0.97241000  0.72518000  0.23573000  1.0
  N  N272  1  0.20847000  0.50310000  0.11523000  1.0
  N  N273  1  0.29153000  0.49691000  0.61523000  1.0
  N  N274  1  0.70847000  0.99690000  0.88477000  1.0
  N  N275  1  0.79153000  0.00310000  0.38477000  1.0
  N  N276  1  0.39547000  0.52268000  0.07470000  1.0
  N  N277  1  0.10453000  0.47733000  0.57470000  1.0
  N  N278  1  0.89547000  0.97732000  0.92530000  1.0
  N  N279  1  0.60453000  0.02267000  0.42530000  1.0
  O  O280  1  0.12798000  0.09676000  0.48129000  1.0
  O  O281  1  0.37203000  0.90323000  0.98129000  1.0
  O  O282  1  0.62797000  0.40323000  0.51871000  1.0
  O  O283  1  0.87202000  0.59677000  0.01871000  1.0
  O  O284  1  0.27826000  0.08296000  0.41545000  1.0
  O  O285  1  0.22174000  0.91704000  0.91545000  1.0
  O  O286  1  0.77826000  0.41703000  0.58455000  1.0
  O  O287  1  0.72174000  0.58297000  0.08455000  1.0
  O  O288  1  0.77750000  0.40567000  0.40810000  1.0
  O  O289  1  0.72250000  0.59433000  0.90810000  1.0
  O  O290  1  0.27749000  0.09433000  0.59190000  1.0
  O  O291  1  0.22250000  0.90567000  0.09190000  1.0
  O  O292  1  0.91898000  0.38634000  0.47634000  1.0
  O  O293  1  0.58102000  0.61366000  0.97634000  1.0
  O  O294  1  0.41898000  0.11366000  0.52366000  1.0
  O  O295  1  0.08102000  0.88634000  0.02366000  1.0
  O  O296  1  0.04506000  0.09140000  0.03464000  1.0
  O  O297  1  0.45493000  0.90860000  0.53464000  1.0
  O  O298  1  0.54506000  0.40860000  0.96536000  1.0
  O  O299  1  0.95494000  0.59140000  0.46536000  1.0
  O  O300  1  0.21992000  0.11314000  0.08855000  1.0
  O  O301  1  0.28007000  0.88687000  0.58855000  1.0
  O  O302  1  0.71992000  0.38687000  0.91145000  1.0
  O  O303  1  0.78008000  0.61314000  0.41145000  1.0
  O  O304  1  0.83018000  0.39470000  0.02666000  1.0
  O  O305  1  0.66982000  0.60530000  0.52666000  1.0
  O  O306  1  0.33018000  0.10530000  0.97334000  1.0
  O  O307  1  0.16983000  0.89470000  0.47334000  1.0
  O  O308  1  0.66084000  0.38453000  0.08421000  1.0
  O  O309  1  0.83916000  0.61547000  0.58421000  1.0
  O  O310  1  0.16084000  0.11547000  0.91579000  1.0
  O  O311  1  0.33916000  0.88453000  0.41578000  1.0
