# generated using pymatgen
data_CoH8C10(N2O3)2
_symmetry_space_group_name_H-M   'P 1'
_cell_length_a   6.16896000
_cell_length_b   6.18460000
_cell_length_c   9.53550000
_cell_angle_alpha   79.39010000
_cell_angle_beta   79.32250000
_cell_angle_gamma   64.62000000
_symmetry_Int_Tables_number   1
_chemical_formula_structural   CoH8C10(N2O3)2
_chemical_formula_sum   'Co1 H8 C10 N4 O6'
_cell_volume   320.74598630
_cell_formula_units_Z   1
loop_
 _symmetry_equiv_pos_site_id
 _symmetry_equiv_pos_as_xyz
  1  'x, y, z'
loop_
 _atom_site_type_symbol
 _atom_site_label
 _atom_site_symmetry_multiplicity
 _atom_site_fract_x
 _atom_site_fract_y
 _atom_site_fract_z
 _atom_site_occupancy
  Co  Co0  1  0.00000000  0.00000000  0.00000000  1.0
  H  H1  1  0.47293000  0.85815000  0.98203000  1.0
  H  H2  1  0.14437000  0.52787000  0.01868000  1.0
  H  H3  1  0.52706000  0.14183000  0.01797000  1.0
  H  H4  1  0.85565000  0.47212000  0.98132000  1.0
  H  H5  1  0.39961000  0.75859000  0.14294000  1.0
  H  H6  1  0.23768000  0.60234000  0.85655000  1.0
  H  H7  1  0.60040000  0.24141000  0.85706000  1.0
  H  H8  1  0.76231000  0.39767000  0.14345000  1.0
  C  C9  1  0.18606000  0.18642000  0.69150000  1.0
  C  C10  1  0.81393000  0.81358000  0.30850000  1.0
  C  C11  1  0.26043000  0.26068000  0.55006000  1.0
  C  C12  1  0.73956000  0.73932000  0.44993000  1.0
  C  C13  1  0.49679000  0.49788000  0.60849000  1.0
  C  C14  1  0.50320000  0.50211000  0.39150000  1.0
  C  C15  1  0.39737000  0.39748000  0.52159000  1.0
  C  C16  1  0.60263000  0.60252000  0.47840000  1.0
  C  C17  1  0.18964000  0.19029000  0.43902000  1.0
  C  C18  1  0.81036000  0.80971000  0.56099000  1.0
  N  N19  1  0.12145000  0.12210000  0.80858000  1.0
  N  N20  1  0.87855000  0.87790000  0.19143000  1.0
  N  N21  1  0.12844000  0.12976000  0.34941000  1.0
  N  N22  1  0.87156000  0.87022000  0.65060000  1.0
  O  O23  1  0.34541000  0.89187000  0.06314000  1.0
  O  O24  1  0.10683000  0.65558000  0.93809000  1.0
  O  O25  1  0.65460000  0.10814000  0.93686000  1.0
  O  O26  1  0.89318000  0.34442000  0.06192000  1.0
  O  O27  1  0.49447000  0.49699000  0.74093000  1.0
  O  O28  1  0.50552000  0.50301000  0.25906000  1.0
