# generated using pymatgen
data_ZnH12C28(N5O13)2
_symmetry_space_group_name_H-M   'P 1'
_cell_length_a   12.34750000
_cell_length_b   13.04560000
_cell_length_c   23.28760000
_cell_angle_alpha   88.33670000
_cell_angle_beta   86.68000000
_cell_angle_gamma   84.82760000
_symmetry_Int_Tables_number   1
_chemical_formula_structural   ZnH12C28(N5O13)2
_chemical_formula_sum   'Zn2 H24 C56 N20 O52'
_cell_volume   3728.56504368
_cell_formula_units_Z   2
loop_
 _symmetry_equiv_pos_site_id
 _symmetry_equiv_pos_as_xyz
  1  'x, y, z'
loop_
 _atom_site_type_symbol
 _atom_site_label
 _atom_site_symmetry_multiplicity
 _atom_site_fract_x
 _atom_site_fract_y
 _atom_site_fract_z
 _atom_site_occupancy
  Zn  Zn0  1  0.62064000  0.50873000  0.49725000  1.0
  Zn  Zn1  1  0.38894000  0.50226000  0.50279000  1.0
  H  H2  1  0.17120000  0.72373000  0.11865000  1.0
  H  H3  1  0.13759000  0.78552000  0.05025000  1.0
  H  H4  1  0.18672000  0.85811000  0.10633000  1.0
  H  H5  1  0.31721000  0.19503000  0.90274000  1.0
  H  H6  1  0.32367000  0.14427000  0.97605000  1.0
  H  H7  1  0.40719000  0.08293000  0.91915000  1.0
  H  H8  1  0.61636000  0.28486000  0.36357000  1.0
  H  H9  1  0.56910000  0.22238000  0.30250000  1.0
  H  H10  1  0.51987000  0.18909000  0.37391000  1.0
  H  H11  1  0.35051000  0.80904000  0.63627000  1.0
  H  H12  1  0.48918000  0.75616000  0.64486000  1.0
  H  H13  1  0.39782000  0.78487000  0.70709000  1.0
  H  H14  1  0.41698000  0.71520000  0.36720000  1.0
  H  H15  1  0.43051000  0.78644000  0.29990000  1.0
  H  H16  1  0.52145000  0.80252000  0.35601000  1.0
  H  H17  1  0.65930000  0.23326000  0.64738000  1.0
  H  H18  1  0.52190000  0.28768000  0.63929000  1.0
  H  H19  1  0.55986000  0.22857000  0.70717000  1.0
  H  H20  1  0.21679000  0.09902000  0.58470000  1.0
  H  H21  1  0.15818000  0.97789000  0.57775000  1.0
  H  H22  1  0.10270000  0.09263000  0.54114000  1.0
  H  H23  1  0.67330000  0.93571000  0.63472000  1.0
  H  H24  1  0.75196000  0.04662000  0.63049000  1.0
  H  H25  1  0.81728000  0.91942000  0.61819000  1.0
  C  C26  1  0.46782000  0.69950000  0.50731000  1.0
  C  C27  1  0.53052000  0.30948000  0.50038000  1.0
  C  C28  1  0.51233000  0.50614000  0.39137000  1.0
  C  C29  1  0.50811000  0.50438000  0.60906000  1.0
  C  C30  1  0.39454000  0.40749000  0.87917000  1.0
  C  C31  1  0.36283000  0.57257000  0.13025000  1.0
  C  C32  1  0.39492000  0.60000000  0.88169000  1.0
  C  C33  1  0.47090000  0.40052000  0.12158000  1.0
  C  C34  1  0.37378000  0.59160000  0.94464000  1.0
  C  C35  1  0.43987000  0.39932000  0.06134000  1.0
  C  C36  1  0.39083000  0.49449000  0.97334000  1.0
  C  C37  1  0.39626000  0.49150000  0.03420000  1.0
  C  C38  1  0.40615000  0.40225000  0.94184000  1.0
  C  C39  1  0.36258000  0.58015000  0.06684000  1.0
  C  C40  1  0.34753000  0.67831000  0.97739000  1.0
  C  C41  1  0.46101000  0.31163000  0.02897000  1.0
  C  C42  1  0.33352000  0.67425000  0.03836000  1.0
  C  C43  1  0.43778000  0.30856000  0.97002000  1.0
  C  C44  1  0.43538000  0.40784000  0.24976000  1.0
  C  C45  1  0.37581000  0.57672000  0.75477000  1.0
  C  C46  1  0.46675000  0.40824000  0.30697000  1.0
  C  C47  1  0.41081000  0.58511000  0.69611000  1.0
  C  C48  1  0.50156000  0.49876000  0.32760000  1.0
  C  C49  1  0.48968000  0.51058000  0.67348000  1.0
  C  C50  1  0.51535000  0.58476000  0.29152000  1.0
  C  C51  1  0.54364000  0.43780000  0.70962000  1.0
  C  C52  1  0.49772000  0.57692000  0.23260000  1.0
  C  C53  1  0.52022000  0.44297000  0.76944000  1.0
  C  C54  1  0.45347000  0.49071000  0.21178000  1.0
  C  C55  1  0.43306000  0.50855000  0.79228000  1.0
  C  C56  1  0.53403000  0.19409000  0.50790000  1.0
  C  C57  1  0.45891000  0.81441000  0.51392000  1.0
  C  C58  1  0.34568000  0.97953000  0.51124000  1.0
  C  C59  1  0.63577000  0.03064000  0.53538000  1.0
  C  C60  1  0.35780000  0.87313000  0.50990000  1.0
  C  C61  1  0.63104000  0.13513000  0.52241000  1.0
  C  C62  1  0.54838000  0.86715000  0.52413000  1.0
  C  C63  1  0.44098000  0.14208000  0.50540000  1.0
  C  C64  1  0.54268000  0.97609000  0.52619000  1.0
  C  C65  1  0.44098000  0.03393000  0.51470000  1.0
  C  C66  1  0.04998000  0.43025000  0.56231000  1.0
  C  C67  1  0.96362000  0.53082000  0.41953000  1.0
  C  C68  1  0.15851000  0.44738000  0.55709000  1.0
  C  C69  1  0.85213000  0.53952000  0.43086000  1.0
  C  C70  1  0.14979000  0.49398000  0.46206000  1.0
  C  C71  1  0.86677000  0.48404000  0.52393000  1.0
  C  C72  1  0.03373000  0.49666000  0.46392000  1.0
  C  C73  1  0.98220000  0.46659000  0.51778000  1.0
  C  C74  1  0.19133000  0.78285000  0.08638000  1.0
  C  C75  1  0.36931000  0.15663000  0.93489000  1.0
  C  C76  1  0.54719000  0.25141000  0.34576000  1.0
  C  C77  1  0.40448000  0.75859000  0.66262000  1.0
  C  C78  1  0.47407000  0.74829000  0.33545000  1.0
  C  C79  1  0.58755000  0.27322000  0.66930000  1.0
  C  C80  1  0.17685000  0.05053000  0.55609000  1.0
  C  C81  1  0.74309000  0.97063000  0.61323000  1.0
  N  N82  1  0.40633000  0.50612000  0.85252000  1.0
  N  N83  1  0.42898000  0.48762000  0.15283000  1.0
  N  N84  1  0.80300000  0.51793000  0.48271000  1.0
  N  N85  1  0.20933000  0.47852000  0.50759000  1.0
  N  N86  1  0.32911000  0.78299000  0.95115000  1.0
  N  N87  1  0.50815000  0.21264000  0.05364000  1.0
  N  N88  1  0.81575000  0.47598000  0.58303000  1.0
  N  N89  1  0.21033000  0.50934000  0.40607000  1.0
  N  N90  1  0.78207000  0.58560000  0.38487000  1.0
  N  N91  1  0.21799000  0.43878000  0.61123000  1.0
  N  N92  1  0.01199000  0.37017000  0.61391000  1.0
  N  N93  1  0.00453000  0.56045000  0.36045000  1.0
  N  N94  1  0.37476000  0.32272000  0.23214000  1.0
  N  N95  1  0.27090000  0.63090000  0.77447000  1.0
  N  N96  1  0.53043000  0.65957000  0.19256000  1.0
  N  N97  1  0.59192000  0.38011000  0.80779000  1.0
  N  N98  1  0.33799000  0.19892000  0.48688000  1.0
  N  N99  1  0.65533000  0.80688000  0.53104000  1.0
  N  N100  1  0.73763000  0.18003000  0.51872000  1.0
  N  N101  1  0.25786000  0.82237000  0.49966000  1.0
  O  O102  1  0.55955000  0.65881000  0.48881000  1.0
  O  O103  1  0.44254000  0.35419000  0.48326000  1.0
  O  O104  1  0.38233000  0.65474000  0.52056000  1.0
  O  O105  1  0.61394000  0.35210000  0.51349000  1.0
  O  O106  1  0.60359000  0.48089000  0.41262000  1.0
  O  O107  1  0.43132000  0.46814000  0.58409000  1.0
  O  O108  1  0.42497000  0.53782000  0.41930000  1.0
  O  O109  1  0.59478000  0.53313000  0.58455000  1.0
  O  O110  1  0.38133000  0.33416000  0.84955000  1.0
  O  O111  1  0.31440000  0.63513000  0.16294000  1.0
  O  O112  1  0.40423000  0.68238000  0.85597000  1.0
  O  O113  1  0.52971000  0.33136000  0.14356000  1.0
  O  O114  1  0.23525000  0.80912000  0.93760000  1.0
  O  O115  1  0.40688000  0.83582000  0.94820000  1.0
  O  O116  1  0.44215000  0.15602000  0.07622000  1.0
  O  O117  1  0.60724000  0.19411000  0.04657000  1.0
  O  O118  1  0.81600000  0.55458000  0.61092000  1.0
  O  O119  1  0.78357000  0.39250000  0.59794000  1.0
  O  O120  1  0.21213000  0.59887000  0.38823000  1.0
  O  O121  1  0.25038000  0.42970000  0.38366000  1.0
  O  O122  1  0.72677000  0.66503000  0.39810000  1.0
  O  O123  1  0.79113000  0.54145000  0.33863000  1.0
  O  O124  1  0.22358000  0.52276000  0.63289000  1.0
  O  O125  1  0.24824000  0.35265000  0.62980000  1.0
  O  O126  1  0.00185000  0.27943000  0.60404000  1.0
  O  O127  1  0.99855000  0.41417000  0.66006000  1.0
  O  O128  1  0.04626000  0.48878000  0.33117000  1.0
  O  O129  1  0.99094000  0.65232000  0.34706000  1.0
  O  O130  1  0.30402000  0.76412000  0.06456000  1.0
  O  O131  1  0.45989000  0.21750000  0.94403000  1.0
  O  O132  1  0.29138000  0.34769000  0.20588000  1.0
  O  O133  1  0.40874000  0.23416000  0.24577000  1.0
  O  O134  1  0.20952000  0.57931000  0.80516000  1.0
  O  O135  1  0.24921000  0.72064000  0.75787000  1.0
  O  O136  1  0.45410000  0.32772000  0.34446000  1.0
  O  O137  1  0.36544000  0.65733000  0.65945000  1.0
  O  O138  1  0.55455000  0.66857000  0.31345000  1.0
  O  O139  1  0.62324000  0.36973000  0.68691000  1.0
  O  O140  1  0.58403000  0.63213000  0.14802000  1.0
  O  O141  1  0.50413000  0.74935000  0.20618000  1.0
  O  O142  1  0.62592000  0.42525000  0.84842000  1.0
  O  O143  1  0.61440000  0.28858000  0.79665000  1.0
  O  O144  1  0.27577000  0.24006000  0.52473000  1.0
  O  O145  1  0.32356000  0.19815000  0.43522000  1.0
  O  O146  1  0.66801000  0.76425000  0.57868000  1.0
  O  O147  1  0.72112000  0.80403000  0.48942000  1.0
  O  O148  1  0.78432000  0.18728000  0.56360000  1.0
  O  O149  1  0.77399000  0.20035000  0.46962000  1.0
  O  O150  1  0.24653000  0.79814000  0.44980000  1.0
  O  O151  1  0.19344000  0.81146000  0.54150000  1.0
  O  O152  1  0.24593000  0.02975000  0.50402000  1.0
  O  O153  1  0.73043000  0.97961000  0.55138000  1.0
