# generated using pymatgen
data_CdH16C14(N5O3)2
_symmetry_space_group_name_H-M   'P 1'
_cell_length_a   7.26712000
_cell_length_b   11.63130000
_cell_length_c   12.68100000
_cell_angle_alpha   89.99940000
_cell_angle_beta   80.87110000
_cell_angle_gamma   89.99970000
_symmetry_Int_Tables_number   1
_chemical_formula_structural   CdH16C14(N5O3)2
_chemical_formula_sum   'Cd2 H32 C28 N20 O12'
_cell_volume   1058.29840847
_cell_formula_units_Z   2
loop_
 _symmetry_equiv_pos_site_id
 _symmetry_equiv_pos_as_xyz
  1  'x, y, z'
loop_
 _atom_site_type_symbol
 _atom_site_label
 _atom_site_symmetry_multiplicity
 _atom_site_fract_x
 _atom_site_fract_y
 _atom_site_fract_z
 _atom_site_occupancy
  Cd  Cd0  1  0.00000000  0.50000000  0.00000000  1.0
  Cd  Cd1  1  0.50000000  0.00000000  0.50000000  1.0
  H  H2  1  0.35978000  0.44063000  0.00019000  1.0
  H  H3  1  0.14022000  0.94064000  0.49981000  1.0
  H  H4  1  0.64022000  0.55937000  0.99981000  1.0
  H  H5  1  0.85978000  0.05936000  0.50019000  1.0
  H  H6  1  0.40732000  0.51897000  0.89614000  1.0
  H  H7  1  0.09268000  0.01898000  0.60386000  1.0
  H  H8  1  0.59267000  0.48102000  0.10386000  1.0
  H  H9  1  0.90733000  0.98102000  0.39614000  1.0
  H  H10  1  0.80506000  0.64970000  0.36234000  1.0
  H  H11  1  0.69493000  0.14970000  0.13766000  1.0
  H  H12  1  0.19494000  0.35030000  0.63765000  1.0
  H  H13  1  0.30507000  0.85030000  0.86235000  1.0
  H  H14  1  0.96199000  0.59434000  0.44447000  1.0
  H  H15  1  0.53800000  0.09434000  0.05553000  1.0
  H  H16  1  0.03801000  0.40566000  0.55553000  1.0
  H  H17  1  0.46199000  0.90566000  0.94447000  1.0
  H  H18  1  0.23373000  0.49626000  0.33977000  1.0
  H  H19  1  0.26628000  0.99625000  0.16022000  1.0
  H  H20  1  0.76627000  0.50374000  0.66023000  1.0
  H  H21  1  0.73372000  0.00375000  0.83978000  1.0
  H  H22  1  0.07867000  0.37899000  0.34650000  1.0
  H  H23  1  0.42134000  0.87898000  0.15350000  1.0
  H  H24  1  0.92134000  0.62100000  0.65350000  1.0
  H  H25  1  0.57866000  0.12102000  0.84650000  1.0
  H  H26  1  0.20415000  0.17685000  0.37359000  1.0
  H  H27  1  0.29584000  0.67685000  0.12641000  1.0
  H  H28  1  0.79586000  0.82314000  0.62641000  1.0
  H  H29  1  0.70415000  0.32315000  0.87359000  1.0
  H  H30  1  0.79213000  0.23721000  0.53751000  1.0
  H  H31  1  0.70787000  0.73721000  0.96248000  1.0
  H  H32  1  0.20787000  0.76280000  0.46248000  1.0
  H  H33  1  0.29212000  0.26279000  0.03752000  1.0
  C  C34  1  0.22861000  0.41400000  0.18974000  1.0
  C  C35  1  0.27139000  0.91400000  0.31026000  1.0
  C  C36  1  0.77139000  0.58600000  0.81027000  1.0
  C  C37  1  0.72861000  0.08600000  0.68973000  1.0
  C  C38  1  0.21784000  0.40819000  0.31082000  1.0
  C  C39  1  0.28216000  0.90818000  0.18918000  1.0
  C  C40  1  0.78216000  0.59180000  0.68918000  1.0
  C  C41  1  0.71783000  0.09182000  0.81082000  1.0
  C  C42  1  0.32564000  0.22580000  0.38729000  1.0
  C  C43  1  0.17436000  0.72580000  0.11272000  1.0
  C  C44  1  0.67437000  0.77420000  0.61271000  1.0
  C  C45  1  0.82563000  0.27420000  0.88728000  1.0
  C  C46  1  0.57911000  0.28047000  0.44037000  1.0
  C  C47  1  0.92089000  0.78047000  0.05963000  1.0
  C  C48  1  0.42089000  0.71953000  0.55963000  1.0
  C  C49  1  0.07910000  0.21953000  0.94038000  1.0
  C  C50  1  0.73446000  0.30108000  0.48895000  1.0
  C  C51  1  0.76555000  0.80108000  0.01105000  1.0
  C  C52  1  0.26555000  0.69892000  0.51105000  1.0
  C  C53  1  0.23445000  0.19892000  0.98895000  1.0
  C  C54  1  0.74866000  0.48708000  0.41904000  1.0
  C  C55  1  0.75134000  0.98708000  0.08096000  1.0
  C  C56  1  0.25134000  0.51292000  0.58096000  1.0
  C  C57  1  0.24866000  0.01292000  0.91904000  1.0
  C  C58  1  0.51677000  0.37431000  0.38460000  1.0
  C  C59  1  0.98323000  0.87430000  0.11540000  1.0
  C  C60  1  0.48324000  0.62570000  0.61540000  1.0
  C  C61  1  0.01676000  0.12570000  0.88460000  1.0
  N  N62  1  0.35444000  0.33713000  0.35155000  1.0
  N  N63  1  0.14555000  0.83712000  0.14845000  1.0
  N  N64  1  0.64556000  0.66287000  0.64845000  1.0
  N  N65  1  0.85444000  0.16288000  0.85155000  1.0
  N  N66  1  0.45688000  0.18847000  0.43991000  1.0
  N  N67  1  0.04312000  0.68847000  0.06009000  1.0
  N  N68  1  0.54313000  0.81153000  0.56009000  1.0
  N  N69  1  0.95688000  0.31153000  0.93991000  1.0
  N  N70  1  0.81867000  0.40350000  0.47824000  1.0
  N  N71  1  0.68133000  0.90351000  0.02176000  1.0
  N  N72  1  0.18133000  0.59650000  0.52176000  1.0
  N  N73  1  0.31866000  0.09650000  0.97825000  1.0
  N  N74  1  0.59497000  0.47753000  0.37162000  1.0
  N  N75  1  0.90503000  0.97753000  0.12838000  1.0
  N  N76  1  0.40503000  0.52247000  0.62837000  1.0
  N  N77  1  0.09497000  0.02247000  0.87162000  1.0
  N  N78  1  0.84303000  0.58755000  0.41035000  1.0
  N  N79  1  0.65697000  0.08755000  0.08965000  1.0
  N  N80  1  0.15698000  0.41245000  0.58965000  1.0
  N  N81  1  0.34303000  0.91245000  0.91036000  1.0
  O  O82  1  0.31682000  0.46233000  0.93190000  1.0
  O  O83  1  0.18317000  0.96233000  0.56810000  1.0
  O  O84  1  0.68317000  0.53767000  0.06810000  1.0
  O  O85  1  0.81683000  0.03767000  0.43190000  1.0
  O  O86  1  0.07366000  0.43600000  0.16053000  1.0
  O  O87  1  0.42635000  0.93601000  0.33947000  1.0
  O  O88  1  0.92634000  0.56400000  0.83947000  1.0
  O  O89  1  0.57365000  0.06400000  0.66054000  1.0
  O  O90  1  0.38459000  0.39968000  0.12943000  1.0
  O  O91  1  0.11542000  0.89968000  0.37057000  1.0
  O  O92  1  0.61541000  0.60031000  0.87057000  1.0
  O  O93  1  0.88458000  0.10032000  0.62943000  1.0
