# generated using pymatgen
data_ZnH11C19NO4
_symmetry_space_group_name_H-M   'P 1'
_cell_length_a   8.39206000
_cell_length_b   10.75930000
_cell_length_c   10.75960000
_cell_angle_alpha   87.88960000
_cell_angle_beta   74.18920000
_cell_angle_gamma   74.19120000
_symmetry_Int_Tables_number   1
_chemical_formula_structural   ZnH11C19NO4
_chemical_formula_sum   'Zn2 H22 C38 N2 O8'
_cell_volume   898.66724514
_cell_formula_units_Z   2
loop_
 _symmetry_equiv_pos_site_id
 _symmetry_equiv_pos_as_xyz
  1  'x, y, z'
loop_
 _atom_site_type_symbol
 _atom_site_label
 _atom_site_symmetry_multiplicity
 _atom_site_fract_x
 _atom_site_fract_y
 _atom_site_fract_z
 _atom_site_occupancy
  Zn  Zn0  1  0.74999000  0.01817000  0.98184000  1.0
  Zn  Zn1  1  0.25001000  0.98184000  0.01817000  1.0
  H  H2  1  0.56001000  0.57522000  0.01900000  1.0
  H  H3  1  0.78556000  0.36605000  0.96330000  1.0
  H  H4  1  0.12810000  0.56560000  0.71603000  1.0
  H  H5  1  0.89409000  0.77028000  0.76467000  1.0
  H  H6  1  0.01883000  0.23942000  0.98601000  1.0
  H  H7  1  0.94001000  0.98101000  0.42475000  1.0
  H  H8  1  0.71448000  0.03671000  0.63394000  1.0
  H  H9  1  0.37189000  0.28397000  0.43441000  1.0
  H  H10  1  0.60589000  0.23533000  0.22972000  1.0
  H  H11  1  0.48119000  0.01399000  0.76058000  1.0
  H  H12  1  0.44000000  0.42477000  0.98100000  1.0
  H  H13  1  0.21445000  0.63395000  0.03670000  1.0
  H  H14  1  0.87190000  0.43441000  0.28397000  1.0
  H  H15  1  0.10590000  0.22973000  0.23533000  1.0
  H  H16  1  0.98117000  0.76059000  0.01400000  1.0
  H  H17  1  0.06000000  0.01900000  0.57524000  1.0
  H  H18  1  0.28554000  0.96329000  0.36606000  1.0
  H  H19  1  0.62809000  0.71601000  0.56559000  1.0
  H  H20  1  0.39410000  0.76466000  0.77028000  1.0
  H  H21  1  0.51880000  0.98600000  0.23943000  1.0
  H  H22  1  0.25002000  0.38037000  0.61965000  1.0
  H  H23  1  0.74999000  0.61962000  0.38035000  1.0
  C  C24  1  0.57958000  0.81209000  0.92809000  1.0
  C  C25  1  0.71286000  0.68497000  0.89463000  1.0
  C  C26  1  0.68419000  0.57072000  0.95070000  1.0
  C  C27  1  0.81253000  0.45426000  0.92068000  1.0
  C  C28  1  0.97464000  0.44993000  0.83524000  1.0
  C  C29  1  0.00228000  0.56529000  0.77940000  1.0
  C  C30  1  0.87282000  0.68078000  0.80742000  1.0
  C  C31  1  0.12045000  0.23118000  0.89651000  1.0
  C  C32  1  0.11514000  0.32867000  0.80663000  1.0
  C  C33  1  0.92042000  0.07192000  0.18789000  1.0
  C  C34  1  0.78712000  0.10537000  0.31502000  1.0
  C  C35  1  0.81582000  0.04930000  0.42926000  1.0
  C  C36  1  0.68749000  0.07933000  0.54572000  1.0
  C  C37  1  0.52537000  0.16476000  0.55007000  1.0
  C  C38  1  0.49773000  0.22060000  0.43471000  1.0
  C  C39  1  0.62718000  0.19257000  0.31921000  1.0
  C  C40  1  0.37958000  0.10349000  0.76882000  1.0
  C  C41  1  0.38487000  0.19338000  0.67133000  1.0
  C  C42  1  0.42043000  0.18791000  0.07191000  1.0
  C  C43  1  0.28713000  0.31504000  0.10537000  1.0
  C  C44  1  0.31582000  0.42928000  0.04929000  1.0
  C  C45  1  0.18748000  0.54574000  0.07932000  1.0
  C  C46  1  0.02537000  0.55008000  0.16476000  1.0
  C  C47  1  0.99773000  0.43472000  0.22059000  1.0
  C  C48  1  0.12718000  0.31923000  0.19258000  1.0
  C  C49  1  0.87955000  0.76882000  0.10350000  1.0
  C  C50  1  0.88486000  0.67133000  0.19337000  1.0
  C  C51  1  0.07958000  0.92809000  0.81210000  1.0
  C  C52  1  0.21287000  0.89462000  0.68497000  1.0
  C  C53  1  0.18418000  0.95070000  0.57073000  1.0
  C  C54  1  0.31251000  0.92067000  0.45427000  1.0
  C  C55  1  0.47463000  0.83522000  0.44993000  1.0
  C  C56  1  0.50225000  0.77939000  0.56529000  1.0
  C  C57  1  0.37281000  0.80742000  0.68078000  1.0
  C  C58  1  0.62042000  0.89649000  0.23119000  1.0
  C  C59  1  0.61511000  0.80662000  0.32868000  1.0
  C  C60  1  0.25001000  0.30737000  0.69264000  1.0
  C  C61  1  0.74998000  0.69262000  0.30737000  1.0
  N  N62  1  0.25002000  0.12182000  0.87818000  1.0
  N  N63  1  0.74999000  0.87818000  0.12181000  1.0
  O  O64  1  0.42887000  0.81189000  0.99827000  1.0
  O  O65  1  0.62101000  0.91349000  0.88456000  1.0
  O  O66  1  0.07114000  0.00173000  0.18810000  1.0
  O  O67  1  0.87899000  0.11543000  0.08651000  1.0
  O  O68  1  0.57114000  0.18812000  0.00172000  1.0
  O  O69  1  0.37900000  0.08652000  0.11544000  1.0
  O  O70  1  0.92886000  0.99827000  0.81189000  1.0
  O  O71  1  0.12100000  0.88457000  0.91350000  1.0
