# generated using pymatgen
data_AgMo2H7C11(N3O4)2
_symmetry_space_group_name_H-M   'P 1'
_cell_length_a   7.25768000
_cell_length_b   11.45240000
_cell_length_c   11.77667777
_cell_angle_alpha   119.09367997
_cell_angle_beta   98.88403771
_cell_angle_gamma   89.99980000
_symmetry_Int_Tables_number   1
_chemical_formula_structural   AgMo2H7C11(N3O4)2
_chemical_formula_sum   'Ag2 Mo4 H14 C22 N12 O16'
_cell_volume   841.88228144
_cell_formula_units_Z   2
loop_
 _symmetry_equiv_pos_site_id
 _symmetry_equiv_pos_as_xyz
  1  'x, y, z'
loop_
 _atom_site_type_symbol
 _atom_site_label
 _atom_site_symmetry_multiplicity
 _atom_site_fract_x
 _atom_site_fract_y
 _atom_site_fract_z
 _atom_site_occupancy
  Ag  Ag0  1  0.00000000  0.00000000  0.50000000  1.0
  Ag  Ag1  1  0.50000000  0.50000000  0.50000000  1.0
  Mo  Mo2  1  0.58742000  0.94530000  0.85076000  1.0
  Mo  Mo3  1  0.91258000  0.09455000  0.14925000  1.0
  Mo  Mo4  1  0.41258000  0.05470000  0.14924000  1.0
  Mo  Mo5  1  0.08742000  0.90545000  0.85075000  1.0
  H  H6  1  0.71700000  0.52889000  0.78764000  1.0
  H  H7  1  0.78300000  0.74125000  0.21236000  1.0
  H  H8  1  0.28300000  0.47111000  0.21236000  1.0
  H  H9  1  0.21700000  0.25875000  0.78764000  1.0
  H  H10  1  0.91526000  0.16718000  0.79895000  1.0
  H  H11  1  0.58474000  0.36822000  0.20105000  1.0
  H  H12  1  0.08474000  0.83282000  0.20105000  1.0
  H  H13  1  0.41526000  0.63178000  0.79895000  1.0
  H  H14  1  0.60072000  0.13180000  0.44847000  1.0
  H  H15  1  0.89928000  0.68332000  0.55153000  1.0
  H  H16  1  0.39928000  0.86821000  0.55153000  1.0
  H  H17  1  0.10072000  0.31668000  0.44847000  1.0
  H  H18  1  0.75000000  0.30820000  1.00000000  1.0
  H  H19  1  0.25000000  0.69180000  1.00000000  1.0
  C  C20  1  0.72813000  0.52886000  0.88080000  1.0
  C  C21  1  0.77187000  0.64806000  0.11920000  1.0
  C  C22  1  0.27187000  0.47114000  0.11920000  1.0
  C  C23  1  0.22813000  0.35194000  0.88080000  1.0
  C  C24  1  0.75000000  0.77933000  0.00000000  1.0
  C  C25  1  0.25000000  0.22067000  0.00000000  1.0
  C  C26  1  0.81866000  0.18318000  0.72834000  1.0
  C  C27  1  0.68134000  0.45484000  0.27167000  1.0
  C  C28  1  0.18134000  0.81682000  0.27166000  1.0
  C  C29  1  0.31866000  0.54517000  0.72834000  1.0
  C  C30  1  0.65853000  0.16837000  0.55175000  1.0
  C  C31  1  0.84147000  0.61662000  0.44825000  1.0
  C  C32  1  0.34147000  0.83163000  0.44825000  1.0
  C  C33  1  0.15853000  0.38338000  0.55175000  1.0
  C  C34  1  0.75000000  0.64900000  0.00000000  1.0
  C  C35  1  0.25000000  0.35100000  1.00000000  1.0
  C  C36  1  0.72819000  0.40791000  0.88234000  1.0
  C  C37  1  0.77181000  0.52556000  0.11766000  1.0
  C  C38  1  0.27181000  0.59209000  0.11766000  1.0
  C  C39  1  0.22819000  0.47444000  0.88234000  1.0
  C  C40  1  0.75000000  0.40329000  0.00000000  1.0
  C  C41  1  0.25000000  0.59671000  0.00000000  1.0
  N  N42  1  0.78695000  0.10559000  0.59706000  1.0
  N  N43  1  0.71305000  0.50853000  0.40294000  1.0
  N  N44  1  0.21305000  0.89441000  0.40294000  1.0
  N  N45  1  0.28696000  0.49147000  0.59706000  1.0
  N  N46  1  0.61161000  0.28045000  0.64747000  1.0
  N  N47  1  0.88839000  0.63298000  0.35253000  1.0
  N  N48  1  0.38839000  0.71955000  0.35253000  1.0
  N  N49  1  0.11161000  0.36702000  0.64747000  1.0
  N  N50  1  0.71524000  0.28865000  0.75922000  1.0
  N  N51  1  0.78476000  0.52943000  0.24078000  1.0
  N  N52  1  0.28476000  0.71135000  0.24078000  1.0
  N  N53  1  0.21524000  0.47057000  0.75922000  1.0
  O  O54  1  0.35684000  0.92864000  0.91045000  1.0
  O  O55  1  0.14317000  0.01819000  0.08955000  1.0
  O  O56  1  0.64316000  0.07135000  0.08955000  1.0
  O  O57  1  0.85684000  0.98180000  0.91045000  1.0
  O  O58  1  0.56030000  0.81820000  0.69079000  1.0
  O  O59  1  0.93970000  0.12740000  0.30921000  1.0
  O  O60  1  0.43970000  0.18181000  0.30921000  1.0
  O  O61  1  0.06030000  0.87260000  0.69079000  1.0
  O  O62  1  0.64282000  0.78155000  0.90521000  1.0
  O  O63  1  0.85718000  0.87634000  0.09479000  1.0
  O  O64  1  0.35717000  0.21845000  0.09479000  1.0
  O  O65  1  0.14282000  0.12366000  0.90521000  1.0
  O  O66  1  0.54578000  0.08591000  0.83681000  1.0
  O  O67  1  0.95422000  0.24910000  0.16319000  1.0
  O  O68  1  0.45423000  0.91409000  0.16319000  1.0
  O  O69  1  0.04578000  0.75089000  0.83680000  1.0
