# generated using pymatgen
data_CdH6C12(N5Cl)2
_symmetry_space_group_name_H-M   'P 1'
_cell_length_a   9.43005000
_cell_length_b   11.15250000
_cell_length_c   15.63020000
_cell_angle_alpha   108.22300000
_cell_angle_beta   90.00000000
_cell_angle_gamma   89.99990000
_symmetry_Int_Tables_number   1
_chemical_formula_structural   CdH6C12(N5Cl)2
_chemical_formula_sum   'Cd4 H24 C48 N40 Cl8'
_cell_volume   1561.36425657
_cell_formula_units_Z   4
loop_
 _symmetry_equiv_pos_site_id
 _symmetry_equiv_pos_as_xyz
  1  'x, y, z'
loop_
 _atom_site_type_symbol
 _atom_site_label
 _atom_site_symmetry_multiplicity
 _atom_site_fract_x
 _atom_site_fract_y
 _atom_site_fract_z
 _atom_site_occupancy
  Cd  Cd0  1  0.62251000  0.57620000  0.12514000  1.0
  Cd  Cd1  1  0.12251000  0.92380000  0.37486000  1.0
  Cd  Cd2  1  0.37749000  0.42380000  0.87486000  1.0
  Cd  Cd3  1  0.87749000  0.07620000  0.62514000  1.0
  H  H4  1  0.82715000  0.18453000  0.31345000  1.0
  H  H5  1  0.32715000  0.31547000  0.18655000  1.0
  H  H6  1  0.17285000  0.81547000  0.68655000  1.0
  H  H7  1  0.67285000  0.68453000  0.81344000  1.0
  H  H8  1  0.86251000  0.41758000  0.39221000  1.0
  H  H9  1  0.36251000  0.08242000  0.10779000  1.0
  H  H10  1  0.13749000  0.58242000  0.60779000  1.0
  H  H11  1  0.63749000  0.91758000  0.89221000  1.0
  H  H12  1  0.77151000  0.56980000  0.31514000  1.0
  H  H13  1  0.27151000  0.93020000  0.18486000  1.0
  H  H14  1  0.22849000  0.43020000  0.68486000  1.0
  H  H15  1  0.72849000  0.06980000  0.81514000  1.0
  H  H16  1  0.01853000  0.64794000  0.82125000  1.0
  H  H17  1  0.51853000  0.85206000  0.67875000  1.0
  H  H18  1  0.98147000  0.35206000  0.17875000  1.0
  H  H19  1  0.48146000  0.14794000  0.32125000  1.0
  H  H20  1  0.88918000  0.44135000  0.78717000  1.0
  H  H21  1  0.38918000  0.05865000  0.71283000  1.0
  H  H22  1  0.11082000  0.55865000  0.21283000  1.0
  H  H23  1  0.61082000  0.94135000  0.28717000  1.0
  H  H24  1  0.75459000  0.39610000  0.91122000  1.0
  H  H25  1  0.25458000  0.10390000  0.58878000  1.0
  H  H26  1  0.24541000  0.60390000  0.08878000  1.0
  H  H27  1  0.74542000  0.89610000  0.41122000  1.0
  C  C28  1  0.59554000  0.27892000  0.07549000  1.0
  C  C29  1  0.09554000  0.22108000  0.42451000  1.0
  C  C30  1  0.40446000  0.72108000  0.92451000  1.0
  C  C31  1  0.90446000  0.77892000  0.57549000  1.0
  C  C32  1  0.71944000  0.21412000  0.20040000  1.0
  C  C33  1  0.21944000  0.28588000  0.29960000  1.0
  C  C34  1  0.28056000  0.78588000  0.79960000  1.0
  C  C35  1  0.78056000  0.71412000  0.70040000  1.0
  C  C36  1  0.67154000  0.30521000  0.16147000  1.0
  C  C37  1  0.17154000  0.19479000  0.33853000  1.0
  C  C38  1  0.32846000  0.69479000  0.83853000  1.0
  C  C39  1  0.82846000  0.80521000  0.66147000  1.0
  C  C40  1  0.78910000  0.25488000  0.28377000  1.0
  C  C41  1  0.28910000  0.24511000  0.21623000  1.0
  C  C42  1  0.21090000  0.74511000  0.71623000  1.0
  C  C43  1  0.71090000  0.75489000  0.78377000  1.0
  C  C44  1  0.80832000  0.38328000  0.32741000  1.0
  C  C45  1  0.30832000  0.11671000  0.17259000  1.0
  C  C46  1  0.19168000  0.61672000  0.67259000  1.0
  C  C47  1  0.69168000  0.88328000  0.82741000  1.0
  C  C48  1  0.75894000  0.46811000  0.28482000  1.0
  C  C49  1  0.25895000  0.03189000  0.21518000  1.0
  C  C50  1  0.24105000  0.53189000  0.71518000  1.0
  C  C51  1  0.74105000  0.96811000  0.78482000  1.0
  C  C52  1  0.90126000  0.73647000  0.12654000  1.0
  C  C53  1  0.40126000  0.76353000  0.37346000  1.0
  C  C54  1  0.09874000  0.26353000  0.87346000  1.0
  C  C55  1  0.59874000  0.23647000  0.62653000  1.0
  C  C56  1  0.89696000  0.66745000  0.03019000  1.0
  C  C57  1  0.39696000  0.83255000  0.46981000  1.0
  C  C58  1  0.10304000  0.33255000  0.96981000  1.0
  C  C59  1  0.60304000  0.16745000  0.53019000  1.0
  C  C60  1  0.96751000  0.70303000  0.96264000  1.0
  C  C61  1  0.46751000  0.79697000  0.53737000  1.0
  C  C62  1  0.03249000  0.29697000  0.03737000  1.0
  C  C63  1  0.53249000  0.20303000  0.46264000  1.0
  C  C64  1  0.96471000  0.62133000  0.87419000  1.0
  C  C65  1  0.46471000  0.87867000  0.62580000  1.0
  C  C66  1  0.03529000  0.37867000  0.12580000  1.0
  C  C67  1  0.53529000  0.12133000  0.37419000  1.0
  C  C68  1  0.89162000  0.50776000  0.85507000  1.0
  C  C69  1  0.39162000  0.99224000  0.64494000  1.0
  C  C70  1  0.10838000  0.49225000  0.14494000  1.0
  C  C71  1  0.60838000  0.00776000  0.35507000  1.0
  C  C72  1  0.81745000  0.48200000  0.92455000  1.0
  C  C73  1  0.31745000  0.01800000  0.57545000  1.0
  C  C74  1  0.18255000  0.51799000  0.07545000  1.0
  C  C75  1  0.68256000  0.98200000  0.42455000  1.0
  N  N76  1  0.84476000  0.77876000  0.26643000  1.0
  N  N77  1  0.34476000  0.72124000  0.23357000  1.0
  N  N78  1  0.15524000  0.22124000  0.73357000  1.0
  N  N79  1  0.65524000  0.27876000  0.76643000  1.0
  N  N80  1  0.80345000  0.71486000  0.18343000  1.0
  N  N81  1  0.30345000  0.78514000  0.31657000  1.0
  N  N82  1  0.19655000  0.28514000  0.81657000  1.0
  N  N83  1  0.69655000  0.21486000  0.68342000  1.0
  N  N84  1  0.00298000  0.81376000  0.17280000  1.0
  N  N85  1  0.50298000  0.68624000  0.32720000  1.0
  N  N86  1  0.99702000  0.18624000  0.82720000  1.0
  N  N87  1  0.49702000  0.31376000  0.67280000  1.0
  N  N88  1  0.96428000  0.83754000  0.25908000  1.0
  N  N89  1  0.46428000  0.66246000  0.24092000  1.0
  N  N90  1  0.03572000  0.16246000  0.74092000  1.0
  N  N91  1  0.53572000  0.33754000  0.75908000  1.0
  N  N92  1  0.69452000  0.42952000  0.20462000  1.0
  N  N93  1  0.19452000  0.07048000  0.29538000  1.0
  N  N94  1  0.30548000  0.57048000  0.79538000  1.0
  N  N95  1  0.80548000  0.92952000  0.70462000  1.0
  N  N96  1  0.55266000  0.16710000  0.01807000  1.0
  N  N97  1  0.05266000  0.33290000  0.48193000  1.0
  N  N98  1  0.44734000  0.83290000  0.98193000  1.0
  N  N99  1  0.94734000  0.66710000  0.51807000  1.0
  N  N100  1  0.55641000  0.37404000  0.04413000  1.0
  N  N101  1  0.05641000  0.12596000  0.45587000  1.0
  N  N102  1  0.44359000  0.62596000  0.95587000  1.0
  N  N103  1  0.94359000  0.87404000  0.54413000  1.0
  N  N104  1  0.48669000  0.19465000  0.95077000  1.0
  N  N105  1  0.98669000  0.30535000  0.54923000  1.0
  N  N106  1  0.51331000  0.80535000  0.04923000  1.0
  N  N107  1  0.01331000  0.69465000  0.45077000  1.0
  N  N108  1  0.48962000  0.31878000  0.96653000  1.0
  N  N109  1  0.98962000  0.18122000  0.53347000  1.0
  N  N110  1  0.51038000  0.68122000  0.03347000  1.0
  N  N111  1  0.01038000  0.81878000  0.46653000  1.0
  N  N112  1  0.81988000  0.55978000  0.00914000  1.0
  N  N113  1  0.31988000  0.94023000  0.49086000  1.0
  N  N114  1  0.18012000  0.44023000  0.99086000  1.0
  N  N115  1  0.68012000  0.05978000  0.50914000  1.0
  Cl  Cl116  1  0.69417000  0.05524000  0.14937000  1.0
  Cl  Cl117  1  0.19417000  0.44475000  0.35063000  1.0
  Cl  Cl118  1  0.30583000  0.94476000  0.85063000  1.0
  Cl  Cl119  1  0.80582000  0.55525000  0.64937000  1.0
  Cl  Cl120  1  0.05327000  0.84548000  0.98531000  1.0
  Cl  Cl121  1  0.55327000  0.65452000  0.51469000  1.0
  Cl  Cl122  1  0.94673000  0.15452000  0.01469000  1.0
  Cl  Cl123  1  0.44673000  0.34548000  0.48531000  1.0
