# generated using pymatgen
data_Co3P3H18C18N7O9
_symmetry_space_group_name_H-M   'P 1'
_cell_length_a   8.52885000
_cell_length_b   15.53520000
_cell_length_c   15.68490000
_cell_angle_alpha   61.12730000
_cell_angle_beta   77.37710000
_cell_angle_gamma   89.33610000
_symmetry_Int_Tables_number   1
_chemical_formula_structural   Co3P3H18C18N7O9
_chemical_formula_sum   'Co6 P6 H36 C36 N14 O18'
_cell_volume   1765.12635672
_cell_formula_units_Z   2
loop_
 _symmetry_equiv_pos_site_id
 _symmetry_equiv_pos_as_xyz
  1  'x, y, z'
loop_
 _atom_site_type_symbol
 _atom_site_label
 _atom_site_symmetry_multiplicity
 _atom_site_fract_x
 _atom_site_fract_y
 _atom_site_fract_z
 _atom_site_occupancy
  Co  Co0  1  0.91657000  0.31428000  0.35622000  1.0
  Co  Co1  1  0.08343000  0.68572000  0.64378000  1.0
  Co  Co2  1  0.32110000  0.08155000  0.53520000  1.0
  Co  Co3  1  0.67890000  0.91845000  0.46480000  1.0
  Co  Co4  1  0.30523000  0.45144000  0.46226000  1.0
  Co  Co5  1  0.69477000  0.54856000  0.53774000  1.0
  P  P6  1  0.70105000  0.12156000  0.46759000  1.0
  P  P7  1  0.29895000  0.87845000  0.53241000  1.0
  P  P8  1  0.11346000  0.25863000  0.51144000  1.0
  P  P9  1  0.88654000  0.74137000  0.48857000  1.0
  P  P10  1  0.69322000  0.43311000  0.42351000  1.0
  P  P11  1  0.30677000  0.56689000  0.57649000  1.0
  H  H12  1  0.65099000  0.11190000  0.63305000  1.0
  H  H13  1  0.34901000  0.88810000  0.36695000  1.0
  H  H14  1  0.85712000  0.10666000  0.58044000  1.0
  H  H15  1  0.14288000  0.89334000  0.41956000  1.0
  H  H16  1  0.87697000  0.22213000  0.65167000  1.0
  H  H17  1  0.12303000  0.77787000  0.34833000  1.0
  H  H18  1  0.90759000  0.34748000  0.55248000  1.0
  H  H19  1  0.09240000  0.65252000  0.44753000  1.0
  H  H20  1  0.59554000  0.29867000  0.59762000  1.0
  H  H21  1  0.40447000  0.70133000  0.40238000  1.0
  H  H22  1  0.55168000  0.27087000  0.50686000  1.0
  H  H23  1  0.44832000  0.72913000  0.49314000  1.0
  H  H24  1  0.00541000  0.55571000  0.35951000  1.0
  H  H25  1  0.99459000  0.44430000  0.64049000  1.0
  H  H26  1  0.07114000  0.67266000  0.15291000  1.0
  H  H27  1  0.92886000  0.32734000  0.84709000  1.0
  H  H28  1  0.49740000  0.55164000  0.23990000  1.0
  H  H29  1  0.50261000  0.44836000  0.76010000  1.0
  H  H30  1  0.56405000  0.56578000  0.08413000  1.0
  H  H31  1  0.43595000  0.43422000  0.91587000  1.0
  H  H32  1  0.71631000  0.48981000  0.01338000  1.0
  H  H33  1  0.28369000  0.51019000  0.98662000  1.0
  H  H34  1  0.98462000  0.48246000  0.88075000  1.0
  H  H35  1  0.01539000  0.51754000  0.11925000  1.0
  H  H36  1  0.85157000  0.77100000  0.74899000  1.0
  H  H37  1  0.14843000  0.22900000  0.25101000  1.0
  H  H38  1  0.61793000  0.80418000  0.77976000  1.0
  H  H39  1  0.38207000  0.19581000  0.22024000  1.0
  H  H40  1  0.24427000  0.79475000  0.01921000  1.0
  H  H41  1  0.75573000  0.20525000  0.98079000  1.0
  H  H42  1  0.29808000  0.96884000  0.90928000  1.0
  H  H43  1  0.70192000  0.03116000  0.09072000  1.0
  H  H44  1  0.24108000  0.11222000  0.72661000  1.0
  H  H45  1  0.75893000  0.88778000  0.27339000  1.0
  H  H46  1  0.43183000  0.87728000  0.68997000  1.0
  H  H47  1  0.56816000  0.12272000  0.31003000  1.0
  C  C48  1  0.74881000  0.14424000  0.56349000  1.0
  C  C49  1  0.25120000  0.85576000  0.43651000  1.0
  C  C50  1  0.90796000  0.27017000  0.56919000  1.0
  C  C51  1  0.09203000  0.72983000  0.43081000  1.0
  C  C52  1  0.64543000  0.30390000  0.52382000  1.0
  C  C53  1  0.35458000  0.69610000  0.47618000  1.0
  C  C54  1  0.11885000  0.57462000  0.30336000  1.0
  C  C55  1  0.88115000  0.42538000  0.69664000  1.0
  C  C56  1  0.14961000  0.63275000  0.20142000  1.0
  C  C57  1  0.85040000  0.36725000  0.79858000  1.0
  C  C58  1  0.37268000  0.56742000  0.24388000  1.0
  C  C59  1  0.62733000  0.43258000  0.75612000  1.0
  C  C60  1  0.39597000  0.67537000  0.06186000  1.0
  C  C61  1  0.60403000  0.32463000  0.93813000  1.0
  C  C62  1  0.52715000  0.63405000  0.03014000  1.0
  C  C63  1  0.47285000  0.36595000  0.96986000  1.0
  C  C64  1  0.60782000  0.68122000  0.92853000  1.0
  C  C65  1  0.39218000  0.31878000  0.07147000  1.0
  C  C66  1  0.78377000  0.54631000  0.94008000  1.0
  C  C67  1  0.21623000  0.45369000  0.05992000  1.0
  C  C68  1  0.91610000  0.54367000  0.87391000  1.0
  C  C69  1  0.08391000  0.45633000  0.12609000  1.0
  C  C70  1  0.85084000  0.69359000  0.80235000  1.0
  C  C71  1  0.14916000  0.30641000  0.19764000  1.0
  C  C72  1  0.55762000  0.76799000  0.85913000  1.0
  C  C73  1  0.44238000  0.23202000  0.14087000  1.0
  C  C74  1  0.42770000  0.80817000  0.89276000  1.0
  C  C75  1  0.57230000  0.19183000  0.10724000  1.0
  C  C76  1  0.34587000  0.76292000  0.99389000  1.0
  C  C77  1  0.65413000  0.23708000  0.00611000  1.0
  C  C78  1  0.31414000  0.97136000  0.83767000  1.0
  C  C79  1  0.68585000  0.02864000  0.16233000  1.0
  C  C80  1  0.28867000  0.04163000  0.74748000  1.0
  C  C81  1  0.71133000  0.95837000  0.25252000  1.0
  C  C82  1  0.39009000  0.92289000  0.72373000  1.0
  C  C83  1  0.60991000  0.07711000  0.27627000  1.0
  N  N84  1  0.78993000  0.25086000  0.52265000  1.0
  N  N85  1  0.21007000  0.74914000  0.47735000  1.0
  N  N86  1  0.25904000  0.53514000  0.32854000  1.0
  N  N87  1  0.74096000  0.46485000  0.67146000  1.0
  N  N88  1  0.31126000  0.62770000  0.16368000  1.0
  N  N89  1  0.68874000  0.37230000  0.83632000  1.0
  N  N90  1  0.74134000  0.64242000  0.89359000  1.0
  N  N91  1  0.25866000  0.35758000  0.10641000  1.0
  N  N92  1  0.95616000  0.63568000  0.78867000  1.0
  N  N93  1  0.04384000  0.36432000  0.21133000  1.0
  N  N94  1  0.37890000  0.89612000  0.82195000  1.0
  N  N95  1  0.62110000  0.10388000  0.17805000  1.0
  N  N96  1  0.33583000  0.01007000  0.67770000  1.0
  N  N97  1  0.66417000  0.98993000  0.32230000  1.0
  O  O98  1  0.53089000  0.15126000  0.45167000  1.0
  O  O99  1  0.46911000  0.84875000  0.54833000  1.0
  O  O100  1  0.71313000  0.00998000  0.50946000  1.0
  O  O101  1  0.28687000  0.99003000  0.49054000  1.0
  O  O102  1  0.82959000  0.18884000  0.37041000  1.0
  O  O103  1  0.17041000  0.81116000  0.62960000  1.0
  O  O104  1  0.13664000  0.14787000  0.55986000  1.0
  O  O105  1  0.86336000  0.85214000  0.44014000  1.0
  O  O106  1  0.23223000  0.31298000  0.53595000  1.0
  O  O107  1  0.76776000  0.68702000  0.46405000  1.0
  O  O108  1  0.12002000  0.30780000  0.39846000  1.0
  O  O109  1  0.87998000  0.69220000  0.60155000  1.0
  O  O110  1  0.53569000  0.47794000  0.40316000  1.0
  O  O111  1  0.46431000  0.52206000  0.59684000  1.0
  O  O112  1  0.79043000  0.48866000  0.45845000  1.0
  O  O113  1  0.20957000  0.51134000  0.54154000  1.0
  O  O114  1  0.79726000  0.43010000  0.33145000  1.0
  O  O115  1  0.20274000  0.56990000  0.66854000  1.0
