# generated using pymatgen
data_ZnH11C12NO5
_symmetry_space_group_name_H-M   'P 1'
_cell_length_a   8.88754000
_cell_length_b   8.92940000
_cell_length_c   13.63740000
_cell_angle_alpha   72.99100000
_cell_angle_beta   72.54960000
_cell_angle_gamma   80.30900000
_symmetry_Int_Tables_number   1
_chemical_formula_structural   ZnH11C12NO5
_chemical_formula_sum   'Zn2 H22 C24 N2 O10'
_cell_volume   983.43673726
_cell_formula_units_Z   2
loop_
 _symmetry_equiv_pos_site_id
 _symmetry_equiv_pos_as_xyz
  1  'x, y, z'
loop_
 _atom_site_type_symbol
 _atom_site_label
 _atom_site_symmetry_multiplicity
 _atom_site_fract_x
 _atom_site_fract_y
 _atom_site_fract_z
 _atom_site_occupancy
  Zn  Zn0  1  0.49685000  0.84855000  0.85080000  1.0
  Zn  Zn1  1  0.61956000  0.89639000  0.62442000  1.0
  H  H2  1  0.13335000  0.73750000  0.38183000  1.0
  H  H3  1  0.92295000  0.74970000  0.55068000  1.0
  H  H4  1  0.45156000  0.03533000  0.01270000  1.0
  H  H5  1  0.24231000  0.07076000  0.17674000  1.0
  H  H6  1  0.02112000  0.68492000  0.16272000  1.0
  H  H7  1  0.24280000  0.66346000  0.99983000  1.0
  H  H8  1  0.90809000  0.12011000  0.11975000  1.0
  H  H9  1  0.70997000  0.28478000  0.21692000  1.0
  H  H10  1  0.49640000  0.02237000  0.26613000  1.0
  H  H11  1  0.42341000  0.20992000  0.29048000  1.0
  H  H12  1  0.58028000  0.17851000  0.41475000  1.0
  H  H13  1  0.48492000  0.00630000  0.45315000  1.0
  H  H14  1  0.74239000  0.08289000  0.98956000  1.0
  H  H15  1  0.77789000  0.87413000  0.00835000  1.0
  H  H16  1  0.93604000  0.98791000  0.99230000  1.0
  H  H17  1  0.56730000  0.48553000  0.12338000  1.0
  H  H18  1  0.40382000  0.37850000  0.13992000  1.0
  H  H19  1  0.52608000  0.45780000  0.00933000  1.0
  H  H20  1  0.10023000  0.92403000  0.61750000  1.0
  H  H21  1  0.01330000  0.81455000  0.86232000  1.0
  H  H22  1  0.52268000  0.32478000  0.86023000  1.0
  H  H23  1  0.59966000  0.41657000  0.61546000  1.0
  C  C24  1  0.73297000  0.98072000  0.38067000  1.0
  C  C25  1  0.84360000  0.97993000  0.28221000  1.0
  C  C26  1  0.99026000  0.89117000  0.28227000  1.0
  C  C27  1  0.02100000  0.80742000  0.37929000  1.0
  C  C28  1  0.90545000  0.81326000  0.47299000  1.0
  C  C29  1  0.35494000  0.95934000  0.04948000  1.0
  C  C30  1  0.23749000  0.97892000  0.14011000  1.0
  C  C31  1  0.11446000  0.87975000  0.18290000  1.0
  C  C32  1  0.11557000  0.76327000  0.13260000  1.0
  C  C33  1  0.23724000  0.75098000  0.04260000  1.0
  C  C34  1  0.80333000  0.06478000  0.17796000  1.0
  C  C35  1  0.66666667  0.19361000  0.19374000  1.0
  C  C36  1  0.52761000  0.12394000  0.28391000  1.0
  C  C37  1  0.57460000  0.07414000  0.38848000  1.0
  C  C38  1  0.80781000  0.97588000  0.02594000  1.0
  C  C39  1  0.52609000  0.40283000  0.09250000  1.0
  C  C40  1  0.27964000  0.89294000  0.70594000  1.0
  C  C41  1  0.11723000  0.89199000  0.69726000  1.0
  C  C42  1  0.99587000  0.84844000  0.78270000  1.0
  C  C43  1  0.83361000  0.84714000  0.77380000  1.0
  C  C44  1  0.56229000  0.56957000  0.76785000  1.0
  C  C45  1  0.55302000  0.40042000  0.77949000  1.0
  C  C46  1  0.57186000  0.34139000  0.69638000  1.0
  C  C47  1  0.55742000  0.17264000  0.70948000  1.0
  N  N48  1  0.76554000  0.89846000  0.47352000  1.0
  N  N49  1  0.35472000  0.84732000  0.00172000  1.0
  O  O50  1  0.76542000  0.94583000  0.13988000  1.0
  O  O51  1  0.63019000  0.26236000  0.09434000  1.0
  O  O52  1  0.39173000  0.88924000  0.62170000  1.0
  O  O53  1  0.29523000  0.89585000  0.79488000  1.0
  O  O54  1  0.81277000  0.89196000  0.68093000  1.0
  O  O55  1  0.72704000  0.80363000  0.86070000  1.0
  O  O56  1  0.63438000  0.65228000  0.67814000  1.0
  O  O57  1  0.49311000  0.61840000  0.85121000  1.0
  O  O58  1  0.57700000  0.13097000  0.62420000  1.0
  O  O59  1  0.52889000  0.08335000  0.80374000  1.0
