# generated using pymatgen
data_PrH24C24(NO2)6
_symmetry_space_group_name_H-M   'P 1'
_cell_length_a   16.07950000
_cell_length_b   16.07950000
_cell_length_c   16.33360000
_cell_angle_alpha   90.00000000
_cell_angle_beta   90.00000000
_cell_angle_gamma   120.00000000
_symmetry_Int_Tables_number   1
_chemical_formula_structural   PrH24C24(NO2)6
_chemical_formula_sum   'Pr4 H96 C96 N24 O48'
_cell_volume   3657.27508603
_cell_formula_units_Z   4
loop_
 _symmetry_equiv_pos_site_id
 _symmetry_equiv_pos_as_xyz
  1  'x, y, z'
loop_
 _atom_site_type_symbol
 _atom_site_label
 _atom_site_symmetry_multiplicity
 _atom_site_fract_x
 _atom_site_fract_y
 _atom_site_fract_z
 _atom_site_occupancy
  Pr  Pr0  1  0.33333333  0.66666667  0.83798000  1.0
  Pr  Pr1  1  0.66666667  0.33333333  0.66202000  1.0
  Pr  Pr2  1  0.66666667  0.33333333  0.16202000  1.0
  Pr  Pr3  1  0.33333333  0.66666667  0.33798000  1.0
  H  H4  1  0.49687000  0.74626000  0.01907000  1.0
  H  H5  1  0.24939000  0.50314000  0.01907000  1.0
  H  H6  1  0.25375000  0.75061000  0.01907000  1.0
  H  H7  1  0.75061000  0.25374000  0.48093000  1.0
  H  H8  1  0.50314000  0.24939000  0.48093000  1.0
  H  H9  1  0.74625000  0.49686000  0.48093000  1.0
  H  H10  1  0.50313000  0.25374000  0.98093000  1.0
  H  H11  1  0.75061000  0.49686000  0.98093000  1.0
  H  H12  1  0.74625000  0.24938000  0.98093000  1.0
  H  H13  1  0.24939000  0.74626000  0.51907000  1.0
  H  H14  1  0.49687000  0.75062000  0.51907000  1.0
  H  H15  1  0.25375000  0.50314000  0.51907000  1.0
  H  H16  1  0.66360000  0.81169000  0.07035000  1.0
  H  H17  1  0.14809000  0.33640000  0.07035000  1.0
  H  H18  1  0.18831000  0.85191000  0.07035000  1.0
  H  H19  1  0.85191000  0.18831000  0.42965000  1.0
  H  H20  1  0.33640000  0.14809000  0.42965000  1.0
  H  H21  1  0.81169000  0.66360000  0.42965000  1.0
  H  H22  1  0.33640000  0.18831000  0.92965000  1.0
  H  H23  1  0.85191000  0.66360000  0.92965000  1.0
  H  H24  1  0.81169000  0.14809000  0.92965000  1.0
  H  H25  1  0.14809000  0.81169000  0.57035000  1.0
  H  H26  1  0.66360000  0.85191000  0.57035000  1.0
  H  H27  1  0.18831000  0.33640000  0.57035000  1.0
  H  H28  1  0.76170000  0.73755000  0.02874000  1.0
  H  H29  1  0.97585000  0.23830000  0.02873000  1.0
  H  H30  1  0.26245000  0.02415000  0.02874000  1.0
  H  H31  1  0.02415000  0.26245000  0.47126000  1.0
  H  H32  1  0.23830000  0.97585000  0.47126000  1.0
  H  H33  1  0.73755000  0.76170000  0.47126000  1.0
  H  H34  1  0.23830000  0.26245000  0.97126000  1.0
  H  H35  1  0.02415000  0.76170000  0.97126000  1.0
  H  H36  1  0.73755000  0.97585000  0.97126000  1.0
  H  H37  1  0.97585000  0.73755000  0.52874000  1.0
  H  H38  1  0.76170000  0.02415000  0.52874000  1.0
  H  H39  1  0.26245000  0.23830000  0.52874000  1.0
  H  H40  1  0.68905000  0.59456000  0.93704000  1.0
  H  H41  1  0.90551000  0.31095000  0.93704000  1.0
  H  H42  1  0.40544000  0.09449000  0.93704000  1.0
  H  H43  1  0.09449000  0.40544000  0.56296000  1.0
  H  H44  1  0.31095000  0.90551000  0.56296000  1.0
  H  H45  1  0.59456000  0.68905000  0.56296000  1.0
  H  H46  1  0.31095000  0.40544000  0.06296000  1.0
  H  H47  1  0.09449000  0.68905000  0.06296000  1.0
  H  H48  1  0.59456000  0.90551000  0.06296000  1.0
  H  H49  1  0.90551000  0.59456000  0.43704000  1.0
  H  H50  1  0.68905000  0.09449000  0.43704000  1.0
  H  H51  1  0.40544000  0.31095000  0.43704000  1.0
  H  H52  1  0.56235000  0.47606000  0.86189000  1.0
  H  H53  1  0.91371000  0.43765000  0.86189000  1.0
  H  H54  1  0.52394000  0.08629000  0.86189000  1.0
  H  H55  1  0.08629000  0.52394000  0.63811000  1.0
  H  H56  1  0.43765000  0.91371000  0.63811000  1.0
  H  H57  1  0.47606000  0.56235000  0.63811000  1.0
  H  H58  1  0.43765000  0.52394000  0.13811000  1.0
  H  H59  1  0.08629000  0.56235000  0.13811000  1.0
  H  H60  1  0.47606000  0.91371000  0.13811000  1.0
  H  H61  1  0.91371000  0.47606000  0.36189000  1.0
  H  H62  1  0.56235000  0.08629000  0.36189000  1.0
  H  H63  1  0.52394000  0.43765000  0.36189000  1.0
  H  H64  1  0.31944000  0.32635000  0.82124000  1.0
  H  H65  1  0.00691000  0.68057000  0.82124000  1.0
  H  H66  1  0.67365000  0.99309000  0.82124000  1.0
  H  H67  1  0.99309000  0.67365000  0.67876000  1.0
  H  H68  1  0.68056000  0.00690000  0.67876000  1.0
  H  H69  1  0.32635000  0.31944000  0.67876000  1.0
  H  H70  1  0.68056000  0.67365000  0.17876000  1.0
  H  H71  1  0.99309000  0.31944000  0.17876000  1.0
  H  H72  1  0.32635000  0.00691000  0.17876000  1.0
  H  H73  1  0.00691000  0.32635000  0.32124000  1.0
  H  H74  1  0.31944000  0.99310000  0.32124000  1.0
  H  H75  1  0.67365000  0.68056000  0.32124000  1.0
  H  H76  1  0.43574000  0.34386000  0.80221000  1.0
  H  H77  1  0.90812000  0.56426000  0.80221000  1.0
  H  H78  1  0.65614000  0.09188000  0.80221000  1.0
  H  H79  1  0.09188000  0.65614000  0.69779000  1.0
  H  H80  1  0.56426000  0.90812000  0.69779000  1.0
  H  H81  1  0.34386000  0.43574000  0.69779000  1.0
  H  H82  1  0.56426000  0.65614000  0.19779000  1.0
  H  H83  1  0.09188000  0.43574000  0.19779000  1.0
  H  H84  1  0.34386000  0.90812000  0.19779000  1.0
  H  H85  1  0.90812000  0.34386000  0.30221000  1.0
  H  H86  1  0.43574000  0.09188000  0.30221000  1.0
  H  H87  1  0.65614000  0.56426000  0.30221000  1.0
  H  H88  1  0.38910000  0.49481000  0.85612000  1.0
  H  H89  1  0.10571000  0.61090000  0.85612000  1.0
  H  H90  1  0.50519000  0.89429000  0.85612000  1.0
  H  H91  1  0.89429000  0.50519000  0.64388000  1.0
  H  H92  1  0.61090000  0.10571000  0.64388000  1.0
  H  H93  1  0.49481000  0.38910000  0.64388000  1.0
  H  H94  1  0.61090000  0.50519000  0.14388000  1.0
  H  H95  1  0.89429000  0.38910000  0.14388000  1.0
  H  H96  1  0.49481000  0.10571000  0.14388000  1.0
  H  H97  1  0.10571000  0.49481000  0.35612000  1.0
  H  H98  1  0.38910000  0.89429000  0.35612000  1.0
  H  H99  1  0.50519000  0.61090000  0.35612000  1.0
  C  C100  1  0.49679000  0.63334000  0.94814000  1.0
  C  C101  1  0.13655000  0.50321000  0.94814000  1.0
  C  C102  1  0.36666000  0.86345000  0.94814000  1.0
  C  C103  1  0.86345000  0.36666000  0.55186000  1.0
  C  C104  1  0.50321000  0.13655000  0.55186000  1.0
  C  C105  1  0.63334000  0.49679000  0.55186000  1.0
  C  C106  1  0.50321000  0.36666000  0.05186000  1.0
  C  C107  1  0.86345000  0.49679000  0.05186000  1.0
  C  C108  1  0.63334000  0.13655000  0.05186000  1.0
  C  C109  1  0.13655000  0.63334000  0.44814000  1.0
  C  C110  1  0.49679000  0.86345000  0.44814000  1.0
  C  C111  1  0.36666000  0.50321000  0.44814000  1.0
  C  C112  1  0.53947000  0.71336000  0.00190000  1.0
  C  C113  1  0.17389000  0.46054000  0.00190000  1.0
  C  C114  1  0.28665000  0.82612000  0.00190000  1.0
  C  C115  1  0.82611000  0.28664000  0.49810000  1.0
  C  C116  1  0.46053000  0.17388000  0.49810000  1.0
  C  C117  1  0.71335000  0.53946000  0.49810000  1.0
  C  C118  1  0.46053000  0.28664000  0.99811000  1.0
  C  C119  1  0.82611000  0.53946000  0.99811000  1.0
  C  C120  1  0.71335000  0.17389000  0.99810000  1.0
  C  C121  1  0.17389000  0.71336000  0.50190000  1.0
  C  C122  1  0.53946000  0.82611000  0.50190000  1.0
  C  C123  1  0.28665000  0.46054000  0.50190000  1.0
  C  C124  1  0.63284000  0.74985000  0.02935000  1.0
  C  C125  1  0.11701000  0.36716000  0.02936000  1.0
  C  C126  1  0.25015000  0.88299000  0.02936000  1.0
  C  C127  1  0.88299000  0.25015000  0.47064000  1.0
  C  C128  1  0.36716000  0.11700000  0.47065000  1.0
  C  C129  1  0.74985000  0.63284000  0.47065000  1.0
  C  C130  1  0.36716000  0.25015000  0.97065000  1.0
  C  C131  1  0.88299000  0.63284000  0.97064000  1.0
  C  C132  1  0.74985000  0.11701000  0.97065000  1.0
  C  C133  1  0.11701000  0.74985000  0.52935000  1.0
  C  C134  1  0.63284000  0.88299000  0.52936000  1.0
  C  C135  1  0.25016000  0.36717000  0.52935000  1.0
  C  C136  1  0.68837000  0.70796000  0.00651000  1.0
  C  C137  1  0.01959000  0.31164000  0.00651000  1.0
  C  C138  1  0.29205000  0.98042000  0.00651000  1.0
  C  C139  1  0.98041000  0.29204000  0.49349000  1.0
  C  C140  1  0.31163000  0.01958000  0.49349000  1.0
  C  C141  1  0.70795000  0.68836000  0.49349000  1.0
  C  C142  1  0.31163000  0.29204000  0.99349000  1.0
  C  C143  1  0.98041000  0.68837000  0.99349000  1.0
  C  C144  1  0.70795000  0.01958000  0.99349000  1.0
  C  C145  1  0.01959000  0.70796000  0.50651000  1.0
  C  C146  1  0.68837000  0.98042000  0.50651000  1.0
  C  C147  1  0.29205000  0.31164000  0.50651000  1.0
  C  C148  1  0.64824000  0.62854000  0.95608000  1.0
  C  C149  1  0.98030000  0.35176000  0.95608000  1.0
  C  C150  1  0.37146000  0.01970000  0.95608000  1.0
  C  C151  1  0.01970000  0.37146000  0.54392000  1.0
  C  C152  1  0.35176000  0.98030000  0.54392000  1.0
  C  C153  1  0.62854000  0.64824000  0.54392000  1.0
  C  C154  1  0.35176000  0.37146000  0.04392000  1.0
  C  C155  1  0.01970000  0.64824000  0.04392000  1.0
  C  C156  1  0.62854000  0.98030000  0.04392000  1.0
  C  C157  1  0.98030000  0.62854000  0.45608000  1.0
  C  C158  1  0.64824000  0.01970000  0.45608000  1.0
  C  C159  1  0.37146000  0.35176000  0.45608000  1.0
  C  C160  1  0.55326000  0.58977000  0.92601000  1.0
  C  C161  1  0.03651000  0.44674000  0.92601000  1.0
  C  C162  1  0.41023000  0.96349000  0.92601000  1.0
  C  C163  1  0.96349000  0.41023000  0.57399000  1.0
  C  C164  1  0.44674000  0.03651000  0.57399000  1.0
  C  C165  1  0.58977000  0.55326000  0.57399000  1.0
  C  C166  1  0.44674000  0.41023000  0.07399000  1.0
  C  C167  1  0.96349000  0.55326000  0.07399000  1.0
  C  C168  1  0.58977000  0.03651000  0.07399000  1.0
  C  C169  1  0.03651000  0.58977000  0.42601000  1.0
  C  C170  1  0.55326000  0.96349000  0.42601000  1.0
  C  C171  1  0.41023000  0.44674000  0.42601000  1.0
  C  C172  1  0.51686000  0.50710000  0.87538000  1.0
  C  C173  1  0.99024000  0.48314000  0.87538000  1.0
  C  C174  1  0.49290000  0.00976000  0.87538000  1.0
  C  C175  1  0.00976000  0.49290000  0.62462000  1.0
  C  C176  1  0.48314000  0.99024000  0.62462000  1.0
  C  C177  1  0.50710000  0.51686000  0.62462000  1.0
  C  C178  1  0.48314000  0.49290000  0.12462000  1.0
  C  C179  1  0.00976000  0.51686000  0.12462000  1.0
  C  C180  1  0.50710000  0.99025000  0.12462000  1.0
  C  C181  1  0.99024000  0.50710000  0.37538000  1.0
  C  C182  1  0.51686000  0.00976000  0.37538000  1.0
  C  C183  1  0.49290000  0.48314000  0.37538000  1.0
  C  C184  1  0.39024000  0.37620000  0.79533000  1.0
  C  C185  1  0.98596000  0.60975000  0.79533000  1.0
  C  C186  1  0.62379000  0.01403000  0.79533000  1.0
  C  C187  1  0.01404000  0.62380000  0.70467000  1.0
  C  C188  1  0.60976000  0.98597000  0.70467000  1.0
  C  C189  1  0.37621000  0.39025000  0.70467000  1.0
  C  C190  1  0.60976000  0.62380000  0.20467000  1.0
  C  C191  1  0.01404000  0.39025000  0.20467000  1.0
  C  C192  1  0.37621000  0.98597000  0.20467000  1.0
  C  C193  1  0.98597000  0.37621000  0.29533000  1.0
  C  C194  1  0.39024000  0.01403000  0.29533000  1.0
  C  C195  1  0.62379000  0.60975000  0.29533000  1.0
  N  N196  1  0.43077000  0.46417000  0.84287000  1.0
  N  N197  1  0.03340000  0.56923000  0.84287000  1.0
  N  N198  1  0.53583000  0.96660000  0.84287000  1.0
  N  N199  1  0.96660000  0.53583000  0.65713000  1.0
  N  N200  1  0.56923000  0.03340000  0.65713000  1.0
  N  N201  1  0.46417000  0.43077000  0.65713000  1.0
  N  N202  1  0.56923000  0.53583000  0.15713000  1.0
  N  N203  1  0.96660000  0.43077000  0.15713000  1.0
  N  N204  1  0.46417000  0.03340000  0.15713000  1.0
  N  N205  1  0.03340000  0.46417000  0.34287000  1.0
  N  N206  1  0.43077000  0.96660000  0.34287000  1.0
  N  N207  1  0.53583000  0.56923000  0.34287000  1.0
  N  N208  1  0.20920000  0.48435000  0.74122000  1.0
  N  N209  1  0.27515000  0.79080000  0.74122000  1.0
  N  N210  1  0.51565000  0.72485000  0.74122000  1.0
  N  N211  1  0.72485000  0.51565000  0.75878000  1.0
  N  N212  1  0.79080000  0.27515000  0.75878000  1.0
  N  N213  1  0.48435000  0.20920000  0.75878000  1.0
  N  N214  1  0.79080000  0.51565000  0.25878000  1.0
  N  N215  1  0.72485000  0.20920000  0.25878000  1.0
  N  N216  1  0.48435000  0.27515000  0.25878000  1.0
  N  N217  1  0.27515000  0.48435000  0.24122000  1.0
  N  N218  1  0.20920000  0.72485000  0.24122000  1.0
  N  N219  1  0.51565000  0.79080000  0.24122000  1.0
  O  O220  1  0.40974000  0.60004000  0.91954000  1.0
  O  O221  1  0.19030000  0.59027000  0.91954000  1.0
  O  O222  1  0.39997000  0.80971000  0.91954000  1.0
  O  O223  1  0.80970000  0.39996000  0.58046000  1.0
  O  O224  1  0.59026000  0.19029000  0.58046000  1.0
  O  O225  1  0.60003000  0.40973000  0.58046000  1.0
  O  O226  1  0.59026000  0.39996000  0.08046000  1.0
  O  O227  1  0.80970000  0.40973000  0.08046000  1.0
  O  O228  1  0.60003000  0.19029000  0.08046000  1.0
  O  O229  1  0.19030000  0.60004000  0.41954000  1.0
  O  O230  1  0.40974000  0.80971000  0.41954000  1.0
  O  O231  1  0.39997000  0.59027000  0.41954000  1.0
  O  O232  1  0.21097000  0.56388000  0.72542000  1.0
  O  O233  1  0.35291000  0.78904000  0.72542000  1.0
  O  O234  1  0.43613000  0.64710000  0.72542000  1.0
  O  O235  1  0.64709000  0.43612000  0.77458000  1.0
  O  O236  1  0.78903000  0.35290000  0.77458000  1.0
  O  O237  1  0.56387000  0.21096000  0.77458000  1.0
  O  O238  1  0.78903000  0.43612000  0.27458000  1.0
  O  O239  1  0.64709000  0.21096000  0.27458000  1.0
  O  O240  1  0.56387000  0.35290000  0.27458000  1.0
  O  O241  1  0.35291000  0.56388000  0.22542000  1.0
  O  O242  1  0.21097000  0.64710000  0.22542000  1.0
  O  O243  1  0.43613000  0.78904000  0.22542000  1.0
  O  O244  1  0.25823000  0.48463000  0.80338000  1.0
  O  O245  1  0.22640000  0.74178000  0.80338000  1.0
  O  O246  1  0.51538000  0.77361000  0.80338000  1.0
  O  O247  1  0.77360000  0.51537000  0.69662000  1.0
  O  O248  1  0.74177000  0.22639000  0.69662000  1.0
  O  O249  1  0.48462000  0.25822000  0.69662000  1.0
  O  O250  1  0.74177000  0.51537000  0.19662000  1.0
  O  O251  1  0.77360000  0.25822000  0.19662000  1.0
  O  O252  1  0.48462000  0.22639000  0.19662000  1.0
  O  O253  1  0.22640000  0.48463000  0.30338000  1.0
  O  O254  1  0.25823000  0.77361000  0.30338000  1.0
  O  O255  1  0.51538000  0.74178000  0.30338000  1.0
  O  O256  1  0.16313000  0.41198000  0.69852000  1.0
  O  O257  1  0.24885000  0.83687000  0.69852000  1.0
  O  O258  1  0.58802000  0.75115000  0.69852000  1.0
  O  O259  1  0.75115000  0.58802000  0.80148000  1.0
  O  O260  1  0.83687000  0.24885000  0.80148000  1.0
  O  O261  1  0.41198000  0.16313000  0.80148000  1.0
  O  O262  1  0.83687000  0.58802000  0.30148000  1.0
  O  O263  1  0.75115000  0.16313000  0.30148000  1.0
  O  O264  1  0.41198000  0.24885000  0.30148000  1.0
  O  O265  1  0.24885000  0.41198000  0.19852000  1.0
  O  O266  1  0.16313000  0.75115000  0.19852000  1.0
  O  O267  1  0.58802000  0.83687000  0.19852000  1.0
