# generated using pymatgen
data_AgH9C13(NO)2
_symmetry_space_group_name_H-M   'P 1'
_cell_length_a   3.83685000
_cell_length_b   11.99230000
_cell_length_c   12.73750000
_cell_angle_alpha   75.47320000
_cell_angle_beta   87.59170000
_cell_angle_gamma   85.47250000
_symmetry_Int_Tables_number   1
_chemical_formula_structural   AgH9C13(NO)2
_chemical_formula_sum   'Ag2 H18 C26 N4 O4'
_cell_volume   565.42894713
_cell_formula_units_Z   2
loop_
 _symmetry_equiv_pos_site_id
 _symmetry_equiv_pos_as_xyz
  1  'x, y, z'
loop_
 _atom_site_type_symbol
 _atom_site_label
 _atom_site_symmetry_multiplicity
 _atom_site_fract_x
 _atom_site_fract_y
 _atom_site_fract_z
 _atom_site_occupancy
  Ag  Ag0  1  0.18157000  0.92557000  0.59718000  1.0
  Ag  Ag1  1  0.81838000  0.07441000  0.40283000  1.0
  H  H2  1  0.58986000  0.00038000  0.22333000  1.0
  H  H3  1  0.41014000  0.99963000  0.77667000  1.0
  H  H4  1  0.17939000  0.78544000  0.04560000  1.0
  H  H5  1  0.82066000  0.21457000  0.95441000  1.0
  H  H6  1  0.07711000  0.61218000  0.19755000  1.0
  H  H7  1  0.92295000  0.38783000  0.80245000  1.0
  H  H8  1  0.73374000  0.63553000  0.36338000  1.0
  H  H9  1  0.26628000  0.36446000  0.63662000  1.0
  H  H10  1  0.96085000  0.86882000  0.84362000  1.0
  H  H11  1  0.03914000  0.13117000  0.15638000  1.0
  H  H12  1  0.71172000  0.71236000  0.98106000  1.0
  H  H13  1  0.28830000  0.28764000  0.01893000  1.0
  H  H14  1  0.56619000  0.54054000  0.72633000  1.0
  H  H15  1  0.43380000  0.45945000  0.27367000  1.0
  H  H16  1  0.84228000  0.70380000  0.59802000  1.0
  H  H17  1  0.15768000  0.29620000  0.40198000  1.0
  H  H18  1  0.37733000  0.44733000  0.91014000  1.0
  H  H19  1  0.62268000  0.55267000  0.08986000  1.0
  C  C20  1  0.64333000  0.81889000  0.30439000  1.0
  C  C21  1  0.35663000  0.18112000  0.69561000  1.0
  C  C22  1  0.69580000  0.91481000  0.21826000  1.0
  C  C23  1  0.30419000  0.08519000  0.78174000  1.0
  C  C24  1  0.88132000  0.90277000  0.12406000  1.0
  C  C25  1  0.11866000  0.09724000  0.87595000  1.0
  C  C26  1  0.02239000  0.79286000  0.11704000  1.0
  C  C27  1  0.97764000  0.20715000  0.88297000  1.0
  C  C28  1  0.96632000  0.69737000  0.20230000  1.0
  C  C29  1  0.03375000  0.30264000  0.79771000  1.0
  C  C30  1  0.77613000  0.70951000  0.29540000  1.0
  C  C31  1  0.22391000  0.29049000  0.70460000  1.0
  C  C32  1  0.45038000  0.83109000  0.40686000  1.0
  C  C33  1  0.54958000  0.16891000  0.59314000  1.0
  C  C34  1  0.87372000  0.79424000  0.82013000  1.0
  C  C35  1  0.12628000  0.20575000  0.17987000  1.0
  C  C36  1  0.73412000  0.70533000  0.89749000  1.0
  C  C37  1  0.26585000  0.29467000  0.10251000  1.0
  C  C38  1  0.62628000  0.60857000  0.86738000  1.0
  C  C39  1  0.37371000  0.39143000  0.13262000  1.0
  C  C40  1  0.65698000  0.61032000  0.75658000  1.0
  C  C41  1  0.34300000  0.38968000  0.24342000  1.0
  C  C42  1  0.80550000  0.70183000  0.68367000  1.0
  C  C43  1  0.19448000  0.29816000  0.31633000  1.0
  C  C44  1  0.49259000  0.50979000  0.94542000  1.0
  C  C45  1  0.50744000  0.49020000  0.05458000  1.0
  N  N46  1  0.92276000  0.00613000  0.04344000  1.0
  N  N47  1  0.07726000  0.99387000  0.95657000  1.0
  N  N48  1  0.91553000  0.79256000  0.71468000  1.0
  N  N49  1  0.08447000  0.20743000  0.28532000  1.0
  O  O50  1  0.41773000  0.93484000  0.42242000  1.0
  O  O51  1  0.58222000  0.06517000  0.57758000  1.0
  O  O52  1  0.33308000  0.74444000  0.47023000  1.0
  O  O53  1  0.66688000  0.25556000  0.52975000  1.0
