# generated using pymatgen
data_AgH19C18N3Cl
_symmetry_space_group_name_H-M   'P 1'
_cell_length_a   8.75766000
_cell_length_b   9.33692000
_cell_length_c   11.07960000
_cell_angle_alpha   85.80500000
_cell_angle_beta   78.35750000
_cell_angle_gamma   65.98570000
_symmetry_Int_Tables_number   1
_chemical_formula_structural   AgH19C18N3Cl
_chemical_formula_sum   'Ag2 H38 C36 N6 Cl2'
_cell_volume   810.48947463
_cell_formula_units_Z   2
loop_
 _symmetry_equiv_pos_site_id
 _symmetry_equiv_pos_as_xyz
  1  'x, y, z'
loop_
 _atom_site_type_symbol
 _atom_site_label
 _atom_site_symmetry_multiplicity
 _atom_site_fract_x
 _atom_site_fract_y
 _atom_site_fract_z
 _atom_site_occupancy
  Ag  Ag0  1  0.07691000  0.36266000  0.08555000  1.0
  Ag  Ag1  1  0.92309000  0.63734000  0.91445000  1.0
  H  H2  1  0.81257000  0.93552000  0.19340000  1.0
  H  H3  1  0.18743000  0.06448000  0.80660000  1.0
  H  H4  1  0.00358000  0.91108000  0.37035000  1.0
  H  H5  1  0.99642000  0.08893000  0.62966000  1.0
  H  H6  1  0.77876000  0.10564000  0.98844000  1.0
  H  H7  1  0.22124000  0.89436000  0.01156000  1.0
  H  H8  1  0.85606000  0.25705000  0.97310000  1.0
  H  H9  1  0.14394000  0.74294000  0.02690000  1.0
  H  H10  1  0.70059000  0.44605000  0.19815000  1.0
  H  H11  1  0.29940000  0.55395000  0.80185000  1.0
  H  H12  1  0.40544000  0.62407000  0.29480000  1.0
  H  H13  1  0.59456000  0.37593000  0.70520000  1.0
  H  H14  1  0.15615000  0.59193000  0.23703000  1.0
  H  H15  1  0.84385000  0.40807000  0.76297000  1.0
  H  H16  1  0.47647000  0.22237000  0.00254000  1.0
  H  H17  1  0.52353000  0.77763000  0.99746000  1.0
  H  H18  1  0.10163000  0.36535000  0.57698000  1.0
  H  H19  1  0.89837000  0.63465000  0.42302000  1.0
  H  H20  1  0.55903000  0.06527000  0.34042000  1.0
  H  H21  1  0.44097000  0.93473000  0.65958000  1.0
  H  H22  1  0.82963000  0.39898000  0.54383000  1.0
  H  H23  1  0.17037000  0.60102000  0.45617000  1.0
  H  H24  1  0.81742000  0.23231000  0.48372000  1.0
  H  H25  1  0.18258000  0.76769000  0.51628000  1.0
  H  H26  1  0.82252000  0.38884000  0.38595000  1.0
  H  H27  1  0.17748000  0.61116000  0.61405000  1.0
  H  H28  1  0.46588000  0.37292000  0.48732000  1.0
  H  H29  1  0.53412000  0.62708000  0.51268000  1.0
  H  H30  1  0.57136000  0.17599000  0.53240000  1.0
  H  H31  1  0.42864000  0.82401000  0.46760000  1.0
  H  H32  1  0.38075000  0.30451000  0.62818000  1.0
  H  H33  1  0.61925000  0.69549000  0.37182000  1.0
  H  H34  1  0.36391000  0.86870000  0.19691000  1.0
  H  H35  1  0.63610000  0.13130000  0.80309000  1.0
  H  H36  1  0.54900000  0.90665000  0.18281000  1.0
  H  H37  1  0.45100000  0.09335000  0.81719000  1.0
  H  H38  1  0.37963000  0.02704000  0.10549000  1.0
  H  H39  1  0.62037000  0.97296000  0.89451000  1.0
  C  C40  1  0.99461000  0.18814000  0.16501000  1.0
  C  C41  1  0.00540000  0.81186000  0.83499000  1.0
  C  C42  1  0.87992000  0.00599000  0.20843000  1.0
  C  C43  1  0.12008000  0.99401000  0.79157000  1.0
  C  C44  1  0.97835000  0.99027000  0.29352000  1.0
  C  C45  1  0.02165000  0.00973000  0.70648000  1.0
  C  C46  1  0.78773000  0.19854000  0.03821000  1.0
  C  C47  1  0.21228000  0.80146000  0.96179000  1.0
  C  C48  1  0.61249000  0.31483000  0.09565000  1.0
  C  C49  1  0.38751000  0.68517000  0.90435000  1.0
  C  C50  1  0.59067000  0.43172000  0.17773000  1.0
  C  C51  1  0.40932000  0.56828000  0.82227000  1.0
  C  C52  1  0.42612000  0.53247000  0.23029000  1.0
  C  C53  1  0.57388000  0.46752000  0.76971000  1.0
  C  C54  1  0.28784000  0.51586000  0.19885000  1.0
  C  C55  1  0.71216000  0.48414000  0.80115000  1.0
  C  C56  1  0.46666000  0.30887000  0.06796000  1.0
  C  C57  1  0.53335000  0.69113000  0.93204000  1.0
  C  C58  1  0.14842000  0.13786000  0.33548000  1.0
  C  C59  1  0.85158000  0.86214000  0.66452000  1.0
  C  C60  1  0.06452000  0.24515000  0.43379000  1.0
  C  C61  1  0.93548000  0.75485000  0.56621000  1.0
  C  C62  1  0.16392000  0.28463000  0.49842000  1.0
  C  C63  1  0.83608000  0.71537000  0.50158000  1.0
  C  C64  1  0.34184000  0.22236000  0.46496000  1.0
  C  C65  1  0.65816000  0.77765000  0.53504000  1.0
  C  C66  1  0.42044000  0.11611000  0.36603000  1.0
  C  C67  1  0.57956000  0.88389000  0.63397000  1.0
  C  C68  1  0.32611000  0.07216000  0.29965000  1.0
  C  C69  1  0.67389000  0.92784000  0.70035000  1.0
  C  C70  1  0.87348000  0.31968000  0.46437000  1.0
  C  C71  1  0.12652000  0.68032000  0.53563000  1.0
  C  C72  1  0.44575000  0.27124000  0.53240000  1.0
  C  C73  1  0.55425000  0.72876000  0.46760000  1.0
  C  C74  1  0.41025000  0.96264000  0.19086000  1.0
  C  C75  1  0.58975000  0.03736000  0.80914000  1.0
  N  N76  1  0.89199000  0.12673000  0.13140000  1.0
  N  N77  1  0.10801000  0.87327000  0.86860000  1.0
  N  N78  1  0.04664000  0.10230000  0.26542000  1.0
  N  N79  1  0.95336000  0.89770000  0.73458000  1.0
  N  N80  1  0.30758000  0.40683000  0.11759000  1.0
  N  N81  1  0.69242000  0.59317000  0.88241000  1.0
  Cl  Cl82  1  0.15032000  0.34580000  0.83748000  1.0
  Cl  Cl83  1  0.84967000  0.65420000  0.16252000  1.0
