# generated using pymatgen
data_ZnH26C28(NO3)2
_symmetry_space_group_name_H-M   'P 1'
_cell_length_a   8.92362000
_cell_length_b   17.52440000
_cell_length_c   18.14280000
_cell_angle_alpha   89.99990000
_cell_angle_beta   98.07760000
_cell_angle_gamma   90.00000000
_symmetry_Int_Tables_number   1
_chemical_formula_structural   ZnH26C28(NO3)2
_chemical_formula_sum   'Zn4 H104 C112 N8 O24'
_cell_volume   2809.04206120
_cell_formula_units_Z   4
loop_
 _symmetry_equiv_pos_site_id
 _symmetry_equiv_pos_as_xyz
  1  'x, y, z'
loop_
 _atom_site_type_symbol
 _atom_site_label
 _atom_site_symmetry_multiplicity
 _atom_site_fract_x
 _atom_site_fract_y
 _atom_site_fract_z
 _atom_site_occupancy
  Zn  Zn0  1  0.49929000  0.79794000  0.87978000  1.0
  Zn  Zn1  1  0.00071000  0.29794000  0.62022000  1.0
  Zn  Zn2  1  0.50071000  0.20206000  0.12022000  1.0
  Zn  Zn3  1  0.99929000  0.70206000  0.37978000  1.0
  H  H4  1  0.42310000  0.70755000  0.73919000  1.0
  H  H5  1  0.07690000  0.20755000  0.76081000  1.0
  H  H6  1  0.57690000  0.29245000  0.26081000  1.0
  H  H7  1  0.92310000  0.79245000  0.23919000  1.0
  H  H8  1  0.52973000  0.59602000  0.67984000  1.0
  H  H9  1  0.97027000  0.09602000  0.82016000  1.0
  H  H10  1  0.47026000  0.40398000  0.32016000  1.0
  H  H11  1  0.02973000  0.90398000  0.17984000  1.0
  H  H12  1  0.86570000  0.45893000  0.84033000  1.0
  H  H13  1  0.63430000  0.95893000  0.65967000  1.0
  H  H14  1  0.13430000  0.54107000  0.15967000  1.0
  H  H15  1  0.36570000  0.04107000  0.34033000  1.0
  H  H16  1  0.75854000  0.69711000  0.92213000  1.0
  H  H17  1  0.74146000  0.19711000  0.57787000  1.0
  H  H18  1  0.24146000  0.30289000  0.07787000  1.0
  H  H19  1  0.25854000  0.80289000  0.42213000  1.0
  H  H20  1  0.88359000  0.58716000  0.86972000  1.0
  H  H21  1  0.61641000  0.08716000  0.63028000  1.0
  H  H22  1  0.11641000  0.41284000  0.13028000  1.0
  H  H23  1  0.38359000  0.91284000  0.36972000  1.0
  H  H24  1  0.62698000  0.70516000  0.13067000  1.0
  H  H25  1  0.87302000  0.20516000  0.36933000  1.0
  H  H26  1  0.37301000  0.29484000  0.86933000  1.0
  H  H27  1  0.12699000  0.79484000  0.63067000  1.0
  H  H28  1  0.72670000  0.55427000  0.62109000  1.0
  H  H29  1  0.77330000  0.05427000  0.87891000  1.0
  H  H30  1  0.27329000  0.44572000  0.37890000  1.0
  H  H31  1  0.22670000  0.94573000  0.12109000  1.0
  H  H32  1  0.73358000  0.62602000  0.07449000  1.0
  H  H33  1  0.76643000  0.12602000  0.42551000  1.0
  H  H34  1  0.26642000  0.37398000  0.92551000  1.0
  H  H35  1  0.23358000  0.87398000  0.57449000  1.0
  H  H36  1  0.07231000  0.80293000  0.08141000  1.0
  H  H37  1  0.42769000  0.30292000  0.41858000  1.0
  H  H38  1  0.92769000  0.19707000  0.91859000  1.0
  H  H39  1  0.57231000  0.69707000  0.58142000  1.0
  H  H40  1  0.83802000  0.82028000  0.81636000  1.0
  H  H41  1  0.66198000  0.32028000  0.68363000  1.0
  H  H42  1  0.16197000  0.17972000  0.18364000  1.0
  H  H43  1  0.33802000  0.67972000  0.31636000  1.0
  H  H44  1  0.98781000  0.78365000  0.88253000  1.0
  H  H45  1  0.51219000  0.28365000  0.61747000  1.0
  H  H46  1  0.01219000  0.21635000  0.11747000  1.0
  H  H47  1  0.48781000  0.71635000  0.38253000  1.0
  H  H48  1  0.96175000  0.74926000  0.78891000  1.0
  H  H49  1  0.53825000  0.24926000  0.71109000  1.0
  H  H50  1  0.03825000  0.25074000  0.21109000  1.0
  H  H51  1  0.46175000  0.75074000  0.28891000  1.0
  H  H52  1  0.35465000  0.07765000  0.73022000  1.0
  H  H53  1  0.14536000  0.57765000  0.76978000  1.0
  H  H54  1  0.64535000  0.92235000  0.26978000  1.0
  H  H55  1  0.85464000  0.42235000  0.23022000  1.0
  H  H56  1  0.05720000  0.91195000  0.83942000  1.0
  H  H57  1  0.44280000  0.41195000  0.66058000  1.0
  H  H58  1  0.94280000  0.08805000  0.16058000  1.0
  H  H59  1  0.55720000  0.58805000  0.33942000  1.0
  H  H60  1  0.24738000  0.71097000  0.03109000  1.0
  H  H61  1  0.25262000  0.21097000  0.46891000  1.0
  H  H62  1  0.75262000  0.28903000  0.96891000  1.0
  H  H63  1  0.74738000  0.78903000  0.53109000  1.0
  H  H64  1  0.25576000  0.96680000  0.79048000  1.0
  H  H65  1  0.24424000  0.46680000  0.70952000  1.0
  H  H66  1  0.74424000  0.03320000  0.20952000  1.0
  H  H67  1  0.75576000  0.53320000  0.29048000  1.0
  H  H68  1  0.16470000  0.57792000  0.00300000  1.0
  H  H69  1  0.33530000  0.07792000  0.49700000  1.0
  H  H70  1  0.83530000  0.42208000  0.99700000  1.0
  H  H71  1  0.66470000  0.92208000  0.50300000  1.0
  H  H72  1  0.91169000  0.93660000  0.60020000  1.0
  H  H73  1  0.58831000  0.43659000  0.89980000  1.0
  H  H74  1  0.08831000  0.06340000  0.39980000  1.0
  H  H75  1  0.41169000  0.56341000  0.10020000  1.0
  H  H76  1  0.90585000  0.53630000  0.02598000  1.0
  H  H77  1  0.59416000  0.03630000  0.47402000  1.0
  H  H78  1  0.09415000  0.46370000  0.97403000  1.0
  H  H79  1  0.40585000  0.96370000  0.52598000  1.0
  H  H80  1  0.62037000  0.82199000  0.20268000  1.0
  H  H81  1  0.87963000  0.32199000  0.29732000  1.0
  H  H82  1  0.37963000  0.17801000  0.79732000  1.0
  H  H83  1  0.12037000  0.67801000  0.70268000  1.0
  H  H84  1  0.45153000  0.81511000  0.13740000  1.0
  H  H85  1  0.04847000  0.31511000  0.36260000  1.0
  H  H86  1  0.54847000  0.18489000  0.86260000  1.0
  H  H87  1  0.95153000  0.68489000  0.63741000  1.0
  H  H88  1  0.59855000  0.87907000  0.11963000  1.0
  H  H89  1  0.90145000  0.37907000  0.38037000  1.0
  H  H90  1  0.40145000  0.12093000  0.88037000  1.0
  H  H91  1  0.09855000  0.62093000  0.61963000  1.0
  H  H92  1  0.00696000  0.05367000  0.54188000  1.0
  H  H93  1  0.49305000  0.55367000  0.95812000  1.0
  H  H94  1  0.99304000  0.94633000  0.45812000  1.0
  H  H95  1  0.50695000  0.44633000  0.04188000  1.0
  H  H96  1  0.22786000  0.12424000  0.60659000  1.0
  H  H97  1  0.27215000  0.62424000  0.89341000  1.0
  H  H98  1  0.77214000  0.87576000  0.39341000  1.0
  H  H99  1  0.72785000  0.37576000  0.10659000  1.0
  H  H100  1  0.98041000  0.35147000  0.77908000  1.0
  H  H101  1  0.51959000  0.85147000  0.72092000  1.0
  H  H102  1  0.01959000  0.64853000  0.22092000  1.0
  H  H103  1  0.48041000  0.14853000  0.27908000  1.0
  H  H104  1  0.83705000  0.43835000  0.56861000  1.0
  H  H105  1  0.66296000  0.93835000  0.93139000  1.0
  H  H106  1  0.16295000  0.56165000  0.43139000  1.0
  H  H107  1  0.33705000  0.06165000  0.06861000  1.0
  C  C108  1  0.78582000  0.51644000  0.73573000  1.0
  C  C109  1  0.71418000  0.01644000  0.76427000  1.0
  C  C110  1  0.21418000  0.48356000  0.26427000  1.0
  C  C111  1  0.28582000  0.98356000  0.23573000  1.0
  C  C112  1  0.71783000  0.58213000  0.76930000  1.0
  C  C113  1  0.78217000  0.08213000  0.73070000  1.0
  C  C114  1  0.28216000  0.41787000  0.23070000  1.0
  C  C115  1  0.21783000  0.91787000  0.26930000  1.0
  C  C116  1  0.57504000  0.75681000  0.02154000  1.0
  C  C117  1  0.92496000  0.25681000  0.47846000  1.0
  C  C118  1  0.42496000  0.24319000  0.97846000  1.0
  C  C119  1  0.07504000  0.74319000  0.52154000  1.0
  C  C120  1  0.52484000  0.67882000  0.76574000  1.0
  C  C121  1  0.97516000  0.17882000  0.73426000  1.0
  C  C122  1  0.47516000  0.32118000  0.23426000  1.0
  C  C123  1  0.02484000  0.82118000  0.26574000  1.0
  C  C124  1  0.58698000  0.61720000  0.73283000  1.0
  C  C125  1  0.91302000  0.11720000  0.76717000  1.0
  C  C126  1  0.41302000  0.38280000  0.26717000  1.0
  C  C127  1  0.08698000  0.88280000  0.23283000  1.0
  C  C128  1  0.89276000  0.72098000  0.08179000  1.0
  C  C129  1  0.60724000  0.22098000  0.41821000  1.0
  C  C130  1  0.10724000  0.27902000  0.91821000  1.0
  C  C131  1  0.39277000  0.77902000  0.58179000  1.0
  C  C132  1  0.85878000  0.45821000  0.77998000  1.0
  C  C133  1  0.64122000  0.95821000  0.72002000  1.0
  C  C134  1  0.14122000  0.54179000  0.22002000  1.0
  C  C135  1  0.35878000  0.04179000  0.27998000  1.0
  C  C136  1  0.71255000  0.67298000  0.86834000  1.0
  C  C137  1  0.78745000  0.17298000  0.63166000  1.0
  C  C138  1  0.28745000  0.32702000  0.13166000  1.0
  C  C139  1  0.21254000  0.82702000  0.36834000  1.0
  C  C140  1  0.78102000  0.61129000  0.83879000  1.0
  C  C141  1  0.71898000  0.11130000  0.66121000  1.0
  C  C142  1  0.21898000  0.38870000  0.16121000  1.0
  C  C143  1  0.28101000  0.88871000  0.33879000  1.0
  C  C144  1  0.22296000  0.83036000  0.81422000  1.0
  C  C145  1  0.27704000  0.33035000  0.68579000  1.0
  C  C146  1  0.77704000  0.16965000  0.18578000  1.0
  C  C147  1  0.72296000  0.66965000  0.31421000  1.0
  C  C148  1  0.64553000  0.75959000  0.10355000  1.0
  C  C149  1  0.85447000  0.25959000  0.39645000  1.0
  C  C150  1  0.35447000  0.24041000  0.89645000  1.0
  C  C151  1  0.14553000  0.74041000  0.60355000  1.0
  C  C152  1  0.77895000  0.50989000  0.65819000  1.0
  C  C153  1  0.72105000  0.00989000  0.84181000  1.0
  C  C154  1  0.22105000  0.49011000  0.34181000  1.0
  C  C155  1  0.27895000  0.99011000  0.15819000  1.0
  C  C156  1  0.84536000  0.64563000  0.06564000  1.0
  C  C157  1  0.65464000  0.14563000  0.43436000  1.0
  C  C158  1  0.15464000  0.35437000  0.93436000  1.0
  C  C159  1  0.34536000  0.85437000  0.56564000  1.0
  C  C160  1  0.03813000  0.74397000  0.06958000  1.0
  C  C161  1  0.46187000  0.24396000  0.43042000  1.0
  C  C162  1  0.96187000  0.25603000  0.93042000  1.0
  C  C163  1  0.53813000  0.75603000  0.56958000  1.0
  C  C164  1  0.95501000  0.79980000  0.82406000  1.0
  C  C165  1  0.54499000  0.29980000  0.67594000  1.0
  C  C166  1  0.04499000  0.20020000  0.17594000  1.0
  C  C167  1  0.45501000  0.70020000  0.32406000  1.0
  C  C168  1  0.07513000  0.94492000  0.69901000  1.0
  C  C169  1  0.42487000  0.44492000  0.80099000  1.0
  C  C170  1  0.92487000  0.05508000  0.30099000  1.0
  C  C171  1  0.57513000  0.55508000  0.19901000  1.0
  C  C172  1  0.25660000  0.04763000  0.70131000  1.0
  C  C173  1  0.24340000  0.54763000  0.79869000  1.0
  C  C174  1  0.74340000  0.95237000  0.29869000  1.0
  C  C175  1  0.75659000  0.45237000  0.20130000  1.0
  C  C176  1  0.06090000  0.86164000  0.80313000  1.0
  C  C177  1  0.43910000  0.36164000  0.69687000  1.0
  C  C178  1  0.93910000  0.13836000  0.19687000  1.0
  C  C179  1  0.56090000  0.63836000  0.30313000  1.0
  C  C180  1  0.13529000  0.69276000  0.04156000  1.0
  C  C181  1  0.36471000  0.19275000  0.45843000  1.0
  C  C182  1  0.86471000  0.30724000  0.95844000  1.0
  C  C183  1  0.63529000  0.80724000  0.54156000  1.0
  C  C184  1  0.20055000  0.98443000  0.73578000  1.0
  C  C185  1  0.29945000  0.48443000  0.76422000  1.0
  C  C186  1  0.79945000  0.01557000  0.26422000  1.0
  C  C187  1  0.70055000  0.51557000  0.23578000  1.0
  C  C188  1  0.08846000  0.61755000  0.02547000  1.0
  C  C189  1  0.41154000  0.11755000  0.47453000  1.0
  C  C190  1  0.91154000  0.38245000  0.97453000  1.0
  C  C191  1  0.58846000  0.88245000  0.52547000  1.0
  C  C192  1  0.00767000  0.96898000  0.62817000  1.0
  C  C193  1  0.49233000  0.46898000  0.87183000  1.0
  C  C194  1  0.99233000  0.03102000  0.37183000  1.0
  C  C195  1  0.50767000  0.53102000  0.12817000  1.0
  C  C196  1  0.94422000  0.59468000  0.03781000  1.0
  C  C197  1  0.55578000  0.09468000  0.46219000  1.0
  C  C198  1  0.05578000  0.40532000  0.96219000  1.0
  C  C199  1  0.44422000  0.90532000  0.53781000  1.0
  C  C200  1  0.57468000  0.82349000  0.14338000  1.0
  C  C201  1  0.92532000  0.32349000  0.35662000  1.0
  C  C202  1  0.42532000  0.17651000  0.85662000  1.0
  C  C203  1  0.07468000  0.67651000  0.64338000  1.0
  C  C204  1  0.06267000  0.03328000  0.59562000  1.0
  C  C205  1  0.43733000  0.53328000  0.90438000  1.0
  C  C206  1  0.93733000  0.96672000  0.40438000  1.0
  C  C207  1  0.56266000  0.46672000  0.09562000  1.0
  C  C208  1  0.18772000  0.07317000  0.63197000  1.0
  C  C209  1  0.31228000  0.57317000  0.86803000  1.0
  C  C210  1  0.81227000  0.92683000  0.36803000  1.0
  C  C211  1  0.68772000  0.42683000  0.13197000  1.0
  C  C212  1  0.92090000  0.39706000  0.74622000  1.0
  C  C213  1  0.57910000  0.89706000  0.75378000  1.0
  C  C214  1  0.07910000  0.60294000  0.25378000  1.0
  C  C215  1  0.42090000  0.10294000  0.24622000  1.0
  C  C216  1  0.84206000  0.44656000  0.62850000  1.0
  C  C217  1  0.65794000  0.94656000  0.87150000  1.0
  C  C218  1  0.15794000  0.55344000  0.37150000  1.0
  C  C219  1  0.34206000  0.05344000  0.12850000  1.0
  N  N220  1  0.58703000  0.70641000  0.83235000  1.0
  N  N221  1  0.91297000  0.20641000  0.66765000  1.0
  N  N222  1  0.41297000  0.29359000  0.16765000  1.0
  N  N223  1  0.08703000  0.79359000  0.33235000  1.0
  N  N224  1  0.91194000  0.39098000  0.67176000  1.0
  N  N225  1  0.58806000  0.89098000  0.82824000  1.0
  N  N226  1  0.08806000  0.60902000  0.32824000  1.0
  N  N227  1  0.41194000  0.10902000  0.17176000  1.0
  O  O228  1  0.62231000  0.80874000  0.97934000  1.0
  O  O229  1  0.87769000  0.30874000  0.52066000  1.0
  O  O230  1  0.37769000  0.19126000  0.02066000  1.0
  O  O231  1  0.12231000  0.69126000  0.47934000  1.0
  O  O232  1  0.28016000  0.80316000  0.76097000  1.0
  O  O233  1  0.21985000  0.30316000  0.73903000  1.0
  O  O234  1  0.71984000  0.19685000  0.23903000  1.0
  O  O235  1  0.78016000  0.69684000  0.26097000  1.0
  O  O236  1  0.28952000  0.83339000  0.88227000  1.0
  O  O237  1  0.21049000  0.33339000  0.61773000  1.0
  O  O238  1  0.71048000  0.16661000  0.11773000  1.0
  O  O239  1  0.78952000  0.66666667  0.38227000  1.0
  O  O240  1  0.00914000  0.88287000  0.72753000  1.0
  O  O241  1  0.49086000  0.38287000  0.77247000  1.0
  O  O242  1  0.99086000  0.11713000  0.27248000  1.0
  O  O243  1  0.50914000  0.61714000  0.22753000  1.0
  O  O244  1  0.80580000  0.77530000  0.10966000  1.0
  O  O245  1  0.69420000  0.27530000  0.39034000  1.0
  O  O246  1  0.19420000  0.22470000  0.89034000  1.0
  O  O247  1  0.30580000  0.72470000  0.60966000  1.0
  O  O248  1  0.47620000  0.70816000  0.99979000  1.0
  O  O249  1  0.02380000  0.20816000  0.50021000  1.0
  O  O250  1  0.52380000  0.29184000  0.00021000  1.0
  O  O251  1  0.97620000  0.79184000  0.49979000  1.0
