# generated using pymatgen
data_ZnH20C35(NO3)2
_symmetry_space_group_name_H-M   'P 1'
_cell_length_a   16.48910000
_cell_length_b   17.87540000
_cell_length_c   28.05330000
_cell_angle_alpha   89.91990000
_cell_angle_beta   90.14860000
_cell_angle_gamma   89.90950000
_symmetry_Int_Tables_number   1
_chemical_formula_structural   ZnH20C35(NO3)2
_chemical_formula_sum   'Zn2 H40 C70 N4 O12'
_cell_volume   8268.64311107
_cell_formula_units_Z   2
loop_
 _symmetry_equiv_pos_site_id
 _symmetry_equiv_pos_as_xyz
  1  'x, y, z'
loop_
 _atom_site_type_symbol
 _atom_site_label
 _atom_site_symmetry_multiplicity
 _atom_site_fract_x
 _atom_site_fract_y
 _atom_site_fract_z
 _atom_site_occupancy
  Zn  Zn0  1  0.41609000  0.49972000  0.49992000  1.0
  Zn  Zn1  1  0.58398000  0.50014000  0.49933000  1.0
  H  H2  1  0.64602000  0.36962000  0.12217000  1.0
  H  H3  1  0.37584000  0.65166000  0.87720000  1.0
  H  H4  1  0.41124000  0.42058000  0.65089000  1.0
  H  H5  1  0.58542000  0.58319000  0.34913000  1.0
  H  H6  1  0.41281000  0.41750000  0.74038000  1.0
  H  H7  1  0.58352000  0.58763000  0.25965000  1.0
  H  H8  1  0.62152000  0.35171000  0.87725000  1.0
  H  H9  1  0.35739000  0.63501000  0.12267000  1.0
  H  H10  1  0.62532000  0.35131000  0.96548000  1.0
  H  H11  1  0.35731000  0.63893000  0.03447000  1.0
  H  H12  1  0.64574000  0.36728000  0.03392000  1.0
  H  H13  1  0.37262000  0.65173000  0.96540000  1.0
  H  H14  1  0.36902000  0.87851000  0.51561000  1.0
  H  H15  1  0.63088000  0.12207000  0.52020000  1.0
  H  H16  1  0.36953000  0.12179000  0.51612000  1.0
  H  H17  1  0.63015000  0.87730000  0.52298000  1.0
  H  H18  1  0.36990000  0.73908000  0.50608000  1.0
  H  H19  1  0.63020000  0.26152000  0.51029000  1.0
  H  H20  1  0.37027000  0.26125000  0.50633000  1.0
  H  H21  1  0.62966000  0.73793000  0.51311000  1.0
  H  H22  1  0.13483000  0.41251000  0.44668000  1.0
  H  H23  1  0.86473000  0.58834000  0.55267000  1.0
  H  H24  1  0.13562000  0.58742000  0.55335000  1.0
  H  H25  1  0.86503000  0.41143000  0.44735000  1.0
  H  H26  1  0.28739000  0.41666000  0.44872000  1.0
  H  H27  1  0.71218000  0.58405000  0.55018000  1.0
  H  H28  1  0.28818000  0.58321000  0.55078000  1.0
  H  H29  1  0.71249000  0.41555000  0.44942000  1.0
  H  H30  1  0.41388000  0.32663000  0.33630000  1.0
  H  H31  1  0.41846000  0.37757000  0.39074000  1.0
  H  H32  1  0.33745000  0.39247000  0.35020000  1.0
  H  H33  1  0.59325000  0.67148000  0.66326000  1.0
  H  H34  1  0.66575000  0.60293000  0.64741000  1.0
  H  H35  1  0.58359000  0.62209000  0.60849000  1.0
  H  H36  1  0.33527000  0.39156000  0.26230000  1.0
  H  H37  1  0.39825000  0.40186000  0.21159000  1.0
  H  H38  1  0.41977000  0.33178000  0.25458000  1.0
  H  H39  1  0.60916000  0.59448000  0.78704000  1.0
  H  H40  1  0.66930000  0.60530000  0.73520000  1.0
  H  H41  1  0.58683000  0.66658000  0.74559000  1.0
  C  C42  1  0.49999000  0.35263000  0.50196000  1.0
  C  C43  1  0.50017000  0.64721000  0.50327000  1.0
  C  C44  1  0.50007000  0.49630000  0.40636000  1.0
  C  C45  1  0.49981000  0.50381000  0.59315000  1.0
  C  C46  1  0.55396000  0.45070000  0.17964000  1.0
  C  C47  1  0.45395000  0.55860000  0.81986000  1.0
  C  C48  1  0.44654000  0.54984000  0.17991000  1.0
  C  C49  1  0.54587000  0.44699000  0.81983000  1.0
  C  C50  1  0.54692000  0.54727000  0.27920000  1.0
  C  C51  1  0.45108000  0.45627000  0.72063000  1.0
  C  C52  1  0.54775000  0.54484000  0.32862000  1.0
  C  C53  1  0.45038000  0.45796000  0.67119000  1.0
  C  C54  1  0.45123000  0.44131000  0.32777000  1.0
  C  C55  1  0.55082000  0.55827000  0.67142000  1.0
  C  C56  1  0.45029000  0.44366000  0.27740000  1.0
  C  C57  1  0.55220000  0.55617000  0.72179000  1.0
  C  C58  1  0.49838000  0.49697000  0.25428000  1.0
  C  C59  1  0.50181000  0.50508000  0.74527000  1.0
  C  C60  1  0.50108000  0.50198000  0.10177000  1.0
  C  C61  1  0.49925000  0.50200000  0.89787000  1.0
  C  C62  1  0.55356000  0.45298000  0.12693000  1.0
  C  C63  1  0.45397000  0.55659000  0.87258000  1.0
  C  C64  1  0.60531000  0.40592000  0.10197000  1.0
  C  C65  1  0.40957000  0.60978000  0.89747000  1.0
  C  C66  1  0.44873000  0.55049000  0.12716000  1.0
  C  C67  1  0.54430000  0.44747000  0.87258000  1.0
  C  C68  1  0.49939000  0.49297000  0.35291000  1.0
  C  C69  1  0.50065000  0.50786000  0.64657000  1.0
  C  C70  1  0.54807000  0.44821000  0.97374000  1.0
  C  C71  1  0.44928000  0.55369000  0.02593000  1.0
  C  C72  1  0.45166000  0.55598000  0.97379000  1.0
  C  C73  1  0.55200000  0.45101000  0.02580000  1.0
  C  C74  1  0.49964000  0.50207000  0.94888000  1.0
  C  C75  1  0.50079000  0.50226000  0.05076000  1.0
  C  C76  1  0.59014000  0.39437000  0.94726000  1.0
  C  C77  1  0.39830000  0.60033000  0.05256000  1.0
  C  C78  1  0.58829000  0.39376000  0.89748000  1.0
  C  C79  1  0.39765000  0.59868000  0.10235000  1.0
  C  C80  1  0.60430000  0.40500000  0.05220000  1.0
  C  C81  1  0.40827000  0.60912000  0.94725000  1.0
  C  C82  1  0.42588000  0.84734000  0.51530000  1.0
  C  C83  1  0.57400000  0.15286000  0.51708000  1.0
  C  C84  1  0.42641000  0.15271000  0.51478000  1.0
  C  C85  1  0.57335000  0.84668000  0.51943000  1.0
  C  C86  1  0.42632000  0.77015000  0.50999000  1.0
  C  C87  1  0.57370000  0.23004000  0.51147000  1.0
  C  C88  1  0.42677000  0.22987000  0.50924000  1.0
  C  C89  1  0.57311000  0.76952000  0.51399000  1.0
  C  C90  1  0.49980000  0.73052000  0.50907000  1.0
  C  C91  1  0.50025000  0.26926000  0.50738000  1.0
  C  C92  1  0.49958000  0.88693000  0.51977000  1.0
  C  C93  1  0.50022000  0.11290000  0.51853000  1.0
  C  C94  1  0.49972000  0.96580000  0.52259000  1.0
  C  C95  1  0.50011000  0.03410000  0.52213000  1.0
  C  C96  1  0.16653000  0.45116000  0.47016000  1.0
  C  C97  1  0.83328000  0.54924000  0.52938000  1.0
  C  C98  1  0.16695000  0.54882000  0.52971000  1.0
  C  C99  1  0.83346000  0.45047000  0.47059000  1.0
  C  C100  1  0.25063000  0.45313000  0.47113000  1.0
  C  C101  1  0.74919000  0.54721000  0.52816000  1.0
  C  C102  1  0.25105000  0.54687000  0.52844000  1.0
  C  C103  1  0.74935000  0.45239000  0.47158000  1.0
  C  C104  1  0.12279000  0.50001000  0.50001000  1.0
  C  C105  1  0.87732000  0.49988000  0.50003000  1.0
  C  C106  1  0.03702000  0.50002000  0.50011000  1.0
  C  C107  1  0.96310000  0.49996000  0.50011000  1.0
  C  C108  1  0.40314000  0.38148000  0.35285000  1.0
  C  C109  1  0.60056000  0.61665000  0.64607000  1.0
  C  C110  1  0.39844000  0.38969000  0.24986000  1.0
  C  C111  1  0.60699000  0.60808000  0.74898000  1.0
  N  N112  1  0.49999000  0.49973000  0.20277000  1.0
  N  N113  1  0.50022000  0.50315000  0.79679000  1.0
  N  N114  1  0.29192000  0.50001000  0.49969000  1.0
  N  N115  1  0.70818000  0.49980000  0.49981000  1.0
  O  O116  1  0.43091000  0.38472000  0.49983000  1.0
  O  O117  1  0.56927000  0.61521000  0.50127000  1.0
  O  O118  1  0.43159000  0.61456000  0.50118000  1.0
  O  O119  1  0.56860000  0.38526000  0.50015000  1.0
  O  O120  1  0.43161000  0.49737000  0.42725000  1.0
  O  O121  1  0.56822000  0.50247000  0.57220000  1.0
  O  O122  1  0.43066000  0.50030000  0.57294000  1.0
  O  O123  1  0.56920000  0.49956000  0.42661000  1.0
  O  O124  1  0.59787000  0.40819000  0.20271000  1.0
  O  O125  1  0.41653000  0.60600000  0.79671000  1.0
  O  O126  1  0.58518000  0.40117000  0.79669000  1.0
  O  O127  1  0.40054000  0.58977000  0.20322000  1.0
