# generated using pymatgen
data_BaH14C4N8O5
_symmetry_space_group_name_H-M   'P 1'
_cell_length_a   7.39322000
_cell_length_b   11.50630000
_cell_length_c   14.16730000
_cell_angle_alpha   90.00010000
_cell_angle_beta   90.00010000
_cell_angle_gamma   90.00000000
_symmetry_Int_Tables_number   1
_chemical_formula_structural   BaH14C4N8O5
_chemical_formula_sum   'Ba4 H56 C16 N32 O20'
_cell_volume   1205.19248000
_cell_formula_units_Z   4
loop_
 _symmetry_equiv_pos_site_id
 _symmetry_equiv_pos_as_xyz
  1  'x, y, z'
loop_
 _atom_site_type_symbol
 _atom_site_label
 _atom_site_symmetry_multiplicity
 _atom_site_fract_x
 _atom_site_fract_y
 _atom_site_fract_z
 _atom_site_occupancy
  Ba  Ba0  1  0.00000000  0.08291000  0.64083000  1.0
  Ba  Ba1  1  0.00000000  0.91709000  0.35917000  1.0
  Ba  Ba2  1  0.50001000  0.41709000  0.14083000  1.0
  Ba  Ba3  1  0.50000000  0.58291000  0.85917000  1.0
  H  H4  1  0.34569000  0.91608000  0.72750000  1.0
  H  H5  1  0.34569000  0.08392000  0.27250000  1.0
  H  H6  1  0.15431000  0.58392000  0.22750000  1.0
  H  H7  1  0.15431000  0.41608000  0.77250000  1.0
  H  H8  1  0.65431000  0.08392000  0.27250000  1.0
  H  H9  1  0.65431000  0.91608000  0.72750000  1.0
  H  H10  1  0.84569000  0.41608000  0.77250000  1.0
  H  H11  1  0.84569000  0.58392000  0.22750000  1.0
  H  H12  1  0.35755000  0.03503000  0.78193000  1.0
  H  H13  1  0.35755000  0.96497000  0.21807000  1.0
  H  H14  1  0.14244000  0.46497000  0.28193000  1.0
  H  H15  1  0.14245000  0.53503000  0.71807000  1.0
  H  H16  1  0.64245000  0.96497000  0.21807000  1.0
  H  H17  1  0.64245000  0.03503000  0.78193000  1.0
  H  H18  1  0.85756000  0.53503000  0.71807000  1.0
  H  H19  1  0.85755000  0.46497000  0.28193000  1.0
  H  H20  1  0.11739000  0.97290000  0.91180000  1.0
  H  H21  1  0.11739000  0.02710000  0.08820000  1.0
  H  H22  1  0.38261000  0.52710000  0.41180000  1.0
  H  H23  1  0.38261000  0.47290000  0.58820000  1.0
  H  H24  1  0.88261000  0.02710000  0.08820000  1.0
  H  H25  1  0.88261000  0.97290000  0.91179000  1.0
  H  H26  1  0.61739000  0.47290000  0.58820000  1.0
  H  H27  1  0.61739000  0.52710000  0.41180000  1.0
  H  H28  1  0.11721000  0.42380000  0.56637000  1.0
  H  H29  1  0.11720000  0.57620000  0.43364000  1.0
  H  H30  1  0.38280000  0.07620000  0.06637000  1.0
  H  H31  1  0.38279000  0.92380000  0.93363000  1.0
  H  H32  1  0.88279000  0.57620000  0.43363000  1.0
  H  H33  1  0.88279000  0.42380000  0.56637000  1.0
  H  H34  1  0.61721000  0.92380000  0.93363000  1.0
  H  H35  1  0.61720000  0.07620000  0.06637000  1.0
  H  H36  1  0.34955000  0.25594000  0.70345000  1.0
  H  H37  1  0.34955000  0.74406000  0.29655000  1.0
  H  H38  1  0.15045000  0.24406000  0.20345000  1.0
  H  H39  1  0.15045000  0.75594000  0.79654000  1.0
  H  H40  1  0.65045000  0.74406000  0.29655000  1.0
  H  H41  1  0.65045000  0.25594000  0.70345000  1.0
  H  H42  1  0.84955000  0.75594000  0.79655000  1.0
  H  H43  1  0.84955000  0.24406000  0.20345000  1.0
  H  H44  1  0.35259000  0.25762000  0.59266000  1.0
  H  H45  1  0.35259000  0.74239000  0.40734000  1.0
  H  H46  1  0.14741000  0.24238000  0.09266000  1.0
  H  H47  1  0.14741000  0.75761000  0.90734000  1.0
  H  H48  1  0.64741000  0.74239000  0.40734000  1.0
  H  H49  1  0.64740000  0.25762000  0.59266000  1.0
  H  H50  1  0.85259000  0.75762000  0.90734000  1.0
  H  H51  1  0.85259000  0.24239000  0.09266000  1.0
  H  H52  1  0.66592000  0.06041000  0.47491000  1.0
  H  H53  1  0.66592000  0.93959000  0.52509000  1.0
  H  H54  1  0.83408000  0.43959000  0.97491000  1.0
  H  H55  1  0.83408000  0.56041000  0.02509000  1.0
  H  H56  1  0.33408000  0.93959000  0.52509000  1.0
  H  H57  1  0.33408000  0.06041000  0.47491000  1.0
  H  H58  1  0.16592000  0.56041000  0.02508000  1.0
  H  H59  1  0.16592000  0.43959000  0.97491000  1.0
  C  C60  1  0.00000000  0.13915000  0.92327000  1.0
  C  C61  1  0.00000000  0.86085000  0.07673000  1.0
  C  C62  1  0.50000000  0.36085000  0.42327000  1.0
  C  C63  1  0.50000000  0.63915000  0.57673000  1.0
  C  C64  1  0.00000000  0.01276000  0.94691000  1.0
  C  C65  1  0.00000000  0.98724000  0.05308000  1.0
  C  C66  1  0.50000000  0.48724000  0.44691000  1.0
  C  C67  1  0.50000000  0.51276000  0.55309000  1.0
  C  C68  1  0.00000000  0.43833000  0.51999000  1.0
  C  C69  1  0.00000000  0.56167000  0.48001000  1.0
  C  C70  1  0.50000000  0.06167000  0.01999000  1.0
  C  C71  1  0.50000000  0.93833000  0.98001000  1.0
  C  C72  1  0.00000000  0.34551000  0.44647000  1.0
  C  C73  1  0.00000000  0.65449000  0.55353000  1.0
  C  C74  1  0.50000000  0.15449000  0.94647000  1.0
  C  C75  1  0.50000000  0.84551000  0.05353000  1.0
  N  N76  1  0.00000000  0.18204000  0.83443000  1.0
  N  N77  1  0.00000000  0.81797000  0.16557000  1.0
  N  N78  1  0.50000000  0.31797000  0.33443000  1.0
  N  N79  1  0.50000000  0.68203000  0.66557000  1.0
  N  N80  1  0.00000000  0.29800000  0.84395000  1.0
  N  N81  1  0.00000000  0.70200000  0.15604000  1.0
  N  N82  1  0.50000000  0.20200000  0.34396000  1.0
  N  N83  1  0.50000000  0.79800000  0.65604000  1.0
  N  N84  1  0.00000000  0.32523000  0.93461000  1.0
  N  N85  1  0.00000000  0.67477000  0.06539000  1.0
  N  N86  1  0.50000000  0.17477000  0.43461000  1.0
  N  N87  1  0.50000000  0.82523000  0.56539000  1.0
  N  N88  1  0.00000000  0.22671000  0.98627000  1.0
  N  N89  1  0.00000000  0.77329000  0.01373000  1.0
  N  N90  1  0.50000000  0.27329000  0.48627000  1.0
  N  N91  1  0.50000000  0.72671000  0.51373000  1.0
  N  N92  1  0.00000000  0.23065000  0.46596000  1.0
  N  N93  1  0.00000000  0.76935000  0.53404000  1.0
  N  N94  1  0.50000000  0.26935000  0.96596000  1.0
  N  N95  1  0.50000000  0.73065000  0.03404000  1.0
  N  N96  1  0.00000000  0.17684000  0.38182000  1.0
  N  N97  1  0.00000000  0.82316000  0.61818000  1.0
  N  N98  1  0.50000000  0.32316000  0.88182000  1.0
  N  N99  1  0.50000000  0.67684000  0.11818000  1.0
  N  N100  1  0.00000000  0.25497000  0.31383000  1.0
  N  N101  1  0.00000000  0.74503000  0.68617000  1.0
  N  N102  1  0.50000000  0.24503000  0.81383000  1.0
  N  N103  1  0.50000000  0.75497000  0.18617000  1.0
  N  N104  1  0.00000000  0.36256000  0.35246000  1.0
  N  N105  1  0.00000000  0.63744000  0.64754000  1.0
  N  N106  1  0.50000000  0.13744000  0.85246000  1.0
  N  N107  1  0.50000000  0.86256000  0.14754000  1.0
  O  O108  1  0.27419000  0.98424000  0.74614000  1.0
  O  O109  1  0.27419000  0.01576000  0.25386000  1.0
  O  O110  1  0.22581000  0.51576000  0.24614000  1.0
  O  O111  1  0.22581000  0.48424000  0.75386000  1.0
  O  O112  1  0.72581000  0.01576000  0.25386000  1.0
  O  O113  1  0.72581000  0.98424000  0.74614000  1.0
  O  O114  1  0.77419000  0.48424000  0.75386000  1.0
  O  O115  1  0.77419000  0.51576000  0.24614000  1.0
  O  O116  1  0.74841000  0.00000000  0.50000000  1.0
  O  O117  1  0.75159000  0.50000000  0.00000000  1.0
  O  O118  1  0.25159000  0.00000000  0.50000000  1.0
  O  O119  1  0.24841000  0.50000000  0.00000000  1.0
  O  O120  1  0.27126000  0.24781000  0.64742000  1.0
  O  O121  1  0.27126000  0.75219000  0.35258000  1.0
  O  O122  1  0.22874000  0.25219000  0.14742000  1.0
  O  O123  1  0.22874000  0.74781000  0.85258000  1.0
  O  O124  1  0.72874000  0.75219000  0.35258000  1.0
  O  O125  1  0.72874000  0.24781000  0.64742000  1.0
  O  O126  1  0.77126000  0.74781000  0.85258000  1.0
  O  O127  1  0.77126000  0.25219000  0.14742000  1.0
