# generated using pymatgen
data_Cd3H18C14N10(Cl3O)2
_symmetry_space_group_name_H-M   'P 1'
_cell_length_a   8.24388000
_cell_length_b   8.40614000
_cell_length_c   10.65000000
_cell_angle_alpha   92.67990000
_cell_angle_beta   90.47580000
_cell_angle_gamma   106.46800000
_symmetry_Int_Tables_number   1
_chemical_formula_structural   Cd3H18C14N10(Cl3O)2
_chemical_formula_sum   'Cd3 H18 C14 N10 Cl6 O2'
_cell_volume   706.80788327
_cell_formula_units_Z   1
loop_
 _symmetry_equiv_pos_site_id
 _symmetry_equiv_pos_as_xyz
  1  'x, y, z'
loop_
 _atom_site_type_symbol
 _atom_site_label
 _atom_site_symmetry_multiplicity
 _atom_site_fract_x
 _atom_site_fract_y
 _atom_site_fract_z
 _atom_site_occupancy
  Cd  Cd0  1  0.50000000  0.50000000  0.50000000  1.0
  Cd  Cd1  1  0.43747000  0.46577000  0.16335000  1.0
  Cd  Cd2  1  0.56253000  0.53423000  0.83665000  1.0
  H  H3  1  0.20703000  0.97186000  0.38918000  1.0
  H  H4  1  0.79297000  0.02816000  0.61083000  1.0
  H  H5  1  0.38065000  0.07708000  0.58482000  1.0
  H  H6  1  0.61935000  0.92292000  0.41519000  1.0
  H  H7  1  0.06408000  0.71321000  0.79393000  1.0
  H  H8  1  0.93593000  0.28676000  0.20607000  1.0
  H  H9  1  0.87939000  0.59186000  0.60735000  1.0
  H  H10  1  0.12061000  0.40814000  0.39264000  1.0
  H  H11  1  0.44342000  0.06007000  0.78355000  1.0
  H  H12  1  0.55658000  0.93992000  0.21646000  1.0
  H  H13  1  0.35166000  0.87192000  0.86179000  1.0
  H  H14  1  0.64833000  0.12807000  0.13822000  1.0
  H  H15  1  0.25162000  0.03601000  0.86647000  1.0
  H  H16  1  0.74837000  0.96399000  0.13353000  1.0
  H  H17  1  0.18939000  0.17182000  0.09611000  1.0
  H  H18  1  0.81062000  0.82817000  0.90389000  1.0
  H  H19  1  0.16881000  0.28833000  0.98722000  1.0
  H  H20  1  0.83119000  0.71167000  0.01278000  1.0
  C  C21  1  0.91979000  0.71987000  0.36960000  1.0
  C  C22  1  0.08021000  0.28013000  0.63040000  1.0
  C  C23  1  0.02531000  0.77552000  0.48225000  1.0
  C  C24  1  0.97468000  0.22449000  0.51775000  1.0
  C  C25  1  0.17068000  0.91096000  0.47668000  1.0
  C  C26  1  0.82932000  0.08906000  0.52332000  1.0
  C  C27  1  0.26835000  0.97056000  0.58362000  1.0
  C  C28  1  0.73164000  0.02945000  0.41638000  1.0
  C  C29  1  0.09041000  0.76395000  0.70168000  1.0
  C  C30  1  0.90960000  0.23604000  0.29832000  1.0
  C  C31  1  0.98788000  0.70004000  0.59737000  1.0
  C  C32  1  0.01212000  0.29996000  0.40262000  1.0
  C  C33  1  0.32529000  0.97107000  0.80929000  1.0
  C  C34  1  0.67470000  0.02893000  0.19072000  1.0
  N  N35  1  0.76164000  0.61341000  0.36423000  1.0
  N  N36  1  0.23836000  0.38660000  0.63577000  1.0
  N  N37  1  0.71596000  0.60133000  0.24311000  1.0
  N  N38  1  0.28403000  0.39867000  0.75689000  1.0
  N  N39  1  0.83980000  0.69604000  0.17736000  1.0
  N  N40  1  0.16019000  0.30396000  0.82263000  1.0
  N  N41  1  0.96901000  0.77292000  0.25410000  1.0
  N  N42  1  0.03099000  0.22709000  0.74589000  1.0
  N  N43  1  0.22631000  0.89875000  0.69453000  1.0
  N  N44  1  0.77370000  0.10125000  0.30547000  1.0
  Cl  Cl45  1  0.35595000  0.65231000  0.34835000  1.0
  Cl  Cl46  1  0.64405000  0.34769000  0.65165000  1.0
  Cl  Cl47  1  0.41711000  0.24665000  0.33451000  1.0
  Cl  Cl48  1  0.58290000  0.75336000  0.66549000  1.0
  Cl  Cl49  1  0.41637000  0.68287000  0.00721000  1.0
  Cl  Cl50  1  0.58363000  0.31713000  0.99279000  1.0
  O  O51  1  0.17386000  0.28023000  0.08146000  1.0
  O  O52  1  0.82614000  0.71977000  0.91854000  1.0
