# generated using pymatgen
data_ZnH6C11NO4
_symmetry_space_group_name_H-M   'P 1'
_cell_length_a   10.63350000
_cell_length_b   11.91080000
_cell_length_c   16.03240000
_cell_angle_alpha   89.99990000
_cell_angle_beta   90.00030000
_cell_angle_gamma   89.99670000
_symmetry_Int_Tables_number   1
_chemical_formula_structural   ZnH6C11NO4
_chemical_formula_sum   'Zn2 H12 C22 N2 O8'
_cell_volume   2030.55943854
_cell_formula_units_Z   2
loop_
 _symmetry_equiv_pos_site_id
 _symmetry_equiv_pos_as_xyz
  1  'x, y, z'
loop_
 _atom_site_type_symbol
 _atom_site_label
 _atom_site_symmetry_multiplicity
 _atom_site_fract_x
 _atom_site_fract_y
 _atom_site_fract_z
 _atom_site_occupancy
  Zn  Zn0  1  0.62808000  0.50004000  0.50000000  1.0
  Zn  Zn1  1  0.37188000  0.50005000  0.50000000  1.0
  H  H2  1  0.61202000  0.65171000  0.92709000  1.0
  H  H3  1  0.70141000  0.52691000  0.07311000  1.0
  H  H4  1  0.29686000  0.51158000  0.92692000  1.0
  H  H5  1  0.70142000  0.52691000  0.92690000  1.0
  H  H6  1  0.37402000  0.64272000  0.92705000  1.0
  H  H7  1  0.61201000  0.65171000  0.07291000  1.0
  H  H8  1  0.37402000  0.64272000  0.07295000  1.0
  H  H9  1  0.59076000  0.33741000  0.07294000  1.0
  H  H10  1  0.42493000  0.33119000  0.07293000  1.0
  H  H11  1  0.59076000  0.33741000  0.92706000  1.0
  H  H12  1  0.42493000  0.33119000  0.92708000  1.0
  H  H13  1  0.29686000  0.51158000  0.07308000  1.0
  C  C14  1  0.49998000  0.71940000  0.50000000  1.0
  C  C15  1  0.50000000  0.49946000  0.33798000  1.0
  C  C16  1  0.50000000  0.49945000  0.66202000  1.0
  C  C17  1  0.49998000  0.94335000  0.50000000  1.0
  C  C18  1  0.49995000  0.84063000  0.50000000  1.0
  C  C19  1  0.06428000  0.50004000  0.50000000  1.0
  C  C20  1  0.93568000  0.50003000  0.50000000  1.0
  C  C21  1  0.49997000  0.28066000  0.50000000  1.0
  C  C22  1  0.61546000  0.56567000  0.04826000  1.0
  C  C23  1  0.37882000  0.55677000  0.04827000  1.0
  C  C24  1  0.61546000  0.56567000  0.95174000  1.0
  C  C25  1  0.50005000  0.49887000  0.75192000  1.0
  C  C26  1  0.37882000  0.55676000  0.95173000  1.0
  C  C27  1  0.49995000  0.05670000  0.50000000  1.0
  C  C28  1  0.49995000  0.15944000  0.50000000  1.0
  C  C29  1  0.50004000  0.49887000  0.24808000  1.0
  C  C30  1  0.50001000  0.50023000  0.08174000  1.0
  C  C31  1  0.50002000  0.50023000  0.91826000  1.0
  C  C32  1  0.50579000  0.37811000  0.95171000  1.0
  C  C33  1  0.50579000  0.37811000  0.04829000  1.0
  C  C34  1  0.50010000  0.49937000  0.82776000  1.0
  C  C35  1  0.50010000  0.49937000  0.17225000  1.0
  N  N36  1  0.17350000  0.50005000  0.50000000  1.0
  N  N37  1  0.82646000  0.50003000  0.50000000  1.0
  O  O38  1  0.60739000  0.67191000  0.50000000  1.0
  O  O39  1  0.39257000  0.67190000  0.50000000  1.0
  O  O40  1  0.60724000  0.49978000  0.37388000  1.0
  O  O41  1  0.39275000  0.49977000  0.37386000  1.0
  O  O42  1  0.60724000  0.49978000  0.62612000  1.0
  O  O43  1  0.39275000  0.49977000  0.62614000  1.0
  O  O44  1  0.60737000  0.32814000  0.50000000  1.0
  O  O45  1  0.39255000  0.32816000  0.50000000  1.0
