# generated using pymatgen
data_La2H10C14N4O15
_symmetry_space_group_name_H-M   'P 1'
_cell_length_a   11.10620000
_cell_length_b   12.19100000
_cell_length_c   19.61770000
_cell_angle_alpha   89.99960000
_cell_angle_beta   90.00020000
_cell_angle_gamma   89.99970000
_symmetry_Int_Tables_number   1
_chemical_formula_structural   La2H10C14N4O15
_chemical_formula_sum   'La8 H40 C56 N16 O60'
_cell_volume   2656.15191381
_cell_formula_units_Z   4
loop_
 _symmetry_equiv_pos_site_id
 _symmetry_equiv_pos_as_xyz
  1  'x, y, z'
loop_
 _atom_site_type_symbol
 _atom_site_label
 _atom_site_symmetry_multiplicity
 _atom_site_fract_x
 _atom_site_fract_y
 _atom_site_fract_z
 _atom_site_occupancy
  La  La0  1  0.36292000  0.16619000  0.88026000  1.0
  La  La1  1  0.63709000  0.83381000  0.38026000  1.0
  La  La2  1  0.86292000  0.33381000  0.38025000  1.0
  La  La3  1  0.13708000  0.66619000  0.88026000  1.0
  La  La4  1  0.88153000  0.98406000  0.65986000  1.0
  La  La5  1  0.11847000  0.01594000  0.15985000  1.0
  La  La6  1  0.38153000  0.51594000  0.15985000  1.0
  La  La7  1  0.61847000  0.48406000  0.65985000  1.0
  H  H8  1  0.14446000  0.01320000  0.77365000  1.0
  H  H9  1  0.85552000  0.98680000  0.27365000  1.0
  H  H10  1  0.64446000  0.48681000  0.27363000  1.0
  H  H11  1  0.35554000  0.51320000  0.77364000  1.0
  H  H12  1  0.28271000  0.27005000  0.60075000  1.0
  H  H13  1  0.71730000  0.72995000  0.10075000  1.0
  H  H14  1  0.78272000  0.22995000  0.10074000  1.0
  H  H15  1  0.21729000  0.77005000  0.60075000  1.0
  H  H16  1  0.63834000  0.11382000  0.77127000  1.0
  H  H17  1  0.36166000  0.88619000  0.27128000  1.0
  H  H18  1  0.13834000  0.38618000  0.27126000  1.0
  H  H19  1  0.86166000  0.61382000  0.77127000  1.0
  H  H20  1  0.48957000  0.73891000  0.77754000  1.0
  H  H21  1  0.51043000  0.26109000  0.27755000  1.0
  H  H22  1  0.98957000  0.76109000  0.27754000  1.0
  H  H23  1  0.01043000  0.23891000  0.77755000  1.0
  H  H24  1  0.62085000  0.11010000  0.92493000  1.0
  H  H25  1  0.37916000  0.88990000  0.42492000  1.0
  H  H26  1  0.12085000  0.38990000  0.42493000  1.0
  H  H27  1  0.87915000  0.61010000  0.92493000  1.0
  H  H28  1  0.59782000  0.23015000  0.94959000  1.0
  H  H29  1  0.40218000  0.76985000  0.44959000  1.0
  H  H30  1  0.09783000  0.26985000  0.44959000  1.0
  H  H31  1  0.90217000  0.73015000  0.94959000  1.0
  H  H32  1  0.41352000  0.36505000  0.98499000  1.0
  H  H33  1  0.58647000  0.63495000  0.48498000  1.0
  H  H34  1  0.91353000  0.13495000  0.48499000  1.0
  H  H35  1  0.08648000  0.86505000  0.98499000  1.0
  H  H36  1  0.33097000  0.40572000  0.92143000  1.0
  H  H37  1  0.66904000  0.59429000  0.42143000  1.0
  H  H38  1  0.83096000  0.09429000  0.42143000  1.0
  H  H39  1  0.16904000  0.90572000  0.92142000  1.0
  H  H40  1  0.96660000  0.88118000  0.79598000  1.0
  H  H41  1  0.03341000  0.11881000  0.29597000  1.0
  H  H42  1  0.46659000  0.61882000  0.29598000  1.0
  H  H43  1  0.53340000  0.38119000  0.79598000  1.0
  H  H44  1  0.90355000  0.98200000  0.83394000  1.0
  H  H45  1  0.09646000  0.01800000  0.33394000  1.0
  H  H46  1  0.40354000  0.51800000  0.33394000  1.0
  H  H47  1  0.59646000  0.48200000  0.83394000  1.0
  C  C48  1  0.17521000  0.07150000  0.73526000  1.0
  C  C49  1  0.82479000  0.92849000  0.23526000  1.0
  C  C50  1  0.67521000  0.42849000  0.23525000  1.0
  C  C51  1  0.32479000  0.57151000  0.73526000  1.0
  C  C52  1  0.14615000  0.15252000  0.63121000  1.0
  C  C53  1  0.85386000  0.84747000  0.13121000  1.0
  C  C54  1  0.64615000  0.34747000  0.13120000  1.0
  C  C55  1  0.35384000  0.65252000  0.63121000  1.0
  C  C56  1  0.25127000  0.21361000  0.63978000  1.0
  C  C57  1  0.74872000  0.78639000  0.13978000  1.0
  C  C58  1  0.75128000  0.28639000  0.13977000  1.0
  C  C59  1  0.24872000  0.71361000  0.63978000  1.0
  C  C60  1  0.31150000  0.20188000  0.70143000  1.0
  C  C61  1  0.68850000  0.79812000  0.20143000  1.0
  C  C62  1  0.81150000  0.29812000  0.20143000  1.0
  C  C63  1  0.18850000  0.70188000  0.70143000  1.0
  C  C64  1  0.41498000  0.27703000  0.72002000  1.0
  C  C65  1  0.58502000  0.72297000  0.22002000  1.0
  C  C66  1  0.91498000  0.22297000  0.22002000  1.0
  C  C67  1  0.08502000  0.77704000  0.72002000  1.0
  C  C68  1  0.07204000  0.16295000  0.56665000  1.0
  C  C69  1  0.92795000  0.83704000  0.06665000  1.0
  C  C70  1  0.57205000  0.33704000  0.06664000  1.0
  C  C71  1  0.42794000  0.66295000  0.56665000  1.0
  C  C72  1  0.60565000  0.02958000  0.77299000  1.0
  C  C73  1  0.39435000  0.97042000  0.27299000  1.0
  C  C74  1  0.10565000  0.47041000  0.27298000  1.0
  C  C75  1  0.89435000  0.52959000  0.77299000  1.0
  C  C76  1  0.62959000  0.84910000  0.74286000  1.0
  C  C77  1  0.37041000  0.15089000  0.24286000  1.0
  C  C78  1  0.12960000  0.65089000  0.24286000  1.0
  C  C79  1  0.87041000  0.34911000  0.74286000  1.0
  C  C80  1  0.52268000  0.82268000  0.77609000  1.0
  C  C81  1  0.47731000  0.17732000  0.27608000  1.0
  C  C82  1  0.02269000  0.67732000  0.27609000  1.0
  C  C83  1  0.97732000  0.32268000  0.77609000  1.0
  C  C84  1  0.46066000  0.90791000  0.80771000  1.0
  C  C85  1  0.53935000  0.09209000  0.30770000  1.0
  C  C86  1  0.96067000  0.59209000  0.30771000  1.0
  C  C87  1  0.03934000  0.40791000  0.80771000  1.0
  C  C88  1  0.34019000  0.88858000  0.84180000  1.0
  C  C89  1  0.65982000  0.11142000  0.34179000  1.0
  C  C90  1  0.84020000  0.61143000  0.34180000  1.0
  C  C91  1  0.15981000  0.38858000  0.84180000  1.0
  C  C92  1  0.70556000  0.76196000  0.70770000  1.0
  C  C93  1  0.29444000  0.23804000  0.20771000  1.0
  C  C94  1  0.20556000  0.73804000  0.20770000  1.0
  C  C95  1  0.79445000  0.26196000  0.70770000  1.0
  C  C96  1  0.82027000  0.88522000  0.50797000  1.0
  C  C97  1  0.17969000  0.11477000  0.00796000  1.0
  C  C98  1  0.32029000  0.61478000  0.00796000  1.0
  C  C99  1  0.67972000  0.38522000  0.50796000  1.0
  C  C100  1  0.69618000  0.93034000  0.53344000  1.0
  C  C101  1  0.30379000  0.06966000  0.03343000  1.0
  C  C102  1  0.19620000  0.56966000  0.03343000  1.0
  C  C103  1  0.80381000  0.43035000  0.53344000  1.0
  N  N104  1  0.27521000  0.12853000  0.74859000  1.0
  N  N105  1  0.72479000  0.87147000  0.24859000  1.0
  N  N106  1  0.77521000  0.37147000  0.24859000  1.0
  N  N107  1  0.22479000  0.62853000  0.74859000  1.0
  N  N108  1  0.10666000  0.08310000  0.67951000  1.0
  N  N109  1  0.89335000  0.91689000  0.17951000  1.0
  N  N110  1  0.60666000  0.41689000  0.17950000  1.0
  N  N111  1  0.39333000  0.58311000  0.67951000  1.0
  N  N112  1  0.50325000  0.01122000  0.80751000  1.0
  N  N113  1  0.49677000  0.98878000  0.30750000  1.0
  N  N114  1  0.00326000  0.48878000  0.30751000  1.0
  N  N115  1  0.99676000  0.51122000  0.80751000  1.0
  N  N116  1  0.67033000  0.95314000  0.74044000  1.0
  N  N117  1  0.32966000  0.04686000  0.24045000  1.0
  N  N118  1  0.17034000  0.54685000  0.24044000  1.0
  N  N119  1  0.82967000  0.45315000  0.74044000  1.0
  O  O120  1  0.45989000  0.26542000  0.77978000  1.0
  O  O121  1  0.54011000  0.73459000  0.27978000  1.0
  O  O122  1  0.95988000  0.23458000  0.27978000  1.0
  O  O123  1  0.04011000  0.76542000  0.77978000  1.0
  O  O124  1  0.44525000  0.34783000  0.67690000  1.0
  O  O125  1  0.55473000  0.65218000  0.17689000  1.0
  O  O126  1  0.94526000  0.15217000  0.17690000  1.0
  O  O127  1  0.05474000  0.84783000  0.67690000  1.0
  O  O128  1  0.96498000  0.12445000  0.56833000  1.0
  O  O129  1  0.03502000  0.87553000  0.06831000  1.0
  O  O130  1  0.46498000  0.37553000  0.06832000  1.0
  O  O131  1  0.53501000  0.62445000  0.56832000  1.0
  O  O132  1  0.12532000  0.20739000  0.51752000  1.0
  O  O133  1  0.87465000  0.79261000  0.01751000  1.0
  O  O134  1  0.62534000  0.29261000  0.01751000  1.0
  O  O135  1  0.37467000  0.70739000  0.51751000  1.0
  O  O136  1  0.29224000  0.96859000  0.87365000  1.0
  O  O137  1  0.70777000  0.03141000  0.37364000  1.0
  O  O138  1  0.79224000  0.53141000  0.37364000  1.0
  O  O139  1  0.20776000  0.46859000  0.87365000  1.0
  O  O140  1  0.29495000  0.79500000  0.83403000  1.0
  O  O141  1  0.70506000  0.20500000  0.33403000  1.0
  O  O142  1  0.79496000  0.70501000  0.33404000  1.0
  O  O143  1  0.20504000  0.29500000  0.83404000  1.0
  O  O144  1  0.80129000  0.79327000  0.67949000  1.0
  O  O145  1  0.19871000  0.20672000  0.17949000  1.0
  O  O146  1  0.30129000  0.70672000  0.17949000  1.0
  O  O147  1  0.69871000  0.29329000  0.67949000  1.0
  O  O148  1  0.66666667  0.66411000  0.71095000  1.0
  O  O149  1  0.33333333  0.33589000  0.21095000  1.0
  O  O150  1  0.16666000  0.83589000  0.21095000  1.0
  O  O151  1  0.83335000  0.16411000  0.71094000  1.0
  O  O152  1  0.90837000  0.89467000  0.54823000  1.0
  O  O153  1  0.09160000  0.10530000  0.04822000  1.0
  O  O154  1  0.40838000  0.60531000  0.04822000  1.0
  O  O155  1  0.59163000  0.39467000  0.54823000  1.0
  O  O156  1  0.82273000  0.84440000  0.44856000  1.0
  O  O157  1  0.17725000  0.15561000  0.94856000  1.0
  O  O158  1  0.32274000  0.65561000  0.94856000  1.0
  O  O159  1  0.67728000  0.34440000  0.44856000  1.0
  O  O160  1  0.69672000  0.98207000  0.58943000  1.0
  O  O161  1  0.30325000  0.01793000  0.08943000  1.0
  O  O162  1  0.19674000  0.51793000  0.08943000  1.0
  O  O163  1  0.80327000  0.48208000  0.58943000  1.0
  O  O164  1  0.60558000  0.91228000  0.49582000  1.0
  O  O165  1  0.39440000  0.08773000  0.99582000  1.0
  O  O166  1  0.10560000  0.58772000  0.99582000  1.0
  O  O167  1  0.89441000  0.41230000  0.49582000  1.0
  O  O168  1  0.58847000  0.17956000  0.90877000  1.0
  O  O169  1  0.41153000  0.82043000  0.40876000  1.0
  O  O170  1  0.08848000  0.32044000  0.40877000  1.0
  O  O171  1  0.91152000  0.67956000  0.90877000  1.0
  O  O172  1  0.39188000  0.35147000  0.93622000  1.0
  O  O173  1  0.60811000  0.64853000  0.43621000  1.0
  O  O174  1  0.89189000  0.14853000  0.43622000  1.0
  O  O175  1  0.10812000  0.85147000  0.93622000  1.0
  O  O176  1  0.93390000  0.95747000  0.79016000  1.0
  O  O177  1  0.06610000  0.04252000  0.29016000  1.0
  O  O178  1  0.43391000  0.54253000  0.29016000  1.0
  O  O179  1  0.56609000  0.45747000  0.79016000  1.0
