# generated using pymatgen
data_UH16C16(NO3)2
_symmetry_space_group_name_H-M   'P 1'
_cell_length_a   7.41937000
_cell_length_b   9.98809000
_cell_length_c   12.15800000
_cell_angle_alpha   89.42800000
_cell_angle_beta   80.30470000
_cell_angle_gamma   74.47600000
_symmetry_Int_Tables_number   1
_chemical_formula_structural   UH16C16(NO3)2
_chemical_formula_sum   'U2 H32 C32 N4 O12'
_cell_volume   855.12065755
_cell_formula_units_Z   2
loop_
 _symmetry_equiv_pos_site_id
 _symmetry_equiv_pos_as_xyz
  1  'x, y, z'
loop_
 _atom_site_type_symbol
 _atom_site_label
 _atom_site_symmetry_multiplicity
 _atom_site_fract_x
 _atom_site_fract_y
 _atom_site_fract_z
 _atom_site_occupancy
  U  U0  1  0.61644000  0.70461000  0.75071000  1.0
  U  U1  1  0.38355000  0.29539000  0.24929000  1.0
  H  H2  1  0.93798000  0.05969000  0.81070000  1.0
  H  H3  1  0.06202000  0.94031000  0.18930000  1.0
  H  H4  1  0.08655000  0.89414000  0.82278000  1.0
  H  H5  1  0.91346000  0.10586000  0.17722000  1.0
  H  H6  1  0.88174000  0.89386000  0.02166000  1.0
  H  H7  1  0.11826000  0.10614000  0.97834000  1.0
  H  H8  1  0.78554000  0.07178000  0.00853000  1.0
  H  H9  1  0.21446000  0.92822000  0.99147000  1.0
  H  H10  1  0.08728000  0.70484000  0.00523000  1.0
  H  H11  1  0.91272000  0.29516000  0.99477000  1.0
  H  H12  1  0.23321000  0.58152000  0.07871000  1.0
  H  H13  1  0.76679000  0.41849000  0.92129000  1.0
  H  H14  1  0.07709000  0.50599000  0.87622000  1.0
  H  H15  1  0.92291000  0.49401000  0.12378000  1.0
  H  H16  1  0.19070000  0.38830000  0.96986000  1.0
  H  H17  1  0.80930000  0.61170000  0.03014000  1.0
  H  H18  1  0.58902000  0.36919000  0.75066000  1.0
  H  H19  1  0.41099000  0.63081000  0.24934000  1.0
  H  H20  1  0.71914000  0.13887000  0.64754000  1.0
  H  H21  1  0.28086000  0.86112000  0.35245000  1.0
  H  H22  1  0.87092000  0.13531000  0.44369000  1.0
  H  H23  1  0.12908000  0.86469000  0.55630000  1.0
  H  H24  1  0.88175000  0.35732000  0.35636000  1.0
  H  H25  1  0.11825000  0.64268000  0.64364000  1.0
  H  H26  1  0.80687000  0.54759000  0.28719000  1.0
  H  H27  1  0.19312000  0.45241000  0.71281000  1.0
  H  H28  1  0.80405000  0.78225000  0.21582000  1.0
  H  H29  1  0.19594000  0.21775000  0.78418000  1.0
  H  H30  1  0.72791000  0.98377000  0.35412000  1.0
  H  H31  1  0.27209000  0.01623000  0.64588000  1.0
  H  H32  1  0.67206000  0.93668000  0.55809000  1.0
  H  H33  1  0.32794000  0.06331000  0.44191000  1.0
  C  C34  1  0.80509000  0.89522000  0.81543000  1.0
  C  C35  1  0.19492000  0.10477000  0.18457000  1.0
  C  C36  1  0.94345000  0.96203000  0.85469000  1.0
  C  C37  1  0.05655000  0.03797000  0.14531000  1.0
  C  C38  1  0.91355000  0.98590000  0.98105000  1.0
  C  C39  1  0.08645000  0.01410000  0.01895000  1.0
  C  C40  1  0.35752000  0.61642000  0.91450000  1.0
  C  C41  1  0.64249000  0.38358000  0.08550000  1.0
  C  C42  1  0.19001000  0.60106000  0.99667000  1.0
  C  C43  1  0.81000000  0.39894000  0.00333000  1.0
  C  C44  1  0.09646000  0.49299000  0.96346000  1.0
  C  C45  1  0.90355000  0.50701000  0.03654000  1.0
  C  C46  1  0.65587000  0.36202000  0.66316000  1.0
  C  C47  1  0.34414000  0.63798000  0.33684000  1.0
  C  C48  1  0.72757000  0.23417000  0.60495000  1.0
  C  C49  1  0.27243000  0.76582000  0.39505000  1.0
  C  C50  1  0.80948000  0.23213000  0.49290000  1.0
  C  C51  1  0.19052000  0.76787000  0.50710000  1.0
  C  C52  1  0.81564000  0.35723000  0.44317000  1.0
  C  C53  1  0.18436000  0.64276000  0.55683000  1.0
  C  C54  1  0.74126000  0.48166000  0.50715000  1.0
  C  C55  1  0.25874000  0.51834000  0.49285000  1.0
  C  C56  1  0.74554000  0.61785000  0.46039000  1.0
  C  C57  1  0.25446000  0.38215000  0.53961000  1.0
  C  C58  1  0.78203000  0.63532000  0.34506000  1.0
  C  C59  1  0.21796000  0.36468000  0.65495000  1.0
  C  C60  1  0.77871000  0.76683000  0.30545000  1.0
  C  C61  1  0.22128000  0.23317000  0.69455000  1.0
  C  C62  1  0.73788000  0.87844000  0.38185000  1.0
  C  C63  1  0.26211000  0.12156000  0.61816000  1.0
  C  C64  1  0.70339000  0.85319000  0.49515000  1.0
  C  C65  1  0.29661000  0.14681000  0.50485000  1.0
  N  N66  1  0.66215000  0.48333000  0.61619000  1.0
  N  N67  1  0.33785000  0.51667000  0.38381000  1.0
  N  N68  1  0.70770000  0.72635000  0.53452000  1.0
  N  N69  1  0.29230000  0.27365000  0.46548000  1.0
  O  O70  1  0.40502000  0.83470000  0.72586000  1.0
  O  O71  1  0.59497000  0.16531000  0.27413000  1.0
  O  O72  1  0.83310000  0.57880000  0.77238000  1.0
  O  O73  1  0.16690000  0.42119000  0.22762000  1.0
  O  O74  1  0.81730000  0.86837000  0.71048000  1.0
  O  O75  1  0.18271000  0.13163000  0.28952000  1.0
  O  O76  1  0.68082000  0.85702000  0.88469000  1.0
  O  O77  1  0.31919000  0.14298000  0.11532000  1.0
  O  O78  1  0.46993000  0.68194000  0.94308000  1.0
  O  O79  1  0.53007000  0.31806000  0.05692000  1.0
  O  O80  1  0.38627000  0.57157000  0.81258000  1.0
  O  O81  1  0.61373000  0.42843000  0.18742000  1.0
