# generated using pymatgen
data_ZnH14C24N3O4
_symmetry_space_group_name_H-M   'P 1'
_cell_length_a   11.80200000
_cell_length_b   13.19190000
_cell_length_c   19.36660000
_cell_angle_alpha   90.15130000
_cell_angle_beta   92.93890000
_cell_angle_gamma   93.14680000
_symmetry_Int_Tables_number   1
_chemical_formula_structural   ZnH14C24N3O4
_chemical_formula_sum   'Zn2 H28 C48 N6 O8'
_cell_volume   3006.65042191
_cell_formula_units_Z   2
loop_
 _symmetry_equiv_pos_site_id
 _symmetry_equiv_pos_as_xyz
  1  'x, y, z'
loop_
 _atom_site_type_symbol
 _atom_site_label
 _atom_site_symmetry_multiplicity
 _atom_site_fract_x
 _atom_site_fract_y
 _atom_site_fract_z
 _atom_site_occupancy
  Zn  Zn0  1  0.61696000  0.49647000  0.50484000  1.0
  Zn  Zn1  1  0.38304000  0.50353000  0.49516000  1.0
  H  H2  1  0.67769000  0.52131000  0.72773000  1.0
  H  H3  1  0.64185000  0.17630000  0.51037000  1.0
  H  H4  1  0.72126000  0.82195000  0.51546000  1.0
  H  H5  1  0.27875000  0.17805000  0.48454000  1.0
  H  H6  1  0.26382000  0.98839000  0.48282000  1.0
  H  H7  1  0.73619000  0.01161000  0.51718000  1.0
  H  H8  1  0.81299000  0.58938000  0.43607000  1.0
  H  H9  1  0.18700000  0.41062000  0.56393000  1.0
  H  H10  1  0.77571000  0.37343000  0.58889000  1.0
  H  H11  1  0.22429000  0.62657000  0.41111000  1.0
  H  H12  1  0.31495000  0.64369000  0.90586000  1.0
  H  H13  1  0.32231000  0.47870000  0.27227000  1.0
  H  H14  1  0.12604000  0.64541000  0.95659000  1.0
  H  H15  1  0.97835000  0.50766000  0.92776000  1.0
  H  H16  1  0.02049000  0.36880000  0.84675000  1.0
  H  H17  1  0.21010000  0.36720000  0.79649000  1.0
  H  H18  1  0.78990000  0.63279000  0.20352000  1.0
  H  H19  1  0.97952000  0.63118000  0.15327000  1.0
  H  H20  1  0.02165000  0.49233000  0.07225000  1.0
  H  H21  1  0.87396000  0.35458000  0.04342000  1.0
  H  H22  1  0.68505000  0.35631000  0.09414000  1.0
  H  H23  1  0.01322000  0.64616000  0.39636000  1.0
  H  H24  1  0.98678000  0.35384000  0.60364000  1.0
  H  H25  1  0.67344000  0.52831000  0.85711000  1.0
  H  H26  1  0.32656000  0.47171000  0.14289000  1.0
  H  H27  1  0.31369000  0.49557000  0.71293000  1.0
  H  H28  1  0.68631000  0.50444000  0.28708000  1.0
  H  H29  1  0.35816000  0.82370000  0.48964000  1.0
  C  C30  1  0.47079000  0.30121000  0.49906000  1.0
  C  C31  1  0.44021000  0.86586000  0.49536000  1.0
  C  C32  1  0.55456000  0.02685000  0.50397000  1.0
  C  C33  1  0.44545000  0.97316000  0.49603000  1.0
  C  C34  1  0.04820000  0.59350000  0.43401000  1.0
  C  C35  1  0.95180000  0.40650000  0.56599000  1.0
  C  C36  1  0.16352000  0.58345000  0.44161000  1.0
  C  C37  1  0.83648000  0.41655000  0.55839000  1.0
  C  C38  1  0.14430000  0.46144000  0.52792000  1.0
  C  C39  1  0.85570000  0.53856000  0.47208000  1.0
  C  C40  1  0.02451000  0.46588000  0.52430000  1.0
  C  C41  1  0.52923000  0.69879000  0.50094000  1.0
  C  C42  1  0.97549000  0.53412000  0.47570000  1.0
  C  C43  1  0.49724000  0.50075000  0.63561000  1.0
  C  C44  1  0.50275000  0.49926000  0.36439000  1.0
  C  C45  1  0.59756000  0.51611000  0.75335000  1.0
  C  C46  1  0.40244000  0.48390000  0.24665000  1.0
  C  C47  1  0.59486000  0.52030000  0.82494000  1.0
  C  C48  1  0.40514000  0.47971000  0.17505000  1.0
  C  C49  1  0.49107000  0.51207000  0.85746000  1.0
  C  C50  1  0.50893000  0.48794000  0.14253000  1.0
  C  C51  1  0.38748000  0.50392000  0.81716000  1.0
  C  C52  1  0.53795000  0.81252000  0.50200000  1.0
  C  C53  1  0.61252000  0.49609000  0.18284000  1.0
  C  C54  1  0.39220000  0.49994000  0.74519000  1.0
  C  C55  1  0.60780000  0.50007000  0.25481000  1.0
  C  C56  1  0.49567000  0.50487000  0.71298000  1.0
  C  C57  1  0.50432000  0.49513000  0.28702000  1.0
  C  C58  1  0.50556000  0.49321000  0.06650000  1.0
  C  C59  1  0.49444000  0.50680000  0.93350000  1.0
  C  C60  1  0.27532000  0.50475000  0.84815000  1.0
  C  C61  1  0.25054000  0.58293000  0.89344000  1.0
  C  C62  1  0.14429000  0.58398000  0.92173000  1.0
  C  C63  1  0.46206000  0.18748000  0.49800000  1.0
  C  C64  1  0.06112000  0.50699000  0.90521000  1.0
  C  C65  1  0.08469000  0.42950000  0.85961000  1.0
  C  C66  1  0.19074000  0.42869000  0.83104000  1.0
  C  C67  1  0.72468000  0.49525000  0.15185000  1.0
  C  C68  1  0.80926000  0.57130000  0.16897000  1.0
  C  C69  1  0.91532000  0.57049000  0.14040000  1.0
  C  C70  1  0.93888000  0.49300000  0.09480000  1.0
  C  C71  1  0.85571000  0.41602000  0.07827000  1.0
  C  C72  1  0.74945000  0.41707000  0.10656000  1.0
  C  C73  1  0.34645000  0.02973000  0.48909000  1.0
  C  C74  1  0.65356000  0.97027000  0.51091000  1.0
  C  C75  1  0.35423000  0.13421000  0.49008000  1.0
  C  C76  1  0.64578000  0.86579000  0.50993000  1.0
  C  C77  1  0.55980000  0.13414000  0.50464000  1.0
  N  N78  1  0.42250000  0.43798000  0.96279000  1.0
  N  N79  1  0.57750000  0.56203000  0.03721000  1.0
  N  N80  1  0.42800000  0.43119000  0.03084000  1.0
  N  N81  1  0.57200000  0.56882000  0.96916000  1.0
  N  N82  1  0.79004000  0.48210000  0.51187000  1.0
  N  N83  1  0.20996000  0.51790000  0.48813000  1.0
  O  O84  1  0.57050000  0.34398000  0.50360000  1.0
  O  O85  1  0.42952000  0.65602000  0.49641000  1.0
  O  O86  1  0.37835000  0.34703000  0.49526000  1.0
  O  O87  1  0.62167000  0.65297000  0.50474000  1.0
  O  O88  1  0.59416000  0.49870000  0.60972000  1.0
  O  O89  1  0.40584000  0.50130000  0.39028000  1.0
  O  O90  1  0.40176000  0.50000000  0.60172000  1.0
  O  O91  1  0.59824000  0.50001000  0.39829000  1.0
