# generated using pymatgen
data_AlH27(C11O2)3
_symmetry_space_group_name_H-M   'P 1'
_cell_length_a   4.01531000
_cell_length_b   27.78510000
_cell_length_c   27.78314181
_cell_angle_alpha   60.11142142
_cell_angle_beta   89.45791172
_cell_angle_gamma   88.91060000
_symmetry_Int_Tables_number   1
_chemical_formula_structural   AlH27(C11O2)3
_chemical_formula_sum   'Al3 H81 C99 O18'
_cell_volume   2686.89711611
_cell_formula_units_Z   3
loop_
 _symmetry_equiv_pos_site_id
 _symmetry_equiv_pos_as_xyz
  1  'x, y, z'
loop_
 _atom_site_type_symbol
 _atom_site_label
 _atom_site_symmetry_multiplicity
 _atom_site_fract_x
 _atom_site_fract_y
 _atom_site_fract_z
 _atom_site_occupancy
  Al  Al0  1  0.00153000  0.00036000  0.49959000  1.0
  Al  Al1  1  0.03637000  0.33364000  0.83300000  1.0
  Al  Al2  1  0.95831000  0.66701000  0.16632000  1.0
  H  H3  1  0.49751000  0.00004000  0.92300000  1.0
  H  H4  1  0.51103000  0.91103000  0.83349000  1.0
  H  H5  1  0.47231000  0.08926000  0.74494000  1.0
  H  H6  1  0.27430000  0.07313000  0.91395000  1.0
  H  H7  1  0.76434000  0.14789000  0.75515000  1.0
  H  H8  1  0.71532000  0.92759000  0.98596000  1.0
  H  H9  1  0.23697000  0.85122000  0.90356000  1.0
  H  H10  1  0.24957000  0.92135000  0.76227000  1.0
  H  H11  1  0.73186000  0.07916000  0.68340000  1.0
  H  H12  1  0.49826000  0.42274000  0.07729000  1.0
  H  H13  1  0.46101000  0.24475000  0.16608000  1.0
  H  H14  1  0.52452000  0.33341000  0.25546000  1.0
  H  H15  1  0.73625000  0.48436000  0.08686000  1.0
  H  H16  1  0.24786000  0.40467000  0.24582000  1.0
  H  H17  1  0.25490000  0.41368000  0.01483000  1.0
  H  H18  1  0.75306000  0.25424000  0.09586000  1.0
  H  H19  1  0.74081000  0.18307000  0.23713000  1.0
  H  H20  1  0.24133000  0.26317000  0.31626000  1.0
  H  H21  1  0.49428000  0.57697000  0.50015000  1.0
  H  H22  1  0.53596000  0.75483000  0.41072000  1.0
  H  H23  1  0.48455000  0.66697000  0.58873000  1.0
  H  H24  1  0.26999000  0.51523000  0.57183000  1.0
  H  H25  1  0.74931000  0.59577000  0.65001000  1.0
  H  H26  1  0.73151000  0.58574000  0.42740000  1.0
  H  H27  1  0.23339000  0.74517000  0.35171000  1.0
  H  H28  1  0.26991000  0.81720000  0.42039000  1.0
  H  H29  1  0.76133000  0.73715000  0.57870000  1.0
  H  H30  1  0.69176000  0.25949000  0.70014000  1.0
  H  H31  1  0.80594000  0.28893000  0.74147000  1.0
  H  H32  1  0.08154000  0.24229000  0.73471000  1.0
  H  H33  1  0.32936000  0.12167000  0.96847000  1.0
  H  H34  1  0.36821000  0.19511000  0.93358000  1.0
  H  H35  1  0.99815000  0.16562000  0.92709000  1.0
  H  H36  1  0.65475000  0.87911000  0.08934000  1.0
  H  H37  1  0.62800000  0.80548000  0.12768000  1.0
  H  H38  1  0.99420000  0.83678000  0.09038000  1.0
  H  H39  1  0.31272000  0.74077000  0.95891000  1.0
  H  H40  1  0.21102000  0.71008000  0.03050000  1.0
  H  H41  1  0.92360000  0.75565000  0.97973000  1.0
  H  H42  1  0.98370000  0.91352000  0.65486000  1.0
  H  H43  1  0.38866000  0.88728000  0.65793000  1.0
  H  H44  1  0.17760000  0.87182000  0.72068000  1.0
  H  H45  1  0.00660000  0.08703000  0.56809000  1.0
  H  H46  1  0.60339000  0.11351000  0.54510000  1.0
  H  H47  1  0.80902000  0.12882000  0.59243000  1.0
  H  H48  1  0.31412000  0.45906000  0.30088000  1.0
  H  H49  1  0.23152000  0.53164000  0.26059000  1.0
  H  H50  1  0.93311000  0.48405000  0.26424000  1.0
  H  H51  1  0.68757000  0.58800000  0.03224000  1.0
  H  H52  1  0.65506000  0.62666000  0.06741000  1.0
  H  H53  1  0.02182000  0.58798000  0.07358000  1.0
  H  H54  1  0.29671000  0.46819000  0.91176000  1.0
  H  H55  1  0.34335000  0.43358000  0.87272000  1.0
  H  H56  1  0.97226000  0.42659000  0.91001000  1.0
  H  H57  1  0.69470000  0.19941000  0.04080000  1.0
  H  H58  1  0.78054000  0.23989000  0.96861000  1.0
  H  H59  1  0.07436000  0.23556000  0.01758000  1.0
  H  H60  1  0.01902000  0.06791000  0.34418000  1.0
  H  H61  1  0.61916000  0.04482000  0.34178000  1.0
  H  H62  1  0.82366000  0.09168000  0.27866000  1.0
  H  H63  1  0.96992000  0.15619000  0.43130000  1.0
  H  H64  1  0.37059000  0.15866000  0.45458000  1.0
  H  H65  1  0.15944000  0.22172000  0.40740000  1.0
  H  H66  1  0.67708000  0.54193000  0.75915000  1.0
  H  H67  1  0.75937000  0.46931000  0.79158000  1.0
  H  H68  1  0.06043000  0.51667000  0.74746000  1.0
  H  H69  1  0.33056000  0.41106000  0.62113000  1.0
  H  H70  1  0.34647000  0.37322000  0.69493000  1.0
  H  H71  1  0.98535000  0.41226000  0.66087000  1.0
  H  H72  1  0.69069000  0.53157000  0.37877000  1.0
  H  H73  1  0.63653000  0.56602000  0.30547000  1.0
  H  H74  1  0.01042000  0.57361000  0.33365000  1.0
  H  H75  1  0.29466000  0.80019000  0.24097000  1.0
  H  H76  1  0.19378000  0.75938000  0.21035000  1.0
  H  H77  1  0.91094000  0.76499000  0.25647000  1.0
  H  H78  1  0.99472000  0.93284000  0.41221000  1.0
  H  H79  1  0.39625000  0.95545000  0.38631000  1.0
  H  H80  1  0.19236000  0.90849000  0.37051000  1.0
  H  H81  1  0.03082000  0.84434000  0.58649000  1.0
  H  H82  1  0.62808000  0.84185000  0.61260000  1.0
  H  H83  1  0.84074000  0.77879000  0.62814000  1.0
  C  C84  1  0.51108000  0.92596000  0.49948000  1.0
  C  C85  1  0.49663000  0.00035000  0.57408000  1.0
  C  C86  1  0.49653000  0.07468000  0.42529000  1.0
  C  C87  1  0.54423000  0.25937000  0.83306000  1.0
  C  C88  1  0.53055000  0.33343000  0.90733000  1.0
  C  C89  1  0.53058000  0.40780000  0.75913000  1.0
  C  C90  1  0.45442000  0.74105000  0.09226000  1.0
  C  C91  1  0.46856000  0.59266000  0.16661000  1.0
  C  C92  1  0.45527000  0.66691000  0.24062000  1.0
  C  C93  1  0.48954000  0.94921000  0.88460000  1.0
  C  C94  1  0.49535000  1.00000000  0.88383000  1.0
  C  C95  1  0.49941000  0.05083000  0.83400000  1.0
  C  C96  1  0.48928000  0.05011000  0.78395000  1.0
  C  C97  1  0.49080000  0.00013000  0.78299000  1.0
  C  C98  1  0.49466000  0.95009000  0.83371000  1.0
  C  C99  1  0.40679000  0.15818000  0.88042000  1.0
  C  C100  1  0.39219000  0.10864000  0.87919000  1.0
  C  C101  1  0.51352000  0.10392000  0.83419000  1.0
  C  C102  1  0.65382000  0.15099000  0.78955000  1.0
  C  C103  1  0.66646000  0.20184000  0.78825000  1.0
  C  C104  1  0.54101000  0.20498000  0.83407000  1.0
  C  C105  1  0.60057000  0.89180000  0.98703000  1.0
  C  C106  1  0.58796000  0.84237000  0.03782000  1.0
  C  C107  1  0.45785000  0.79518000  0.03876000  1.0
  C  C108  1  0.33554000  0.79781000  0.99019000  1.0
  C  C109  1  0.34556000  0.84858000  0.94067000  1.0
  C  C110  1  0.48051000  0.89610000  0.93778000  1.0
  C  C111  1  0.36103000  0.95591000  0.72574000  1.0
  C  C112  1  0.35868000  0.95487000  0.67604000  1.0
  C  C113  1  0.49367000  0.00038000  0.62769000  1.0
  C  C114  1  0.62678000  0.04587000  0.63057000  1.0
  C  C115  1  0.62096000  0.04469000  0.68137000  1.0
  C  C116  1  0.49028000  0.00027000  0.72972000  1.0
  C  C117  1  0.49282000  0.33368000  0.11542000  1.0
  C  C118  1  0.49634000  0.38359000  0.11641000  1.0
  C  C119  1  0.49799000  0.38447000  0.16640000  1.0
  C  C120  1  0.50279000  0.33364000  0.21629000  1.0
  C  C121  1  0.49191000  0.28292000  0.21695000  1.0
  C  C122  1  0.48352000  0.28373000  0.16613000  1.0
  C  C123  1  0.61098000  0.53706000  0.12032000  1.0
  C  C124  1  0.62066000  0.48617000  0.12163000  1.0
  C  C125  1  0.49524000  0.43763000  0.16656000  1.0
  C  C126  1  0.35986000  0.44123000  0.21137000  1.0
  C  C127  1  0.35172000  0.49089000  0.21259000  1.0
  C  C128  1  0.47761000  0.53879000  0.16653000  1.0
  C  C129  1  0.37340000  0.37880000  0.01331000  1.0
  C  C130  1  0.38512000  0.38011000  0.96243000  1.0
  C  C131  1  0.52243000  0.33376000  0.96107000  1.0
  C  C132  1  0.65105000  0.28764000  0.00929000  1.0
  C  C133  1  0.64006000  0.28881000  0.05897000  1.0
  C  C134  1  0.49963000  0.33367000  0.06220000  1.0
  C  C135  1  0.62642000  0.18124000  0.27376000  1.0
  C  C136  1  0.63248000  0.13057000  0.32336000  1.0
  C  C137  1  0.49342000  0.12813000  0.37171000  1.0
  C  C138  1  0.35264000  0.17672000  0.36895000  1.0
  C  C139  1  0.35617000  0.22631000  0.31829000  1.0
  C  C140  1  0.49090000  0.22981000  0.27000000  1.0
  C  C141  1  0.50091000  0.66596000  0.44923000  1.0
  C  C142  1  0.49944000  0.61617000  0.50011000  1.0
  C  C143  1  0.50303000  0.61553000  0.55088000  1.0
  C  C144  1  0.50214000  0.66650000  0.54982000  1.0
  C  C145  1  0.51159000  0.71710000  0.49976000  1.0
  C  C146  1  0.51455000  0.71602000  0.44985000  1.0
  C  C147  1  0.39314000  0.46292000  0.65758000  1.0
  C  C148  1  0.38351000  0.51372000  0.60808000  1.0
  C  C149  1  0.50661000  0.56245000  0.60416000  1.0
  C  C150  1  0.63928000  0.55912000  0.65223000  1.0
  C  C151  1  0.64651000  0.50958000  0.70306000  1.0
  C  C152  1  0.52332000  0.46148000  0.70519000  1.0
  C  C153  1  0.61215000  0.62065000  0.39161000  1.0
  C  C154  1  0.59822000  0.61954000  0.34198000  1.0
  C  C155  1  0.46045000  0.66601000  0.29496000  1.0
  C  C156  1  0.33223000  0.71196000  0.29788000  1.0
  C  C157  1  0.34569000  0.71063000  0.34877000  1.0
  C  C158  1  0.48811000  0.66575000  0.39612000  1.0
  C  C159  1  0.38306000  0.81904000  0.45495000  1.0
  C  C160  1  0.37853000  0.86985000  0.45374000  1.0
  C  C161  1  0.51486000  0.87238000  0.49939000  1.0
  C  C162  1  0.65240000  0.82372000  0.54503000  1.0
  C  C163  1  0.64846000  0.77401000  0.54401000  1.0
  C  C164  1  0.51530000  0.77038000  0.49955000  1.0
  C  C165  1  0.81771000  0.25099000  0.73866000  1.0
  C  C166  1  0.27042000  0.16045000  0.92999000  1.0
  C  C167  1  0.72124000  0.84062000  0.08921000  1.0
  C  C168  1  0.18970000  0.74822000  0.99020000  1.0
  C  C169  1  0.22000000  0.90414000  0.67745000  1.0
  C  C170  1  0.76863000  0.09655000  0.58140000  1.0
  C  C171  1  0.20164000  0.49181000  0.26208000  1.0
  C  C172  1  0.74922000  0.58778000  0.07079000  1.0
  C  C173  1  0.24391000  0.42973000  0.91137000  1.0
  C  C174  1  0.80658000  0.23814000  0.00867000  1.0
  C  C175  1  0.78105000  0.08108000  0.32192000  1.0
  C  C176  1  0.20574000  0.17841000  0.41821000  1.0
  C  C177  1  0.79165000  0.50899000  0.75320000  1.0
  C  C178  1  0.25868000  0.41198000  0.65893000  1.0
  C  C179  1  0.73936000  0.57007000  0.33970000  1.0
  C  C180  1  0.17650000  0.76163000  0.24854000  1.0
  C  C181  1  0.23322000  0.91933000  0.40295000  1.0
  C  C182  1  0.79539000  0.82208000  0.59581000  1.0
  O  O183  1  0.26018000  0.06584000  0.45974000  1.0
  O  O184  1  0.27392000  0.96062000  0.47397000  1.0
  O  O185  1  0.26541000  0.97480000  0.56510000  1.0
  O  O186  1  0.73569000  0.04019000  0.43426000  1.0
  O  O187  1  0.73053000  0.02586000  0.53957000  1.0
  O  O188  1  0.74425000  0.93476000  0.52502000  1.0
  O  O189  1  0.29521000  0.39919000  0.79351000  1.0
  O  O190  1  0.30893000  0.29402000  0.80702000  1.0
  O  O191  1  0.30042000  0.30768000  0.89863000  1.0
  O  O192  1  0.77108000  0.37387000  0.76750000  1.0
  O  O193  1  0.76616000  0.35890000  0.87345000  1.0
  O  O194  1  0.77976000  0.26786000  0.85827000  1.0
  O  O195  1  0.22143000  0.64169000  0.23203000  1.0
  O  O196  1  0.21602000  0.73264000  0.12608000  1.0
  O  O197  1  0.22995000  0.62671000  0.14097000  1.0
  O  O198  1  0.68704000  0.69293000  0.20606000  1.0
  O  O199  1  0.70065000  0.60135000  0.19223000  1.0
  O  O200  1  0.69192000  0.70656000  0.10084000  1.0
